REMARK SMILES Cc1ccc(F)c(C(=O)Nc2cccc(C(=O)NCCCNC(=O)c3ccc(-c4c5nc(c(-c6ccc(S(=O)(=O)[O-])cc6)c6ccc([nH]6)c(-c6ccc(S(=O)(=O)[O-])cc6)c6nc(c(-c7ccc(S(=O)(=O)[O-])cc7)c7ccc4[nH]7)C=C6)C=C5)cc3)c2)c1
REMARK SMILES IDX 20 1 19 2 18 3 16 4 17 5 15 7 11 8 12 9 85 10 13 11 14 12
REMARK SMILES IDX 10 13 8 14 9 15 7 17 1 18 2 19 3 20 86 21 4 22 5 23 6 24
REMARK SMILES IDX 21 25 22 26 23 27 24 29 25 30 26 31 84 32 27 33 83 34 28 35
REMARK SMILES IDX 29 36 30 37 77 38 31 39 82 40 76 41 78 42 32 43 81 44 75 45
REMARK SMILES IDX 74 46 33 48 63 49 44 50 62 51 45 52 48 53 61 54 79 55 46 56
REMARK SMILES IDX 47 57 60 59 80 60 49 61 34 62 35 63 43 64 36 65 42 66 37 67
REMARK SMILES IDX 38 68 39 69 40 70 41 71 64 72 65 73 73 74 66 75 72 76 67 77
REMARK SMILES IDX 68 78 69 79 70 80 71 81 50 82 51 83 59 84 52 85 58 86 53 87
REMARK SMILES IDX 54 88 55 89 56 90 57 91
REMARK H PARENT 18 6 10 16 22 28 78 47 48 58
REMARK Flexibility Score: inf
ROOT
ATOM      1  C   UNL     1       0.876  -1.231   3.806  1.00  0.00     0.042 C 
ENDROOT
BRANCH   1   2
ATOM      2  C   UNL     1       1.884  -0.867   2.725  1.00  0.00     0.118 C 
BRANCH   2   3
ATOM      3  N   UNL     1       3.110  -1.626   2.850  1.00  0.00    -0.352 N 
ATOM      4  C   UNL     1       3.574  -2.750   2.219  1.00  0.00     0.251 C 
ATOM      5  O   UNL     1       4.718  -3.113   2.501  1.00  0.00    -0.269 OA
ATOM      6  H   UNL     1       3.733  -1.263   3.520  1.00  0.00     0.163 HD
BRANCH   4   7
ATOM      7  C   UNL     1       2.816  -3.510   1.179  1.00  0.00     0.041 A 
ATOM      8  C   UNL     1       0.847  -4.082  -0.122  1.00  0.00     0.042 A 
ATOM      9  C   UNL     1       1.598  -4.953  -0.910  1.00  0.00     0.026 A 
ATOM     10  C   UNL     1       1.433  -3.452   0.980  1.00  0.00     0.040 A 
ATOM     11  C   UNL     1       2.967  -5.069  -0.692  1.00  0.00     0.003 A 
ATOM     12  C   UNL     1       3.574  -4.329   0.325  1.00  0.00     0.014 A 
BRANCH   8  13
ATOM     13  N   UNL     1      -0.468  -3.815  -0.528  1.00  0.00    -0.322 N 
ATOM     14  C   UNL     1      -1.169  -2.621  -0.590  1.00  0.00     0.258 C 
ATOM     15  O   UNL     1      -2.364  -2.675  -0.879  1.00  0.00    -0.269 OA
ATOM     16  H   UNL     1      -0.977  -4.606  -0.816  1.00  0.00     0.170 HD
BRANCH  14  17
ATOM     17  C   UNL     1      -0.511  -1.287  -0.466  1.00  0.00     0.076 A 
ATOM     18  C   UNL     1       2.924   0.340  -0.801  1.00  0.00     0.044 C 
ATOM     19  C   UNL     1       1.441   0.183  -0.621  1.00  0.00    -0.050 A 
ATOM     20  C   UNL     1       0.674   1.250  -0.144  1.00  0.00     0.006 A 
ATOM     21  C   UNL     1       0.819  -1.056  -0.858  1.00  0.00     0.020 A 
ATOM     22  C   UNL     1      -0.675   1.060   0.151  1.00  0.00     0.040 A 
ATOM     23  C   UNL     1      -1.253  -0.203   0.011  1.00  0.00     0.135 A 
ATOM     24  F   UNL     1      -2.536  -0.342   0.372  1.00  0.00    -0.206 F 
ENDBRANCH  14  17
ENDBRANCH   8  13
ENDBRANCH   4   7
ENDBRANCH   2   3
ENDBRANCH   1   2
BRANCH   1  25
ATOM     25  C   UNL     1       1.135  -0.484   5.104  1.00  0.00     0.118 C 
BRANCH  25  26
ATOM     26  N   UNL     1       0.854   0.940   4.969  1.00  0.00    -0.352 N 
ATOM     27  C   UNL     1       0.068   1.758   5.739  1.00  0.00     0.251 C 
ATOM     28  H   UNL     1       1.296   1.382   4.209  1.00  0.00     0.163 HD
ATOM     29  O   UNL     1      -0.205   2.882   5.330  1.00  0.00    -0.269 OA
BRANCH  27  30
ATOM     30  C   UNL     1      -0.452   1.288   7.041  1.00  0.00     0.039 A 
ATOM     31  C   UNL     1      -1.736   1.677   7.432  1.00  0.00     0.014 A 
ATOM     32  C   UNL     1       0.330   0.504   7.894  1.00  0.00     0.014 A 
ATOM     33  C   UNL     1      -2.243   1.256   8.662  1.00  0.00     0.010 A 
ATOM     34  C   UNL     1      -0.210   0.009   9.075  1.00  0.00     0.010 A 
ATOM     35  C   UNL     1      -1.490   0.404   9.486  1.00  0.00    -0.014 A 
BRANCH  35  36
ATOM     36  C   UNL     1      -2.006  -0.045  10.802  1.00  0.00     0.031 A 
ATOM     37  C   UNL     1      -1.294   0.359  12.066  1.00  0.00     0.074 A 
ATOM     38  C   UNL     1      -3.082  -0.854  10.855  1.00  0.00     0.049 A 
ATOM     39  N   UNL     1      -1.573   0.048  13.305  1.00  0.00    -0.248 NA
ATOM     40  C   UNL     1      -0.091   1.196  11.916  1.00  0.00     0.031 C 
ATOM     41  C   UNL     1      -3.820  -1.360   9.696  1.00  0.00     0.029 A 
ATOM     42  N   UNL     1      -3.740  -1.394  11.930  1.00  0.00    -0.354 N 
ATOM     43  C   UNL     1      -0.569   0.625  14.075  1.00  0.00     0.074 A 
ATOM     44  C   UNL     1       0.354   1.259  13.162  1.00  0.00     0.031 C 
ATOM     45  C   UNL     1      -4.848  -2.111  10.123  1.00  0.00     0.029 A 
ATOM     46  C   UNL     1      -4.823  -2.165  11.582  1.00  0.00     0.049 A 
ATOM     47  H   UNL     1      -3.463  -1.244  12.863  1.00  0.00     0.167 HD
ATOM     48  C   UNL     1      -0.439   0.646  15.423  1.00  0.00     0.031 A 
ATOM     49  C   UNL     1      -5.701  -2.837  12.351  1.00  0.00     0.031 A 
ATOM     50  C   UNL     1      -1.377   0.037  16.327  1.00  0.00     0.049 A 
ATOM     51  C   UNL     1      -5.563  -2.764  13.846  1.00  0.00     0.074 A 
ATOM     52  C   UNL     1      -1.380   0.061  17.710  1.00  0.00     0.029 A 
ATOM     53  N   UNL     1      -2.483  -0.703  15.935  1.00  0.00    -0.354 N 
ATOM     54  N   UNL     1      -4.649  -2.149  14.560  1.00  0.00    -0.248 NA
ATOM     55  C   UNL     1      -6.585  -3.458  14.640  1.00  0.00     0.031 C 
ATOM     56  C   UNL     1      -2.465  -0.704  18.156  1.00  0.00     0.029 A 
ATOM     57  C   UNL     1      -3.167  -1.157  17.050  1.00  0.00     0.049 A 
ATOM     58  H   UNL     1      -2.742  -0.880  15.002  1.00  0.00     0.167 HD
ATOM     59  C   UNL     1      -5.001  -2.361  15.888  1.00  0.00     0.074 A 
ATOM     60  C   UNL     1      -6.219  -3.147  15.876  1.00  0.00     0.031 C 
ATOM     61  C   UNL     1      -4.374  -1.943  17.016  1.00  0.00     0.031 A 
BRANCH  48  62
ATOM     62  C   UNL     1       0.766   1.348  15.994  1.00  0.00    -0.014 A 
ATOM     63  C   UNL     1       0.903   2.747  15.911  1.00  0.00     0.010 A 
ATOM     64  C   UNL     1       1.771   0.602  16.636  1.00  0.00     0.010 A 
ATOM     65  C   UNL     1       2.045   3.378  16.412  1.00  0.00     0.020 A 
ATOM     66  C   UNL     1       2.901   1.233  17.165  1.00  0.00     0.020 A 
ATOM     67  C   UNL     1       3.040   2.616  17.030  1.00  0.00     0.054 A 
BRANCH  67  68
ATOM     68  S   UNL     1       4.509   3.461  17.677  1.00  0.00     0.124 S 
ATOM     69  O   UNL     1       5.241   3.772  16.451  1.00  0.00    -0.237 OA
ATOM     70  O   UNL     1       3.937   4.611  18.374  1.00  0.00    -0.237 OA
ATOM     71  O   UNL     1       5.133   2.461  18.539  1.00  0.00    -0.744 OA
ENDBRANCH  67  68
ENDBRANCH  48  62
BRANCH  49  72
ATOM     72  C   UNL     1      -6.805  -3.603  11.713  1.00  0.00    -0.014 A 
ATOM     73  C   UNL     1      -8.128  -3.131  11.774  1.00  0.00     0.010 A 
ATOM     74  C   UNL     1      -6.534  -4.791  11.010  1.00  0.00     0.010 A 
ATOM     75  C   UNL     1      -9.162  -3.841  11.155  1.00  0.00     0.020 A 
ATOM     76  C   UNL     1      -7.561  -5.489  10.368  1.00  0.00     0.020 A 
ATOM     77  C   UNL     1      -8.871  -5.014  10.453  1.00  0.00     0.054 A 
BRANCH  77  78
ATOM     78  S   UNL     1     -10.219  -5.884   9.605  1.00  0.00     0.124 S 
ATOM     79  O   UNL     1     -10.924  -6.510  10.718  1.00  0.00    -0.237 OA
ATOM     80  O   UNL     1     -10.928  -4.795   8.938  1.00  0.00    -0.237 OA
ATOM     81  O   UNL     1      -9.520  -6.803   8.708  1.00  0.00    -0.744 OA
ENDBRANCH  77  78
ENDBRANCH  49  72
BRANCH  61  82
ATOM     82  C   UNL     1      -5.013  -2.301  18.330  1.00  0.00    -0.014 A 
ATOM     83  C   UNL     1      -4.986  -3.619  18.819  1.00  0.00     0.010 A 
ATOM     84  C   UNL     1      -5.611  -1.292  19.107  1.00  0.00     0.010 A 
ATOM     85  C   UNL     1      -5.582  -3.929  20.044  1.00  0.00     0.020 A 
ATOM     86  C   UNL     1      -6.184  -1.593  20.344  1.00  0.00     0.020 A 
ATOM     87  C   UNL     1      -6.180  -2.913  20.797  1.00  0.00     0.054 A 
BRANCH  87  88
ATOM     88  S   UNL     1      -6.922  -3.334  22.398  1.00  0.00     0.124 S 
ATOM     89  O   UNL     1      -8.162  -3.991  21.993  1.00  0.00    -0.237 OA
ATOM     90  O   UNL     1      -5.916  -4.205  23.000  1.00  0.00    -0.237 OA
ATOM     91  O   UNL     1      -7.088  -2.038  23.053  1.00  0.00    -0.744 OA
ENDBRANCH  87  88
ENDBRANCH  61  82
ENDBRANCH  35  36
ENDBRANCH  27  30
ENDBRANCH  25  26
ENDBRANCH   1  25
TORSDOF 15
