REMARK SMILES C[N@H+]1[C@H](C(=O)NCCCNC(=O)c2ccc(-c3c4nc(c(-c5ccc(S(=O)(=O)[O-])cc5)c5ccc([nH]5)c(-c5ccc(S(=O)(=O)[O-])cc5)c5nc(c(-c6ccc(S(=O)(=O)[O-])cc6)c6ccc3[nH]6)C=C5)C=C4)cc2)C[C@H](C(=O)NCC2(CO)CCCC2)[C@@H]1c1ccccc1F
REMARK SMILES IDX 7 1 6 2 4 3 5 4 3 6 1 7 2 8 86 9 73 11 74 12 87 13 88 14
REMARK SMILES IDX 92 15 89 16 91 17 93 18 90 19 75 20 76 21 77 22 78 24 79 25
REMARK SMILES IDX 82 26 85 27 83 28 84 29 80 30 81 31 8 33 9 34 10 35 11 36
REMARK SMILES IDX 12 38 13 39 14 40 72 41 15 42 71 43 16 44 17 45 18 46 65 47
REMARK SMILES IDX 19 48 70 49 64 50 66 51 20 52 69 53 63 54 62 55 21 57 51 58
REMARK SMILES IDX 32 59 50 60 33 61 36 62 49 63 67 64 34 65 35 66 48 68 68 69
REMARK SMILES IDX 37 70 22 71 23 72 31 73 24 74 30 75 25 76 26 77 27 78 28 79
REMARK SMILES IDX 29 80 52 81 53 82 61 83 54 84 60 85 55 86 56 87 57 88 58 89
REMARK SMILES IDX 59 90 38 91 39 92 47 93 40 94 46 95 41 96 42 97 43 98 44 99
REMARK SMILES IDX 45 100
REMARK H PARENT 6 5 2 10 77 23 81 32 10 37 66 56 36 67
REMARK Flexibility Score: inf
ROOT
ATOM      1  C   UNL     1       0.278   1.599  -2.751  1.00  0.00     0.118 C 
ENDROOT
BRANCH   1   2
ATOM      2  N   UNL     1      -0.248   2.569  -1.815  1.00  0.00    -0.351 N 
ATOM      3  C   UNL     1      -0.466   2.430  -0.475  1.00  0.00     0.278 C 
ATOM      4  O   UNL     1      -0.911   3.407   0.138  1.00  0.00    -0.268 OA
ATOM      5  H   UNL     1      -0.481   3.447  -2.196  1.00  0.00     0.163 HD
BRANCH   3   6
ATOM      6  C   UNL     1      -0.115   1.134   0.283  1.00  0.00     0.275 C 
ATOM      7  C   UNL     1      -2.196  -0.093   0.322  1.00  0.00     0.333 C 
ATOM      8  N   UNL     1      -0.843  -0.044  -0.232  1.00  0.00    -0.320 N 
ATOM      9  C   UNL     1      -0.007  -1.214   0.114  1.00  0.00     0.231 C 
ATOM     10  H   UNL     1      -0.982  -0.015  -1.242  1.00  0.00     0.349 HD
ATOM     11  C   UNL     1       1.365   0.773   0.224  1.00  0.00     0.095 C 
ATOM     12  C   UNL     1       1.444  -0.722  -0.142  1.00  0.00     0.148 C 
BRANCH   9  13
ATOM     13  C   UNL     1      -0.333  -2.559  -0.503  1.00  0.00     0.046 A 
ATOM     14  C   UNL     1       0.345  -3.694  -0.011  1.00  0.00     0.013 A 
ATOM     15  C   UNL     1      -1.182  -2.741  -1.604  1.00  0.00     0.132 A 
ATOM     16  C   UNL     1       0.202  -4.944  -0.619  1.00  0.00     0.001 A 
ATOM     17  C   UNL     1      -1.340  -3.991  -2.202  1.00  0.00     0.040 A 
ATOM     18  F   UNL     1      -1.850  -1.713  -2.145  1.00  0.00    -0.206 F 
ATOM     19  C   UNL     1      -0.638  -5.092  -1.719  1.00  0.00     0.003 A 
ENDBRANCH   9  13
BRANCH  12  20
ATOM     20  C   UNL     1       2.023  -0.969  -1.553  1.00  0.00     0.229 C 
ATOM     21  O   UNL     1       1.480  -1.647  -2.422  1.00  0.00    -0.275 OA
ATOM     22  N   UNL     1       3.230  -0.436  -1.894  1.00  0.00    -0.355 N 
ATOM     23  H   UNL     1       3.492  -0.574  -2.833  1.00  0.00     0.163 HD
BRANCH  22  24
ATOM     24  C   UNL     1       4.188   0.297  -1.100  1.00  0.00     0.125 C 
BRANCH  24  25
ATOM     25  C   UNL     1       5.591  -0.328  -1.141  1.00  0.00     0.011 C 
ATOM     26  C   UNL     1       6.383   0.104   0.104  1.00  0.00     0.011 C 
ATOM     27  C   UNL     1       5.553  -1.857  -0.963  1.00  0.00     0.011 C 
ATOM     28  C   UNL     1       7.452  -0.963   0.288  1.00  0.00     0.001 C 
ATOM     29  C   UNL     1       6.908  -2.228  -0.372  1.00  0.00     0.001 C 
BRANCH  25  30
ATOM     30  C   UNL     1       6.330   0.085  -2.432  1.00  0.00     0.164 C 
BRANCH  30  31
ATOM     31  O   UNL     1       5.604  -0.295  -3.594  1.00  0.00    -0.396 OA
ATOM     32  H   UNL     1       5.502  -1.260  -3.610  1.00  0.00     0.210 HD
ENDBRANCH  30  31
ENDBRANCH  25  30
ENDBRANCH  24  25
ENDBRANCH  22  24
ENDBRANCH  12  20
ENDBRANCH   3   6
ENDBRANCH   1   2
BRANCH   1  33
ATOM     33  C   UNL     1      -0.718   1.142  -3.794  1.00  0.00     0.042 C 
BRANCH  33  34
ATOM     34  C   UNL     1      -1.087   2.230  -4.783  1.00  0.00     0.118 C 
BRANCH  34  35
ATOM     35  N   UNL     1       0.049   2.686  -5.579  1.00  0.00    -0.352 N 
ATOM     36  C   UNL     1       0.231   2.671  -6.940  1.00  0.00     0.251 C 
ATOM     37  H   UNL     1       0.798   3.061  -5.062  1.00  0.00     0.163 HD
ATOM     38  O   UNL     1       1.329   2.954  -7.415  1.00  0.00    -0.269 OA
BRANCH  36  39
ATOM     39  C   UNL     1      -0.888   2.292  -7.827  1.00  0.00     0.039 A 
ATOM     40  C   UNL     1      -0.645   1.434  -8.903  1.00  0.00     0.014 A 
ATOM     41  C   UNL     1      -2.179   2.767  -7.586  1.00  0.00     0.014 A 
ATOM     42  C   UNL     1      -1.713   0.991  -9.686  1.00  0.00     0.010 A 
ATOM     43  C   UNL     1      -3.250   2.245  -8.299  1.00  0.00     0.010 A 
ATOM     44  C   UNL     1      -3.029   1.357  -9.362  1.00  0.00    -0.014 A 
BRANCH  44  45
ATOM     45  C   UNL     1      -4.195   0.843 -10.123  1.00  0.00     0.031 A 
ATOM     46  C   UNL     1      -5.098   1.807 -10.846  1.00  0.00     0.074 A 
ATOM     47  C   UNL     1      -4.484  -0.473 -10.104  1.00  0.00     0.049 A 
ATOM     48  N   UNL     1      -6.221   1.573 -11.475  1.00  0.00    -0.248 NA
ATOM     49  C   UNL     1      -4.702   3.226 -10.835  1.00  0.00     0.031 C 
ATOM     50  C   UNL     1      -3.708  -1.504  -9.409  1.00  0.00     0.029 A 
ATOM     51  N   UNL     1      -5.518  -1.170 -10.677  1.00  0.00    -0.354 N 
ATOM     52  C   UNL     1      -6.669   2.811 -11.920  1.00  0.00     0.074 A 
ATOM     53  C   UNL     1      -5.732   3.801 -11.438  1.00  0.00     0.031 C 
ATOM     54  C   UNL     1      -4.278  -2.702  -9.619  1.00  0.00     0.029 A 
ATOM     55  C   UNL     1      -5.485  -2.521 -10.419  1.00  0.00     0.049 A 
ATOM     56  H   UNL     1      -6.218  -0.743 -11.221  1.00  0.00     0.167 HD
ATOM     57  C   UNL     1      -7.749   3.099 -12.685  1.00  0.00     0.031 A 
ATOM     58  C   UNL     1      -6.338  -3.502 -10.775  1.00  0.00     0.031 A 
ATOM     59  C   UNL     1      -8.674   2.111 -13.171  1.00  0.00     0.049 A 
ATOM     60  C   UNL     1      -7.548  -3.153 -11.600  1.00  0.00     0.074 A 
ATOM     61  C   UNL     1      -9.781   2.294 -13.981  1.00  0.00     0.029 A 
ATOM     62  N   UNL     1      -8.596   0.753 -12.898  1.00  0.00    -0.354 N 
ATOM     63  N   UNL     1      -7.928  -1.981 -12.053  1.00  0.00    -0.248 NA
ATOM     64  C   UNL     1      -8.439  -4.261 -11.972  1.00  0.00     0.031 C 
ATOM     65  C   UNL     1     -10.399   1.053 -14.160  1.00  0.00     0.029 A 
ATOM     66  C   UNL     1      -9.644   0.088 -13.512  1.00  0.00     0.049 A 
ATOM     67  H   UNL     1      -7.900   0.326 -12.349  1.00  0.00     0.167 HD
ATOM     68  C   UNL     1      -9.083  -2.217 -12.791  1.00  0.00     0.074 A 
ATOM     69  C   UNL     1      -9.332  -3.643 -12.734  1.00  0.00     0.031 C 
ATOM     70  C   UNL     1      -9.867  -1.334 -13.456  1.00  0.00     0.031 A 
BRANCH  57  71
ATOM     71  C   UNL     1      -7.979   4.542 -13.049  1.00  0.00    -0.014 A 
ATOM     72  C   UNL     1      -7.113   5.209 -13.937  1.00  0.00     0.010 A 
ATOM     73  C   UNL     1      -9.090   5.231 -12.532  1.00  0.00     0.010 A 
ATOM     74  C   UNL     1      -7.332   6.548 -14.268  1.00  0.00     0.020 A 
ATOM     75  C   UNL     1      -9.330   6.562 -12.886  1.00  0.00     0.020 A 
ATOM     76  C   UNL     1      -8.439   7.217 -13.739  1.00  0.00     0.054 A 
BRANCH  76  77
ATOM     77  S   UNL     1      -8.712   8.947 -14.211  1.00  0.00     0.124 S 
ATOM     78  O   UNL     1      -7.649   9.630 -13.478  1.00  0.00    -0.237 OA
ATOM     79  O   UNL     1      -8.551   8.912 -15.662  1.00  0.00    -0.237 OA
ATOM     80  O   UNL     1     -10.068   9.225 -13.743  1.00  0.00    -0.744 OA
ENDBRANCH  76  77
ENDBRANCH  57  71
BRANCH  58  81
ATOM     81  C   UNL     1      -6.081  -4.909 -10.359  1.00  0.00    -0.014 A 
ATOM     82  C   UNL     1      -5.738  -5.884 -11.313  1.00  0.00     0.010 A 
ATOM     83  C   UNL     1      -6.191  -5.286  -9.008  1.00  0.00     0.010 A 
ATOM     84  C   UNL     1      -5.544  -7.214 -10.930  1.00  0.00     0.020 A 
ATOM     85  C   UNL     1      -5.967  -6.609  -8.616  1.00  0.00     0.020 A 
ATOM     86  C   UNL     1      -5.662  -7.569  -9.583  1.00  0.00     0.054 A 
BRANCH  86  87
ATOM     87  S   UNL     1      -5.386  -9.298  -9.106  1.00  0.00     0.124 S 
ATOM     88  O   UNL     1      -6.599  -9.945  -9.595  1.00  0.00    -0.237 OA
ATOM     89  O   UNL     1      -4.157  -9.632  -9.822  1.00  0.00    -0.237 OA
ATOM     90  O   UNL     1      -5.252  -9.234  -7.652  1.00  0.00    -0.744 OA
ENDBRANCH  86  87
ENDBRANCH  58  81
BRANCH  70  91
ATOM     91  C   UNL     1     -11.041  -1.885 -14.221  1.00  0.00    -0.014 A 
ATOM     92  C   UNL     1     -12.184  -2.367 -13.562  1.00  0.00     0.010 A 
ATOM     93  C   UNL     1     -11.021  -1.856 -15.628  1.00  0.00     0.010 A 
ATOM     94  C   UNL     1     -13.277  -2.836 -14.296  1.00  0.00     0.020 A 
ATOM     95  C   UNL     1     -12.122  -2.297 -16.365  1.00  0.00     0.020 A 
ATOM     96  C   UNL     1     -13.239  -2.796 -15.694  1.00  0.00     0.054 A 
BRANCH  96  97
ATOM     97  S   UNL     1     -14.692  -3.359 -16.622  1.00  0.00     0.124 S 
ATOM     98  O   UNL     1     -14.620  -4.807 -16.451  1.00  0.00    -0.237 OA
ATOM     99  O   UNL     1     -15.793  -2.697 -15.926  1.00  0.00    -0.237 OA
ATOM    100  O   UNL     1     -14.444  -2.879 -17.980  1.00  0.00    -0.744 OA
ENDBRANCH  96  97
ENDBRANCH  70  91
ENDBRANCH  44  45
ENDBRANCH  36  39
ENDBRANCH  34  35
ENDBRANCH  33  34
ENDBRANCH   1  33
TORSDOF 19
