REMARK SMILES O=C(NCCCNC(=O)c1ccc(-c2c3nc(c(-c4ccc(S(=O)(=O)[O-])cc4)c4ccc([nH]4)c(-c4ccc(S(=O)(=O)[O-])cc4)c4nc(c(-c5ccc(S(=O)(=O)[O-])cc5)c5ccc2[nH]5)C=C4)C=C3)cc1)c1ccc(/[NH+]=C2\S[C@@H](Cc3ccc(F)cc3)C(=O)N2Cc2ccccc2)cc1
REMARK SMILES IDX 5 1 4 2 3 3 1 4 2 5 70 7 71 8 97 9 72 10 96 11 73 12 74 13
REMARK SMILES IDX 75 14 76 16 88 17 77 18 86 19 87 20 89 21 90 22 91 23 95 24
REMARK SMILES IDX 92 25 94 26 93 27 78 28 79 29 80 30 85 31 81 32 84 33 82 34
REMARK SMILES IDX 83 35 6 36 7 37 8 38 9 40 10 41 11 42 69 43 12 44 68 45
REMARK SMILES IDX 13 46 14 47 15 48 62 49 16 50 67 51 61 52 63 53 17 54 66 55
REMARK SMILES IDX 60 56 59 57 18 59 48 60 29 61 47 62 30 63 33 64 46 65 64 66
REMARK SMILES IDX 31 67 32 68 45 70 65 71 34 72 19 73 20 74 28 75 21 76 27 77
REMARK SMILES IDX 22 78 23 79 24 80 25 81 26 82 49 83 50 84 58 85 51 86 57 87
REMARK SMILES IDX 52 88 53 89 54 90 55 91 56 92 35 93 36 94 44 95 37 96 43 97
REMARK SMILES IDX 38 98 39 99 40 100 41 101 42 102
REMARK H PARENT 3 6 74 15 7 39 63 58 33 69
REMARK Flexibility Score: inf
ROOT
ATOM      1  C   UNL     1       4.888   0.775  -2.338  1.00  0.00     0.042 C 
ENDROOT
BRANCH   1   2
ATOM      2  C   UNL     1       4.485   1.007  -0.890  1.00  0.00     0.118 C 
BRANCH   2   3
ATOM      3  N   UNL     1       3.045   0.895  -0.678  1.00  0.00    -0.352 N 
ATOM      4  O   UNL     1       1.088  -0.078  -0.117  1.00  0.00    -0.269 OA
ATOM      5  C   UNL     1       2.315  -0.079  -0.042  1.00  0.00     0.251 C 
ATOM      6  H   UNL     1       2.513   1.636  -1.049  1.00  0.00     0.163 HD
BRANCH   5   7
ATOM      7  C   UNL     1       2.998  -1.134   0.733  1.00  0.00     0.040 A 
ATOM      8  C   UNL     1       4.014  -0.801   1.626  1.00  0.00     0.018 A 
ATOM      9  C   UNL     1       2.601  -2.469   0.594  1.00  0.00     0.018 A 
ATOM     10  C   UNL     1       4.729  -1.811   2.255  1.00  0.00     0.052 A 
ATOM     11  C   UNL     1       3.291  -3.479   1.278  1.00  0.00     0.052 A 
ATOM     12  C   UNL     1       4.395  -3.157   2.070  1.00  0.00     0.125 A 
BRANCH  12  13
ATOM     13  N   UNL     1       5.156  -4.089   2.778  1.00  0.00    -0.235 N 
ATOM     14  C   UNL     1       5.933  -4.945   2.204  1.00  0.00     0.320 C 
ATOM     15  H   UNL     1       5.097  -4.094   3.761  1.00  0.00     0.313 HD
ATOM     16  S   UNL     1       6.044  -5.330   0.511  1.00  0.00    -0.022 SA
ATOM     17  N   UNL     1       6.845  -5.670   2.924  1.00  0.00    -0.186 N 
ATOM     18  C   UNL     1       7.030  -6.832   0.833  1.00  0.00     0.178 C 
ATOM     19  C   UNL     1       7.567  -6.630   2.244  1.00  0.00     0.324 C 
ATOM     20  O   UNL     1       8.462  -7.299   2.748  1.00  0.00    -0.245 OA
BRANCH  17  21
ATOM     21  C   UNL     1       7.101  -5.407   4.336  1.00  0.00     0.283 C 
BRANCH  21  22
ATOM     22  C   UNL     1       7.947  -4.170   4.573  1.00  0.00    -0.006 A 
ATOM     23  C   UNL     1       9.345  -4.243   4.626  1.00  0.00     0.008 A 
ATOM     24  C   UNL     1       7.339  -2.915   4.732  1.00  0.00     0.008 A 
ATOM     25  C   UNL     1      10.108  -3.087   4.825  1.00  0.00     0.000 A 
ATOM     26  C   UNL     1       8.101  -1.757   4.895  1.00  0.00     0.000 A 
ATOM     27  C   UNL     1       9.488  -1.844   4.946  1.00  0.00     0.000 A 
ENDBRANCH  21  22
ENDBRANCH  17  21
BRANCH  18  28
ATOM     28  C   UNL     1       8.095  -7.032  -0.246  1.00  0.00     0.063 C 
BRANCH  28  29
ATOM     29  C   UNL     1       8.878  -8.323  -0.120  1.00  0.00    -0.046 A 
ATOM     30  C   UNL     1      10.274  -8.276   0.023  1.00  0.00     0.007 A 
ATOM     31  C   UNL     1       8.242  -9.574  -0.163  1.00  0.00     0.007 A 
ATOM     32  C   UNL     1      11.015  -9.451   0.156  1.00  0.00     0.039 A 
ATOM     33  C   UNL     1       8.985 -10.748  -0.025  1.00  0.00     0.039 A 
ATOM     34  C   UNL     1      10.363 -10.676   0.140  1.00  0.00     0.123 A 
ATOM     35  F   UNL     1      11.071 -11.805   0.284  1.00  0.00    -0.207 F 
ENDBRANCH  28  29
ENDBRANCH  18  28
ENDBRANCH  12  13
ENDBRANCH   5   7
ENDBRANCH   2   3
ENDBRANCH   1   2
BRANCH   1  36
ATOM     36  C   UNL     1       4.340   1.811  -3.309  1.00  0.00     0.118 C 
BRANCH  36  37
ATOM     37  N   UNL     1       4.836   3.156  -3.043  1.00  0.00    -0.352 N 
ATOM     38  C   UNL     1       5.679   3.958  -3.776  1.00  0.00     0.251 C 
ATOM     39  H   UNL     1       4.516   3.555  -2.202  1.00  0.00     0.163 HD
ATOM     40  O   UNL     1       6.111   4.995  -3.278  1.00  0.00    -0.269 OA
BRANCH  38  41
ATOM     41  C   UNL     1       6.091   3.564  -5.140  1.00  0.00     0.039 A 
ATOM     42  C   UNL     1       7.430   3.713  -5.514  1.00  0.00     0.014 A 
ATOM     43  C   UNL     1       5.168   3.046  -6.050  1.00  0.00     0.014 A 
ATOM     44  C   UNL     1       7.859   3.246  -6.760  1.00  0.00     0.010 A 
ATOM     45  C   UNL     1       5.610   2.505  -7.253  1.00  0.00     0.010 A 
ATOM     46  C   UNL     1       6.963   2.586  -7.615  1.00  0.00    -0.014 A 
BRANCH  46  47
ATOM     47  C   UNL     1       7.411   1.944  -8.878  1.00  0.00     0.031 A 
ATOM     48  C   UNL     1       6.860   2.408 -10.198  1.00  0.00     0.074 A 
ATOM     49  C   UNL     1       8.242   0.883  -8.827  1.00  0.00     0.049 A 
ATOM     50  N   UNL     1       7.014   1.883 -11.386  1.00  0.00    -0.248 NA
ATOM     51  C   UNL     1       6.005   3.607 -10.178  1.00  0.00     0.031 C 
ATOM     52  C   UNL     1       8.830   0.319  -7.609  1.00  0.00     0.029 A 
ATOM     53  N   UNL     1       8.726   0.076  -9.828  1.00  0.00    -0.354 N 
ATOM     54  C   UNL     1       6.269   2.676 -12.250  1.00  0.00     0.074 A 
ATOM     55  C   UNL     1       5.625   3.691 -11.445  1.00  0.00     0.031 C 
ATOM     56  C   UNL     1       9.608  -0.725  -7.936  1.00  0.00     0.029 A 
ATOM     57  C   UNL     1       9.534  -0.941  -9.377  1.00  0.00     0.049 A 
ATOM     58  H   UNL     1       8.514   0.214 -10.780  1.00  0.00     0.167 HD
ATOM     59  C   UNL     1       6.148   2.581 -13.596  1.00  0.00     0.031 A 
ATOM     60  C   UNL     1      10.130  -1.950 -10.042  1.00  0.00     0.031 A 
ATOM     61  C   UNL     1       6.796   1.577 -14.397  1.00  0.00     0.049 A 
ATOM     62  C   UNL     1       9.932  -2.066 -11.529  1.00  0.00     0.074 A 
ATOM     63  C   UNL     1       6.762   1.421 -15.772  1.00  0.00     0.029 A 
ATOM     64  N   UNL     1       7.596   0.562 -13.898  1.00  0.00    -0.354 N 
ATOM     65  N   UNL     1       9.254  -1.283 -12.332  1.00  0.00    -0.248 NA
ATOM     66  C   UNL     1      10.576  -3.206 -12.198  1.00  0.00     0.031 C 
ATOM     67  C   UNL     1       7.507   0.284 -16.100  1.00  0.00     0.029 A 
ATOM     68  C   UNL     1       8.044  -0.238 -14.935  1.00  0.00     0.049 A 
ATOM     69  H   UNL     1       7.814   0.429 -12.947  1.00  0.00     0.167 HD
ATOM     70  C   UNL     1       9.408  -1.823 -13.604  1.00  0.00     0.074 A 
ATOM     71  C   UNL     1      10.255  -2.989 -13.466  1.00  0.00     0.031 C 
ATOM     72  C   UNL     1       8.892  -1.392 -14.781  1.00  0.00     0.031 A 
BRANCH  59  73
ATOM     73  C   UNL     1       5.284   3.598 -14.291  1.00  0.00    -0.014 A 
ATOM     74  C   UNL     1       5.709   4.932 -14.423  1.00  0.00     0.010 A 
ATOM     75  C   UNL     1       4.061   3.208 -14.867  1.00  0.00     0.010 A 
ATOM     76  C   UNL     1       4.913   5.866 -15.090  1.00  0.00     0.020 A 
ATOM     77  C   UNL     1       3.273   4.134 -15.558  1.00  0.00     0.020 A 
ATOM     78  C   UNL     1       3.699   5.461 -15.653  1.00  0.00     0.054 A 
BRANCH  78  79
ATOM     79  S   UNL     1       2.704   6.688 -16.543  1.00  0.00     0.124 S 
ATOM     80  O   UNL     1       2.175   7.498 -15.448  1.00  0.00    -0.237 OA
ATOM     81  O   UNL     1       3.692   7.349 -17.391  1.00  0.00    -0.237 OA
ATOM     82  O   UNL     1       1.714   5.883 -17.255  1.00  0.00    -0.744 OA
ENDBRANCH  78  79
ENDBRANCH  59  73
BRANCH  60  83
ATOM     83  C   UNL     1      10.963  -2.944  -9.312  1.00  0.00    -0.014 A 
ATOM     84  C   UNL     1      12.356  -2.973  -9.493  1.00  0.00     0.010 A 
ATOM     85  C   UNL     1      10.366  -3.877  -8.444  1.00  0.00     0.010 A 
ATOM     86  C   UNL     1      13.136  -3.934  -8.843  1.00  0.00     0.020 A 
ATOM     87  C   UNL     1      11.145  -4.822  -7.770  1.00  0.00     0.020 A 
ATOM     88  C   UNL     1      12.524  -4.854  -7.987  1.00  0.00     0.054 A 
BRANCH  88  89
ATOM     89  S   UNL     1      13.556  -6.076  -7.130  1.00  0.00     0.124 S 
ATOM     90  O   UNL     1      13.839  -7.032  -8.194  1.00  0.00    -0.237 OA
ATOM     91  O   UNL     1      14.690  -5.273  -6.679  1.00  0.00    -0.237 OA
ATOM     92  O   UNL     1      12.686  -6.563  -6.061  1.00  0.00    -0.744 OA
ENDBRANCH  88  89
ENDBRANCH  60  83
BRANCH  72  93
ATOM     93  C   UNL     1       9.246  -2.167 -16.020  1.00  0.00    -0.014 A 
ATOM     94  C   UNL     1       8.653  -3.413 -16.287  1.00  0.00     0.010 A 
ATOM     95  C   UNL     1      10.123  -1.604 -16.966  1.00  0.00     0.010 A 
ATOM     96  C   UNL     1       8.942  -4.090 -17.474  1.00  0.00     0.020 A 
ATOM     97  C   UNL     1      10.394  -2.268 -18.165  1.00  0.00     0.020 A 
ATOM     98  C   UNL     1       9.807  -3.511 -18.408  1.00  0.00     0.054 A 
BRANCH  98  99
ATOM     99  S   UNL     1      10.106  -4.376 -19.974  1.00  0.00     0.124 S 
ATOM    100  O   UNL     1      10.980  -5.469 -19.556  1.00  0.00    -0.237 OA
ATOM    101  O   UNL     1       8.760  -4.770 -20.385  1.00  0.00    -0.237 OA
ATOM    102  O   UNL     1      10.736  -3.362 -20.816  1.00  0.00    -0.744 OA
ENDBRANCH  98  99
ENDBRANCH  72  93
ENDBRANCH  46  47
ENDBRANCH  38  41
ENDBRANCH  36  37
ENDBRANCH   1  36
TORSDOF 18
