REMARK SMILES C/C(=C\C(=O)NCCCNC(=O)c1ccc(-c2c3nc(c(-c4ccc(S(=O)(=O)[O-])cc4)c4ccc([nH]4)c(-c4ccc(S(=O)(=O)[O-])cc4)c4nc(c(-c5ccc(S(=O)(=O)[O-])cc5)c5ccc2[nH]5)C=C4)C=C3)cc1)CSc1ccc(N)c(C)c1
REMARK SMILES IDX 7 1 6 2 4 3 5 4 3 6 1 7 2 8 73 9 74 10 75 11 76 12 82 13
REMARK SMILES IDX 77 14 80 15 78 16 81 17 79 18 8 21 9 22 10 23 11 24 12 26
REMARK SMILES IDX 13 27 14 28 72 29 15 30 71 31 16 32 17 33 18 34 65 35 19 36
REMARK SMILES IDX 70 37 64 38 66 39 20 40 69 41 63 42 62 43 21 45 51 46 32 47
REMARK SMILES IDX 50 48 33 49 36 50 49 51 67 52 34 53 35 54 48 56 68 57 37 58
REMARK SMILES IDX 22 59 23 60 31 61 24 62 30 63 25 64 26 65 27 66 28 67 29 68
REMARK SMILES IDX 52 69 53 70 61 71 54 72 60 73 55 74 56 75 57 76 58 77 59 78
REMARK SMILES IDX 38 79 39 80 47 81 40 82 46 83 41 84 42 85 43 86 44 87 45 88
REMARK H PARENT 6 5 79 19 79 20 10 25 66 44 36 55
REMARK Flexibility Score: inf
ROOT
ATOM      1  C   UNL     1       1.139   2.004  -0.875  1.00  0.00     0.118 C 
ENDROOT
BRANCH   1   2
ATOM      2  N   UNL     1       0.166   2.433   0.097  1.00  0.00    -0.352 N 
ATOM      3  C   UNL     1      -0.213   1.955   1.296  1.00  0.00     0.243 C 
ATOM      4  O   UNL     1      -0.997   2.660   1.944  1.00  0.00    -0.270 OA
ATOM      5  H   UNL     1      -0.323   3.244  -0.172  1.00  0.00     0.163 HD
BRANCH   3   6
ATOM      6  C   UNL     1       0.183   0.661   1.923  1.00  0.00     0.071 C 
ATOM      7  C   UNL     1       1.517  -0.930   0.419  1.00  0.00     0.040 C 
ATOM      8  C   UNL     1       0.789  -0.520   1.663  1.00  0.00    -0.058 C 
BRANCH   8   9
ATOM      9  C   UNL     1       0.708  -1.598   2.739  1.00  0.00     0.105 C 
BRANCH   9  10
ATOM     10  S   UNL     1       0.068  -3.208   2.147  1.00  0.00    -0.122 SA
BRANCH  10  11
ATOM     11  C   UNL     1      -1.675  -2.983   1.825  1.00  0.00     0.008 A 
ATOM     12  C   UNL     1      -2.332  -1.768   1.668  1.00  0.00     0.017 A 
ATOM     13  C   UNL     1      -2.437  -4.152   1.687  1.00  0.00     0.020 A 
ATOM     14  C   UNL     1      -3.702  -1.716   1.388  1.00  0.00     0.027 A 
ATOM     15  C   UNL     1      -3.818  -4.115   1.406  1.00  0.00    -0.027 A 
ATOM     16  C   UNL     1      -4.456  -2.879   1.234  1.00  0.00     0.034 A 
ATOM     17  C   UNL     1      -4.574  -5.411   1.314  1.00  0.00     0.046 C 
BRANCH  16  18
ATOM     18  N   UNL     1      -5.830  -2.771   1.058  1.00  0.00    -0.399 N 
ATOM     19  H   UNL     1      -6.243  -1.885   0.940  1.00  0.00     0.156 HD
ATOM     20  H   UNL     1      -6.390  -3.580   1.052  1.00  0.00     0.156 HD
ENDBRANCH  16  18
ENDBRANCH  10  11
ENDBRANCH   9  10
ENDBRANCH   8   9
ENDBRANCH   3   6
ENDBRANCH   1   2
BRANCH   1  21
ATOM     21  C   UNL     1       0.515   1.171  -1.990  1.00  0.00     0.042 C 
BRANCH  21  22
ATOM     22  C   UNL     1      -0.001   2.007  -3.157  1.00  0.00     0.118 C 
BRANCH  22  23
ATOM     23  N   UNL     1       1.090   2.633  -3.893  1.00  0.00    -0.352 N 
ATOM     24  C   UNL     1       1.512   2.458  -5.187  1.00  0.00     0.251 C 
ATOM     25  H   UNL     1       1.610   3.291  -3.377  1.00  0.00     0.163 HD
ATOM     26  O   UNL     1       2.613   2.892  -5.514  1.00  0.00    -0.269 OA
BRANCH  24  27
ATOM     27  C   UNL     1       0.666   1.763  -6.184  1.00  0.00     0.039 A 
ATOM     28  C   UNL     1       1.286   0.978  -7.162  1.00  0.00     0.014 A 
ATOM     29  C   UNL     1      -0.720   1.939  -6.214  1.00  0.00     0.014 A 
ATOM     30  C   UNL     1       0.517   0.341  -8.139  1.00  0.00     0.010 A 
ATOM     31  C   UNL     1      -1.493   1.243  -7.141  1.00  0.00     0.010 A 
ATOM     32  C   UNL     1      -0.882   0.451  -8.124  1.00  0.00    -0.014 A 
BRANCH  32  33
ATOM     33  C   UNL     1      -1.723  -0.230  -9.141  1.00  0.00     0.031 A 
ATOM     34  C   UNL     1      -2.553   0.584 -10.100  1.00  0.00     0.074 A 
ATOM     35  C   UNL     1      -1.788  -1.575  -9.162  1.00  0.00     0.049 A 
ATOM     36  N   UNL     1      -3.408   0.177 -11.002  1.00  0.00    -0.248 NA
ATOM     37  C   UNL     1      -2.425   2.049 -10.012  1.00  0.00     0.031 C 
ATOM     38  C   UNL     1      -1.061  -2.473  -8.260  1.00  0.00     0.029 A 
ATOM     39  N   UNL     1      -2.508  -2.424  -9.965  1.00  0.00    -0.354 N 
ATOM     40  C   UNL     1      -3.938   1.331 -11.569  1.00  0.00     0.074 A 
ATOM     41  C   UNL     1      -3.341   2.454 -10.879  1.00  0.00     0.031 C 
ATOM     42  C   UNL     1      -1.353  -3.745  -8.577  1.00  0.00     0.029 A 
ATOM     43  C   UNL     1      -2.316  -3.754  -9.674  1.00  0.00     0.049 A 
ATOM     44  H   UNL     1      -3.105  -2.110 -10.681  1.00  0.00     0.167 HD
ATOM     45  C   UNL     1      -4.829   1.447 -12.584  1.00  0.00     0.031 A 
ATOM     46  C   UNL     1      -2.858  -4.857 -10.224  1.00  0.00     0.031 A 
ATOM     47  C   UNL     1      -5.402   0.327 -13.281  1.00  0.00     0.049 A 
ATOM     48  C   UNL     1      -3.833  -4.705 -11.358  1.00  0.00     0.074 A 
ATOM     49  C   UNL     1      -6.268   0.336 -14.360  1.00  0.00     0.029 A 
ATOM     50  N   UNL     1      -5.161  -1.003 -12.972  1.00  0.00    -0.354 N 
ATOM     51  N   UNL     1      -4.281  -3.605 -11.915  1.00  0.00    -0.248 NA
ATOM     52  C   UNL     1      -4.365  -5.941 -11.945  1.00  0.00     0.031 C 
ATOM     53  C   UNL     1      -6.584  -0.990 -14.677  1.00  0.00     0.029 A 
ATOM     54  C   UNL     1      -5.875  -1.825 -13.828  1.00  0.00     0.049 A 
ATOM     55  H   UNL     1      -4.570  -1.317 -12.250  1.00  0.00     0.167 HD
ATOM     56  C   UNL     1      -5.131  -4.018 -12.935  1.00  0.00     0.074 A 
ATOM     57  C   UNL     1      -5.121  -5.467 -12.927  1.00  0.00     0.031 C 
ATOM     58  C   UNL     1      -5.852  -3.265 -13.802  1.00  0.00     0.031 A 
BRANCH  45  59
ATOM     59  C   UNL     1      -5.239   2.838 -12.994  1.00  0.00    -0.014 A 
ATOM     60  C   UNL     1      -4.338   3.699 -13.648  1.00  0.00     0.010 A 
ATOM     61  C   UNL     1      -6.551   3.282 -12.748  1.00  0.00     0.010 A 
ATOM     62  C   UNL     1      -4.726   4.993 -14.003  1.00  0.00     0.020 A 
ATOM     63  C   UNL     1      -6.951   4.567 -13.128  1.00  0.00     0.020 A 
ATOM     64  C   UNL     1      -6.029   5.422 -13.735  1.00  0.00     0.054 A 
BRANCH  64  65
ATOM     65  S   UNL     1      -6.509   7.104 -14.217  1.00  0.00     0.124 S 
ATOM     66  O   UNL     1      -5.833   7.910 -13.204  1.00  0.00    -0.237 OA
ATOM     67  O   UNL     1      -5.972   7.217 -15.570  1.00  0.00    -0.237 OA
ATOM     68  O   UNL     1      -7.967   7.087 -14.128  1.00  0.00    -0.744 OA
ENDBRANCH  64  65
ENDBRANCH  45  59
BRANCH  46  69
ATOM     69  C   UNL     1      -2.470  -6.203  -9.720  1.00  0.00    -0.014 A 
ATOM     70  C   UNL     1      -1.648  -7.042 -10.493  1.00  0.00     0.010 A 
ATOM     71  C   UNL     1      -2.897  -6.643  -8.454  1.00  0.00     0.010 A 
ATOM     72  C   UNL     1      -1.273  -8.301 -10.017  1.00  0.00     0.020 A 
ATOM     73  C   UNL     1      -2.503  -7.891  -7.963  1.00  0.00     0.020 A 
ATOM     74  C   UNL     1      -1.702  -8.717  -8.753  1.00  0.00     0.054 A 
BRANCH  74  75
ATOM     75  S   UNL     1      -1.155 -10.331  -8.131  1.00  0.00     0.124 S 
ATOM     76  O   UNL     1      -1.982 -11.251  -8.904  1.00  0.00    -0.237 OA
ATOM     77  O   UNL     1       0.269 -10.331  -8.459  1.00  0.00    -0.237 OA
ATOM     78  O   UNL     1      -1.456 -10.266  -6.702  1.00  0.00    -0.744 OA
ENDBRANCH  74  75
ENDBRANCH  46  69
BRANCH  58  79
ATOM     79  C   UNL     1      -6.668  -3.994 -14.835  1.00  0.00    -0.014 A 
ATOM     80  C   UNL     1      -7.854  -4.662 -14.485  1.00  0.00     0.010 A 
ATOM     81  C   UNL     1      -6.268  -3.962 -16.183  1.00  0.00     0.010 A 
ATOM     82  C   UNL     1      -8.612  -5.311 -15.463  1.00  0.00     0.020 A 
ATOM     83  C   UNL     1      -7.036  -4.588 -17.167  1.00  0.00     0.020 A 
ATOM     84  C   UNL     1      -8.197  -5.271 -16.798  1.00  0.00     0.054 A 
BRANCH  84  85
ATOM     85  S   UNL     1      -9.221  -6.081 -18.057  1.00  0.00     0.124 S 
ATOM     86  O   UNL     1      -8.917  -7.492 -17.833  1.00  0.00    -0.237 OA
ATOM     87  O   UNL     1     -10.573  -5.664 -17.690  1.00  0.00    -0.237 OA
ATOM     88  O   UNL     1      -8.726  -5.528 -19.315  1.00  0.00    -0.744 OA
ENDBRANCH  84  85
ENDBRANCH  58  79
ENDBRANCH  32  33
ENDBRANCH  24  27
ENDBRANCH  22  23
ENDBRANCH  21  22
ENDBRANCH   1  21
TORSDOF 17
