REMARK SMILES C[C@@H]1Oc2c(C(=O)NCCCNC(=O)c3ccc(-c4c5nc(c(-c6ccc(S(=O)(=O)[O-])cc6)c6ccc([nH]6)c(-c6ccc(S(=O)(=O)[O-])cc6)c6nc(c(-c7ccc(S(=O)(=O)[O-])cc7)c7ccc4[nH]7)C=C6)C=C5)cc3)cccc2[C@@H]1C
REMARK SMILES IDX 12 1 13 2 14 3 11 5 10 6 9 7 8 8 6 9 7 10 5 12 1 13 2 14
REMARK SMILES IDX 3 15 79 16 4 17 78 18 80 19 77 20 75 21 76 22 15 23 16 24
REMARK SMILES IDX 74 25 17 26 73 27 18 28 19 29 20 30 67 31 21 32 72 33 66 34
REMARK SMILES IDX 68 35 22 36 71 37 65 38 64 39 23 41 53 42 34 43 52 44 35 45
REMARK SMILES IDX 38 46 51 47 69 48 36 49 37 50 50 52 70 53 39 54 24 55 25 56
REMARK SMILES IDX 33 57 26 58 32 59 27 60 28 61 29 62 30 63 31 64 54 65 55 66
REMARK SMILES IDX 63 67 56 68 62 69 57 70 58 71 59 72 60 73 61 74 40 75 41 76
REMARK SMILES IDX 49 77 42 78 48 79 43 80 44 81 45 82 46 83 47 84
REMARK H PARENT 12 4 8 11 68 40 38 51
REMARK Flexibility Score: inf
ROOT
ATOM      1  N   UNL     1       5.032   9.492   3.369  1.00  0.00    -0.352 N 
ATOM      2  C   UNL     1       5.447  10.784   3.589  1.00  0.00     0.251 C 
ATOM      3  O   UNL     1       6.486  11.174   3.066  1.00  0.00    -0.269 OA
ATOM      4  H   UNL     1       5.706   8.910   2.951  1.00  0.00     0.163 HD
ENDROOT
BRANCH   1   5
ATOM      5  C   UNL     1       3.758   8.839   3.653  1.00  0.00     0.118 C 
BRANCH   5   6
ATOM      6  C   UNL     1       3.081   8.328   2.384  1.00  0.00     0.042 C 
BRANCH   6   7
ATOM      7  C   UNL     1       3.825   7.155   1.748  1.00  0.00     0.118 C 
BRANCH   7   8
ATOM      8  N   UNL     1       3.542   5.921   2.454  1.00  0.00    -0.352 N 
ATOM      9  C   UNL     1       2.645   4.896   2.276  1.00  0.00     0.255 C 
ATOM     10  O   UNL     1       2.704   4.003   3.123  1.00  0.00    -0.269 OA
ATOM     11  H   UNL     1       4.123   5.787   3.238  1.00  0.00     0.163 HD
BRANCH   9  12
ATOM     12  C   UNL     1       1.685   4.804   1.129  1.00  0.00     0.082 A 
ATOM     13  C   UNL     1      -0.180   0.470   1.790  1.00  0.00     0.053 C 
ATOM     14  C   UNL     1       0.542   1.389   0.811  1.00  0.00     0.177 C 
ATOM     15  O   UNL     1       1.197   2.432   1.570  1.00  0.00    -0.489 OA
ATOM     16  C   UNL     1      -0.321   2.037  -0.295  1.00  0.00     0.060 C 
ATOM     17  C   UNL     1       1.093   3.577   0.821  1.00  0.00     0.136 A 
ATOM     18  C   UNL     1       0.252   3.412  -0.277  1.00  0.00     0.001 A 
ATOM     19  C   UNL     1      -1.827   2.088  -0.050  1.00  0.00     0.017 C 
ATOM     20  C   UNL     1      -0.034   4.466  -1.126  1.00  0.00     0.008 A 
ATOM     21  C   UNL     1       1.302   5.886   0.324  1.00  0.00     0.018 A 
ATOM     22  C   UNL     1       0.480   5.717  -0.806  1.00  0.00     0.001 A 
ENDBRANCH   9  12
ENDBRANCH   7   8
ENDBRANCH   6   7
ENDBRANCH   5   6
ENDBRANCH   1   5
BRANCH   2  23
ATOM     23  C   UNL     1       4.650  11.703   4.433  1.00  0.00     0.039 A 
ATOM     24  C   UNL     1       4.008  11.248   5.584  1.00  0.00     0.014 A 
ATOM     25  C   UNL     1       4.577  13.057   4.087  1.00  0.00     0.014 A 
ATOM     26  C   UNL     1       3.160  12.098   6.285  1.00  0.00     0.010 A 
ATOM     27  C   UNL     1       3.807  13.936   4.856  1.00  0.00     0.010 A 
ATOM     28  C   UNL     1       3.056  13.456   5.939  1.00  0.00    -0.014 A 
BRANCH  28  29
ATOM     29  C   UNL     1       2.180  14.345   6.748  1.00  0.00     0.031 A 
ATOM     30  C   UNL     1       0.980  15.017   6.137  1.00  0.00     0.074 A 
ATOM     31  C   UNL     1       2.438  14.489   8.065  1.00  0.00     0.049 A 
ATOM     32  N   UNL     1       0.073  15.760   6.719  1.00  0.00    -0.248 NA
ATOM     33  C   UNL     1       0.765  14.840   4.691  1.00  0.00     0.031 C 
ATOM     34  C   UNL     1       3.570  13.879   8.768  1.00  0.00     0.029 A 
ATOM     35  N   UNL     1       1.753  15.150   9.054  1.00  0.00    -0.354 N 
ATOM     36  C   UNL     1      -0.812  16.141   5.717  1.00  0.00     0.074 A 
ATOM     37  C   UNL     1      -0.312  15.586   4.480  1.00  0.00     0.031 C 
ATOM     38  C   UNL     1       3.459  14.127  10.080  1.00  0.00     0.029 A 
ATOM     39  C   UNL     1       2.296  14.978  10.308  1.00  0.00     0.049 A 
ATOM     40  H   UNL     1       0.951  15.695   8.884  1.00  0.00     0.167 HD
ATOM     41  C   UNL     1      -1.949  16.869   5.826  1.00  0.00     0.031 A 
ATOM     42  C   UNL     1       1.910  15.450  11.510  1.00  0.00     0.031 A 
ATOM     43  C   UNL     1      -2.446  17.404   7.069  1.00  0.00     0.049 A 
ATOM     44  C   UNL     1       0.671  16.295  11.594  1.00  0.00     0.074 A 
ATOM     45  C   UNL     1      -3.603  18.133   7.283  1.00  0.00     0.029 A 
ATOM     46  N   UNL     1      -1.827  17.269   8.304  1.00  0.00    -0.354 N 
ATOM     47  N   UNL     1      -0.168  16.617  10.638  1.00  0.00    -0.248 NA
ATOM     48  C   UNL     1       0.322  16.838  12.913  1.00  0.00     0.031 C 
ATOM     49  C   UNL     1      -3.644  18.505   8.627  1.00  0.00     0.029 A 
ATOM     50  C   UNL     1      -2.560  17.934   9.274  1.00  0.00     0.049 A 
ATOM     51  H   UNL     1      -0.992  16.773   8.467  1.00  0.00     0.167 HD
ATOM     52  C   UNL     1      -1.149  17.395  11.242  1.00  0.00     0.074 A 
ATOM     53  C   UNL     1      -0.819  17.462  12.651  1.00  0.00     0.031 C 
ATOM     54  C   UNL     1      -2.219  18.006  10.675  1.00  0.00     0.031 A 
BRANCH  41  55
ATOM     55  C   UNL     1      -2.764  17.130   4.582  1.00  0.00    -0.014 A 
ATOM     56  C   UNL     1      -2.929  18.450   4.120  1.00  0.00     0.010 A 
ATOM     57  C   UNL     1      -3.486  16.096   3.961  1.00  0.00     0.010 A 
ATOM     58  C   UNL     1      -3.836  18.737   3.095  1.00  0.00     0.020 A 
ATOM     59  C   UNL     1      -4.370  16.375   2.914  1.00  0.00     0.020 A 
ATOM     60  C   UNL     1      -4.562  17.698   2.508  1.00  0.00     0.054 A 
BRANCH  60  61
ATOM     61  S   UNL     1      -5.781  18.098   1.225  1.00  0.00     0.124 S 
ATOM     62  O   UNL     1      -6.843  18.735   1.996  1.00  0.00    -0.237 OA
ATOM     63  O   UNL     1      -5.028  18.979   0.336  1.00  0.00    -0.237 OA
ATOM     64  O   UNL     1      -6.118  16.794   0.655  1.00  0.00    -0.744 OA
ENDBRANCH  60  61
ENDBRANCH  41  55
BRANCH  42  65
ATOM     65  C   UNL     1       2.707  15.101  12.722  1.00  0.00    -0.014 A 
ATOM     66  C   UNL     1       4.043  15.530  12.844  1.00  0.00     0.010 A 
ATOM     67  C   UNL     1       2.167  14.271  13.719  1.00  0.00     0.010 A 
ATOM     68  C   UNL     1       4.843  15.080  13.896  1.00  0.00     0.020 A 
ATOM     69  C   UNL     1       2.953  13.850  14.798  1.00  0.00     0.020 A 
ATOM     70  C   UNL     1       4.296  14.230  14.860  1.00  0.00     0.054 A 
BRANCH  70  71
ATOM     71  S   UNL     1       5.371  13.613  16.183  1.00  0.00     0.124 S 
ATOM     72  O   UNL     1       6.186  12.632  15.473  1.00  0.00    -0.237 OA
ATOM     73  O   UNL     1       6.072  14.821  16.613  1.00  0.00    -0.237 OA
ATOM     74  O   UNL     1       4.433  13.060  17.157  1.00  0.00    -0.744 OA
ENDBRANCH  70  71
ENDBRANCH  42  65
BRANCH  54  75
ATOM     75  C   UNL     1      -3.118  18.826  11.566  1.00  0.00    -0.014 A 
ATOM     76  C   UNL     1      -4.458  18.441  11.758  1.00  0.00     0.010 A 
ATOM     77  C   UNL     1      -2.671  20.040  12.117  1.00  0.00     0.010 A 
ATOM     78  C   UNL     1      -5.343  19.270  12.452  1.00  0.00     0.020 A 
ATOM     79  C   UNL     1      -3.544  20.854  12.845  1.00  0.00     0.020 A 
ATOM     80  C   UNL     1      -4.881  20.476  12.985  1.00  0.00     0.054 A 
BRANCH  80  81
ATOM     81  S   UNL     1      -6.050  21.549  13.862  1.00  0.00     0.124 S 
ATOM     82  O   UNL     1      -6.835  22.109  12.765  1.00  0.00    -0.237 OA
ATOM     83  O   UNL     1      -6.759  20.611  14.729  1.00  0.00    -0.237 OA
ATOM     84  O   UNL     1      -5.187  22.500  14.560  1.00  0.00    -0.744 OA
ENDBRANCH  80  81
ENDBRANCH  54  75
ENDBRANCH  28  29
ENDBRANCH   2  23
TORSDOF 13
