REMARK SMILES CCN(Cc1c(C)nn(CC)c1C)C(=O)Cn1ccc(C(=O)NCCCNC(=O)c2ccc(-c3c4nc(c(-c5ccc(S(=O)(=O)[O-])cc5)c5ccc([nH]5)c(-c5ccc(S(=O)(=O)[O-])cc5)c5nc(c(-c6ccc(S(=O)(=O)[O-])cc6)c6ccc3[nH]6)C=C5)C=C4)cc2)n1
REMARK SMILES IDX 21 1 22 2 23 3 20 5 17 6 18 7 90 8 19 9 16 10 14 11 15 12
REMARK SMILES IDX 3 13 2 14 1 15 4 16 5 17 6 18 12 19 7 20 8 21 9 22 13 23
REMARK SMILES IDX 10 24 11 25 24 26 25 27 26 28 27 29 28 30 29 32 30 33 31 34
REMARK SMILES IDX 89 35 32 36 88 37 33 38 34 39 35 40 82 41 36 42 87 43 81 44
REMARK SMILES IDX 83 45 37 46 86 47 80 48 79 49 38 51 68 52 49 53 67 54 50 55
REMARK SMILES IDX 53 56 66 57 84 58 51 59 52 60 65 62 85 63 54 64 39 65 40 66
REMARK SMILES IDX 48 67 41 68 47 69 42 70 43 71 44 72 45 73 46 74 69 75 70 76
REMARK SMILES IDX 78 77 71 78 77 79 72 80 73 81 74 82 75 83 76 84 55 85 56 86
REMARK SMILES IDX 64 87 57 88 63 89 58 90 59 91 60 92 61 93 62 94
REMARK H PARENT 23 4 27 31 83 50 53 61
REMARK Flexibility Score: inf
ROOT
ATOM      1  C   UNL     1       2.595   7.477   1.646  1.00  0.00     0.271 C 
ATOM      2  O   UNL     1       2.151   8.252   0.798  1.00  0.00    -0.267 OA
ATOM      3  N   UNL     1       3.141   8.023   2.790  1.00  0.00    -0.351 N 
ATOM      4  H   UNL     1       3.210   9.005   2.787  1.00  0.00     0.163 HD
ENDROOT
BRANCH   1   5
ATOM      5  C   UNL     1       2.528   6.017   1.456  1.00  0.00     0.150 A 
ATOM      6  N   UNL     1       2.723   3.918   1.810  1.00  0.00    -0.263 N 
ATOM      7  C   UNL     1       2.125   4.000   0.588  1.00  0.00     0.110 A 
ATOM      8  N   UNL     1       3.011   5.120   2.331  1.00  0.00    -0.167 NA
ATOM      9  C   UNL     1       1.949   5.343   0.345  1.00  0.00     0.056 A 
BRANCH   6  10
ATOM     10  C   UNL     1       3.040   2.760   2.628  1.00  0.00     0.244 C 
BRANCH  10  11
ATOM     11  C   UNL     1       2.435   1.459   2.168  1.00  0.00     0.244 C 
ATOM     12  O   UNL     1       3.188   0.542   1.819  1.00  0.00    -0.273 OA
BRANCH  11  13
ATOM     13  N   UNL     1       1.052   1.290   2.157  1.00  0.00    -0.337 N 
BRANCH  13  14
ATOM     14  C   UNL     1       0.533   0.101   1.476  1.00  0.00     0.116 C 
ATOM     15  C   UNL     1       0.796   0.116  -0.026  1.00  0.00     0.027 C 
ENDBRANCH  13  14
BRANCH  13  16
ATOM     16  C   UNL     1       0.081   2.217   2.760  1.00  0.00     0.159 C 
BRANCH  16  17
ATOM     17  C   UNL     1       0.237   2.301   4.248  1.00  0.00     0.015 A 
ATOM     18  C   UNL     1       0.245   3.491   5.041  1.00  0.00     0.065 A 
ATOM     19  C   UNL     1       0.382   1.276   5.177  1.00  0.00     0.041 A 
ATOM     20  C   UNL     1       0.104   4.912   4.627  1.00  0.00     0.069 C 
ATOM     21  N   UNL     1       0.418   3.222   6.338  1.00  0.00    -0.178 NA
ATOM     22  N   UNL     1       0.536   1.888   6.396  1.00  0.00    -0.270 N 
ATOM     23  C   UNL     1       0.410  -0.199   5.011  1.00  0.00     0.067 C 
BRANCH  22  24
ATOM     24  C   UNL     1       0.786   1.273   7.688  1.00  0.00     0.141 C 
ATOM     25  C   UNL     1       2.176   1.575   8.223  1.00  0.00     0.029 C 
ENDBRANCH  22  24
ENDBRANCH  16  17
ENDBRANCH  13  16
ENDBRANCH  11  13
ENDBRANCH  10  11
ENDBRANCH   6  10
ENDBRANCH   1   5
BRANCH   3  26
ATOM     26  C   UNL     1       3.632   7.378   3.999  1.00  0.00     0.118 C 
BRANCH  26  27
ATOM     27  C   UNL     1       5.132   7.067   3.964  1.00  0.00     0.042 C 
BRANCH  27  28
ATOM     28  C   UNL     1       5.977   8.317   4.163  1.00  0.00     0.118 C 
BRANCH  28  29
ATOM     29  N   UNL     1       5.812   8.904   5.498  1.00  0.00    -0.352 N 
ATOM     30  C   UNL     1       6.326  10.086   6.004  1.00  0.00     0.251 C 
ATOM     31  H   UNL     1       5.256   8.384   6.123  1.00  0.00     0.163 HD
ATOM     32  O   UNL     1       6.366  10.282   7.206  1.00  0.00    -0.269 OA
BRANCH  30  33
ATOM     33  C   UNL     1       6.840  11.095   5.058  1.00  0.00     0.039 A 
ATOM     34  C   UNL     1       8.018  11.800   5.317  1.00  0.00     0.014 A 
ATOM     35  C   UNL     1       6.149  11.285   3.868  1.00  0.00     0.014 A 
ATOM     36  C   UNL     1       8.542  12.617   4.317  1.00  0.00     0.010 A 
ATOM     37  C   UNL     1       6.758  11.936   2.826  1.00  0.00     0.010 A 
ATOM     38  C   UNL     1       7.925  12.653   3.055  1.00  0.00    -0.014 A 
BRANCH  38  39
ATOM     39  C   UNL     1       8.542  13.355   1.935  1.00  0.00     0.031 A 
ATOM     40  C   UNL     1       9.974  13.033   1.703  1.00  0.00     0.074 A 
ATOM     41  C   UNL     1       7.853  14.100   1.042  1.00  0.00     0.049 A 
ATOM     42  N   UNL     1      10.988  13.789   1.961  1.00  0.00    -0.248 NA
ATOM     43  C   UNL     1      10.338  11.673   1.276  1.00  0.00     0.031 C 
ATOM     44  C   UNL     1       6.402  14.298   0.936  1.00  0.00     0.029 A 
ATOM     45  N   UNL     1       8.319  14.755  -0.055  1.00  0.00    -0.354 N 
ATOM     46  C   UNL     1      12.106  13.101   1.506  1.00  0.00     0.074 A 
ATOM     47  C   UNL     1      11.672  11.744   1.279  1.00  0.00     0.031 C 
ATOM     48  C   UNL     1       6.099  14.794  -0.283  1.00  0.00     0.029 A 
ATOM     49  C   UNL     1       7.336  15.126  -0.965  1.00  0.00     0.049 A 
ATOM     50  H   UNL     1       9.274  14.951  -0.193  1.00  0.00     0.167 HD
ATOM     51  C   UNL     1      13.231  13.763   1.113  1.00  0.00     0.031 A 
ATOM     52  C   UNL     1       7.527  15.650  -2.201  1.00  0.00     0.031 A 
ATOM     53  C   UNL     1      13.191  15.154   1.496  1.00  0.00     0.049 A 
ATOM     54  C   UNL     1       8.878  16.262  -2.202  1.00  0.00     0.074 A 
ATOM     55  C   UNL     1      13.047  15.831   2.693  1.00  0.00     0.029 A 
ATOM     56  N   UNL     1      12.879  16.064   0.511  1.00  0.00    -0.354 N 
ATOM     57  N   UNL     1       9.186  17.299  -1.474  1.00  0.00    -0.248 NA
ATOM     58  C   UNL     1      10.005  15.459  -2.646  1.00  0.00     0.031 C 
ATOM     59  C   UNL     1      12.186  16.928   2.390  1.00  0.00     0.029 A 
ATOM     60  C   UNL     1      11.925  16.909   1.019  1.00  0.00     0.049 A 
ATOM     61  H   UNL     1      13.270  16.102  -0.392  1.00  0.00     0.167 HD
ATOM     62  C   UNL     1      10.454  17.021  -0.985  1.00  0.00     0.074 A 
ATOM     63  C   UNL     1      10.950  15.934  -1.829  1.00  0.00     0.031 C 
ATOM     64  C   UNL     1      10.866  17.501   0.227  1.00  0.00     0.031 A 
BRANCH  51  65
ATOM     65  C   UNL     1      14.167  13.271   0.036  1.00  0.00    -0.014 A 
ATOM     66  C   UNL     1      15.332  14.016  -0.240  1.00  0.00     0.010 A 
ATOM     67  C   UNL     1      13.807  12.277  -0.897  1.00  0.00     0.010 A 
ATOM     68  C   UNL     1      16.050  13.832  -1.428  1.00  0.00     0.020 A 
ATOM     69  C   UNL     1      14.542  12.054  -2.064  1.00  0.00     0.020 A 
ATOM     70  C   UNL     1      15.637  12.860  -2.340  1.00  0.00     0.054 A 
BRANCH  70  71
ATOM     71  S   UNL     1      16.502  12.707  -3.921  1.00  0.00     0.124 S 
ATOM     72  O   UNL     1      16.167  13.972  -4.569  1.00  0.00    -0.237 OA
ATOM     73  O   UNL     1      17.892  12.559  -3.500  1.00  0.00    -0.237 OA
ATOM     74  O   UNL     1      15.908  11.516  -4.522  1.00  0.00    -0.744 OA
ENDBRANCH  70  71
ENDBRANCH  51  65
BRANCH  52  75
ATOM     75  C   UNL     1       6.761  15.374  -3.441  1.00  0.00    -0.014 A 
ATOM     76  C   UNL     1       7.014  16.107  -4.616  1.00  0.00     0.010 A 
ATOM     77  C   UNL     1       6.004  14.190  -3.558  1.00  0.00     0.010 A 
ATOM     78  C   UNL     1       6.614  15.621  -5.872  1.00  0.00     0.020 A 
ATOM     79  C   UNL     1       5.593  13.705  -4.806  1.00  0.00     0.020 A 
ATOM     80  C   UNL     1       5.931  14.406  -5.960  1.00  0.00     0.054 A 
BRANCH  80  81
ATOM     81  S   UNL     1       5.629  13.666  -7.594  1.00  0.00     0.124 S 
ATOM     82  O   UNL     1       4.566  14.512  -8.127  1.00  0.00    -0.237 OA
ATOM     83  O   UNL     1       6.929  13.795  -8.247  1.00  0.00    -0.237 OA
ATOM     84  O   UNL     1       5.232  12.294  -7.281  1.00  0.00    -0.744 OA
ENDBRANCH  80  81
ENDBRANCH  52  75
BRANCH  64  85
ATOM     85  C   UNL     1      10.033  18.575   0.896  1.00  0.00    -0.014 A 
ATOM     86  C   UNL     1       8.665  18.437   1.211  1.00  0.00     0.010 A 
ATOM     87  C   UNL     1      10.696  19.740   1.321  1.00  0.00     0.010 A 
ATOM     88  C   UNL     1       7.972  19.461   1.876  1.00  0.00     0.020 A 
ATOM     89  C   UNL     1      10.018  20.753   2.003  1.00  0.00     0.020 A 
ATOM     90  C   UNL     1       8.653  20.619   2.259  1.00  0.00     0.054 A 
BRANCH  90  91
ATOM     91  S   UNL     1       7.753  21.948   3.106  1.00  0.00     0.124 S 
ATOM     92  O   UNL     1       6.861  22.444   2.062  1.00  0.00    -0.237 OA
ATOM     93  O   UNL     1       7.101  21.248   4.211  1.00  0.00    -0.237 OA
ATOM     94  O   UNL     1       8.806  22.879   3.510  1.00  0.00    -0.744 OA
ENDBRANCH  90  91
ENDBRANCH  64  85
ENDBRANCH  38  39
ENDBRANCH  30  33
ENDBRANCH  28  29
ENDBRANCH  27  28
ENDBRANCH  26  27
ENDBRANCH   3  26
TORSDOF 20
