REMARK SMILES Cc1occc1C(=O)N[C@@H](C)CC(=O)NCCCNC(=O)c1ccc(-c2c3nc(c(-c4ccc(S(=O)(=O)[O-])cc4)c4ccc([nH]4)c(-c4ccc(S(=O)(=O)[O-])cc4)c4nc(c(-c5ccc(S(=O)(=O)[O-])cc5)c5ccc2[nH]5)C=C4)C=C3)cc1
REMARK SMILES IDX 17 1 16 2 15 3 13 4 14 5 12 7 10 8 11 9 9 10 7 11 8 12 6 14
REMARK SMILES IDX 1 15 2 16 3 17 4 18 5 19 18 20 19 21 20 22 21 24 22 25 23 26
REMARK SMILES IDX 81 27 24 28 80 29 25 30 26 31 27 32 74 33 28 34 79 35 73 36
REMARK SMILES IDX 75 37 29 38 78 39 72 40 71 41 30 43 60 44 41 45 59 46 42 47
REMARK SMILES IDX 45 48 58 49 76 50 43 51 44 52 57 54 77 55 46 56 31 57 32 58
REMARK SMILES IDX 40 59 33 60 39 61 34 62 35 63 36 64 37 65 38 66 61 67 62 68
REMARK SMILES IDX 70 69 63 70 69 71 64 72 65 73 66 74 67 75 68 76 47 77 48 78
REMARK SMILES IDX 56 79 49 80 55 81 50 82 51 83 52 84 53 85 54 86
REMARK H PARENT 15 6 9 13 19 23 75 42 45 53
REMARK Flexibility Score: inf
ROOT
ATOM      1  C   UNL     1      -0.078  -4.249  -1.845  1.00  0.00     0.042 C 
ENDROOT
BRANCH   1   2
ATOM      2  C   UNL     1       1.302  -4.512  -2.431  1.00  0.00     0.117 C 
BRANCH   2   3
ATOM      3  N   UNL     1       1.907  -3.293  -2.942  1.00  0.00    -0.356 N 
ATOM      4  C   UNL     1       2.866  -2.506  -2.385  1.00  0.00     0.222 C 
ATOM      5  O   UNL     1       3.178  -1.458  -2.955  1.00  0.00    -0.275 OA
ATOM      6  H   UNL     1       1.573  -2.994  -3.818  1.00  0.00     0.163 HD
BRANCH   4   7
ATOM      7  C   UNL     1       3.547  -2.915  -1.098  1.00  0.00     0.124 C 
BRANCH   7   8
ATOM      8  C   UNL     1       3.004  -2.121   0.093  1.00  0.00     0.088 C 
ATOM      9  C   UNL     1       4.036  -2.117   1.223  1.00  0.00     0.031 C 
BRANCH   8  10
ATOM     10  N   UNL     1       1.780  -2.682   0.643  1.00  0.00    -0.349 N 
ATOM     11  C   UNL     1       0.548  -2.167   0.956  1.00  0.00     0.255 C 
ATOM     12  O   UNL     1      -0.214  -2.960   1.508  1.00  0.00    -0.269 OA
ATOM     13  H   UNL     1       1.851  -3.646   0.832  1.00  0.00     0.164 HD
BRANCH  11  14
ATOM     14  C   UNL     1       0.069  -0.848   0.557  1.00  0.00     0.080 A 
ATOM     15  C   UNL     1       2.001   0.995   0.627  1.00  0.00     0.088 C 
ATOM     16  C   UNL     1       0.665   0.399   0.416  1.00  0.00     0.113 A 
ATOM     17  O   UNL     1      -0.262   1.326   0.024  1.00  0.00    -0.469 OA
ATOM     18  C   UNL     1      -1.464   0.717  -0.029  1.00  0.00     0.196 A 
ATOM     19  C   UNL     1      -1.328  -0.604   0.302  1.00  0.00     0.056 A 
ENDBRANCH  11  14
ENDBRANCH   8  10
ENDBRANCH   7   8
ENDBRANCH   4   7
ENDBRANCH   2   3
ENDBRANCH   1   2
BRANCH   1  20
ATOM     20  C   UNL     1      -1.171  -4.071  -2.889  1.00  0.00     0.118 C 
BRANCH  20  21
ATOM     21  N   UNL     1      -1.494  -5.320  -3.559  1.00  0.00    -0.352 N 
ATOM     22  C   UNL     1      -2.600  -6.128  -3.462  1.00  0.00     0.251 C 
ATOM     23  H   UNL     1      -0.806  -5.640  -4.186  1.00  0.00     0.163 HD
ATOM     24  O   UNL     1      -2.543  -7.260  -3.937  1.00  0.00    -0.269 OA
BRANCH  22  25
ATOM     25  C   UNL     1      -3.844  -5.669  -2.797  1.00  0.00     0.039 A 
ATOM     26  C   UNL     1      -4.609  -6.605  -2.093  1.00  0.00     0.014 A 
ATOM     27  C   UNL     1      -4.309  -4.356  -2.917  1.00  0.00     0.014 A 
ATOM     28  C   UNL     1      -5.804  -6.216  -1.479  1.00  0.00     0.010 A 
ATOM     29  C   UNL     1      -5.452  -3.949  -2.229  1.00  0.00     0.010 A 
ATOM     30  C   UNL     1      -6.224  -4.877  -1.518  1.00  0.00    -0.014 A 
BRANCH  30  31
ATOM     31  C   UNL     1      -7.479  -4.445  -0.847  1.00  0.00     0.031 A 
ATOM     32  C   UNL     1      -8.622  -3.887  -1.658  1.00  0.00     0.074 A 
ATOM     33  C   UNL     1      -7.581  -4.520   0.495  1.00  0.00     0.049 A 
ATOM     34  N   UNL     1      -9.777  -3.427  -1.248  1.00  0.00    -0.248 NA
ATOM     35  C   UNL     1      -8.437  -3.817  -3.118  1.00  0.00     0.031 C 
ATOM     36  C   UNL     1      -6.535  -5.005   1.399  1.00  0.00     0.029 A 
ATOM     37  N   UNL     1      -8.615  -4.188   1.335  1.00  0.00    -0.354 N 
ATOM     38  C   UNL     1     -10.445  -3.001  -2.391  1.00  0.00     0.074 A 
ATOM     39  C   UNL     1      -9.549  -3.210  -3.506  1.00  0.00     0.031 C 
ATOM     40  C   UNL     1      -6.993  -4.969   2.662  1.00  0.00     0.029 A 
ATOM     41  C   UNL     1      -8.345  -4.422   2.664  1.00  0.00     0.049 A 
ATOM     42  H   UNL     1      -9.470  -3.818   1.017  1.00  0.00     0.167 HD
ATOM     43  C   UNL     1     -11.700  -2.503  -2.508  1.00  0.00     0.031 A 
ATOM     44  C   UNL     1      -9.098  -4.214   3.762  1.00  0.00     0.031 A 
ATOM     45  C   UNL     1     -12.600  -2.313  -1.401  1.00  0.00     0.049 A 
ATOM     46  C   UNL     1     -10.485  -3.651   3.606  1.00  0.00     0.074 A 
ATOM     47  C   UNL     1     -13.908  -1.861  -1.424  1.00  0.00     0.029 A 
ATOM     48  N   UNL     1     -12.288  -2.569  -0.075  1.00  0.00    -0.354 N 
ATOM     49  N   UNL     1     -11.117  -3.310   2.508  1.00  0.00    -0.248 NA
ATOM     50  C   UNL     1     -11.264  -3.456   4.836  1.00  0.00     0.031 C 
ATOM     51  C   UNL     1     -14.372  -1.797  -0.107  1.00  0.00     0.029 A 
ATOM     52  C   UNL     1     -13.372  -2.265   0.732  1.00  0.00     0.049 A 
ATOM     53  H   UNL     1     -11.425  -2.915   0.247  1.00  0.00     0.167 HD
ATOM     54  C   UNL     1     -12.378  -2.887   2.915  1.00  0.00     0.074 A 
ATOM     55  C   UNL     1     -12.425  -3.033   4.355  1.00  0.00     0.031 C 
ATOM     56  C   UNL     1     -13.405  -2.419   2.163  1.00  0.00     0.031 A 
BRANCH  43  57
ATOM     57  C   UNL     1     -12.181  -2.132  -3.887  1.00  0.00    -0.014 A 
ATOM     58  C   UNL     1     -12.470  -3.122  -4.844  1.00  0.00     0.010 A 
ATOM     59  C   UNL     1     -12.404  -0.782  -4.212  1.00  0.00     0.010 A 
ATOM     60  C   UNL     1     -12.941  -2.767  -6.111  1.00  0.00     0.020 A 
ATOM     61  C   UNL     1     -12.902  -0.424  -5.469  1.00  0.00     0.020 A 
ATOM     62  C   UNL     1     -13.155  -1.419  -6.415  1.00  0.00     0.054 A 
BRANCH  62  63
ATOM     63  S   UNL     1     -13.804  -0.992  -8.054  1.00  0.00     0.124 S 
ATOM     64  O   UNL     1     -12.646  -1.238  -8.910  1.00  0.00    -0.237 OA
ATOM     65  O   UNL     1     -14.913  -1.929  -8.214  1.00  0.00    -0.237 OA
ATOM     66  O   UNL     1     -14.192   0.410  -7.920  1.00  0.00    -0.744 OA
ENDBRANCH  62  63
ENDBRANCH  43  57
BRANCH  44  67
ATOM     67  C   UNL     1      -8.562  -4.548   5.111  1.00  0.00    -0.014 A 
ATOM     68  C   UNL     1      -9.098  -5.619   5.849  1.00  0.00     0.010 A 
ATOM     69  C   UNL     1      -7.520  -3.787   5.672  1.00  0.00     0.010 A 
ATOM     70  C   UNL     1      -8.623  -5.903   7.133  1.00  0.00     0.020 A 
ATOM     71  C   UNL     1      -7.022  -4.087   6.943  1.00  0.00     0.020 A 
ATOM     72  C   UNL     1      -7.590  -5.133   7.673  1.00  0.00     0.054 A 
BRANCH  72  73
ATOM     73  S   UNL     1      -6.971  -5.535   9.331  1.00  0.00     0.124 S 
ATOM     74  O   UNL     1      -8.043  -5.031  10.184  1.00  0.00    -0.237 OA
ATOM     75  O   UNL     1      -6.838  -6.989   9.276  1.00  0.00    -0.237 OA
ATOM     76  O   UNL     1      -5.709  -4.805   9.412  1.00  0.00    -0.744 OA
ENDBRANCH  72  73
ENDBRANCH  44  67
BRANCH  56  77
ATOM     77  C   UNL     1     -14.682  -2.066   2.879  1.00  0.00    -0.014 A 
ATOM     78  C   UNL     1     -14.771  -0.922   3.691  1.00  0.00     0.010 A 
ATOM     79  C   UNL     1     -15.823  -2.868   2.695  1.00  0.00     0.010 A 
ATOM     80  C   UNL     1     -15.971  -0.606   4.335  1.00  0.00     0.020 A 
ATOM     81  C   UNL     1     -17.032  -2.540   3.314  1.00  0.00     0.020 A 
ATOM     82  C   UNL     1     -17.093  -1.418   4.143  1.00  0.00     0.054 A 
BRANCH  82  83
ATOM     83  S   UNL     1     -18.648  -0.965   4.960  1.00  0.00     0.124 S 
ATOM     84  O   UNL     1     -18.382  -1.336   6.347  1.00  0.00    -0.237 OA
ATOM     85  O   UNL     1     -18.742   0.469   4.699  1.00  0.00    -0.237 OA
ATOM     86  O   UNL     1     -19.649  -1.782   4.277  1.00  0.00    -0.744 OA
ENDBRANCH  82  83
ENDBRANCH  56  77
ENDBRANCH  30  31
ENDBRANCH  22  25
ENDBRANCH  20  21
ENDBRANCH   1  20
TORSDOF 16
