REMARK SMILES C[C@@H](C(=O)NCCCNC(=O)c1ccc(-c2c3nc(c(-c4ccc(S(=O)(=O)[O-])cc4)c4ccc([nH]4)c(-c4ccc(S(=O)(=O)[O-])cc4)c4nc(c(-c5ccc(S(=O)(=O)[O-])cc5)c5ccc2[nH]5)C=C4)C=C3)cc1)c1ccc(C[C@H]2CCC[C@@H]2O)cc1Br
REMARK SMILES IDX 6 1 5 2 3 3 4 4 2 6 1 7 72 8 73 9 84 10 74 11 83 12 85 13
REMARK SMILES IDX 75 14 76 15 77 16 78 17 81 18 79 19 80 20 82 21 7 23 8 24
REMARK SMILES IDX 9 25 10 26 11 28 12 29 13 30 71 31 14 32 70 33 15 34 16 35
REMARK SMILES IDX 17 36 64 37 18 38 69 39 63 40 65 41 19 42 68 43 62 44 61 45
REMARK SMILES IDX 20 47 50 48 31 49 49 50 32 51 35 52 48 53 66 54 33 55 34 56
REMARK SMILES IDX 47 58 67 59 36 60 21 61 22 62 30 63 23 64 29 65 24 66 25 67
REMARK SMILES IDX 26 68 27 69 28 70 51 71 52 72 60 73 53 74 59 75 54 76 55 77
REMARK SMILES IDX 56 78 57 79 58 80 37 81 38 82 46 83 39 84 45 85 40 86 41 87
REMARK SMILES IDX 42 88 43 89 44 90
REMARK H PARENT 5 5 82 22 9 27 65 46 35 57
REMARK Flexibility Score: inf
ROOT
ATOM      1  C   UNL     1       3.459   1.019   1.655  1.00  0.00     0.117 C 
ENDROOT
BRANCH   1   2
ATOM      2  N   UNL     1       2.418   2.019   1.789  1.00  0.00    -0.356 N 
ATOM      3  C   UNL     1       1.069   1.940   1.598  1.00  0.00     0.227 C 
ATOM      4  O   UNL     1       0.440   2.969   1.856  1.00  0.00    -0.274 OA
ATOM      5  H   UNL     1       2.739   2.908   2.065  1.00  0.00     0.163 HD
BRANCH   3   6
ATOM      6  C   UNL     1       0.421   0.617   1.137  1.00  0.00     0.106 C 
ATOM      7  C   UNL     1       0.817   0.234  -0.289  1.00  0.00     0.023 C 
BRANCH   6   8
ATOM      8  C   UNL     1      -1.109   0.576   1.221  1.00  0.00    -0.022 A 
ATOM      9  C   UNL     1      -1.873   1.686   0.812  1.00  0.00     0.006 A 
ATOM     10  C   UNL     1      -1.811  -0.577   1.616  1.00  0.00     0.022 A 
ATOM     11  C   UNL     1      -3.265   1.692   0.901  1.00  0.00     0.004 A 
ATOM     12  C   UNL     1      -3.211  -0.574   1.691  1.00  0.00     0.019 A 
ATOM     13  Br  UNL     1      -0.951  -2.217   2.055  1.00  0.00    -0.051 Br
ATOM     14  C   UNL     1      -3.947   0.576   1.384  1.00  0.00    -0.047 A 
BRANCH  14  15
ATOM     15  C   UNL     1      -5.437   0.617   1.614  1.00  0.00     0.041 C 
BRANCH  15  16
ATOM     16  C   UNL     1      -5.881   1.230   2.955  1.00  0.00     0.022 C 
ATOM     17  C   UNL     1      -5.299   0.573   4.219  1.00  0.00     0.007 C 
ATOM     18  C   UNL     1      -5.592   2.725   3.128  1.00  0.00     0.117 C 
ATOM     19  C   UNL     1      -5.030   1.710   5.208  1.00  0.00     0.003 C 
ATOM     20  C   UNL     1      -5.731   2.927   4.629  1.00  0.00     0.032 C 
BRANCH  18  21
ATOM     21  O   UNL     1      -6.533   3.524   2.433  1.00  0.00    -0.393 OA
ATOM     22  H   UNL     1      -7.428   3.313   2.743  1.00  0.00     0.210 HD
ENDBRANCH  18  21
ENDBRANCH  15  16
ENDBRANCH  14  15
ENDBRANCH   6   8
ENDBRANCH   3   6
ENDBRANCH   1   2
BRANCH   1  23
ATOM     23  C   UNL     1       4.316   1.241   0.412  1.00  0.00     0.042 C 
BRANCH  23  24
ATOM     24  C   UNL     1       5.005   2.599   0.353  1.00  0.00     0.118 C 
BRANCH  24  25
ATOM     25  N   UNL     1       5.963   2.794   1.430  1.00  0.00    -0.352 N 
ATOM     26  C   UNL     1       7.321   2.983   1.375  1.00  0.00     0.251 C 
ATOM     27  H   UNL     1       5.579   2.789   2.337  1.00  0.00     0.163 HD
ATOM     28  O   UNL     1       7.981   2.935   2.413  1.00  0.00    -0.269 OA
BRANCH  26  29
ATOM     29  C   UNL     1       7.995   3.221   0.080  1.00  0.00     0.039 A 
ATOM     30  C   UNL     1       9.202   2.568  -0.184  1.00  0.00     0.014 A 
ATOM     31  C   UNL     1       7.451   4.093  -0.868  1.00  0.00     0.014 A 
ATOM     32  C   UNL     1       9.826   2.737  -1.422  1.00  0.00     0.010 A 
ATOM     33  C   UNL     1       8.030   4.194  -2.131  1.00  0.00     0.010 A 
ATOM     34  C   UNL     1       9.226   3.521  -2.421  1.00  0.00    -0.014 A 
BRANCH  34  35
ATOM     35  C   UNL     1       9.829   3.643  -3.774  1.00  0.00     0.031 A 
ATOM     36  C   UNL     1      10.285   4.984  -4.284  1.00  0.00     0.074 A 
ATOM     37  C   UNL     1       9.906   2.558  -4.570  1.00  0.00     0.049 A 
ATOM     38  N   UNL     1      10.777   5.297  -5.456  1.00  0.00    -0.248 NA
ATOM     39  C   UNL     1      10.149   6.128  -3.367  1.00  0.00     0.031 C 
ATOM     40  C   UNL     1       9.461   1.209  -4.209  1.00  0.00     0.029 A 
ATOM     41  N   UNL     1      10.377   2.417  -5.852  1.00  0.00    -0.354 N 
ATOM     42  C   UNL     1      10.992   6.670  -5.423  1.00  0.00     0.074 A 
ATOM     43  C   UNL     1      10.529   7.138  -4.136  1.00  0.00     0.031 C 
ATOM     44  C   UNL     1       9.703   0.376  -5.234  1.00  0.00     0.029 A 
ATOM     45  C   UNL     1      10.274   1.136  -6.342  1.00  0.00     0.049 A 
ATOM     46  H   UNL     1      10.754   3.163  -6.372  1.00  0.00     0.167 HD
ATOM     47  C   UNL     1      11.542   7.467  -6.371  1.00  0.00     0.031 A 
ATOM     48  C   UNL     1      10.590   0.628  -7.550  1.00  0.00     0.031 A 
ATOM     49  C   UNL     1      12.003   6.995  -7.651  1.00  0.00     0.049 A 
ATOM     50  C   UNL     1      11.180   1.536  -8.594  1.00  0.00     0.074 A 
ATOM     51  C   UNL     1      12.625   7.713  -8.658  1.00  0.00     0.029 A 
ATOM     52  N   UNL     1      11.888   5.690  -8.104  1.00  0.00    -0.354 N 
ATOM     53  N   UNL     1      11.442   2.819  -8.517  1.00  0.00    -0.248 NA
ATOM     54  C   UNL     1      11.528   0.925  -9.884  1.00  0.00     0.031 C 
ATOM     55  C   UNL     1      12.828   6.856  -9.743  1.00  0.00     0.029 A 
ATOM     56  C   UNL     1      12.398   5.587  -9.387  1.00  0.00     0.049 A 
ATOM     57  H   UNL     1      11.500   4.945  -7.589  1.00  0.00     0.167 HD
ATOM     58  C   UNL     1      12.012   3.163  -9.738  1.00  0.00     0.074 A 
ATOM     59  C   UNL     1      12.070   1.950 -10.528  1.00  0.00     0.031 C 
ATOM     60  C   UNL     1      12.449   4.374 -10.165  1.00  0.00     0.031 A 
BRANCH  47  61
ATOM     61  C   UNL     1      11.662   8.938  -6.062  1.00  0.00    -0.014 A 
ATOM     62  C   UNL     1      12.547   9.406  -5.073  1.00  0.00     0.010 A 
ATOM     63  C   UNL     1      10.905   9.870  -6.796  1.00  0.00     0.010 A 
ATOM     64  C   UNL     1      12.636  10.772  -4.791  1.00  0.00     0.020 A 
ATOM     65  C   UNL     1      11.015  11.240  -6.539  1.00  0.00     0.020 A 
ATOM     66  C   UNL     1      11.867  11.680  -5.524  1.00  0.00     0.054 A 
BRANCH  66  67
ATOM     67  S   UNL     1      12.014  13.447  -5.145  1.00  0.00     0.124 S 
ATOM     68  O   UNL     1      11.345  13.534  -3.849  1.00  0.00    -0.237 OA
ATOM     69  O   UNL     1      13.461  13.649  -5.118  1.00  0.00    -0.237 OA
ATOM     70  O   UNL     1      11.317  14.100  -6.250  1.00  0.00    -0.744 OA
ENDBRANCH  66  67
ENDBRANCH  47  61
BRANCH  48  71
ATOM     71  C   UNL     1      10.355  -0.816  -7.832  1.00  0.00    -0.014 A 
ATOM     72  C   UNL     1      11.435  -1.702  -7.988  1.00  0.00     0.010 A 
ATOM     73  C   UNL     1       9.043  -1.315  -7.928  1.00  0.00     0.010 A 
ATOM     74  C   UNL     1      11.208  -3.056  -8.252  1.00  0.00     0.020 A 
ATOM     75  C   UNL     1       8.812  -2.674  -8.160  1.00  0.00     0.020 A 
ATOM     76  C   UNL     1       9.897  -3.534  -8.332  1.00  0.00     0.054 A 
BRANCH  76  77
ATOM     77  S   UNL     1       9.628  -5.306  -8.619  1.00  0.00     0.124 S 
ATOM     78  O   UNL     1      10.017  -5.449 -10.018  1.00  0.00    -0.237 OA
ATOM     79  O   UNL     1      10.525  -5.922  -7.645  1.00  0.00    -0.237 OA
ATOM     80  O   UNL     1       8.204  -5.484  -8.343  1.00  0.00    -0.744 OA
ENDBRANCH  76  77
ENDBRANCH  48  71
BRANCH  60  81
ATOM     81  C   UNL     1      13.065   4.448 -11.537  1.00  0.00    -0.014 A 
ATOM     82  C   UNL     1      12.284   4.320 -12.700  1.00  0.00     0.010 A 
ATOM     83  C   UNL     1      14.442   4.711 -11.663  1.00  0.00     0.010 A 
ATOM     84  C   UNL     1      12.875   4.426 -13.962  1.00  0.00     0.020 A 
ATOM     85  C   UNL     1      15.030   4.850 -12.923  1.00  0.00     0.020 A 
ATOM     86  C   UNL     1      14.244   4.693 -14.066  1.00  0.00     0.054 A 
BRANCH  86  87
ATOM     87  S   UNL     1      14.974   4.877 -15.715  1.00  0.00     0.124 S 
ATOM     88  O   UNL     1      14.962   3.502 -16.208  1.00  0.00    -0.237 OA
ATOM     89  O   UNL     1      14.045   5.790 -16.376  1.00  0.00    -0.237 OA
ATOM     90  O   UNL     1      16.300   5.431 -15.449  1.00  0.00    -0.744 OA
ENDBRANCH  86  87
ENDBRANCH  60  81
ENDBRANCH  34  35
ENDBRANCH  26  29
ENDBRANCH  24  25
ENDBRANCH  23  24
ENDBRANCH   1  23
TORSDOF 17
