REMARK SMILES CC(C)[C@H](NC(=O)OCc1ccccc1)C(=O)NCC(=O)NCCCNC(=O)c1ccc(-c2c3nc(c(-c4ccc(S(=O)(=O)[O-])cc4)c4ccc([nH]4)c(-c4ccc(S(=O)(=O)[O-])cc4)c4nc(c(-c5ccc(S(=O)(=O)[O-])cc5)c5ccc2[nH]5)C=C4)C=C3)cc1
REMARK SMILES IDX 20 1 21 2 22 3 19 5 18 6 16 7 17 8 4 10 2 11 1 12 3 13 5 14
REMARK SMILES IDX 6 15 7 17 8 18 9 19 10 20 11 21 15 22 12 23 14 24 13 25
REMARK SMILES IDX 23 26 24 27 25 28 26 29 27 30 28 32 29 33 30 34 88 35 31 36
REMARK SMILES IDX 87 37 32 38 33 39 34 40 81 41 35 42 86 43 80 44 82 45 36 46
REMARK SMILES IDX 85 47 79 48 78 49 37 51 67 52 48 53 66 54 49 55 52 56 65 57
REMARK SMILES IDX 83 58 50 59 51 60 64 62 84 63 53 64 38 65 39 66 47 67 40 68
REMARK SMILES IDX 46 69 41 70 42 71 43 72 44 73 45 74 68 75 69 76 77 77 70 78
REMARK SMILES IDX 76 79 71 80 72 81 73 82 74 83 75 84 54 85 55 86 63 87 56 88
REMARK SMILES IDX 62 89 57 90 58 91 59 92 60 93 61 94
REMARK H PARENT 22 4 18 9 5 16 26 31 82 50 52 61
REMARK Flexibility Score: inf
ROOT
ATOM      1  C   UNL     1       0.653   2.254   4.644  1.00  0.00     0.239 C 
ATOM      2  O   UNL     1       0.966   2.001   5.814  1.00  0.00    -0.273 OA
ATOM      3  N   UNL     1       1.577   2.910   3.889  1.00  0.00    -0.355 N 
ATOM      4  H   UNL     1       2.293   3.355   4.398  1.00  0.00     0.163 HD
ENDROOT
BRANCH   1   5
ATOM      5  C   UNL     1      -0.658   1.682   4.066  1.00  0.00     0.216 C 
BRANCH   5   6
ATOM      6  N   UNL     1      -1.299   2.403   2.987  1.00  0.00    -0.345 N 
ATOM      7  C   UNL     1      -1.598   2.060   1.709  1.00  0.00     0.243 C 
ATOM      8  O   UNL     1      -2.156   2.937   1.037  1.00  0.00    -0.273 OA
ATOM      9  H   UNL     1      -1.571   3.318   3.227  1.00  0.00     0.164 HD
BRANCH   7  10
ATOM     10  C   UNL     1      -1.258   0.694   1.043  1.00  0.00     0.177 C 
BRANCH  10  11
ATOM     11  C   UNL     1      -2.029  -0.535   1.560  1.00  0.00     0.015 C 
ATOM     12  C   UNL     1      -3.528  -0.242   1.688  1.00  0.00     0.010 C 
ATOM     13  C   UNL     1      -1.838  -1.718   0.598  1.00  0.00     0.010 C 
ENDBRANCH  10  11
BRANCH  10  14
ATOM     14  N   UNL     1       0.182   0.521   0.809  1.00  0.00    -0.309 N 
ATOM     15  C   UNL     1       1.155  -0.070   1.551  1.00  0.00     0.408 C 
ATOM     16  H   UNL     1       0.500   0.904  -0.040  1.00  0.00     0.167 HD
ATOM     17  O   UNL     1       2.335   0.165   1.312  1.00  0.00    -0.225 OA
BRANCH  15  18
ATOM     18  O   UNL     1       0.701  -0.839   2.561  1.00  0.00    -0.445 OA
BRANCH  18  19
ATOM     19  C   UNL     1       1.679  -1.261   3.523  1.00  0.00     0.270 C 
BRANCH  19  20
ATOM     20  C   UNL     1       2.506  -2.417   3.028  1.00  0.00    -0.011 A 
ATOM     21  C   UNL     1       1.959  -3.702   2.929  1.00  0.00     0.007 A 
ATOM     22  C   UNL     1       3.831  -2.205   2.623  1.00  0.00     0.007 A 
ATOM     23  C   UNL     1       2.729  -4.755   2.434  1.00  0.00     0.000 A 
ATOM     24  C   UNL     1       4.596  -3.256   2.122  1.00  0.00     0.000 A 
ATOM     25  C   UNL     1       4.045  -4.531   2.027  1.00  0.00     0.000 A 
ENDBRANCH  19  20
ENDBRANCH  18  19
ENDBRANCH  15  18
ENDBRANCH  10  14
ENDBRANCH   7  10
ENDBRANCH   5   6
ENDBRANCH   1   5
BRANCH   3  26
ATOM     26  C   UNL     1       1.668   3.051   2.453  1.00  0.00     0.117 C 
BRANCH  26  27
ATOM     27  C   UNL     1       1.554   4.477   1.957  1.00  0.00     0.042 C 
BRANCH  27  28
ATOM     28  C   UNL     1       2.838   5.270   2.135  1.00  0.00     0.118 C 
BRANCH  28  29
ATOM     29  N   UNL     1       3.947   4.753   1.338  1.00  0.00    -0.352 N 
ATOM     30  C   UNL     1       4.726   5.373   0.390  1.00  0.00     0.251 C 
ATOM     31  H   UNL     1       4.173   3.809   1.506  1.00  0.00     0.163 HD
ATOM     32  O   UNL     1       5.526   4.714  -0.269  1.00  0.00    -0.269 OA
BRANCH  30  33
ATOM     33  C   UNL     1       4.577   6.822   0.141  1.00  0.00     0.039 A 
ATOM     34  C   UNL     1       4.573   7.289  -1.176  1.00  0.00     0.014 A 
ATOM     35  C   UNL     1       4.414   7.715   1.201  1.00  0.00     0.014 A 
ATOM     36  C   UNL     1       4.312   8.637  -1.429  1.00  0.00     0.010 A 
ATOM     37  C   UNL     1       4.048   9.029   0.944  1.00  0.00     0.010 A 
ATOM     38  C   UNL     1       3.995   9.506  -0.373  1.00  0.00    -0.014 A 
BRANCH  38  39
ATOM     39  C   UNL     1       3.599  10.916  -0.614  1.00  0.00     0.031 A 
ATOM     40  C   UNL     1       4.410  12.037  -0.020  1.00  0.00     0.074 A 
ATOM     41  C   UNL     1       2.461  11.184  -1.286  1.00  0.00     0.049 A 
ATOM     42  N   UNL     1       4.171  13.323  -0.032  1.00  0.00    -0.248 NA
ATOM     43  C   UNL     1       5.628  11.660   0.717  1.00  0.00     0.031 C 
ATOM     44  C   UNL     1       1.557  10.183  -1.860  1.00  0.00     0.029 A 
ATOM     45  N   UNL     1       1.863  12.381  -1.591  1.00  0.00    -0.354 N 
ATOM     46  C   UNL     1       5.189  13.902   0.718  1.00  0.00     0.074 A 
ATOM     47  C   UNL     1       6.016  12.825   1.214  1.00  0.00     0.031 C 
ATOM     48  C   UNL     1       0.539  10.808  -2.472  1.00  0.00     0.029 A 
ATOM     49  C   UNL     1       0.692  12.249  -2.299  1.00  0.00     0.049 A 
ATOM     50  H   UNL     1       2.238  13.252  -1.328  1.00  0.00     0.167 HD
ATOM     51  C   UNL     1       5.427  15.214   0.955  1.00  0.00     0.031 A 
ATOM     52  C   UNL     1      -0.168  13.181  -2.752  1.00  0.00     0.031 A 
ATOM     53  C   UNL     1       4.617  16.282   0.435  1.00  0.00     0.049 A 
ATOM     54  C   UNL     1       0.129  14.633  -2.497  1.00  0.00     0.074 A 
ATOM     55  C   UNL     1       4.814  17.647   0.555  1.00  0.00     0.029 A 
ATOM     56  N   UNL     1       3.458  16.107  -0.305  1.00  0.00    -0.354 N 
ATOM     57  N   UNL     1       1.135  15.164  -1.845  1.00  0.00    -0.248 NA
ATOM     58  C   UNL     1      -0.819  15.610  -3.049  1.00  0.00     0.031 C 
ATOM     59  C   UNL     1       3.747  18.297  -0.076  1.00  0.00     0.029 A 
ATOM     60  C   UNL     1       2.916  17.338  -0.633  1.00  0.00     0.049 A 
ATOM     61  H   UNL     1       3.077  15.236  -0.560  1.00  0.00     0.167 HD
ATOM     62  C   UNL     1       0.954  16.540  -1.927  1.00  0.00     0.074 A 
ATOM     63  C   UNL     1      -0.249  16.757  -2.704  1.00  0.00     0.031 C 
ATOM     64  C   UNL     1       1.715  17.534  -1.405  1.00  0.00     0.031 A 
BRANCH  51  65
ATOM     65  C   UNL     1       6.613  15.559   1.816  1.00  0.00    -0.014 A 
ATOM     66  C   UNL     1       7.928  15.358   1.357  1.00  0.00     0.010 A 
ATOM     67  C   UNL     1       6.412  16.111   3.094  1.00  0.00     0.010 A 
ATOM     68  C   UNL     1       9.018  15.655   2.179  1.00  0.00     0.020 A 
ATOM     69  C   UNL     1       7.501  16.438   3.908  1.00  0.00     0.020 A 
ATOM     70  C   UNL     1       8.797  16.189   3.452  1.00  0.00     0.054 A 
BRANCH  70  71
ATOM     71  S   UNL     1      10.231  16.577   4.493  1.00  0.00     0.124 S 
ATOM     72  O   UNL     1      10.666  15.247   4.913  1.00  0.00    -0.237 OA
ATOM     73  O   UNL     1      11.125  17.265   3.566  1.00  0.00    -0.237 OA
ATOM     74  O   UNL     1       9.674  17.414   5.553  1.00  0.00    -0.744 OA
ENDBRANCH  70  71
ENDBRANCH  51  65
BRANCH  52  75
ATOM     75  C   UNL     1      -1.377  12.766  -3.515  1.00  0.00    -0.014 A 
ATOM     76  C   UNL     1      -1.453  12.986  -4.901  1.00  0.00     0.010 A 
ATOM     77  C   UNL     1      -2.445  12.120  -2.865  1.00  0.00     0.010 A 
ATOM     78  C   UNL     1      -2.580  12.581  -5.622  1.00  0.00     0.020 A 
ATOM     79  C   UNL     1      -3.562  11.691  -3.587  1.00  0.00     0.020 A 
ATOM     80  C   UNL     1      -3.627  11.933  -4.961  1.00  0.00     0.054 A 
BRANCH  80  81
ATOM     81  S   UNL     1      -5.052  11.361  -5.928  1.00  0.00     0.124 S 
ATOM     82  O   UNL     1      -5.754  12.610  -6.202  1.00  0.00    -0.237 OA
ATOM     83  O   UNL     1      -4.417  10.725  -7.081  1.00  0.00    -0.237 OA
ATOM     84  O   UNL     1      -5.735  10.443  -5.019  1.00  0.00    -0.744 OA
ENDBRANCH  80  81
ENDBRANCH  52  75
BRANCH  64  85
ATOM     85  C   UNL     1       1.286  18.949  -1.681  1.00  0.00    -0.014 A 
ATOM     86  C   UNL     1       0.168  19.508  -1.038  1.00  0.00     0.010 A 
ATOM     87  C   UNL     1       2.048  19.747  -2.554  1.00  0.00     0.010 A 
ATOM     88  C   UNL     1      -0.198  20.833  -1.286  1.00  0.00     0.020 A 
ATOM     89  C   UNL     1       1.701  21.080  -2.783  1.00  0.00     0.020 A 
ATOM     90  C   UNL     1       0.571  21.610  -2.158  1.00  0.00     0.054 A 
BRANCH  90  91
ATOM     91  S   UNL     1       0.102  23.341  -2.429  1.00  0.00     0.124 S 
ATOM     92  O   UNL     1      -1.065  23.208  -3.296  1.00  0.00    -0.237 OA
ATOM     93  O   UNL     1      -0.171  23.816  -1.075  1.00  0.00    -0.237 OA
ATOM     94  O   UNL     1       1.284  23.925  -3.060  1.00  0.00    -0.744 OA
ENDBRANCH  90  91
ENDBRANCH  64  85
ENDBRANCH  38  39
ENDBRANCH  30  33
ENDBRANCH  28  29
ENDBRANCH  27  28
ENDBRANCH  26  27
ENDBRANCH   3  26
TORSDOF 20
