REMARK SMILES C[C@]1(CCC(=O)NCCCNC(=O)c2ccc(-c3c4nc(c(-c5ccc(S(=O)(=O)[O-])cc5)c5ccc([nH]5)c(-c5ccc(S(=O)(=O)[O-])cc5)c5nc(c(-c6ccc(S(=O)(=O)[O-])cc6)c6ccc3[nH]6)C=C5)C=C4)cc2)CCCCC1=O
REMARK SMILES IDX 9 1 8 2 7 3 5 4 6 5 4 7 3 8 2 9 1 10 74 11 78 12 75 13 77 14
REMARK SMILES IDX 79 15 76 16 10 17 11 18 12 19 13 21 14 22 15 23 73 24 16 25
REMARK SMILES IDX 72 26 17 27 18 28 19 29 66 30 20 31 71 32 65 33 67 34 21 35
REMARK SMILES IDX 70 36 64 37 63 38 22 40 52 41 33 42 51 43 34 44 37 45 50 46
REMARK SMILES IDX 68 47 35 48 36 49 49 51 69 52 38 53 23 54 24 55 32 56 25 57
REMARK SMILES IDX 31 58 26 59 27 60 28 61 29 62 30 63 53 64 54 65 62 66 55 67
REMARK SMILES IDX 61 68 56 69 57 70 58 71 59 72 60 73 39 74 40 75 48 76 41 77
REMARK SMILES IDX 47 78 42 79 43 80 44 81 45 82 46 83
REMARK H PARENT 7 6 11 20 67 39 37 50
REMARK Flexibility Score: inf
ROOT
ATOM      1  C   UNL     1      -1.363  -1.342   3.631  1.00  0.00     0.042 C 
ENDROOT
BRANCH   1   2
ATOM      2  C   UNL     1      -0.948  -2.416   2.604  1.00  0.00     0.117 C 
BRANCH   2   3
ATOM      3  N   UNL     1      -1.364  -2.200   1.222  1.00  0.00    -0.356 N 
ATOM      4  C   UNL     1      -0.718  -1.806   0.090  1.00  0.00     0.220 C 
ATOM      5  O   UNL     1      -1.369  -1.759  -0.959  1.00  0.00    -0.275 OA
ATOM      6  H   UNL     1      -2.321  -2.379   1.076  1.00  0.00     0.163 HD
BRANCH   4   7
ATOM      7  C   UNL     1       0.755  -1.440   0.068  1.00  0.00     0.101 C 
BRANCH   7   8
ATOM      8  C   UNL     1       1.040   0.053  -0.264  1.00  0.00     0.024 C 
BRANCH   8   9
ATOM      9  C   UNL     1       0.634   1.091   0.821  1.00  0.00     0.027 C 
ATOM     10  C   UNL     1       1.192   0.638   2.185  1.00  0.00     0.019 C 
ATOM     11  C   UNL     1       1.251   2.509   0.621  1.00  0.00     0.014 C 
ATOM     12  C   UNL     1      -0.895   1.240   0.793  1.00  0.00     0.138 C 
ATOM     13  C   UNL     1       0.533   3.484  -0.311  1.00  0.00     0.001 C 
ATOM     14  C   UNL     1      -1.501   2.088  -0.296  1.00  0.00     0.076 C 
ATOM     15  O   UNL     1      -1.635   0.676   1.593  1.00  0.00    -0.299 OA
ATOM     16  C   UNL     1      -0.973   3.490  -0.097  1.00  0.00     0.008 C 
ENDBRANCH   8   9
ENDBRANCH   7   8
ENDBRANCH   4   7
ENDBRANCH   2   3
ENDBRANCH   1   2
BRANCH   1  17
ATOM     17  C   UNL     1      -2.825  -0.873   3.609  1.00  0.00     0.118 C 
BRANCH  17  18
ATOM     18  N   UNL     1      -3.533  -1.281   4.808  1.00  0.00    -0.352 N 
ATOM     19  C   UNL     1      -4.037  -0.535   5.846  1.00  0.00     0.251 C 
ATOM     20  H   UNL     1      -3.677  -2.251   4.891  1.00  0.00     0.163 HD
ATOM     21  O   UNL     1      -4.336  -1.131   6.882  1.00  0.00    -0.269 OA
BRANCH  19  22
ATOM     22  C   UNL     1      -4.249   0.941   5.779  1.00  0.00     0.039 A 
ATOM     23  C   UNL     1      -4.098   1.671   6.968  1.00  0.00     0.014 A 
ATOM     24  C   UNL     1      -4.744   1.600   4.648  1.00  0.00     0.014 A 
ATOM     25  C   UNL     1      -4.445   3.029   7.030  1.00  0.00     0.010 A 
ATOM     26  C   UNL     1      -5.057   2.971   4.702  1.00  0.00     0.010 A 
ATOM     27  C   UNL     1      -4.937   3.697   5.899  1.00  0.00    -0.014 A 
BRANCH  27  28
ATOM     28  C   UNL     1      -5.375   5.124   5.993  1.00  0.00     0.031 A 
ATOM     29  C   UNL     1      -6.839   5.486   5.893  1.00  0.00     0.074 A 
ATOM     30  C   UNL     1      -4.472   6.107   6.190  1.00  0.00     0.049 A 
ATOM     31  N   UNL     1      -7.405   6.668   5.942  1.00  0.00    -0.248 NA
ATOM     32  C   UNL     1      -7.789   4.377   5.713  1.00  0.00     0.031 C 
ATOM     33  C   UNL     1      -3.027   5.916   6.319  1.00  0.00     0.029 A 
ATOM     34  N   UNL     1      -4.638   7.467   6.321  1.00  0.00    -0.354 N 
ATOM     35  C   UNL     1      -8.771   6.447   5.794  1.00  0.00     0.074 A 
ATOM     36  C   UNL     1      -8.946   5.020   5.617  1.00  0.00     0.031 C 
ATOM     37  C   UNL     1      -2.442   7.109   6.522  1.00  0.00     0.029 A 
ATOM     38  C   UNL     1      -3.461   8.156   6.507  1.00  0.00     0.049 A 
ATOM     39  H   UNL     1      -5.518   7.907   6.284  1.00  0.00     0.167 HD
ATOM     40  C   UNL     1      -9.792   7.340   5.819  1.00  0.00     0.031 A 
ATOM     41  C   UNL     1      -3.221   9.476   6.642  1.00  0.00     0.031 A 
ATOM     42  C   UNL     1      -9.636   8.760   6.003  1.00  0.00     0.049 A 
ATOM     43  C   UNL     1      -4.369  10.453   6.623  1.00  0.00     0.074 A 
ATOM     44  C   UNL     1     -10.620   9.734   6.052  1.00  0.00     0.029 A 
ATOM     45  N   UNL     1      -8.425   9.411   6.174  1.00  0.00    -0.354 N 
ATOM     46  N   UNL     1      -5.653  10.215   6.504  1.00  0.00    -0.248 NA
ATOM     47  C   UNL     1      -4.034  11.879   6.769  1.00  0.00     0.031 C 
ATOM     48  C   UNL     1     -10.002  10.977   6.216  1.00  0.00     0.029 A 
ATOM     49  C   UNL     1      -8.637  10.772   6.319  1.00  0.00     0.049 A 
ATOM     50  H   UNL     1      -7.545   8.971   6.191  1.00  0.00     0.167 HD
ATOM     51  C   UNL     1      -6.278  11.455   6.597  1.00  0.00     0.074 A 
ATOM     52  C   UNL     1      -5.236  12.440   6.790  1.00  0.00     0.031 C 
ATOM     53  C   UNL     1      -7.599  11.748   6.530  1.00  0.00     0.031 A 
BRANCH  40  54
ATOM     54  C   UNL     1     -11.192   6.810   5.645  1.00  0.00    -0.014 A 
ATOM     55  C   UNL     1     -11.832   6.109   6.682  1.00  0.00     0.010 A 
ATOM     56  C   UNL     1     -11.906   7.085   4.463  1.00  0.00     0.010 A 
ATOM     57  C   UNL     1     -13.150   5.668   6.531  1.00  0.00     0.020 A 
ATOM     58  C   UNL     1     -13.232   6.667   4.318  1.00  0.00     0.020 A 
ATOM     59  C   UNL     1     -13.841   5.949   5.349  1.00  0.00     0.054 A 
BRANCH  59  60
ATOM     60  S   UNL     1     -15.564   5.399   5.196  1.00  0.00     0.124 S 
ATOM     61  O   UNL     1     -15.405   3.960   5.001  1.00  0.00    -0.237 OA
ATOM     62  O   UNL     1     -16.144   5.798   6.476  1.00  0.00    -0.237 OA
ATOM     63  O   UNL     1     -16.061   6.133   4.035  1.00  0.00    -0.744 OA
ENDBRANCH  59  60
ENDBRANCH  40  54
BRANCH  41  64
ATOM     64  C   UNL     1      -1.825   9.973   6.799  1.00  0.00    -0.014 A 
ATOM     65  C   UNL     1      -1.393  10.529   8.016  1.00  0.00     0.010 A 
ATOM     66  C   UNL     1      -0.932   9.928   5.713  1.00  0.00     0.010 A 
ATOM     67  C   UNL     1      -0.105  11.060   8.135  1.00  0.00     0.020 A 
ATOM     68  C   UNL     1       0.365  10.432   5.836  1.00  0.00     0.020 A 
ATOM     69  C   UNL     1       0.765  11.013   7.042  1.00  0.00     0.054 A 
BRANCH  69  70
ATOM     70  S   UNL     1       2.439  11.688   7.218  1.00  0.00     0.124 S 
ATOM     71  O   UNL     1       2.198  13.124   7.121  1.00  0.00    -0.237 OA
ATOM     72  O   UNL     1       2.844  11.200   8.534  1.00  0.00    -0.237 OA
ATOM     73  O   UNL     1       3.163  11.097   6.094  1.00  0.00    -0.744 OA
ENDBRANCH  69  70
ENDBRANCH  41  64
BRANCH  53  74
ATOM     74  C   UNL     1      -8.011  13.184   6.721  1.00  0.00    -0.014 A 
ATOM     75  C   UNL     1      -7.801  14.146   5.717  1.00  0.00     0.010 A 
ATOM     76  C   UNL     1      -8.675  13.562   7.903  1.00  0.00     0.010 A 
ATOM     77  C   UNL     1      -8.225  15.465   5.902  1.00  0.00     0.020 A 
ATOM     78  C   UNL     1      -9.121  14.875   8.082  1.00  0.00     0.020 A 
ATOM     79  C   UNL     1      -8.882  15.822   7.084  1.00  0.00     0.054 A 
BRANCH  79  80
ATOM     80  S   UNL     1      -9.468  17.528   7.281  1.00  0.00     0.124 S 
ATOM     81  O   UNL     1      -8.229  18.245   7.565  1.00  0.00    -0.237 OA
ATOM     82  O   UNL     1     -10.075  17.812   5.982  1.00  0.00    -0.237 OA
ATOM     83  O   UNL     1     -10.410  17.445   8.395  1.00  0.00    -0.744 OA
ENDBRANCH  79  80
ENDBRANCH  53  74
ENDBRANCH  27  28
ENDBRANCH  19  22
ENDBRANCH  17  18
ENDBRANCH   1  17
TORSDOF 15
