REMARK SMILES CC(C)Nc1ncc(C(=O)N2CCC[C@H](c3cccc(C(=O)NCCCNC(=O)c4ccc(-c5c6nc(c(-c7ccc(S(=O)(=O)[O-])cc7)c7ccc([nH]7)c(-c7ccc(S(=O)(=O)[O-])cc7)c7nc(c(-c8ccc(S(=O)(=O)[O-])cc8)c8ccc5[nH]8)C=C7)C=C6)cc4)c3)C2)cn1
REMARK SMILES IDX 24 1 23 2 21 3 22 4 20 6 16 7 17 8 90 9 18 10 19 11 15 12
REMARK SMILES IDX 11 13 12 14 91 15 13 16 14 17 9 18 10 19 8 20 5 21 6 22
REMARK SMILES IDX 93 23 7 24 92 25 4 26 2 28 1 29 3 30 25 31 26 32 27 33 28 34
REMARK SMILES IDX 29 36 30 37 31 38 89 39 32 40 88 41 33 42 34 43 35 44 82 45
REMARK SMILES IDX 36 46 87 47 81 48 83 49 37 50 86 51 80 52 79 53 38 55 68 56
REMARK SMILES IDX 49 57 67 58 50 59 53 60 66 61 84 62 51 63 52 64 65 66 85 67
REMARK SMILES IDX 54 68 39 69 40 70 48 71 41 72 47 73 42 74 43 75 44 76 45 77
REMARK SMILES IDX 46 78 69 79 70 80 78 81 71 82 77 83 72 84 73 85 74 86 75 87
REMARK SMILES IDX 76 88 55 89 56 90 64 91 57 92 63 93 58 94 59 95 60 96 61 97
REMARK SMILES IDX 62 98
REMARK H PARENT 23 5 4 27 27 35 83 54 53 65
REMARK Flexibility Score: inf
ROOT
ATOM      1  C   UNL     1      -5.823  11.657   1.714  1.00  0.00     0.118 C 
ENDROOT
BRANCH   1   2
ATOM      2  N   UNL     1      -4.722  12.313   1.017  1.00  0.00    -0.352 N 
ATOM      3  C   UNL     1      -3.679  11.890   0.224  1.00  0.00     0.251 C 
ATOM      4  O   UNL     1      -2.917  12.756  -0.211  1.00  0.00    -0.269 OA
ATOM      5  H   UNL     1      -4.725  13.289   1.145  1.00  0.00     0.163 HD
BRANCH   3   6
ATOM      6  C   UNL     1      -3.383  10.461  -0.083  1.00  0.00     0.040 A 
ATOM      7  C   UNL     1      -4.013   8.087  -0.033  1.00  0.00    -0.042 A 
ATOM      8  C   UNL     1      -2.695   7.758  -0.367  1.00  0.00     0.004 A 
ATOM      9  C   UNL     1      -4.339   9.452  -0.017  1.00  0.00     0.018 A 
ATOM     10  C   UNL     1      -1.751   8.760  -0.626  1.00  0.00     0.001 A 
ATOM     11  C   UNL     1      -2.083  10.104  -0.445  1.00  0.00     0.014 A 
BRANCH   7  12
ATOM     12  C   UNL     1      -5.048   7.066   0.463  1.00  0.00     0.039 C 
ATOM     13  N   UNL     1      -5.120   5.435  -1.404  1.00  0.00    -0.338 N 
ATOM     14  C   UNL     1      -6.434   5.887  -1.855  1.00  0.00     0.120 C 
ATOM     15  C   UNL     1      -4.822   5.604   0.023  1.00  0.00     0.128 C 
ATOM     16  C   UNL     1      -6.772   7.291  -1.373  1.00  0.00     0.022 C 
ATOM     17  C   UNL     1      -6.520   7.414   0.128  1.00  0.00     0.012 C 
BRANCH  13  18
ATOM     18  C   UNL     1      -4.216   4.954  -2.340  1.00  0.00     0.257 C 
ATOM     19  O   UNL     1      -4.214   5.297  -3.518  1.00  0.00    -0.269 OA
BRANCH  18  20
ATOM     20  C   UNL     1      -3.287   3.890  -1.938  1.00  0.00     0.076 A 
ATOM     21  C   UNL     1      -1.691   1.744  -1.445  1.00  0.00     0.222 A 
ATOM     22  N   UNL     1      -2.894   1.784  -0.857  1.00  0.00    -0.221 NA
ATOM     23  N   UNL     1      -1.222   2.706  -2.256  1.00  0.00    -0.221 NA
ATOM     24  C   UNL     1      -3.668   2.857  -1.115  1.00  0.00     0.130 A 
ATOM     25  C   UNL     1      -2.046   3.751  -2.510  1.00  0.00     0.130 A 
BRANCH  21  26
ATOM     26  N   UNL     1      -0.960   0.624  -1.177  1.00  0.00    -0.352 N 
ATOM     27  H   UNL     1      -1.433  -0.190  -0.888  1.00  0.00     0.163 HD
BRANCH  26  28
ATOM     28  C   UNL     1       0.477   0.580  -1.298  1.00  0.00     0.076 C 
ATOM     29  C   UNL     1       1.042   0.045   0.018  1.00  0.00     0.030 C 
ATOM     30  C   UNL     1       0.870  -0.324  -2.461  1.00  0.00     0.030 C 
ENDBRANCH  26  28
ENDBRANCH  21  26
ENDBRANCH  18  20
ENDBRANCH  13  18
ENDBRANCH   7  12
ENDBRANCH   3   6
ENDBRANCH   1   2
BRANCH   1  31
ATOM     31  C   UNL     1      -5.685  11.641   3.226  1.00  0.00     0.042 C 
BRANCH  31  32
ATOM     32  C   UNL     1      -5.967  12.984   3.878  1.00  0.00     0.118 C 
BRANCH  32  33
ATOM     33  N   UNL     1      -7.315  13.468   3.595  1.00  0.00    -0.352 N 
ATOM     34  C   UNL     1      -8.419  13.594   4.402  1.00  0.00     0.251 C 
ATOM     35  H   UNL     1      -7.458  13.754   2.664  1.00  0.00     0.163 HD
ATOM     36  O   UNL     1      -9.517  13.788   3.887  1.00  0.00    -0.269 OA
BRANCH  34  37
ATOM     37  C   UNL     1      -8.298  13.493   5.873  1.00  0.00     0.039 A 
ATOM     38  C   UNL     1      -9.336  12.909   6.605  1.00  0.00     0.014 A 
ATOM     39  C   UNL     1      -7.186  14.011   6.538  1.00  0.00     0.014 A 
ATOM     40  C   UNL     1      -9.223  12.787   7.993  1.00  0.00     0.010 A 
ATOM     41  C   UNL     1      -7.025  13.791   7.900  1.00  0.00     0.010 A 
ATOM     42  C   UNL     1      -8.048  13.193   8.646  1.00  0.00    -0.014 A 
BRANCH  42  43
ATOM     43  C   UNL     1      -7.870  13.023  10.110  1.00  0.00     0.031 A 
ATOM     44  C   UNL     1      -7.652  14.229  10.986  1.00  0.00     0.074 A 
ATOM     45  C   UNL     1      -7.830  11.783  10.637  1.00  0.00     0.049 A 
ATOM     46  N   UNL     1      -7.401  14.282  12.269  1.00  0.00    -0.248 NA
ATOM     47  C   UNL     1      -7.689  15.548  10.330  1.00  0.00     0.031 C 
ATOM     48  C   UNL     1      -7.979  10.535   9.883  1.00  0.00     0.029 A 
ATOM     49  N   UNL     1      -7.645  11.367  11.931  1.00  0.00    -0.354 N 
ATOM     50  C   UNL     1      -7.226  15.629  12.566  1.00  0.00     0.074 A 
ATOM     51  C   UNL     1      -7.343  16.356  11.322  1.00  0.00     0.031 C 
ATOM     52  C   UNL     1      -7.916   9.498  10.733  1.00  0.00     0.029 A 
ATOM     53  C   UNL     1      -7.675  10.000  12.081  1.00  0.00     0.049 A 
ATOM     54  H   UNL     1      -7.503  11.988  12.681  1.00  0.00     0.167 HD
ATOM     55  C   UNL     1      -7.012  16.212  13.769  1.00  0.00     0.031 A 
ATOM     56  C   UNL     1      -7.521   9.237  13.180  1.00  0.00     0.031 A 
ATOM     57  C   UNL     1      -6.918  15.485  15.006  1.00  0.00     0.049 A 
ATOM     58  C   UNL     1      -7.286   9.908  14.505  1.00  0.00     0.074 A 
ATOM     59  C   UNL     1      -6.764  15.983  16.287  1.00  0.00     0.029 A 
ATOM     60  N   UNL     1      -6.971  14.103  15.116  1.00  0.00    -0.354 N 
ATOM     61  N   UNL     1      -7.189  11.188  14.774  1.00  0.00    -0.248 NA
ATOM     62  C   UNL     1      -7.154   9.031  15.676  1.00  0.00     0.031 C 
ATOM     63  C   UNL     1      -6.671  14.900  17.167  1.00  0.00     0.029 A 
ATOM     64  C   UNL     1      -6.830  13.730  16.442  1.00  0.00     0.049 A 
ATOM     65  H   UNL     1      -7.091  13.480  14.363  1.00  0.00     0.167 HD
ATOM     66  C   UNL     1      -7.013  11.272  16.151  1.00  0.00     0.074 A 
ATOM     67  C   UNL     1      -7.034   9.915  16.658  1.00  0.00     0.031 C 
ATOM     68  C   UNL     1      -6.852  12.373  16.927  1.00  0.00     0.031 A 
BRANCH  55  69
ATOM     69  C   UNL     1      -6.865  17.712  13.802  1.00  0.00    -0.014 A 
ATOM     70  C   UNL     1      -7.957  18.557  13.532  1.00  0.00     0.010 A 
ATOM     71  C   UNL     1      -5.628  18.286  14.147  1.00  0.00     0.010 A 
ATOM     72  C   UNL     1      -7.804  19.946  13.564  1.00  0.00     0.020 A 
ATOM     73  C   UNL     1      -5.478  19.675  14.210  1.00  0.00     0.020 A 
ATOM     74  C   UNL     1      -6.564  20.496  13.902  1.00  0.00     0.054 A 
BRANCH  74  75
ATOM     75  S   UNL     1      -6.404  22.302  13.962  1.00  0.00     0.124 S 
ATOM     76  O   UNL     1      -6.443  22.654  12.544  1.00  0.00    -0.237 OA
ATOM     77  O   UNL     1      -7.573  22.701  14.740  1.00  0.00    -0.237 OA
ATOM     78  O   UNL     1      -5.117  22.514  14.621  1.00  0.00    -0.744 OA
ENDBRANCH  74  75
ENDBRANCH  55  69
BRANCH  56  79
ATOM     79  C   UNL     1      -7.608   7.754  13.074  1.00  0.00    -0.014 A 
ATOM     80  C   UNL     1      -8.706   7.064  13.618  1.00  0.00     0.010 A 
ATOM     81  C   UNL     1      -6.602   7.025  12.414  1.00  0.00     0.010 A 
ATOM     82  C   UNL     1      -8.787   5.672  13.522  1.00  0.00     0.020 A 
ATOM     83  C   UNL     1      -6.694   5.636  12.290  1.00  0.00     0.020 A 
ATOM     84  C   UNL     1      -7.781   4.967  12.855  1.00  0.00     0.054 A 
BRANCH  84  85
ATOM     85  S   UNL     1      -7.934   3.166  12.697  1.00  0.00     0.124 S 
ATOM     86  O   UNL     1      -7.647   2.716  14.055  1.00  0.00    -0.237 OA
ATOM     87  O   UNL     1      -9.317   3.005  12.254  1.00  0.00    -0.237 OA
ATOM     88  O   UNL     1      -6.925   2.824  11.696  1.00  0.00    -0.744 OA
ENDBRANCH  84  85
ENDBRANCH  56  79
BRANCH  68  89
ATOM     89  C   UNL     1      -6.722  12.159  18.411  1.00  0.00    -0.014 A 
ATOM     90  C   UNL     1      -5.562  11.596  18.970  1.00  0.00     0.010 A 
ATOM     91  C   UNL     1      -7.762  12.577  19.262  1.00  0.00     0.010 A 
ATOM     92  C   UNL     1      -5.459  11.420  20.352  1.00  0.00     0.020 A 
ATOM     93  C   UNL     1      -7.650  12.432  20.647  1.00  0.00     0.020 A 
ATOM     94  C   UNL     1      -6.505  11.840  21.182  1.00  0.00     0.054 A 
BRANCH  94  95
ATOM     95  S   UNL     1      -6.330  11.635  22.975  1.00  0.00     0.124 S 
ATOM     96  O   UNL     1      -6.500  10.194  23.134  1.00  0.00    -0.237 OA
ATOM     97  O   UNL     1      -4.983  12.141  23.226  1.00  0.00    -0.237 OA
ATOM     98  O   UNL     1      -7.409  12.454  23.524  1.00  0.00    -0.744 OA
ENDBRANCH  94  95
ENDBRANCH  68  89
ENDBRANCH  42  43
ENDBRANCH  34  37
ENDBRANCH  32  33
ENDBRANCH  31  32
ENDBRANCH   1  31
TORSDOF 18
