REMARK SMILES CSCC[C@H](NC(=O)N[C@@H]1CCCCC1(C)C)C(=O)NCCCNC(=O)c1ccc(-c2c3nc(c(-c4ccc(S(=O)(=O)[O-])cc4)c4ccc([nH]4)c(-c4ccc(S(=O)(=O)[O-])cc4)c4nc(c(-c5ccc(S(=O)(=O)[O-])cc5)c5ccc2[nH]5)C=C4)C=C3)cc1
REMARK SMILES IDX 22 1 21 2 20 3 18 4 19 5 5 7 4 8 3 9 2 10 1 11 6 12 7 13
REMARK SMILES IDX 8 15 9 16 10 18 11 19 15 20 12 21 14 22 16 23 17 24 13 25
REMARK SMILES IDX 23 26 24 27 25 28 26 30 27 31 28 32 86 33 29 34 85 35 30 36
REMARK SMILES IDX 31 37 32 38 79 39 33 40 84 41 78 42 80 43 34 44 83 45 77 46
REMARK SMILES IDX 76 47 35 49 65 50 46 51 64 52 47 53 50 54 63 55 81 56 48 57
REMARK SMILES IDX 49 58 62 60 82 61 51 62 36 63 37 64 45 65 38 66 44 67 39 68
REMARK SMILES IDX 40 69 41 70 42 71 43 72 66 73 67 74 75 75 68 76 74 77 69 78
REMARK SMILES IDX 70 79 71 80 72 81 73 82 52 83 53 84 61 85 54 86 60 87 55 88
REMARK SMILES IDX 56 89 57 90 58 91 59 92
REMARK H PARENT 20 6 6 14 9 17 24 29 80 48 50 59
REMARK Flexibility Score: inf
ROOT
ATOM      1  C   UNL     1       1.165  -4.233   5.622  1.00  0.00     0.042 C 
ENDROOT
BRANCH   1   2
ATOM      2  C   UNL     1       1.741  -4.253   4.223  1.00  0.00     0.117 C 
BRANCH   2   3
ATOM      3  N   UNL     1       0.741  -4.772   3.306  1.00  0.00    -0.354 N 
ATOM      4  C   UNL     1       0.138  -4.173   2.249  1.00  0.00     0.242 C 
ATOM      5  O   UNL     1      -0.802  -4.748   1.700  1.00  0.00    -0.273 OA
ATOM      6  H   UNL     1       0.458  -5.699   3.478  1.00  0.00     0.163 HD
BRANCH   4   7
ATOM      7  C   UNL     1       0.770  -2.918   1.657  1.00  0.00     0.174 C 
BRANCH   7   8
ATOM      8  C   UNL     1       2.194  -3.340   1.189  1.00  0.00     0.046 C 
BRANCH   8   9
ATOM      9  C   UNL     1       2.444  -4.733   0.579  1.00  0.00     0.072 C 
BRANCH   9  10
ATOM     10  S   UNL     1       2.306  -4.755  -1.246  1.00  0.00    -0.165 SA
ATOM     11  C   UNL     1       0.511  -4.834  -1.420  1.00  0.00     0.085 C 
ENDBRANCH   9  10
ENDBRANCH   8   9
ENDBRANCH   7   8
BRANCH   7  12
ATOM     12  N   UNL     1       0.616  -1.751   2.641  1.00  0.00    -0.326 N 
ATOM     13  C   UNL     1       0.413  -0.438   2.825  1.00  0.00     0.315 C 
ATOM     14  H   UNL     1       0.708  -2.140   3.541  1.00  0.00     0.166 HD
ATOM     15  O   UNL     1       0.006  -0.163   3.966  1.00  0.00    -0.249 OA
ATOM     16  N   UNL     1       0.540   0.630   2.021  1.00  0.00    -0.335 N 
ATOM     17  H   UNL     1      -0.058   1.345   2.339  1.00  0.00     0.165 HD
BRANCH  16  18
ATOM     18  C   UNL     1       1.284   1.113   0.798  1.00  0.00     0.089 C 
ATOM     19  C   UNL     1       0.499   2.123  -0.047  1.00  0.00     0.025 C 
ATOM     20  C   UNL     1       1.760  -0.051  -0.054  1.00  0.00    -0.015 C 
ATOM     21  C   UNL     1      -0.780   1.543  -0.622  1.00  0.00     0.002 C 
ATOM     22  C   UNL     1       0.401  -0.748  -0.429  1.00  0.00     0.008 C 
ATOM     23  C   UNL     1       2.443   0.130  -1.422  1.00  0.00     0.013 C 
ATOM     24  C   UNL     1       2.959  -0.549   0.822  1.00  0.00     0.013 C 
ATOM     25  C   UNL     1      -0.597   0.143  -1.211  1.00  0.00     0.001 C 
ENDBRANCH  16  18
ENDBRANCH   7  12
ENDBRANCH   4   7
ENDBRANCH   2   3
ENDBRANCH   1   2
BRANCH   1  26
ATOM     26  C   UNL     1       0.657  -5.601   6.040  1.00  0.00     0.118 C 
BRANCH  26  27
ATOM     27  N   UNL     1       1.676  -6.639   5.899  1.00  0.00    -0.352 N 
ATOM     28  C   UNL     1       2.055  -7.566   6.834  1.00  0.00     0.251 C 
ATOM     29  H   UNL     1       2.143  -6.677   5.033  1.00  0.00     0.163 HD
ATOM     30  O   UNL     1       3.062  -8.248   6.684  1.00  0.00    -0.269 OA
BRANCH  28  31
ATOM     31  C   UNL     1       1.209  -7.689   8.028  1.00  0.00     0.039 A 
ATOM     32  C   UNL     1       1.780  -7.543   9.290  1.00  0.00     0.014 A 
ATOM     33  C   UNL     1      -0.175  -7.794   7.860  1.00  0.00     0.014 A 
ATOM     34  C   UNL     1       0.941  -7.451  10.397  1.00  0.00     0.010 A 
ATOM     35  C   UNL     1      -1.004  -7.583   8.946  1.00  0.00     0.010 A 
ATOM     36  C   UNL     1      -0.455  -7.435  10.227  1.00  0.00    -0.014 A 
BRANCH  36  37
ATOM     37  C   UNL     1      -1.371  -7.304  11.382  1.00  0.00     0.031 A 
ATOM     38  C   UNL     1      -2.343  -8.414  11.675  1.00  0.00     0.074 A 
ATOM     39  C   UNL     1      -1.374  -6.170  12.110  1.00  0.00     0.049 A 
ATOM     40  N   UNL     1      -3.270  -8.474  12.594  1.00  0.00    -0.248 NA
ATOM     41  C   UNL     1      -2.295  -9.597  10.795  1.00  0.00     0.031 C 
ATOM     42  C   UNL     1      -0.519  -5.003  11.873  1.00  0.00     0.029 A 
ATOM     43  N   UNL     1      -2.129  -5.811  13.196  1.00  0.00    -0.354 N 
ATOM     44  C   UNL     1      -3.928  -9.680  12.383  1.00  0.00     0.074 A 
ATOM     45  C   UNL     1      -3.340 -10.292  11.215  1.00  0.00     0.031 C 
ATOM     46  C   UNL     1      -0.774  -4.074  12.809  1.00  0.00     0.029 A 
ATOM     47  C   UNL     1      -1.837  -4.559  13.682  1.00  0.00     0.049 A 
ATOM     48  H   UNL     1      -2.817  -6.396  13.590  1.00  0.00     0.167 HD
ATOM     49  C   UNL     1      -4.917 -10.240  13.115  1.00  0.00     0.031 A 
ATOM     50  C   UNL     1      -2.371  -3.879  14.715  1.00  0.00     0.031 A 
ATOM     51  C   UNL     1      -5.470  -9.637  14.296  1.00  0.00     0.049 A 
ATOM     52  C   UNL     1      -3.453  -4.535  15.529  1.00  0.00     0.074 A 
ATOM     53  C   UNL     1      -6.417 -10.154  15.160  1.00  0.00     0.029 A 
ATOM     54  N   UNL     1      -5.124  -8.383  14.777  1.00  0.00    -0.354 N 
ATOM     55  N   UNL     1      -4.003  -5.717  15.370  1.00  0.00    -0.248 NA
ATOM     56  C   UNL     1      -3.978  -3.775  16.671  1.00  0.00     0.031 C 
ATOM     57  C   UNL     1      -6.686  -9.187  16.134  1.00  0.00     0.029 A 
ATOM     58  C   UNL     1      -5.859  -8.096  15.912  1.00  0.00     0.049 A 
ATOM     59  H   UNL     1      -4.455  -7.786  14.370  1.00  0.00     0.167 HD
ATOM     60  C   UNL     1      -4.918  -5.851  16.407  1.00  0.00     0.074 A 
ATOM     61  C   UNL     1      -4.835  -4.639  17.197  1.00  0.00     0.031 C 
ATOM     62  C   UNL     1      -5.754  -6.883  16.683  1.00  0.00     0.031 A 
BRANCH  49  63
ATOM     63  C   UNL     1      -5.458 -11.569  12.659  1.00  0.00    -0.014 A 
ATOM     64  C   UNL     1      -4.677 -12.738  12.729  1.00  0.00     0.010 A 
ATOM     65  C   UNL     1      -6.779 -11.657  12.187  1.00  0.00     0.010 A 
ATOM     66  C   UNL     1      -5.196 -13.962  12.301  1.00  0.00     0.020 A 
ATOM     67  C   UNL     1      -7.313 -12.885  11.787  1.00  0.00     0.020 A 
ATOM     68  C   UNL     1      -6.512 -14.028  11.833  1.00  0.00     0.054 A 
BRANCH  68  69
ATOM     69  S   UNL     1      -7.171 -15.638  11.322  1.00  0.00     0.124 S 
ATOM     70  O   UNL     1      -6.462 -15.868  10.066  1.00  0.00    -0.237 OA
ATOM     71  O   UNL     1      -6.785 -16.508  12.429  1.00  0.00    -0.237 OA
ATOM     72  O   UNL     1      -8.607 -15.399  11.191  1.00  0.00    -0.744 OA
ENDBRANCH  68  69
ENDBRANCH  49  63
BRANCH  50  73
ATOM     73  C   UNL     1      -1.880  -2.513  15.045  1.00  0.00    -0.014 A 
ATOM     74  C   UNL     1      -1.142  -2.280  16.219  1.00  0.00     0.010 A 
ATOM     75  C   UNL     1      -2.142  -1.435  14.179  1.00  0.00     0.010 A 
ATOM     76  C   UNL     1      -0.699  -0.992  16.535  1.00  0.00     0.020 A 
ATOM     77  C   UNL     1      -1.674  -0.151  14.476  1.00  0.00     0.020 A 
ATOM     78  C   UNL     1      -0.968   0.065  15.660  1.00  0.00     0.054 A 
BRANCH  78  79
ATOM     79  S   UNL     1      -0.350   1.720  16.072  1.00  0.00     0.124 S 
ATOM     80  O   UNL     1      -1.236   2.112  17.164  1.00  0.00    -0.237 OA
ATOM     81  O   UNL     1       1.037   1.455  16.445  1.00  0.00    -0.237 OA
ATOM     82  O   UNL     1      -0.520   2.468  14.828  1.00  0.00    -0.744 OA
ENDBRANCH  78  79
ENDBRANCH  50  73
BRANCH  62  83
ATOM     83  C   UNL     1      -6.619  -6.764  17.908  1.00  0.00    -0.014 A 
ATOM     84  C   UNL     1      -7.711  -5.880  17.948  1.00  0.00     0.010 A 
ATOM     85  C   UNL     1      -6.369  -7.601  19.012  1.00  0.00     0.010 A 
ATOM     86  C   UNL     1      -8.519  -5.812  19.085  1.00  0.00     0.020 A 
ATOM     87  C   UNL     1      -7.194  -7.557  20.137  1.00  0.00     0.020 A 
ATOM     88  C   UNL     1      -8.256  -6.652  20.172  1.00  0.00     0.054 A 
BRANCH  88  89
ATOM     89  S   UNL     1      -9.348  -6.575  21.617  1.00  0.00     0.124 S 
ATOM     90  O   UNL     1      -8.955  -5.308  22.227  1.00  0.00    -0.237 OA
ATOM     91  O   UNL     1     -10.679  -6.597  21.014  1.00  0.00    -0.237 OA
ATOM     92  O   UNL     1      -8.997  -7.770  22.381  1.00  0.00    -0.744 OA
ENDBRANCH  88  89
ENDBRANCH  62  83
ENDBRANCH  36  37
ENDBRANCH  28  31
ENDBRANCH  26  27
ENDBRANCH   1  26
TORSDOF 18
