REMARK SMILES [NH3+]CC[C@@H](C(=O)NCCCNC(=O)c1ccc(-c2c3nc(c(-c4ccc(S(=O)(=O)[O-])cc4)c4ccc([nH]4)c(-c4ccc(S(=O)(=O)[O-])cc4)c4nc(c(-c5ccc(S(=O)(=O)[O-])cc5)c5ccc2[nH]5)C=C4)C=C3)cc1)c1ccc(F)cc1
REMARK SMILES IDX 9 1 8 2 7 3 5 4 6 5 4 7 3 8 2 9 1 10 74 14 75 15 80 16 76 17
REMARK SMILES IDX 79 18 77 19 78 20 10 21 11 22 12 23 13 25 14 26 15 27 73 28
REMARK SMILES IDX 16 29 72 30 17 31 18 32 19 33 66 34 20 35 71 36 65 37 67 38
REMARK SMILES IDX 21 39 70 40 64 41 63 42 22 44 52 45 33 46 51 47 34 48 37 49
REMARK SMILES IDX 50 50 68 51 35 52 36 53 49 55 69 56 38 57 23 58 24 59 32 60
REMARK SMILES IDX 25 61 31 62 26 63 27 64 28 65 29 66 30 67 53 68 54 69 62 70
REMARK SMILES IDX 55 71 61 72 56 73 57 74 58 75 59 76 60 77 39 78 40 79 48 80
REMARK SMILES IDX 41 81 47 82 42 83 43 84 44 85 45 86 46 87
REMARK H PARENT 7 6 1 11 1 12 1 13 11 24 67 43 37 54
REMARK Flexibility Score: inf
ROOT
ATOM      1  C   UNL     1      -1.667   0.702   0.580  1.00  0.00     0.042 C 
ENDROOT
BRANCH   1   2
ATOM      2  C   UNL     1      -1.405  -0.370  -0.478  1.00  0.00     0.117 C 
BRANCH   2   3
ATOM      3  N   UNL     1      -1.706   0.136  -1.804  1.00  0.00    -0.356 N 
ATOM      4  C   UNL     1      -0.896   0.604  -2.795  1.00  0.00     0.227 C 
ATOM      5  O   UNL     1      -1.464   1.192  -3.721  1.00  0.00    -0.274 OA
ATOM      6  H   UNL     1      -2.664   0.141  -2.028  1.00  0.00     0.163 HD
BRANCH   4   7
ATOM      7  C   UNL     1       0.632   0.370  -2.778  1.00  0.00     0.114 C 
BRANCH   7   8
ATOM      8  C   UNL     1       1.423   1.508  -2.085  1.00  0.00     0.079 C 
BRANCH   8   9
ATOM      9  C   UNL     1       1.641   1.417  -0.576  1.00  0.00     0.259 C 
BRANCH   9  10
ATOM     10  N   UNL     1       2.363   0.238  -0.127  1.00  0.00    -0.358 N 
ATOM     11  H   UNL     1       2.460   0.264   0.888  1.00  0.00     0.344 HD
ATOM     12  H   UNL     1       3.288   0.222  -0.556  1.00  0.00     0.344 HD
ATOM     13  H   UNL     1       1.848  -0.600  -0.398  1.00  0.00     0.344 HD
ENDBRANCH   9  10
ENDBRANCH   8   9
ENDBRANCH   7   8
BRANCH   7  14
ATOM     14  C   UNL     1       1.154   0.228  -4.223  1.00  0.00    -0.035 A 
ATOM     15  C   UNL     1       1.520  -1.027  -4.734  1.00  0.00     0.007 A 
ATOM     16  C   UNL     1       1.271   1.357  -5.061  1.00  0.00     0.007 A 
ATOM     17  C   UNL     1       2.017  -1.139  -6.037  1.00  0.00     0.039 A 
ATOM     18  C   UNL     1       1.773   1.243  -6.356  1.00  0.00     0.039 A 
ATOM     19  C   UNL     1       2.145  -0.005  -6.831  1.00  0.00     0.123 A 
ATOM     20  F   UNL     1       2.632  -0.119  -8.074  1.00  0.00    -0.207 F 
ENDBRANCH   7  14
ENDBRANCH   4   7
ENDBRANCH   2   3
ENDBRANCH   1   2
BRANCH   1  21
ATOM     21  C   UNL     1      -3.137   0.930   0.905  1.00  0.00     0.118 C 
BRANCH  21  22
ATOM     22  N   UNL     1      -3.692  -0.109   1.753  1.00  0.00    -0.352 N 
ATOM     23  C   UNL     1      -4.280  -0.025   2.994  1.00  0.00     0.251 C 
ATOM     24  H   UNL     1      -3.639  -1.019   1.381  1.00  0.00     0.163 HD
ATOM     25  O   UNL     1      -4.524  -1.066   3.599  1.00  0.00    -0.269 OA
BRANCH  23  26
ATOM     26  C   UNL     1      -4.601   1.284   3.621  1.00  0.00     0.039 A 
ATOM     27  C   UNL     1      -4.467   1.405   5.008  1.00  0.00     0.014 A 
ATOM     28  C   UNL     1      -5.079   2.372   2.884  1.00  0.00     0.014 A 
ATOM     29  C   UNL     1      -4.764   2.616   5.641  1.00  0.00     0.010 A 
ATOM     30  C   UNL     1      -5.290   3.606   3.504  1.00  0.00     0.010 A 
ATOM     31  C   UNL     1      -5.152   3.739   4.893  1.00  0.00    -0.014 A 
BRANCH  31  32
ATOM     32  C   UNL     1      -5.427   5.041   5.560  1.00  0.00     0.031 A 
ATOM     33  C   UNL     1      -6.806   5.650   5.522  1.00  0.00     0.074 A 
ATOM     34  C   UNL     1      -4.426   5.694   6.185  1.00  0.00     0.049 A 
ATOM     35  N   UNL     1      -7.233   6.760   6.070  1.00  0.00    -0.248 NA
ATOM     36  C   UNL     1      -7.833   4.934   4.748  1.00  0.00     0.031 C 
ATOM     37  C   UNL     1      -3.032   5.248   6.247  1.00  0.00     0.029 A 
ATOM     38  N   UNL     1      -4.428   6.869   6.895  1.00  0.00    -0.354 N 
ATOM     39  C   UNL     1      -8.567   6.883   5.696  1.00  0.00     0.074 A 
ATOM     40  C   UNL     1      -8.865   5.762   4.831  1.00  0.00     0.031 C 
ATOM     41  C   UNL     1      -2.325   6.114   6.990  1.00  0.00     0.029 A 
ATOM     42  C   UNL     1      -3.204   7.190   7.434  1.00  0.00     0.049 A 
ATOM     43  H   UNL     1      -5.230   7.430   7.007  1.00  0.00     0.167 HD
ATOM     44  C   UNL     1      -9.471   7.827   6.054  1.00  0.00     0.031 A 
ATOM     45  C   UNL     1      -2.831   8.226   8.211  1.00  0.00     0.031 A 
ATOM     46  C   UNL     1      -9.182   8.933   6.929  1.00  0.00     0.049 A 
ATOM     47  C   UNL     1      -3.861   9.239   8.630  1.00  0.00     0.074 A 
ATOM     48  C   UNL     1     -10.044   9.910   7.397  1.00  0.00     0.029 A 
ATOM     49  N   UNL     1      -7.937   9.207   7.474  1.00  0.00    -0.354 N 
ATOM     50  N   UNL     1      -5.133   9.298   8.318  1.00  0.00    -0.248 NA
ATOM     51  C   UNL     1      -3.406  10.311   9.525  1.00  0.00     0.031 C 
ATOM     52  C   UNL     1      -9.311  10.797   8.194  1.00  0.00     0.029 A 
ATOM     53  C   UNL     1      -8.004  10.343   8.263  1.00  0.00     0.049 A 
ATOM     54  H   UNL     1      -7.125   8.672   7.322  1.00  0.00     0.167 HD
ATOM     55  C   UNL     1      -5.638  10.400   8.998  1.00  0.00     0.074 A 
ATOM     56  C   UNL     1      -4.537  10.965   9.753  1.00  0.00     0.031 C 
ATOM     57  C   UNL     1      -6.899  10.899   9.000  1.00  0.00     0.031 A 
BRANCH  44  58
ATOM     58  C   UNL     1     -10.866   7.699   5.497  1.00  0.00    -0.014 A 
ATOM     59  C   UNL     1     -11.728   6.674   5.929  1.00  0.00     0.010 A 
ATOM     60  C   UNL     1     -11.333   8.632   4.554  1.00  0.00     0.010 A 
ATOM     61  C   UNL     1     -13.013   6.556   5.393  1.00  0.00     0.020 A 
ATOM     62  C   UNL     1     -12.629   8.534   4.036  1.00  0.00     0.020 A 
ATOM     63  C   UNL     1     -13.454   7.484   4.445  1.00  0.00     0.054 A 
BRANCH  63  64
ATOM     64  S   UNL     1     -15.132   7.316   3.777  1.00  0.00     0.124 S 
ATOM     65  O   UNL     1     -14.979   6.188   2.861  1.00  0.00    -0.237 OA
ATOM     66  O   UNL     1     -15.930   7.051   4.971  1.00  0.00    -0.237 OA
ATOM     67  O   UNL     1     -15.381   8.607   3.139  1.00  0.00    -0.744 OA
ENDBRANCH  63  64
ENDBRANCH  44  58
BRANCH  45  68
ATOM     68  C   UNL     1      -1.423   8.331   8.679  1.00  0.00    -0.014 A 
ATOM     69  C   UNL     1      -1.097   8.069  10.021  1.00  0.00     0.010 A 
ATOM     70  C   UNL     1      -0.397   8.675   7.780  1.00  0.00     0.010 A 
ATOM     71  C   UNL     1       0.227   8.165  10.461  1.00  0.00     0.020 A 
ATOM     72  C   UNL     1       0.931   8.748   8.211  1.00  0.00     0.020 A 
ATOM     73  C   UNL     1       1.233   8.502   9.552  1.00  0.00     0.054 A 
BRANCH  73  74
ATOM     74  S   UNL     1       2.953   8.563  10.129  1.00  0.00     0.124 S 
ATOM     75  O   UNL     1       2.986   9.831  10.849  1.00  0.00    -0.237 OA
ATOM     76  O   UNL     1       3.053   7.362  10.955  1.00  0.00    -0.237 OA
ATOM     77  O   UNL     1       3.728   8.523   8.890  1.00  0.00    -0.744 OA
ENDBRANCH  73  74
ENDBRANCH  45  68
BRANCH  57  78
ATOM     78  C   UNL     1      -7.157  12.101   9.868  1.00  0.00    -0.014 A 
ATOM     79  C   UNL     1      -6.656  13.370   9.526  1.00  0.00     0.010 A 
ATOM     80  C   UNL     1      -7.923  11.958  11.039  1.00  0.00     0.010 A 
ATOM     81  C   UNL     1      -6.872  14.464  10.368  1.00  0.00     0.020 A 
ATOM     82  C   UNL     1      -8.164  13.056  11.870  1.00  0.00     0.020 A 
ATOM     83  C   UNL     1      -7.617  14.298  11.540  1.00  0.00     0.054 A 
BRANCH  83  84
ATOM     84  S   UNL     1      -7.888  15.731  12.618  1.00  0.00     0.124 S 
ATOM     85  O   UNL     1      -6.603  15.841  13.303  1.00  0.00    -0.237 OA
ATOM     86  O   UNL     1      -8.187  16.799  11.667  1.00  0.00    -0.237 OA
ATOM     87  O   UNL     1      -9.011  15.322  13.459  1.00  0.00    -0.744 OA
ENDBRANCH  83  84
ENDBRANCH  57  78
ENDBRANCH  31  32
ENDBRANCH  23  26
ENDBRANCH  21  22
ENDBRANCH   1  21
TORSDOF 17
