REMARK SMILES CCCOC(=O)c1c(NC(=O)[C@@H]2CC=CC[C@H]2C(=O)NCCCNC(=O)c2ccc(-c3c4nc(c(-c5ccc(S(=O)(=O)[O-])cc5)c5ccc([nH]5)c(-c5ccc(S(=O)(=O)[O-])cc5)c5nc(c(-c6ccc(S(=O)(=O)[O-])cc6)c6ccc3[nH]6)C=C5)C=C4)cc2)sc2c1CCCC2
REMARK SMILES IDX 18 1 19 2 20 3 17 5 12 6 13 7 14 8 16 9 15 10 10 11 9 12
REMARK SMILES IDX 11 14 8 15 7 16 89 17 87 18 88 19 90 20 93 21 91 22 92 23
REMARK SMILES IDX 5 24 6 25 4 26 3 27 2 28 1 29 21 30 22 31 23 32 24 33 25 34
REMARK SMILES IDX 26 36 27 37 28 38 86 39 29 40 85 41 30 42 31 43 32 44 79 45
REMARK SMILES IDX 33 46 84 47 78 48 80 49 34 50 83 51 77 52 76 53 35 55 65 56
REMARK SMILES IDX 46 57 64 58 47 59 50 60 63 61 81 62 48 63 49 64 62 66 82 67
REMARK SMILES IDX 51 68 36 69 37 70 45 71 38 72 44 73 39 74 40 75 41 76 42 77
REMARK SMILES IDX 43 78 66 79 67 80 75 81 68 82 74 83 69 84 70 85 71 86 72 87
REMARK SMILES IDX 73 88 52 89 53 90 61 91 54 92 60 93 55 94 56 95 57 96 58 97
REMARK SMILES IDX 59 98
REMARK H PARENT 20 4 9 13 24 35 80 54 50 65
REMARK Flexibility Score: inf
ROOT
ATOM      1  C   UNL     1      -2.376  -1.305  -2.195  1.00  0.00     0.224 C 
ATOM      2  O   UNL     1      -3.169  -0.570  -2.790  1.00  0.00    -0.275 OA
ATOM      3  N   UNL     1      -2.898  -2.340  -1.486  1.00  0.00    -0.356 N 
ATOM      4  H   UNL     1      -3.882  -2.364  -1.473  1.00  0.00     0.163 HD
ENDROOT
BRANCH   1   5
ATOM      5  C   UNL     1      -0.871  -1.047  -2.287  1.00  0.00     0.095 C 
ATOM      6  C   UNL     1      -0.308  -0.639  -0.911  1.00  0.00     0.095 C 
ATOM      7  C   UNL     1       0.668  -1.586  -0.219  1.00  0.00     0.041 C 
ATOM      8  C   UNL     1       1.030  -2.820  -0.974  1.00  0.00    -0.030 C 
ATOM      9  C   UNL     1      -0.204  -2.205  -3.046  1.00  0.00     0.041 C 
ATOM     10  C   UNL     1       0.690  -3.081  -2.239  1.00  0.00    -0.030 C 
BRANCH   6  11
ATOM     11  C   UNL     1       0.237   0.784  -0.834  1.00  0.00     0.229 C 
ATOM     12  N   UNL     1       1.465   1.147  -1.332  1.00  0.00    -0.317 N 
ATOM     13  H   UNL     1       2.083   1.656  -0.759  1.00  0.00     0.170 HD
ATOM     14  O   UNL     1      -0.406   1.655  -0.236  1.00  0.00    -0.274 OA
BRANCH  12  15
ATOM     15  C   UNL     1       1.855   0.818  -2.611  1.00  0.00     0.110 A 
ATOM     16  C   UNL     1       2.570  -0.203  -3.217  1.00  0.00     0.098 A 
ATOM     17  C   UNL     1       2.443  -0.034  -4.678  1.00  0.00    -0.017 A 
ATOM     18  S   UNL     1       1.382   2.062  -3.692  1.00  0.00    -0.122 S 
ATOM     19  C   UNL     1       1.763   1.114  -5.035  1.00  0.00     0.011 A 
ATOM     20  C   UNL     1       2.914  -0.995  -5.741  1.00  0.00     0.038 C 
ATOM     21  C   UNL     1       1.428   1.553  -6.429  1.00  0.00     0.047 C 
ATOM     22  C   UNL     1       2.950  -0.350  -7.133  1.00  0.00     0.005 C 
ATOM     23  C   UNL     1       1.659   0.417  -7.434  1.00  0.00     0.006 C 
BRANCH  16  24
ATOM     24  C   UNL     1       3.303  -1.350  -2.630  1.00  0.00     0.341 C 
ATOM     25  O   UNL     1       3.671  -2.281  -3.344  1.00  0.00    -0.246 OA
BRANCH  24  26
ATOM     26  O   UNL     1       3.591  -1.332  -1.275  1.00  0.00    -0.462 OA
BRANCH  26  27
ATOM     27  C   UNL     1       4.310  -2.531  -0.887  1.00  0.00     0.233 C 
BRANCH  27  28
ATOM     28  C   UNL     1       4.572  -2.704   0.615  1.00  0.00     0.038 C 
ATOM     29  C   UNL     1       3.417  -3.246   1.449  1.00  0.00     0.007 C 
ENDBRANCH  27  28
ENDBRANCH  26  27
ENDBRANCH  24  26
ENDBRANCH  16  24
ENDBRANCH  12  15
ENDBRANCH   6  11
ENDBRANCH   1   5
BRANCH   3  30
ATOM     30  C   UNL     1      -2.268  -3.414  -0.746  1.00  0.00     0.117 C 
BRANCH  30  31
ATOM     31  C   UNL     1      -2.411  -3.275   0.756  1.00  0.00     0.042 C 
BRANCH  31  32
ATOM     32  C   UNL     1      -3.858  -3.288   1.192  1.00  0.00     0.118 C 
BRANCH  32  33
ATOM     33  N   UNL     1      -4.580  -4.433   0.651  1.00  0.00    -0.352 N 
ATOM     34  C   UNL     1      -5.346  -5.364   1.306  1.00  0.00     0.251 C 
ATOM     35  H   UNL     1      -4.508  -4.556  -0.323  1.00  0.00     0.163 HD
ATOM     36  O   UNL     1      -5.687  -6.388   0.747  1.00  0.00    -0.269 OA
BRANCH  34  37
ATOM     37  C   UNL     1      -5.729  -5.084   2.701  1.00  0.00     0.039 A 
ATOM     38  C   UNL     1      -5.668  -6.110   3.642  1.00  0.00     0.014 A 
ATOM     39  C   UNL     1      -6.110  -3.791   3.069  1.00  0.00     0.014 A 
ATOM     40  C   UNL     1      -5.956  -5.821   4.972  1.00  0.00     0.010 A 
ATOM     41  C   UNL     1      -6.270  -3.480   4.406  1.00  0.00     0.010 A 
ATOM     42  C   UNL     1      -6.233  -4.500   5.364  1.00  0.00    -0.014 A 
BRANCH  42  43
ATOM     43  C   UNL     1      -6.549  -4.168   6.769  1.00  0.00     0.031 A 
ATOM     44  C   UNL     1      -7.901  -3.599   7.106  1.00  0.00     0.074 A 
ATOM     45  C   UNL     1      -5.607  -4.333   7.715  1.00  0.00     0.049 A 
ATOM     46  N   UNL     1      -8.368  -3.225   8.267  1.00  0.00    -0.248 NA
ATOM     47  C   UNL     1      -8.840  -3.389   5.988  1.00  0.00     0.031 C 
ATOM     48  C   UNL     1      -4.242  -4.815   7.482  1.00  0.00     0.029 A 
ATOM     49  N   UNL     1      -5.657  -4.120   9.067  1.00  0.00    -0.354 N 
ATOM     50  C   UNL     1      -9.638  -2.719   8.014  1.00  0.00     0.074 A 
ATOM     51  C   UNL     1      -9.842  -2.765   6.586  1.00  0.00     0.031 C 
ATOM     52  C   UNL     1      -3.602  -4.907   8.659  1.00  0.00     0.029 A 
ATOM     53  C   UNL     1      -4.496  -4.457   9.720  1.00  0.00     0.049 A 
ATOM     54  H   UNL     1      -6.450  -3.760   9.527  1.00  0.00     0.167 HD
ATOM     55  C   UNL     1     -10.567  -2.287   8.898  1.00  0.00     0.031 A 
ATOM     56  C   UNL     1      -4.195  -4.416  11.031  1.00  0.00     0.031 A 
ATOM     57  C   UNL     1     -10.361  -2.276  10.319  1.00  0.00     0.049 A 
ATOM     58  C   UNL     1      -5.253  -3.958  11.997  1.00  0.00     0.074 A 
ATOM     59  C   UNL     1     -11.251  -1.921  11.316  1.00  0.00     0.029 A 
ATOM     60  N   UNL     1      -9.180  -2.646  10.945  1.00  0.00    -0.354 N 
ATOM     61  N   UNL     1      -6.476  -3.552  11.748  1.00  0.00    -0.248 NA
ATOM     62  C   UNL     1      -4.896  -3.969  13.421  1.00  0.00     0.031 C 
ATOM     63  C   UNL     1     -10.591  -2.032  12.544  1.00  0.00     0.029 A 
ATOM     64  C   UNL     1      -9.310  -2.511  12.315  1.00  0.00     0.049 A 
ATOM     65  H   UNL     1      -8.368  -2.958  10.483  1.00  0.00     0.167 HD
ATOM     66  C   UNL     1      -7.045  -3.284  12.988  1.00  0.00     0.074 A 
ATOM     67  C   UNL     1      -6.036  -3.592  13.983  1.00  0.00     0.031 C 
ATOM     68  C   UNL     1      -8.287  -2.825  13.280  1.00  0.00     0.031 A 
BRANCH  55  69
ATOM     69  C   UNL     1     -11.882  -1.807   8.345  1.00  0.00    -0.014 A 
ATOM     70  C   UNL     1     -12.787  -2.701   7.742  1.00  0.00     0.010 A 
ATOM     71  C   UNL     1     -12.230  -0.448   8.445  1.00  0.00     0.010 A 
ATOM     72  C   UNL     1     -13.994  -2.239   7.212  1.00  0.00     0.020 A 
ATOM     73  C   UNL     1     -13.451   0.013   7.944  1.00  0.00     0.020 A 
ATOM     74  C   UNL     1     -14.317  -0.883   7.315  1.00  0.00     0.054 A 
BRANCH  74  75
ATOM     75  S   UNL     1     -15.904  -0.317   6.644  1.00  0.00     0.124 S 
ATOM     76  O   UNL     1     -15.660  -0.373   5.205  1.00  0.00    -0.237 OA
ATOM     77  O   UNL     1     -16.843  -1.310   7.160  1.00  0.00    -0.237 OA
ATOM     78  O   UNL     1     -16.056   1.026   7.199  1.00  0.00    -0.744 OA
ENDBRANCH  74  75
ENDBRANCH  55  69
BRANCH  56  79
ATOM     79  C   UNL     1      -2.854  -4.856  11.502  1.00  0.00    -0.014 A 
ATOM     80  C   UNL     1      -2.709  -6.055  12.222  1.00  0.00     0.010 A 
ATOM     81  C   UNL     1      -1.711  -4.090  11.214  1.00  0.00     0.010 A 
ATOM     82  C   UNL     1      -1.450  -6.467  12.666  1.00  0.00     0.020 A 
ATOM     83  C   UNL     1      -0.446  -4.513  11.632  1.00  0.00     0.020 A 
ATOM     84  C   UNL     1      -0.325  -5.693  12.368  1.00  0.00     0.054 A 
BRANCH  84  85
ATOM     85  S   UNL     1       1.306  -6.270  12.915  1.00  0.00     0.124 S 
ATOM     86  O   UNL     1       1.258  -6.001  14.349  1.00  0.00    -0.237 OA
ATOM     87  O   UNL     1       1.286  -7.680  12.534  1.00  0.00    -0.237 OA
ATOM     88  O   UNL     1       2.235  -5.440  12.152  1.00  0.00    -0.744 OA
ENDBRANCH  84  85
ENDBRANCH  56  79
BRANCH  68  89
ATOM     89  C   UNL     1      -8.631  -2.659  14.735  1.00  0.00    -0.014 A 
ATOM     90  C   UNL     1      -8.071  -1.622  15.501  1.00  0.00     0.010 A 
ATOM     91  C   UNL     1      -9.565  -3.528  15.327  1.00  0.00     0.010 A 
ATOM     92  C   UNL     1      -8.411  -1.482  16.848  1.00  0.00     0.020 A 
ATOM     93  C   UNL     1      -9.929  -3.372  16.665  1.00  0.00     0.020 A 
ATOM     94  C   UNL     1      -9.336  -2.360  17.422  1.00  0.00     0.054 A 
BRANCH  94  95
ATOM     95  S   UNL     1      -9.784  -2.138  19.165  1.00  0.00     0.124 S 
ATOM     96  O   UNL     1      -8.597  -2.645  19.849  1.00  0.00    -0.237 OA
ATOM     97  O   UNL     1      -9.996  -0.696  19.260  1.00  0.00    -0.237 OA
ATOM     98  O   UNL     1     -10.988  -2.951  19.319  1.00  0.00    -0.744 OA
ENDBRANCH  94  95
ENDBRANCH  68  89
ENDBRANCH  42  43
ENDBRANCH  34  37
ENDBRANCH  32  33
ENDBRANCH  31  32
ENDBRANCH  30  31
ENDBRANCH   3  30
TORSDOF 19
