REMARK SMILES COC(=O)C1CCN(C(=O)N[C@@H]2C=C[C@H](C(=O)NCCCNC(=O)c3ccc(-c4c5nc(c(-c6ccc(S(=O)(=O)[O-])cc6)c6ccc([nH]6)c(-c6ccc(S(=O)(=O)[O-])cc6)c6nc(c(-c7ccc(S(=O)(=O)[O-])cc7)c7ccc4[nH]7)C=C6)C=C5)cc3)C2)CC1
REMARK SMILES IDX 20 1 19 2 18 3 16 4 17 5 15 7 12 8 13 9 85 10 14 11 11 12
REMARK SMILES IDX 5 13 6 14 87 15 7 16 86 17 8 18 9 19 10 20 3 22 4 23 2 24
REMARK SMILES IDX 1 25 21 26 22 27 23 28 24 30 25 31 26 32 84 33 27 34 83 35
REMARK SMILES IDX 28 36 29 37 30 38 77 39 31 40 82 41 76 42 78 43 32 44 81 45
REMARK SMILES IDX 75 46 74 47 33 49 63 50 44 51 62 52 45 53 48 54 61 55 79 56
REMARK SMILES IDX 46 57 47 58 60 60 80 61 49 62 34 63 35 64 43 65 36 66 42 67
REMARK SMILES IDX 37 68 38 69 39 70 40 71 41 72 64 73 65 74 73 75 66 76 72 77
REMARK SMILES IDX 67 78 68 79 69 80 70 81 71 82 50 83 51 84 59 85 52 86 58 87
REMARK SMILES IDX 53 88 54 89 55 90 56 91 57 92
REMARK H PARENT 18 6 11 21 22 29 78 48 48 59
REMARK Flexibility Score: inf
ROOT
ATOM      1  C   UNL     1       3.808  -7.680  -3.479  1.00  0.00     0.042 C 
ENDROOT
BRANCH   1   2
ATOM      2  C   UNL     1       2.353  -8.048  -3.207  1.00  0.00     0.117 C 
BRANCH   2   3
ATOM      3  N   UNL     1       2.125  -9.482  -3.265  1.00  0.00    -0.356 N 
ATOM      4  C   UNL     1       1.956 -10.429  -2.309  1.00  0.00     0.227 C 
ATOM      5  O   UNL     1       1.794 -11.588  -2.712  1.00  0.00    -0.274 OA
ATOM      6  H   UNL     1       2.084  -9.836  -4.183  1.00  0.00     0.163 HD
BRANCH   4   7
ATOM      7  C   UNL     1       1.867 -10.149  -0.802  1.00  0.00     0.103 C 
ATOM      8  C   UNL     1       0.325  -8.401   0.044  1.00  0.00     0.107 C 
ATOM      9  C   UNL     1       1.769  -8.054   0.232  1.00  0.00    -0.006 C 
ATOM     10  C   UNL     1       0.420  -9.896  -0.336  1.00  0.00     0.047 C 
ATOM     11  C   UNL     1       2.605  -8.990  -0.234  1.00  0.00    -0.016 C 
BRANCH   8  12
ATOM     12  N   UNL     1      -0.264  -7.647  -1.047  1.00  0.00    -0.332 N 
ATOM     13  C   UNL     1       1.048  -3.136  -0.202  1.00  0.00     0.102 C 
ATOM     14  C   UNL     1       0.076  -3.334  -1.382  1.00  0.00     0.037 C 
ATOM     15  C   UNL     1       1.288  -4.460   0.557  1.00  0.00     0.037 C 
ATOM     16  C   UNL     1      -1.175  -4.096  -0.947  1.00  0.00     0.122 C 
ATOM     17  C   UNL     1      -0.004  -5.241   0.828  1.00  0.00     0.122 C 
ATOM     18  N   UNL     1      -0.750  -5.390  -0.412  1.00  0.00    -0.325 N 
ATOM     19  C   UNL     1      -0.813  -6.449  -1.268  1.00  0.00     0.317 C 
ATOM     20  O   UNL     1      -1.369  -6.355  -2.370  1.00  0.00    -0.249 OA
ATOM     21  H   UNL     1      -0.257  -8.180  -1.875  1.00  0.00     0.165 HD
BRANCH  13  22
ATOM     22  C   UNL     1       0.649  -2.011   0.745  1.00  0.00     0.308 C 
ATOM     23  O   UNL     1       1.050  -1.909   1.899  1.00  0.00    -0.252 OA
BRANCH  22  24
ATOM     24  O   UNL     1      -0.112  -1.079   0.112  1.00  0.00    -0.469 OA
ATOM     25  C   UNL     1      -0.290   0.146   0.824  1.00  0.00     0.282 C 
ENDBRANCH  22  24
ENDBRANCH  13  22
ENDBRANCH   8  12
ENDBRANCH   4   7
ENDBRANCH   2   3
ENDBRANCH   1   2
BRANCH   1  26
ATOM     26  C   UNL     1       4.223  -7.872  -4.934  1.00  0.00     0.118 C 
BRANCH  26  27
ATOM     27  N   UNL     1       3.470  -7.017  -5.843  1.00  0.00    -0.352 N 
ATOM     28  C   UNL     1       3.900  -6.073  -6.740  1.00  0.00     0.251 C 
ATOM     29  H   UNL     1       2.493  -7.137  -5.807  1.00  0.00     0.163 HD
ATOM     30  O   UNL     1       3.082  -5.313  -7.251  1.00  0.00    -0.269 OA
BRANCH  28  31
ATOM     31  C   UNL     1       5.332  -5.959  -7.088  1.00  0.00     0.039 A 
ATOM     32  C   UNL     1       5.876  -4.688  -7.298  1.00  0.00     0.014 A 
ATOM     33  C   UNL     1       6.129  -7.094  -7.256  1.00  0.00     0.014 A 
ATOM     34  C   UNL     1       7.225  -4.556  -7.631  1.00  0.00     0.010 A 
ATOM     35  C   UNL     1       7.492  -6.957  -7.499  1.00  0.00     0.010 A 
ATOM     36  C   UNL     1       8.052  -5.689  -7.709  1.00  0.00    -0.014 A 
BRANCH  36  37
ATOM     37  C   UNL     1       9.495  -5.570  -8.038  1.00  0.00     0.031 A 
ATOM     38  C   UNL     1      10.036  -6.205  -9.292  1.00  0.00     0.074 A 
ATOM     39  C   UNL     1      10.325  -4.936  -7.187  1.00  0.00     0.049 A 
ATOM     40  N   UNL     1      11.269  -6.253  -9.727  1.00  0.00    -0.248 NA
ATOM     41  C   UNL     1       9.069  -6.901 -10.158  1.00  0.00     0.031 C 
ATOM     42  C   UNL     1       9.927  -4.310  -5.923  1.00  0.00     0.029 A 
ATOM     43  N   UNL     1      11.677  -4.713  -7.255  1.00  0.00    -0.354 N 
ATOM     44  C   UNL     1      11.227  -6.995 -10.903  1.00  0.00     0.074 A 
ATOM     45  C   UNL     1       9.860  -7.428 -11.081  1.00  0.00     0.031 C 
ATOM     46  C   UNL     1      11.004  -3.744  -5.355  1.00  0.00     0.029 A 
ATOM     47  C   UNL     1      12.174  -4.004  -6.187  1.00  0.00     0.049 A 
ATOM     48  H   UNL     1      12.238  -5.031  -7.999  1.00  0.00     0.167 HD
ATOM     49  C   UNL     1      12.231  -7.270 -11.770  1.00  0.00     0.031 A 
ATOM     50  C   UNL     1      13.431  -3.610  -5.907  1.00  0.00     0.031 A 
ATOM     51  C   UNL     1      13.589  -6.829 -11.592  1.00  0.00     0.049 A 
ATOM     52  C   UNL     1      14.533  -3.941  -6.877  1.00  0.00     0.074 A 
ATOM     53  C   UNL     1      14.672  -7.017 -12.432  1.00  0.00     0.029 A 
ATOM     54  N   UNL     1      14.050  -6.111 -10.499  1.00  0.00    -0.354 N 
ATOM     55  N   UNL     1      14.464  -4.598  -8.011  1.00  0.00    -0.248 NA
ATOM     56  C   UNL     1      15.879  -3.462  -6.538  1.00  0.00     0.031 C 
ATOM     57  C   UNL     1      15.800  -6.460 -11.820  1.00  0.00     0.029 A 
ATOM     58  C   UNL     1      15.406  -5.863 -10.633  1.00  0.00     0.049 A 
ATOM     59  H   UNL     1      13.495  -5.819  -9.739  1.00  0.00     0.167 HD
ATOM     60  C   UNL     1      15.750  -4.577  -8.539  1.00  0.00     0.074 A 
ATOM     61  C   UNL     1      16.572  -3.834  -7.605  1.00  0.00     0.031 C 
ATOM     62  C   UNL     1      16.209  -5.119  -9.695  1.00  0.00     0.031 A 
BRANCH  49  63
ATOM     63  C   UNL     1      11.892  -8.092 -12.988  1.00  0.00    -0.014 A 
ATOM     64  C   UNL     1      11.062  -7.582 -14.004  1.00  0.00     0.010 A 
ATOM     65  C   UNL     1      12.431  -9.384 -13.134  1.00  0.00     0.010 A 
ATOM     66  C   UNL     1      10.739  -8.364 -15.116  1.00  0.00     0.020 A 
ATOM     67  C   UNL     1      12.137 -10.157 -14.261  1.00  0.00     0.020 A 
ATOM     68  C   UNL     1      11.277  -9.649 -15.236  1.00  0.00     0.054 A 
BRANCH  68  69
ATOM     69  S   UNL     1      10.852 -10.635 -16.698  1.00  0.00     0.124 S 
ATOM     70  O   UNL     1       9.454 -10.972 -16.437  1.00  0.00    -0.237 OA
ATOM     71  O   UNL     1      11.076  -9.695 -17.793  1.00  0.00    -0.237 OA
ATOM     72  O   UNL     1      11.784 -11.758 -16.643  1.00  0.00    -0.744 OA
ENDBRANCH  68  69
ENDBRANCH  49  63
BRANCH  50  73
ATOM     73  C   UNL     1      13.710  -2.833  -4.667  1.00  0.00    -0.014 A 
ATOM     74  C   UNL     1      14.078  -1.478  -4.741  1.00  0.00     0.010 A 
ATOM     75  C   UNL     1      13.600  -3.442  -3.403  1.00  0.00     0.010 A 
ATOM     76  C   UNL     1      14.352  -0.753  -3.578  1.00  0.00     0.020 A 
ATOM     77  C   UNL     1      13.843  -2.712  -2.236  1.00  0.00     0.020 A 
ATOM     78  C   UNL     1      14.230  -1.374  -2.332  1.00  0.00     0.054 A 
BRANCH  78  79
ATOM     79  S   UNL     1      14.546  -0.400  -0.835  1.00  0.00     0.124 S 
ATOM     80  O   UNL     1      15.996  -0.236  -0.879  1.00  0.00    -0.237 OA
ATOM     81  O   UNL     1      13.764   0.809  -1.076  1.00  0.00    -0.237 OA
ATOM     82  O   UNL     1      14.045  -1.253   0.240  1.00  0.00    -0.744 OA
ENDBRANCH  78  79
ENDBRANCH  50  73
BRANCH  62  83
ATOM     83  C   UNL     1      17.655  -4.881 -10.045  1.00  0.00    -0.014 A 
ATOM     84  C   UNL     1      18.698  -5.492  -9.328  1.00  0.00     0.010 A 
ATOM     85  C   UNL     1      17.969  -4.060 -11.144  1.00  0.00     0.010 A 
ATOM     86  C   UNL     1      20.030  -5.251  -9.676  1.00  0.00     0.020 A 
ATOM     87  C   UNL     1      19.298  -3.843 -11.516  1.00  0.00     0.020 A 
ATOM     88  C   UNL     1      20.321  -4.426 -10.767  1.00  0.00     0.054 A 
BRANCH  88  89
ATOM     89  S   UNL     1      22.056  -4.152 -11.216  1.00  0.00     0.124 S 
ATOM     90  O   UNL     1      22.512  -3.271 -10.144  1.00  0.00    -0.237 OA
ATOM     91  O   UNL     1      22.609  -5.504 -11.198  1.00  0.00    -0.237 OA
ATOM     92  O   UNL     1      21.980  -3.534 -12.539  1.00  0.00    -0.744 OA
ENDBRANCH  88  89
ENDBRANCH  62  83
ENDBRANCH  36  37
ENDBRANCH  28  31
ENDBRANCH  26  27
ENDBRANCH   1  26
TORSDOF 16
