REMARK SMILES CC(=O)NCC(=O)N[C@H]1CCCCC[C@@H]1C(=O)NCCCNC(=O)c1ccc(-c2c3nc(c(-c4ccc(S(=O)(=O)[O-])cc4)c4ccc([nH]4)c(-c4ccc(S(=O)(=O)[O-])cc4)c4nc(c(-c5ccc(S(=O)(=O)[O-])cc5)c5ccc2[nH]5)C=C4)C=C3)cc1
REMARK SMILES IDX 19 1 18 2 16 3 17 4 15 6 9 7 8 8 6 9 7 10 5 12 4 13 1 14
REMARK SMILES IDX 2 15 3 16 10 18 11 19 14 21 13 22 12 23 20 25 21 26 22 27
REMARK SMILES IDX 23 28 24 30 25 31 26 32 84 33 27 34 83 35 28 36 29 37 30 38
REMARK SMILES IDX 77 39 31 40 82 41 76 42 78 43 32 44 81 45 75 46 74 47 33 49
REMARK SMILES IDX 63 50 44 51 62 52 45 53 48 54 61 55 79 56 46 57 47 58 60 60
REMARK SMILES IDX 80 61 49 62 34 63 35 64 43 65 36 66 42 67 37 68 38 69 39 70
REMARK SMILES IDX 40 71 41 72 64 73 65 74 73 75 66 76 72 77 67 78 68 79 69 80
REMARK SMILES IDX 70 81 71 82 50 83 51 84 59 85 52 86 58 87 53 88 54 89 55 90
REMARK SMILES IDX 56 91 57 92
REMARK H PARENT 18 5 8 11 4 17 22 29 78 48 48 59
REMARK Flexibility Score: 90.00
ROOT
ATOM      1  C   UNL     1       4.846  -4.301   3.519  1.00  0.00     0.117 C 
ENDROOT
BRANCH   1   2
ATOM      2  N   UNL     1       4.992  -4.638   2.112  1.00  0.00    -0.356 N 
ATOM      3  C   UNL     1       4.960  -3.788   1.044  1.00  0.00     0.225 C 
ATOM      4  O   UNL     1       5.138  -4.236  -0.087  1.00  0.00    -0.275 OA
ATOM      5  H   UNL     1       5.128  -5.591   1.906  1.00  0.00     0.163 HD
BRANCH   3   6
ATOM      6  C   UNL     1       4.798  -2.302   1.322  1.00  0.00     0.101 C 
BRANCH   6   7
ATOM      7  C   UNL     1       3.925  -1.640   0.220  1.00  0.00     0.094 C 
BRANCH   7   8
ATOM      8  N   UNL     1       2.496  -1.678   0.638  1.00  0.00    -0.351 N 
ATOM      9  C   UNL     1       1.346  -1.151   0.130  1.00  0.00     0.239 C 
ATOM     10  O   UNL     1       0.313  -1.304   0.790  1.00  0.00    -0.273 OA
ATOM     11  H   UNL     1       2.350  -2.197   1.462  1.00  0.00     0.163 HD
BRANCH   9  12
ATOM     12  C   UNL     1       1.324  -0.330  -1.159  1.00  0.00     0.216 C 
BRANCH  12  13
ATOM     13  N   UNL     1       1.588   1.089  -0.942  1.00  0.00    -0.347 N 
ATOM     14  C   UNL     1       3.053   1.483  -2.923  1.00  0.00     0.114 C 
ATOM     15  C   UNL     1       2.336   1.957  -1.681  1.00  0.00     0.217 C 
ATOM     16  O   UNL     1       2.449   3.124  -1.305  1.00  0.00    -0.275 OA
ATOM     17  H   UNL     1       1.164   1.477  -0.142  1.00  0.00     0.164 HD
ENDBRANCH  12  13
ENDBRANCH   9  12
ENDBRANCH   7   8
BRANCH   7  18
ATOM     18  C   UNL     1       4.409  -0.217  -0.043  1.00  0.00     0.026 C 
BRANCH  18  19
ATOM     19  C   UNL     1       4.335   0.682   1.189  1.00  0.00     0.002 CG0
ATOM     20  G   UNL     1       5.690   0.802   1.870  1.00  0.00     0.000 G0
ENDBRANCH  18  19
ENDBRANCH   7  18
ENDBRANCH   6   7
BRANCH   6  21
ATOM     21  C   UNL     1       6.217  -1.725   1.539  1.00  0.00     0.015 C 
BRANCH  21  22
ATOM     22  C   UNL     1       6.240  -0.497   2.456  1.00  0.00     0.001 C 
BRANCH  22  23
ATOM     23  C   UNL     1       5.690   0.802   1.870  1.00  0.00     0.000 CG0
ATOM     24  G   UNL     1       4.335   0.682   1.189  1.00  0.00     0.000 G0
ENDBRANCH  22  23
ENDBRANCH  21  22
ENDBRANCH   6  21
ENDBRANCH   3   6
ENDBRANCH   1   2
BRANCH   1  25
ATOM     25  C   UNL     1       4.464  -5.495   4.370  1.00  0.00     0.042 C 
BRANCH  25  26
ATOM     26  C   UNL     1       5.560  -6.540   4.482  1.00  0.00     0.118 C 
BRANCH  26  27
ATOM     27  N   UNL     1       6.702  -6.086   5.263  1.00  0.00    -0.352 N 
ATOM     28  C   UNL     1       7.246  -6.636   6.404  1.00  0.00     0.251 C 
ATOM     29  H   UNL     1       7.146  -5.273   4.931  1.00  0.00     0.163 HD
ATOM     30  O   UNL     1       8.113  -6.038   7.022  1.00  0.00    -0.269 OA
BRANCH  28  31
ATOM     31  C   UNL     1       6.742  -7.942   6.885  1.00  0.00     0.039 A 
ATOM     32  C   UNL     1       6.416  -8.090   8.234  1.00  0.00     0.014 A 
ATOM     33  C   UNL     1       6.545  -8.998   5.991  1.00  0.00     0.014 A 
ATOM     34  C   UNL     1       5.813  -9.273   8.669  1.00  0.00     0.010 A 
ATOM     35  C   UNL     1       5.856 -10.131   6.405  1.00  0.00     0.010 A 
ATOM     36  C   UNL     1       5.487 -10.284   7.750  1.00  0.00    -0.014 A 
BRANCH  36  37
ATOM     37  C   UNL     1       4.766 -11.513   8.170  1.00  0.00     0.031 A 
ATOM     38  C   UNL     1       5.417 -12.860   8.000  1.00  0.00     0.074 A 
ATOM     39  C   UNL     1       3.503 -11.424   8.633  1.00  0.00     0.049 A 
ATOM     40  N   UNL     1       4.926 -14.048   8.239  1.00  0.00    -0.248 NA
ATOM     41  C   UNL     1       6.788 -12.874   7.462  1.00  0.00     0.031 C 
ATOM     42  C   UNL     1       2.742 -10.182   8.797  1.00  0.00     0.029 A 
ATOM     43  N   UNL     1       2.631 -12.401   9.046  1.00  0.00    -0.354 N 
ATOM     44  C   UNL     1       5.916 -14.948   7.862  1.00  0.00     0.074 A 
ATOM     45  C   UNL     1       7.012 -14.172   7.325  1.00  0.00     0.031 C 
ATOM     46  C   UNL     1       1.532 -10.470   9.304  1.00  0.00     0.029 A 
ATOM     47  C   UNL     1       1.413 -11.916   9.462  1.00  0.00     0.049 A 
ATOM     48  H   UNL     1       2.856 -13.359   9.044  1.00  0.00     0.167 HD
ATOM     49  C   UNL     1       5.924 -16.297   7.973  1.00  0.00     0.031 A 
ATOM     50  C   UNL     1       0.321 -12.561   9.915  1.00  0.00     0.031 A 
ATOM     51  C   UNL     1       4.841 -17.064   8.526  1.00  0.00     0.049 A 
ATOM     52  C   UNL     1       0.353 -14.061  10.031  1.00  0.00     0.074 A 
ATOM     53  C   UNL     1       4.776 -18.429   8.740  1.00  0.00     0.029 A 
ATOM     54  N   UNL     1       3.632 -16.533   8.951  1.00  0.00    -0.354 N 
ATOM     55  N   UNL     1       1.326 -14.889   9.734  1.00  0.00    -0.248 NA
ATOM     56  C   UNL     1      -0.856 -14.712  10.555  1.00  0.00     0.031 C 
ATOM     57  C   UNL     1       3.508 -18.730   9.249  1.00  0.00     0.029 A 
ATOM     58  C   UNL     1       2.806 -17.545   9.406  1.00  0.00     0.049 A 
ATOM     59  H   UNL     1       3.397 -15.577   8.932  1.00  0.00     0.167 HD
ATOM     60  C   UNL     1       0.857 -16.157  10.059  1.00  0.00     0.074 A 
ATOM     61  C   UNL     1      -0.480 -15.984  10.589  1.00  0.00     0.031 C 
ATOM     62  C   UNL     1       1.477 -17.355   9.931  1.00  0.00     0.031 A 
BRANCH  49  63
ATOM     63  C   UNL     1       7.148 -17.028   7.486  1.00  0.00    -0.014 A 
ATOM     64  C   UNL     1       8.376 -16.922   8.165  1.00  0.00     0.010 A 
ATOM     65  C   UNL     1       7.063 -17.857   6.353  1.00  0.00     0.010 A 
ATOM     66  C   UNL     1       9.506 -17.595   7.694  1.00  0.00     0.020 A 
ATOM     67  C   UNL     1       8.184 -18.556   5.896  1.00  0.00     0.020 A 
ATOM     68  C   UNL     1       9.404 -18.405   6.560  1.00  0.00     0.054 A 
BRANCH  68  69
ATOM     69  S   UNL     1      10.882 -19.283   5.984  1.00  0.00     0.124 S 
ATOM     70  O   UNL     1      11.671 -18.197   5.407  1.00  0.00    -0.237 OA
ATOM     71  O   UNL     1      11.414 -19.858   7.217  1.00  0.00    -0.237 OA
ATOM     72  O   UNL     1      10.359 -20.251   5.023  1.00  0.00    -0.744 OA
ENDBRANCH  68  69
ENDBRANCH  49  63
BRANCH  50  73
ATOM     73  C   UNL     1      -0.889 -11.790  10.311  1.00  0.00    -0.014 A 
ATOM     74  C   UNL     1      -1.256 -11.682  11.665  1.00  0.00     0.010 A 
ATOM     75  C   UNL     1      -1.675 -11.146   9.338  1.00  0.00     0.010 A 
ATOM     76  C   UNL     1      -2.394 -10.960  12.036  1.00  0.00     0.020 A 
ATOM     77  C   UNL     1      -2.799 -10.400   9.708  1.00  0.00     0.020 A 
ATOM     78  C   UNL     1      -3.158 -10.322  11.055  1.00  0.00     0.054 A 
BRANCH  78  79
ATOM     79  S   UNL     1      -4.601  -9.348  11.565  1.00  0.00     0.124 S 
ATOM     80  O   UNL     1      -5.561 -10.389  11.916  1.00  0.00    -0.237 OA
ATOM     81  O   UNL     1      -4.075  -8.567  12.682  1.00  0.00    -0.237 OA
ATOM     82  O   UNL     1      -4.926  -8.570  10.371  1.00  0.00    -0.744 OA
ENDBRANCH  78  79
ENDBRANCH  50  73
BRANCH  62  83
ATOM     83  C   UNL     1       0.732 -18.575  10.401  1.00  0.00    -0.014 A 
ATOM     84  C   UNL     1      -0.360 -19.086   9.678  1.00  0.00     0.010 A 
ATOM     85  C   UNL     1       1.172 -19.254  11.553  1.00  0.00     0.010 A 
ATOM     86  C   UNL     1      -1.018 -20.239  10.116  1.00  0.00     0.020 A 
ATOM     87  C   UNL     1       0.535 -20.422  11.977  1.00  0.00     0.020 A 
ATOM     88  C   UNL     1      -0.566 -20.900  11.262  1.00  0.00     0.054 A 
BRANCH  88  89
ATOM     89  S   UNL     1      -1.407 -22.420  11.782  1.00  0.00     0.124 S 
ATOM     90  O   UNL     1      -2.656 -21.903  12.333  1.00  0.00    -0.237 OA
ATOM     91  O   UNL     1      -1.531 -23.162  10.530  1.00  0.00    -0.237 OA
ATOM     92  O   UNL     1      -0.491 -23.006  12.758  1.00  0.00    -0.744 OA
ENDBRANCH  88  89
ENDBRANCH  62  83
ENDBRANCH  36  37
ENDBRANCH  28  31
ENDBRANCH  26  27
ENDBRANCH  25  26
ENDBRANCH   1  25
TORSDOF 16
