REMARK SMILES Cc1cccc(C[C@H](C(=O)NCCCNC(=O)c2ccc(-c3c4nc(c(-c5ccc(S(=O)(=O)[O-])cc5)c5ccc([nH]5)c(-c5ccc(S(=O)(=O)[O-])cc5)c5nc(c(-c6ccc(S(=O)(=O)[O-])cc6)c6ccc3[nH]6)C=C5)C=C4)cc2)[C@@H]2CCCC[C@@H]2O)c1
REMARK SMILES IDX 13 1 12 2 11 3 9 4 10 5 8 7 7 8 6 9 1 10 2 11 3 12 85 13
REMARK SMILES IDX 4 14 5 15 78 16 79 17 83 18 80 19 82 20 81 21 84 22 14 24
REMARK SMILES IDX 15 25 16 26 17 28 18 29 19 30 77 31 20 32 76 33 21 34 22 35
REMARK SMILES IDX 23 36 70 37 24 38 75 39 69 40 71 41 25 42 74 43 68 44 67 45
REMARK SMILES IDX 26 47 56 48 37 49 55 50 38 51 41 52 54 53 72 54 39 55 40 56
REMARK SMILES IDX 53 58 73 59 42 60 27 61 28 62 36 63 29 64 35 65 30 66 31 67
REMARK SMILES IDX 32 68 33 69 34 70 57 71 58 72 66 73 59 74 65 75 60 76 61 77
REMARK SMILES IDX 62 78 63 79 64 80 43 81 44 82 52 83 45 84 51 85 46 86 47 87
REMARK SMILES IDX 48 88 49 89 50 90
REMARK H PARENT 11 6 84 23 15 27 71 46 41 57
REMARK Flexibility Score: inf
ROOT
ATOM      1  C   UNL     1      -6.700   5.138   3.004  1.00  0.00     0.042 C 
ENDROOT
BRANCH   1   2
ATOM      2  C   UNL     1      -6.605   3.864   2.160  1.00  0.00     0.117 C 
BRANCH   2   3
ATOM      3  N   UNL     1      -5.296   3.250   2.024  1.00  0.00    -0.356 N 
ATOM      4  C   UNL     1      -4.383   3.332   1.009  1.00  0.00     0.223 C 
ATOM      5  O   UNL     1      -3.504   2.468   0.969  1.00  0.00    -0.275 OA
ATOM      6  H   UNL     1      -5.023   2.686   2.783  1.00  0.00     0.163 HD
BRANCH   4   7
ATOM      7  C   UNL     1      -4.457   4.462  -0.026  1.00  0.00     0.088 C 
BRANCH   7   8
ATOM      8  C   UNL     1      -4.434   5.879   0.566  1.00  0.00     0.049 C 
BRANCH   8   9
ATOM      9  C   UNL     1      -3.594   6.327   1.746  1.00  0.00    -0.047 A 
ATOM     10  C   UNL     1      -3.104   9.698   3.495  1.00  0.00     0.044 C 
ATOM     11  C   UNL     1      -3.049   8.230   3.201  1.00  0.00    -0.051 A 
ATOM     12  C   UNL     1      -2.546   7.351   4.159  1.00  0.00     0.003 A 
ATOM     13  C   UNL     1      -3.581   7.711   2.013  1.00  0.00     0.007 A 
ATOM     14  C   UNL     1      -2.501   5.988   3.896  1.00  0.00     0.001 A 
ATOM     15  C   UNL     1      -2.993   5.484   2.688  1.00  0.00     0.004 A 
ENDBRANCH   8   9
ENDBRANCH   7   8
BRANCH   7  16
ATOM     16  C   UNL     1      -3.499   4.228  -1.261  1.00  0.00     0.030 C 
ATOM     17  C   UNL     1      -2.380   5.259  -1.524  1.00  0.00     0.007 C 
ATOM     18  C   UNL     1      -4.300   4.034  -2.567  1.00  0.00     0.118 C 
ATOM     19  C   UNL     1      -2.775   6.542  -2.271  1.00  0.00     0.001 C 
ATOM     20  C   UNL     1      -4.920   5.349  -3.030  1.00  0.00     0.032 C 
ATOM     21  C   UNL     1      -3.845   6.379  -3.350  1.00  0.00     0.003 C 
BRANCH  18  22
ATOM     22  O   UNL     1      -5.328   3.062  -2.403  1.00  0.00    -0.393 OA
ATOM     23  H   UNL     1      -5.956   3.366  -1.730  1.00  0.00     0.210 HD
ENDBRANCH  18  22
ENDBRANCH   7  16
ENDBRANCH   4   7
ENDBRANCH   2   3
ENDBRANCH   1   2
BRANCH   1  24
ATOM     24  C   UNL     1      -6.367   4.980   4.474  1.00  0.00     0.118 C 
BRANCH  24  25
ATOM     25  N   UNL     1      -6.709   6.205   5.210  1.00  0.00    -0.352 N 
ATOM     26  C   UNL     1      -6.628   6.469   6.565  1.00  0.00     0.251 C 
ATOM     27  H   UNL     1      -7.046   6.946   4.657  1.00  0.00     0.163 HD
ATOM     28  O   UNL     1      -6.944   7.555   7.018  1.00  0.00    -0.269 OA
BRANCH  26  29
ATOM     29  C   UNL     1      -6.119   5.394   7.435  1.00  0.00     0.039 A 
ATOM     30  C   UNL     1      -4.965   5.601   8.197  1.00  0.00     0.014 A 
ATOM     31  C   UNL     1      -6.681   4.131   7.310  1.00  0.00     0.014 A 
ATOM     32  C   UNL     1      -4.265   4.498   8.691  1.00  0.00     0.010 A 
ATOM     33  C   UNL     1      -5.927   3.045   7.685  1.00  0.00     0.010 A 
ATOM     34  C   UNL     1      -4.707   3.218   8.360  1.00  0.00    -0.014 A 
BRANCH  34  35
ATOM     35  C   UNL     1      -3.980   1.975   8.601  1.00  0.00     0.031 A 
ATOM     36  C   UNL     1      -4.584   0.927   9.465  1.00  0.00     0.074 A 
ATOM     37  C   UNL     1      -2.910   1.671   7.831  1.00  0.00     0.049 A 
ATOM     38  N   UNL     1      -3.992  -0.160   9.831  1.00  0.00    -0.248 NA
ATOM     39  C   UNL     1      -5.927   1.052  10.029  1.00  0.00     0.031 C 
ATOM     40  C   UNL     1      -2.381   0.336   7.557  1.00  0.00     0.029 A 
ATOM     41  N   UNL     1      -1.942   2.527   7.301  1.00  0.00    -0.354 N 
ATOM     42  C   UNL     1      -4.954  -1.003  10.343  1.00  0.00     0.074 A 
ATOM     43  C   UNL     1      -6.111  -0.166  10.543  1.00  0.00     0.031 C 
ATOM     44  C   UNL     1      -1.095   0.451   7.192  1.00  0.00     0.029 A 
ATOM     45  C   UNL     1      -0.721   1.836   7.413  1.00  0.00     0.049 A 
ATOM     46  H   UNL     1      -2.085   3.426   6.926  1.00  0.00     0.167 HD
ATOM     47  C   UNL     1      -4.701  -2.343  10.408  1.00  0.00     0.031 A 
ATOM     48  C   UNL     1       0.299   2.247   8.226  1.00  0.00     0.031 A 
ATOM     49  C   UNL     1      -3.290  -2.646  10.144  1.00  0.00     0.049 A 
ATOM     50  C   UNL     1       0.695   1.231   9.294  1.00  0.00     0.074 A 
ATOM     51  C   UNL     1      -2.582  -3.279   9.136  1.00  0.00     0.029 A 
ATOM     52  N   UNL     1      -2.337  -2.028  10.939  1.00  0.00    -0.354 N 
ATOM     53  N   UNL     1       0.153   0.055   9.453  1.00  0.00    -0.248 NA
ATOM     54  C   UNL     1       1.659   1.542  10.354  1.00  0.00     0.031 C 
ATOM     55  C   UNL     1      -1.192  -3.015   9.335  1.00  0.00     0.029 A 
ATOM     56  C   UNL     1      -1.058  -2.238  10.470  1.00  0.00     0.049 A 
ATOM     57  H   UNL     1      -2.548  -1.501  11.744  1.00  0.00     0.167 HD
ATOM     58  C   UNL     1       0.572  -0.479  10.644  1.00  0.00     0.074 A 
ATOM     59  C   UNL     1       1.540   0.472  11.157  1.00  0.00     0.031 C 
ATOM     60  C   UNL     1       0.045  -1.616  11.182  1.00  0.00     0.031 A 
BRANCH  47  61
ATOM     61  C   UNL     1      -5.780  -3.408  10.515  1.00  0.00    -0.014 A 
ATOM     62  C   UNL     1      -5.485  -4.740  10.158  1.00  0.00     0.010 A 
ATOM     63  C   UNL     1      -7.117  -3.162  10.883  1.00  0.00     0.010 A 
ATOM     64  C   UNL     1      -6.477  -5.735  10.083  1.00  0.00     0.020 A 
ATOM     65  C   UNL     1      -8.122  -4.136  10.797  1.00  0.00     0.020 A 
ATOM     66  C   UNL     1      -7.799  -5.418  10.380  1.00  0.00     0.054 A 
BRANCH  66  67
ATOM     67  S   UNL     1      -9.088  -6.676  10.200  1.00  0.00     0.124 S 
ATOM     68  O   UNL     1      -8.961  -7.058   8.796  1.00  0.00    -0.237 OA
ATOM     69  O   UNL     1      -8.679  -7.687  11.170  1.00  0.00    -0.237 OA
ATOM     70  O   UNL     1     -10.320  -5.962  10.533  1.00  0.00    -0.744 OA
ENDBRANCH  66  67
ENDBRANCH  47  61
BRANCH  48  71
ATOM     71  C   UNL     1       0.352   3.720   8.441  1.00  0.00    -0.014 A 
ATOM     72  C   UNL     1       0.673   4.551   7.348  1.00  0.00     0.010 A 
ATOM     73  C   UNL     1      -0.240   4.291   9.581  1.00  0.00     0.010 A 
ATOM     74  C   UNL     1       0.296   5.897   7.342  1.00  0.00     0.020 A 
ATOM     75  C   UNL     1      -0.610   5.640   9.583  1.00  0.00     0.020 A 
ATOM     76  C   UNL     1      -0.390   6.416   8.441  1.00  0.00     0.054 A 
BRANCH  76  77
ATOM     77  S   UNL     1      -1.121   8.072   8.331  1.00  0.00     0.124 S 
ATOM     78  O   UNL     1      -0.195   8.789   7.460  1.00  0.00    -0.237 OA
ATOM     79  O   UNL     1      -2.422   7.769   7.743  1.00  0.00    -0.237 OA
ATOM     80  O   UNL     1      -1.147   8.518   9.720  1.00  0.00    -0.744 OA
ENDBRANCH  76  77
ENDBRANCH  48  71
BRANCH  60  81
ATOM     81  C   UNL     1       0.499  -2.190  12.497  1.00  0.00    -0.014 A 
ATOM     82  C   UNL     1       1.859  -2.329  12.818  1.00  0.00     0.010 A 
ATOM     83  C   UNL     1      -0.442  -2.722  13.406  1.00  0.00     0.010 A 
ATOM     84  C   UNL     1       2.261  -2.934  14.017  1.00  0.00     0.020 A 
ATOM     85  C   UNL     1      -0.051  -3.344  14.595  1.00  0.00     0.020 A 
ATOM     86  C   UNL     1       1.302  -3.433  14.901  1.00  0.00     0.054 A 
BRANCH  86  87
ATOM     87  S   UNL     1       1.837  -4.267  16.418  1.00  0.00     0.124 S 
ATOM     88  O   UNL     1       2.973  -5.066  15.963  1.00  0.00    -0.237 OA
ATOM     89  O   UNL     1       2.172  -3.137  17.281  1.00  0.00    -0.237 OA
ATOM     90  O   UNL     1       0.665  -5.037  16.824  1.00  0.00    -0.744 OA
ENDBRANCH  86  87
ENDBRANCH  60  81
ENDBRANCH  34  35
ENDBRANCH  26  29
ENDBRANCH  24  25
ENDBRANCH   1  24
TORSDOF 17
