REMARK SMILES CCOC(=O)c1c(NC(=O)/C=C/C(=O)NCCCNC(=O)c2ccc(-c3c4nc(c(-c5ccc(S(=O)(=O)[O-])cc5)c5ccc([nH]5)c(-c5ccc(S(=O)(=O)[O-])cc5)c5nc(c(-c6ccc(S(=O)(=O)[O-])cc6)c6ccc3[nH]6)C=C5)C=C4)cc2)sc(C)c1-c1ccc(C)c(C)c1
REMARK SMILES IDX 16 1 15 2 13 3 14 4 12 6 11 7 9 8 8 9 10 11 7 12 6 13 85 14
REMARK SMILES IDX 82 15 83 16 84 17 4 18 5 19 3 20 2 21 1 22 86 23 87 24 93 25
REMARK SMILES IDX 88 26 91 27 89 28 92 29 90 30 17 31 18 32 19 33 20 34 21 36
REMARK SMILES IDX 22 37 23 38 81 39 24 40 80 41 25 42 26 43 27 44 74 45 28 46
REMARK SMILES IDX 79 47 73 48 75 49 29 50 78 51 72 52 71 53 30 55 60 56 41 57
REMARK SMILES IDX 59 58 42 59 45 60 58 61 76 62 43 63 44 64 57 66 77 67 46 68
REMARK SMILES IDX 31 69 32 70 40 71 33 72 39 73 34 74 35 75 36 76 37 77 38 78
REMARK SMILES IDX 61 79 62 80 70 81 63 82 69 83 64 84 65 85 66 86 67 87 68 88
REMARK SMILES IDX 47 89 48 90 56 91 49 92 55 93 50 94 51 95 52 96 53 97 54 98
REMARK H PARENT 15 5 8 10 19 35 75 54 45 65
REMARK Flexibility Score: inf
ROOT
ATOM      1  C   UNL     1       7.401  -5.326   6.205  1.00  0.00     0.118 C 
ENDROOT
BRANCH   1   2
ATOM      2  N   UNL     1       6.475  -6.246   5.567  1.00  0.00    -0.352 N 
ATOM      3  C   UNL     1       5.247  -5.966   5.058  1.00  0.00     0.244 C 
ATOM      4  O   UNL     1       4.423  -6.859   4.889  1.00  0.00    -0.270 OA
ATOM      5  H   UNL     1       6.772  -7.182   5.497  1.00  0.00     0.163 HD
BRANCH   3   6
ATOM      6  C   UNL     1       4.922  -4.575   4.693  1.00  0.00     0.077 C 
ATOM      7  C   UNL     1       5.715  -3.971   3.796  1.00  0.00     0.077 C 
BRANCH   7   8
ATOM      8  C   UNL     1       5.290  -2.736   3.128  1.00  0.00     0.249 C 
ATOM      9  N   UNL     1       4.416  -2.768   2.079  1.00  0.00    -0.313 N 
ATOM     10  H   UNL     1       4.235  -1.883   1.686  1.00  0.00     0.171 HD
ATOM     11  O   UNL     1       5.758  -1.667   3.515  1.00  0.00    -0.270 OA
BRANCH   9  12
ATOM     12  C   UNL     1       3.734  -3.806   1.459  1.00  0.00     0.111 A 
ATOM     13  C   UNL     1       2.704  -3.683   0.539  1.00  0.00     0.102 A 
ATOM     14  C   UNL     1       2.094  -4.969   0.264  1.00  0.00     0.012 A 
ATOM     15  S   UNL     1       4.121  -5.433   1.715  1.00  0.00    -0.122 S 
ATOM     16  C   UNL     1       2.713  -5.997   0.952  1.00  0.00     0.012 A 
ATOM     17  C   UNL     1       2.374  -7.447   1.083  1.00  0.00     0.057 C 
BRANCH  13  18
ATOM     18  C   UNL     1       2.313  -2.394  -0.016  1.00  0.00     0.341 C 
ATOM     19  O   UNL     1       3.133  -1.527  -0.300  1.00  0.00    -0.246 OA
BRANCH  18  20
ATOM     20  O   UNL     1       0.966  -2.253  -0.146  1.00  0.00    -0.462 OA
BRANCH  20  21
ATOM     21  C   UNL     1       0.510  -1.066  -0.809  1.00  0.00     0.230 C 
ATOM     22  C   UNL     1       0.670   0.181   0.044  1.00  0.00     0.049 C 
ENDBRANCH  20  21
ENDBRANCH  18  20
ENDBRANCH  13  18
BRANCH  14  23
ATOM     23  C   UNL     1       1.008  -5.232  -0.664  1.00  0.00    -0.016 A 
ATOM     24  C   UNL     1       1.235  -5.086  -2.032  1.00  0.00     0.009 A 
ATOM     25  C   UNL     1      -0.253  -5.622  -0.203  1.00  0.00     0.012 A 
ATOM     26  C   UNL     1       0.204  -5.326  -2.935  1.00  0.00     0.004 A 
ATOM     27  C   UNL     1      -1.299  -5.878  -1.106  1.00  0.00    -0.048 A 
ATOM     28  C   UNL     1      -1.067  -5.725  -2.488  1.00  0.00    -0.048 A 
ATOM     29  C   UNL     1      -2.634  -6.306  -0.562  1.00  0.00     0.044 C 
ATOM     30  C   UNL     1      -2.129  -5.943  -3.530  1.00  0.00     0.044 C 
ENDBRANCH  14  23
ENDBRANCH   9  12
ENDBRANCH   7   8
ENDBRANCH   3   6
ENDBRANCH   1   2
BRANCH   1  31
ATOM     31  C   UNL     1       6.974  -5.034   7.638  1.00  0.00     0.042 C 
BRANCH  31  32
ATOM     32  C   UNL     1       6.956  -6.283   8.513  1.00  0.00     0.118 C 
BRANCH  32  33
ATOM     33  N   UNL     1       8.285  -6.861   8.653  1.00  0.00    -0.352 N 
ATOM     34  C   UNL     1       9.132  -6.854   9.732  1.00  0.00     0.251 C 
ATOM     35  H   UNL     1       8.627  -7.326   7.855  1.00  0.00     0.163 HD
ATOM     36  O   UNL     1      10.319  -7.127   9.572  1.00  0.00    -0.269 OA
BRANCH  34  37
ATOM     37  C   UNL     1       8.617  -6.524  11.077  1.00  0.00     0.039 A 
ATOM     38  C   UNL     1       9.395  -5.736  11.929  1.00  0.00     0.014 A 
ATOM     39  C   UNL     1       7.390  -7.030  11.514  1.00  0.00     0.014 A 
ATOM     40  C   UNL     1       8.920  -5.421  13.203  1.00  0.00     0.010 A 
ATOM     41  C   UNL     1       6.881  -6.647  12.750  1.00  0.00     0.010 A 
ATOM     42  C   UNL     1       7.649  -5.856  13.615  1.00  0.00    -0.014 A 
BRANCH  42  43
ATOM     43  C   UNL     1       7.116  -5.519  14.957  1.00  0.00     0.031 A 
ATOM     44  C   UNL     1       6.841  -6.615  15.953  1.00  0.00     0.074 A 
ATOM     45  C   UNL     1       6.820  -4.240  15.255  1.00  0.00     0.049 A 
ATOM     46  N   UNL     1       6.318  -6.531  17.149  1.00  0.00    -0.248 NA
ATOM     47  C   UNL     1       7.168  -7.990  15.538  1.00  0.00     0.031 C 
ATOM     48  C   UNL     1       6.995  -3.096  14.356  1.00  0.00     0.029 A 
ATOM     49  N   UNL     1       6.302  -3.686  16.398  1.00  0.00    -0.354 N 
ATOM     50  C   UNL     1       6.230  -7.837  17.617  1.00  0.00     0.074 A 
ATOM     51  C   UNL     1       6.709  -8.699  16.559  1.00  0.00     0.031 C 
ATOM     52  C   UNL     1       6.619  -1.975  14.992  1.00  0.00     0.029 A 
ATOM     53  C   UNL     1       6.143  -2.322  16.327  1.00  0.00     0.049 A 
ATOM     54  H   UNL     1       6.066  -4.215  17.194  1.00  0.00     0.167 HD
ATOM     55  C   UNL     1       5.807  -8.280  18.825  1.00  0.00     0.031 A 
ATOM     56  C   UNL     1       5.668  -1.449  17.236  1.00  0.00     0.031 A 
ATOM     57  C   UNL     1       5.356  -7.416  19.883  1.00  0.00     0.049 A 
ATOM     58  C   UNL     1       5.232  -1.960  18.580  1.00  0.00     0.074 A 
ATOM     59  C   UNL     1       4.966  -7.757  21.166  1.00  0.00     0.029 A 
ATOM     60  N   UNL     1       5.241  -6.038  19.782  1.00  0.00    -0.354 N 
ATOM     61  N   UNL     1       5.213  -3.194  19.026  1.00  0.00    -0.248 NA
ATOM     62  C   UNL     1       4.767  -0.960  19.550  1.00  0.00     0.031 C 
ATOM     63  C   UNL     1       4.578  -6.588  21.829  1.00  0.00     0.029 A 
ATOM     64  C   UNL     1       4.772  -5.514  20.974  1.00  0.00     0.049 A 
ATOM     65  H   UNL     1       5.460  -5.510  18.980  1.00  0.00     0.167 HD
ATOM     66  C   UNL     1       4.757  -3.116  20.336  1.00  0.00     0.074 A 
ATOM     67  C   UNL     1       4.527  -1.712  20.615  1.00  0.00     0.031 C 
ATOM     68  C   UNL     1       4.548  -4.114  21.230  1.00  0.00     0.031 A 
BRANCH  55  69
ATOM     69  C   UNL     1       5.814  -9.767  19.061  1.00  0.00    -0.014 A 
ATOM     70  C   UNL     1       7.021 -10.476  19.196  1.00  0.00     0.010 A 
ATOM     71  C   UNL     1       4.596 -10.463  19.175  1.00  0.00     0.010 A 
ATOM     72  C   UNL     1       7.013 -11.860  19.393  1.00  0.00     0.020 A 
ATOM     73  C   UNL     1       4.583 -11.844  19.400  1.00  0.00     0.020 A 
ATOM     74  C   UNL     1       5.793 -12.536  19.488  1.00  0.00     0.054 A 
BRANCH  74  75
ATOM     75  S   UNL     1       5.810 -14.329  19.759  1.00  0.00     0.124 S 
ATOM     76  O   UNL     1       6.184 -14.829  18.438  1.00  0.00    -0.237 OA
ATOM     77  O   UNL     1       6.822 -14.489  20.800  1.00  0.00    -0.237 OA
ATOM     78  O   UNL     1       4.442 -14.630  20.174  1.00  0.00    -0.744 OA
ENDBRANCH  74  75
ENDBRANCH  55  69
BRANCH  56  79
ATOM     79  C   UNL     1       5.612   0.001  16.911  1.00  0.00    -0.014 A 
ATOM     80  C   UNL     1       6.519   0.897  17.505  1.00  0.00     0.010 A 
ATOM     81  C   UNL     1       4.669   0.492  15.991  1.00  0.00     0.010 A 
ATOM     82  C   UNL     1       6.472   2.260  17.197  1.00  0.00     0.020 A 
ATOM     83  C   UNL     1       4.636   1.850  15.662  1.00  0.00     0.020 A 
ATOM     84  C   UNL     1       5.531   2.728  16.276  1.00  0.00     0.054 A 
BRANCH  84  85
ATOM     85  S   UNL     1       5.524   4.491  15.850  1.00  0.00     0.124 S 
ATOM     86  O   UNL     1       4.896   5.085  17.026  1.00  0.00    -0.237 OA
ATOM     87  O   UNL     1       6.946   4.781  15.677  1.00  0.00    -0.237 OA
ATOM     88  O   UNL     1       4.733   4.542  14.623  1.00  0.00    -0.744 OA
ENDBRANCH  84  85
ENDBRANCH  56  79
BRANCH  68  89
ATOM     89  C   UNL     1       4.075  -3.719  22.602  1.00  0.00    -0.014 A 
ATOM     90  C   UNL     1       2.755  -3.288  22.820  1.00  0.00     0.010 A 
ATOM     91  C   UNL     1       4.955  -3.820  23.694  1.00  0.00     0.010 A 
ATOM     92  C   UNL     1       2.333  -2.930  24.102  1.00  0.00     0.020 A 
ATOM     93  C   UNL     1       4.530  -3.487  24.982  1.00  0.00     0.020 A 
ATOM     94  C   UNL     1       3.226  -3.028  25.175  1.00  0.00     0.054 A 
BRANCH  94  95
ATOM     95  S   UNL     1       2.648  -2.588  26.837  1.00  0.00     0.124 S 
ATOM     96  O   UNL     1       2.651  -1.129  26.783  1.00  0.00    -0.237 OA
ATOM     97  O   UNL     1       1.328  -3.212  26.895  1.00  0.00    -0.237 OA
ATOM     98  O   UNL     1       3.649  -3.183  27.720  1.00  0.00    -0.744 OA
ENDBRANCH  94  95
ENDBRANCH  68  89
ENDBRANCH  42  43
ENDBRANCH  34  37
ENDBRANCH  32  33
ENDBRANCH  31  32
ENDBRANCH   1  31
TORSDOF 19
