REMARK SMILES C[C@H]1c2ccc(O)cc2OC(=O)[C@@H]1CC(=O)N[C@@H](CC1=c2ccccc2=NC1)C(=O)NCCCNC(=O)c1ccc(-c2c3nc(c(-c4ccc(S(=O)(=O)[O-])cc4)c4ccc([nH]4)c(-c4ccc(S(=O)(=O)[O-])cc4)c4nc(c(-c5ccc(S(=O)(=O)[O-])cc5)c5ccc2[nH]5)C=C4)C=C3)cc1
REMARK SMILES IDX 32 1 31 2 29 3 30 4 18 6 17 7 15 8 16 9 14 11 13 12 1 13
REMARK SMILES IDX 2 14 3 15 4 16 9 17 11 18 5 19 8 20 10 21 12 22 6 23 7 24
REMARK SMILES IDX 19 26 20 27 21 28 28 29 22 30 26 31 27 32 23 33 25 34 24 35
REMARK SMILES IDX 33 36 34 37 35 38 36 39 37 41 38 42 39 43 97 44 40 45 96 46
REMARK SMILES IDX 41 47 42 48 43 49 90 50 44 51 95 52 89 53 91 54 45 55 94 56
REMARK SMILES IDX 88 57 87 58 46 60 76 61 57 62 75 63 58 64 61 65 74 66 92 67
REMARK SMILES IDX 59 68 60 69 73 71 93 72 62 73 47 74 48 75 56 76 49 77 55 78
REMARK SMILES IDX 50 79 51 80 52 81 53 82 54 83 77 84 78 85 86 86 79 87 85 88
REMARK SMILES IDX 80 89 81 90 82 91 83 92 84 93 63 94 64 95 72 96 65 97 71 98
REMARK SMILES IDX 66 99 67 100 68 101 69 102 70 103
REMARK H PARENT 31 5 17 10 7 25 35 40 91 59 61 70
REMARK Flexibility Score: inf
ROOT
ATOM      1  C   UNL     1      -6.807   2.001   1.748  1.00  0.00     0.117 C 
ENDROOT
BRANCH   1   2
ATOM      2  N   UNL     1      -5.855   3.059   1.563  1.00  0.00    -0.354 N 
ATOM      3  C   UNL     1      -4.600   2.922   1.050  1.00  0.00     0.242 C 
ATOM      4  O   UNL     1      -3.933   3.947   0.884  1.00  0.00    -0.273 OA
ATOM      5  H   UNL     1      -6.133   3.964   1.831  1.00  0.00     0.163 HD
BRANCH   3   6
ATOM      6  C   UNL     1      -4.033   1.528   0.673  1.00  0.00     0.175 C 
BRANCH   6   7
ATOM      7  N   UNL     1      -3.747   0.664   1.831  1.00  0.00    -0.344 N 
ATOM      8  C   UNL     1      -2.606   0.477   2.550  1.00  0.00     0.221 C 
ATOM      9  O   UNL     1      -2.624  -0.323   3.487  1.00  0.00    -0.275 OA
ATOM     10  H   UNL     1      -4.514   0.129   2.139  1.00  0.00     0.164 HD
BRANCH   8  11
ATOM     11  C   UNL     1      -1.333   1.225   2.214  1.00  0.00     0.116 C 
BRANCH  11  12
ATOM     12  C   UNL     1      -0.443   0.459   1.214  1.00  0.00     0.116 C 
ATOM     13  C   UNL     1       1.907   0.061   0.300  1.00  0.00     0.014 C 
ATOM     14  C   UNL     1       1.021   0.946   1.188  1.00  0.00     0.034 C 
ATOM     15  C   UNL     1       1.045   2.371   0.697  1.00  0.00    -0.001 A 
ATOM     16  C   UNL     1       1.994   3.297   1.134  1.00  0.00     0.011 A 
ATOM     17  C   UNL     1       0.053   2.795  -0.191  1.00  0.00     0.138 A 
ATOM     18  C   UNL     1      -0.975   0.610  -0.188  1.00  0.00     0.315 C 
ATOM     19  C   UNL     1       1.903   4.633   0.729  1.00  0.00     0.047 A 
ATOM     20  C   UNL     1      -0.068   4.123  -0.581  1.00  0.00     0.093 A 
ATOM     21  O   UNL     1      -0.856   1.877  -0.743  1.00  0.00    -0.426 OA
ATOM     22  O   UNL     1      -1.532  -0.296  -0.794  1.00  0.00    -0.251 OA
ATOM     23  C   UNL     1       0.861   5.037  -0.105  1.00  0.00     0.119 A 
BRANCH  23  24
ATOM     24  O   UNL     1       0.722   6.339  -0.486  1.00  0.00    -0.508 OA
ATOM     25  H   UNL     1       1.331   6.983  -0.183  1.00  0.00     0.293 HD
ENDBRANCH  23  24
ENDBRANCH  11  12
ENDBRANCH   8  11
ENDBRANCH   6   7
BRANCH   6  26
ATOM     26  C   UNL     1      -4.798   0.839  -0.516  1.00  0.00     0.068 C 
BRANCH  26  27
ATOM     27  C   UNL     1      -5.230  -0.599  -0.347  1.00  0.00    -0.037 C 
ATOM     28  C   UNL     1      -6.162  -1.216   0.381  1.00  0.00     0.001 A 
ATOM     29  C   UNL     1      -4.516  -1.674  -1.129  1.00  0.00     0.174 C 
ATOM     30  C   UNL     1      -7.372  -0.936   1.083  1.00  0.00     0.010 A 
ATOM     31  C   UNL     1      -5.500  -2.528   0.573  1.00  0.00     0.065 A 
ATOM     32  N   UNL     1      -4.578  -2.871  -0.272  1.00  0.00    -0.280 NA
ATOM     33  C   UNL     1      -7.760  -1.748   2.081  1.00  0.00     0.001 A 
ATOM     34  C   UNL     1      -5.856  -3.256   1.812  1.00  0.00     0.028 A 
ATOM     35  C   UNL     1      -6.907  -2.831   2.531  1.00  0.00     0.002 A 
ENDBRANCH  26  27
ENDBRANCH   6  26
ENDBRANCH   3   6
ENDBRANCH   1   2
BRANCH   1  36
ATOM     36  C   UNL     1      -7.873   2.279   2.785  1.00  0.00     0.042 C 
BRANCH  36  37
ATOM     37  C   UNL     1      -8.896   3.284   2.288  1.00  0.00     0.118 C 
BRANCH  37  38
ATOM     38  N   UNL     1      -9.824   2.729   1.302  1.00  0.00    -0.352 N 
ATOM     39  C   UNL     1     -11.045   2.082   1.418  1.00  0.00     0.251 C 
ATOM     40  H   UNL     1      -9.521   2.836   0.371  1.00  0.00     0.163 HD
ATOM     41  O   UNL     1     -11.546   1.579   0.433  1.00  0.00    -0.269 OA
BRANCH  39  42
ATOM     42  C   UNL     1     -11.701   1.946   2.743  1.00  0.00     0.039 A 
ATOM     43  C   UNL     1     -11.595   2.951   3.690  1.00  0.00     0.014 A 
ATOM     44  C   UNL     1     -12.411   0.784   3.062  1.00  0.00     0.014 A 
ATOM     45  C   UNL     1     -11.877   2.673   5.016  1.00  0.00     0.010 A 
ATOM     46  C   UNL     1     -12.882   0.589   4.369  1.00  0.00     0.010 A 
ATOM     47  C   UNL     1     -12.543   1.495   5.384  1.00  0.00    -0.014 A 
BRANCH  47  48
ATOM     48  C   UNL     1     -12.845   1.265   6.828  1.00  0.00     0.031 A 
ATOM     49  C   UNL     1     -12.371   0.018   7.537  1.00  0.00     0.074 A 
ATOM     50  C   UNL     1     -13.448   2.246   7.537  1.00  0.00     0.049 A 
ATOM     51  N   UNL     1     -12.522  -0.314   8.794  1.00  0.00    -0.248 NA
ATOM     52  C   UNL     1     -11.650  -0.992   6.743  1.00  0.00     0.031 C 
ATOM     53  C   UNL     1     -13.937   3.510   6.976  1.00  0.00     0.029 A 
ATOM     54  N   UNL     1     -13.687   2.377   8.883  1.00  0.00    -0.354 N 
ATOM     55  C   UNL     1     -11.963  -1.581   8.928  1.00  0.00     0.074 A 
ATOM     56  C   UNL     1     -11.481  -1.969   7.623  1.00  0.00     0.031 C 
ATOM     57  C   UNL     1     -14.280   4.334   7.974  1.00  0.00     0.029 A 
ATOM     58  C   UNL     1     -14.169   3.617   9.238  1.00  0.00     0.049 A 
ATOM     59  H   UNL     1     -13.529   1.653   9.533  1.00  0.00     0.167 HD
ATOM     60  C   UNL     1     -11.857  -2.346  10.040  1.00  0.00     0.031 A 
ATOM     61  C   UNL     1     -14.506   4.131  10.438  1.00  0.00     0.031 A 
ATOM     62  C   UNL     1     -12.294  -1.930  11.348  1.00  0.00     0.049 A 
ATOM     63  C   UNL     1     -14.386   3.263  11.652  1.00  0.00     0.074 A 
ATOM     64  C   UNL     1     -12.225  -2.636  12.537  1.00  0.00     0.029 A 
ATOM     65  N   UNL     1     -12.855  -0.698  11.646  1.00  0.00    -0.354 N 
ATOM     66  N   UNL     1     -13.907   2.046  11.741  1.00  0.00    -0.248 NA
ATOM     67  C   UNL     1     -14.873   3.818  12.921  1.00  0.00     0.031 C 
ATOM     68  C   UNL     1     -12.793  -1.853  13.543  1.00  0.00     0.029 A 
ATOM     69  C   UNL     1     -13.155  -0.631  12.996  1.00  0.00     0.049 A 
ATOM     70  H   UNL     1     -13.017   0.022  10.995  1.00  0.00     0.167 HD
ATOM     71  C   UNL     1     -14.044   1.683  13.073  1.00  0.00     0.074 A 
ATOM     72  C   UNL     1     -14.619   2.822  13.761  1.00  0.00     0.031 C 
ATOM     73  C   UNL     1     -13.735   0.505  13.666  1.00  0.00     0.031 A 
BRANCH  60  74
ATOM     74  C   UNL     1     -11.259  -3.724   9.912  1.00  0.00    -0.014 A 
ATOM     75  C   UNL     1     -12.080  -4.853  10.100  1.00  0.00     0.010 A 
ATOM     76  C   UNL     1      -9.878  -3.909   9.723  1.00  0.00     0.010 A 
ATOM     77  C   UNL     1     -11.530  -6.137  10.133  1.00  0.00     0.020 A 
ATOM     78  C   UNL     1      -9.328  -5.196   9.728  1.00  0.00     0.020 A 
ATOM     79  C   UNL     1     -10.154  -6.299   9.957  1.00  0.00     0.054 A 
BRANCH  79  80
ATOM     80  S   UNL     1      -9.453  -7.972  10.022  1.00  0.00     0.124 S 
ATOM     81  O   UNL     1      -9.430  -8.241  11.456  1.00  0.00    -0.237 OA
ATOM     82  O   UNL     1     -10.415  -8.753   9.248  1.00  0.00    -0.237 OA
ATOM     83  O   UNL     1      -8.143  -7.815   9.392  1.00  0.00    -0.744 OA
ENDBRANCH  79  80
ENDBRANCH  60  74
BRANCH  61  84
ATOM     84  C   UNL     1     -15.001   5.535  10.512  1.00  0.00    -0.014 A 
ATOM     85  C   UNL     1     -16.214   5.892   9.892  1.00  0.00     0.010 A 
ATOM     86  C   UNL     1     -14.212   6.540  11.097  1.00  0.00     0.010 A 
ATOM     87  C   UNL     1     -16.587   7.233   9.780  1.00  0.00     0.020 A 
ATOM     88  C   UNL     1     -14.602   7.882  11.019  1.00  0.00     0.020 A 
ATOM     89  C   UNL     1     -15.768   8.221  10.327  1.00  0.00     0.054 A 
BRANCH  89  90
ATOM     90  S   UNL     1     -16.233   9.961  10.105  1.00  0.00     0.124 S 
ATOM     91  O   UNL     1     -15.790  10.214   8.737  1.00  0.00    -0.237 OA
ATOM     92  O   UNL     1     -17.680   9.935  10.303  1.00  0.00    -0.237 OA
ATOM     93  O   UNL     1     -15.476  10.650  11.147  1.00  0.00    -0.744 OA
ENDBRANCH  89  90
ENDBRANCH  61  84
BRANCH  73  94
ATOM     94  C   UNL     1     -14.015   0.365  15.137  1.00  0.00    -0.014 A 
ATOM     95  C   UNL     1     -12.945   0.279  16.046  1.00  0.00     0.010 A 
ATOM     96  C   UNL     1     -15.331   0.194  15.602  1.00  0.00     0.010 A 
ATOM     97  C   UNL     1     -13.183  -0.007  17.392  1.00  0.00     0.020 A 
ATOM     98  C   UNL     1     -15.574  -0.066  16.953  1.00  0.00     0.020 A 
ATOM     99  C   UNL     1     -14.496  -0.189  17.834  1.00  0.00     0.054 A 
BRANCH  99 100
ATOM    100  S   UNL     1     -14.784  -0.588  19.579  1.00  0.00     0.124 S 
ATOM    101  O   UNL     1     -14.452  -2.009  19.628  1.00  0.00    -0.237 OA
ATOM    102  O   UNL     1     -13.854   0.301  20.271  1.00  0.00    -0.237 OA
ATOM    103  O   UNL     1     -16.197  -0.269  19.773  1.00  0.00    -0.744 OA
ENDBRANCH  99 100
ENDBRANCH  73  94
ENDBRANCH  47  48
ENDBRANCH  39  42
ENDBRANCH  37  38
ENDBRANCH  36  37
ENDBRANCH   1  36
TORSDOF 19
