REMARK SMILES CC(C)(C)OC(=O)N1CCN(C(=O)c2ccc3c(c2)OCO3)[C@H](C(=O)NCCCNC(=O)c2ccc(-c3c4nc(c(-c5ccc(S(=O)(=O)[O-])cc5)c5ccc([nH]5)c(-c5ccc(S(=O)(=O)[O-])cc5)c5nc(c(-c6ccc(S(=O)(=O)[O-])cc6)c6ccc3[nH]6)C=C5)C=C4)cc2)C1
REMARK SMILES IDX 28 1 27 2 26 3 24 4 25 5 23 7 8 8 9 9 93 10 10 11 11 12 6 13
REMARK SMILES IDX 7 14 5 15 2 16 1 17 3 18 4 19 12 20 13 21 14 22 15 23 19 24
REMARK SMILES IDX 16 25 18 26 17 27 20 28 22 29 21 30 29 31 30 32 31 33 32 35
REMARK SMILES IDX 33 36 34 37 92 38 35 39 91 40 36 41 37 42 38 43 85 44 39 45
REMARK SMILES IDX 90 46 84 47 86 48 40 49 89 50 83 51 82 52 41 54 71 55 52 56
REMARK SMILES IDX 70 57 53 58 56 59 69 60 87 61 54 62 55 63 68 65 88 66 57 67
REMARK SMILES IDX 42 68 43 69 51 70 44 71 50 72 45 73 46 74 47 75 48 76 49 77
REMARK SMILES IDX 72 78 73 79 81 80 74 81 80 82 75 83 76 84 77 85 78 86 79 87
REMARK SMILES IDX 58 88 59 89 67 90 60 91 66 92 61 93 62 94 63 95 64 96 65 97
REMARK H PARENT 26 6 30 34 86 53 56 64
REMARK Flexibility Score: inf
ROOT
ATOM      1  C   UNL     1       4.798  -1.097  -2.307  1.00  0.00     0.042 C 
ENDROOT
BRANCH   1   2
ATOM      2  C   UNL     1       3.934  -1.171  -3.572  1.00  0.00     0.117 C 
BRANCH   2   3
ATOM      3  N   UNL     1       4.421  -2.190  -4.486  1.00  0.00    -0.354 N 
ATOM      4  C   UNL     1       4.141  -3.527  -4.445  1.00  0.00     0.244 C 
ATOM      5  O   UNL     1       5.110  -4.272  -4.551  1.00  0.00    -0.273 OA
ATOM      6  H   UNL     1       5.015  -1.885  -5.210  1.00  0.00     0.163 HD
BRANCH   4   7
ATOM      7  C   UNL     1       2.699  -3.998  -4.171  1.00  0.00     0.194 C 
ATOM      8  N   UNL     1       1.211  -4.452  -2.219  1.00  0.00    -0.304 N 
ATOM      9  C   UNL     1       0.530  -5.541  -2.911  1.00  0.00     0.144 C 
ATOM     10  C   UNL     1       2.593  -4.211  -2.642  1.00  0.00     0.158 C 
ATOM     11  C   UNL     1       0.622  -5.340  -4.430  1.00  0.00     0.142 C 
ATOM     12  N   UNL     1       2.019  -5.154  -4.868  1.00  0.00    -0.323 N 
BRANCH   8  13
ATOM     13  C   UNL     1       0.565  -3.763  -1.216  1.00  0.00     0.410 C 
ATOM     14  O   UNL     1      -0.454  -4.179  -0.678  1.00  0.00    -0.224 OA
BRANCH  13  15
ATOM     15  O   UNL     1       1.146  -2.564  -0.951  1.00  0.00    -0.444 OA
BRANCH  15  16
ATOM     16  C   UNL     1       0.620  -1.683   0.082  1.00  0.00     0.106 C 
ATOM     17  C   UNL     1       1.263  -0.313  -0.191  1.00  0.00     0.056 C 
ATOM     18  C   UNL     1       1.078  -2.191   1.450  1.00  0.00     0.056 C 
ATOM     19  C   UNL     1      -0.904  -1.495   0.031  1.00  0.00     0.056 C 
ENDBRANCH  15  16
ENDBRANCH  13  15
ENDBRANCH   8  13
BRANCH  12  20
ATOM     20  C   UNL     1       2.458  -6.021  -5.867  1.00  0.00     0.254 C 
ATOM     21  O   UNL     1       1.720  -6.842  -6.415  1.00  0.00    -0.269 OA
BRANCH  20  22
ATOM     22  C   UNL     1       3.843  -6.033  -6.338  1.00  0.00     0.044 A 
ATOM     23  C   UNL     1       4.816  -6.755  -5.615  1.00  0.00     0.018 A 
ATOM     24  C   UNL     1       4.148  -5.410  -7.552  1.00  0.00     0.064 A 
ATOM     25  C   UNL     1       6.148  -6.751  -6.045  1.00  0.00     0.051 A 
ATOM     26  C   UNL     1       5.467  -5.430  -7.947  1.00  0.00     0.166 A 
ATOM     27  C   UNL     1       6.442  -6.063  -7.205  1.00  0.00     0.165 A 
ATOM     28  O   UNL     1       5.970  -4.835  -9.062  1.00  0.00    -0.454 OA
ATOM     29  O   UNL     1       7.680  -5.915  -7.747  1.00  0.00    -0.454 OA
ATOM     30  C   UNL     1       7.382  -5.072  -8.878  1.00  0.00     0.468 C 
ENDBRANCH  20  22
ENDBRANCH  12  20
ENDBRANCH   4   7
ENDBRANCH   2   3
ENDBRANCH   1   2
BRANCH   1  31
ATOM     31  C   UNL     1       6.304  -1.009  -2.557  1.00  0.00     0.118 C 
BRANCH  31  32
ATOM     32  N   UNL     1       6.664   0.098  -3.427  1.00  0.00    -0.352 N 
ATOM     33  C   UNL     1       7.476   1.179  -3.196  1.00  0.00     0.251 C 
ATOM     34  H   UNL     1       6.261   0.068  -4.325  1.00  0.00     0.163 HD
ATOM     35  O   UNL     1       7.491   2.100  -4.008  1.00  0.00    -0.269 OA
BRANCH  33  36
ATOM     36  C   UNL     1       8.305   1.252  -1.974  1.00  0.00     0.039 A 
ATOM     37  C   UNL     1       8.389   2.472  -1.299  1.00  0.00     0.014 A 
ATOM     38  C   UNL     1       9.019   0.145  -1.507  1.00  0.00     0.014 A 
ATOM     39  C   UNL     1       9.144   2.566  -0.129  1.00  0.00     0.010 A 
ATOM     40  C   UNL     1       9.703   0.219  -0.294  1.00  0.00     0.010 A 
ATOM     41  C   UNL     1       9.781   1.432   0.405  1.00  0.00    -0.014 A 
BRANCH  41  42
ATOM     42  C   UNL     1      10.524   1.517   1.690  1.00  0.00     0.031 A 
ATOM     43  C   UNL     1      12.007   1.253   1.738  1.00  0.00     0.074 A 
ATOM     44  C   UNL     1       9.857   1.817   2.823  1.00  0.00     0.049 A 
ATOM     45  N   UNL     1      12.818   1.298   2.764  1.00  0.00    -0.248 NA
ATOM     46  C   UNL     1      12.661   0.871   0.475  1.00  0.00     0.031 C 
ATOM     47  C   UNL     1       8.413   2.047   2.920  1.00  0.00     0.029 A 
ATOM     48  N   UNL     1      10.304   1.989   4.110  1.00  0.00    -0.354 N 
ATOM     49  C   UNL     1      14.073   0.957   2.272  1.00  0.00     0.074 A 
ATOM     50  C   UNL     1      13.904   0.637   0.872  1.00  0.00     0.031 C 
ATOM     51  C   UNL     1       8.101   2.368   4.186  1.00  0.00     0.029 A 
ATOM     52  C   UNL     1       9.311   2.325   5.000  1.00  0.00     0.049 A 
ATOM     53  H   UNL     1      11.248   1.881   4.371  1.00  0.00     0.167 HD
ATOM     54  C   UNL     1      15.265   0.941   2.917  1.00  0.00     0.031 A 
ATOM     55  C   UNL     1       9.365   2.570   6.324  1.00  0.00     0.031 A 
ATOM     56  C   UNL     1      15.433   1.253   4.312  1.00  0.00     0.049 A 
ATOM     57  C   UNL     1      10.698   2.518   7.022  1.00  0.00     0.074 A 
ATOM     58  C   UNL     1      16.602   1.289   5.053  1.00  0.00     0.029 A 
ATOM     59  N   UNL     1      14.402   1.584   5.179  1.00  0.00    -0.354 N 
ATOM     60  N   UNL     1      11.882   2.253   6.522  1.00  0.00    -0.248 NA
ATOM     61  C   UNL     1      10.703   2.819   8.460  1.00  0.00     0.031 C 
ATOM     62  C   UNL     1      16.272   1.589   6.378  1.00  0.00     0.029 A 
ATOM     63  C   UNL     1      14.906   1.809   6.450  1.00  0.00     0.049 A 
ATOM     64  H   UNL     1      13.452   1.649   4.929  1.00  0.00     0.167 HD
ATOM     65  C   UNL     1      12.776   2.387   7.579  1.00  0.00     0.074 A 
ATOM     66  C   UNL     1      11.999   2.783   8.736  1.00  0.00     0.031 C 
ATOM     67  C   UNL     1      14.120   2.199   7.593  1.00  0.00     0.031 A 
BRANCH  54  68
ATOM     68  C   UNL     1      16.489   0.585   2.110  1.00  0.00    -0.014 A 
ATOM     69  C   UNL     1      16.971   1.450   1.110  1.00  0.00     0.010 A 
ATOM     70  C   UNL     1      17.197  -0.600   2.384  1.00  0.00     0.010 A 
ATOM     71  C   UNL     1      18.113   1.122   0.376  1.00  0.00     0.020 A 
ATOM     72  C   UNL     1      18.359  -0.917   1.673  1.00  0.00     0.020 A 
ATOM     73  C   UNL     1      18.801  -0.060   0.663  1.00  0.00     0.054 A 
BRANCH  73  74
ATOM     74  S   UNL     1      20.301  -0.440  -0.283  1.00  0.00     0.124 S 
ATOM     75  O   UNL     1      19.754  -0.751  -1.602  1.00  0.00    -0.237 OA
ATOM     76  O   UNL     1      21.057   0.806  -0.196  1.00  0.00    -0.237 OA
ATOM     77  O   UNL     1      20.885  -1.573   0.430  1.00  0.00    -0.744 OA
ENDBRANCH  73  74
ENDBRANCH  54  68
BRANCH  55  78
ATOM     78  C   UNL     1       8.121   2.890   7.080  1.00  0.00    -0.014 A 
ATOM     79  C   UNL     1       7.928   4.161   7.650  1.00  0.00     0.010 A 
ATOM     80  C   UNL     1       7.128   1.909   7.253  1.00  0.00     0.010 A 
ATOM     81  C   UNL     1       6.787   4.432   8.412  1.00  0.00     0.020 A 
ATOM     82  C   UNL     1       5.968   2.186   7.982  1.00  0.00     0.020 A 
ATOM     83  C   UNL     1       5.815   3.440   8.574  1.00  0.00     0.054 A 
BRANCH  83  84
ATOM     84  S   UNL     1       4.332   3.817   9.550  1.00  0.00     0.124 S 
ATOM     85  O   UNL     1       4.863   3.846  10.909  1.00  0.00    -0.237 OA
ATOM     86  O   UNL     1       3.915   5.106   9.003  1.00  0.00    -0.237 OA
ATOM     87  O   UNL     1       3.435   2.703   9.251  1.00  0.00    -0.744 OA
ENDBRANCH  83  84
ENDBRANCH  55  78
BRANCH  67  88
ATOM     88  C   UNL     1      14.839   2.464   8.892  1.00  0.00    -0.014 A 
ATOM     89  C   UNL     1      14.660   1.635  10.014  1.00  0.00     0.010 A 
ATOM     90  C   UNL     1      15.723   3.555   8.983  1.00  0.00     0.010 A 
ATOM     91  C   UNL     1      15.307   1.926  11.218  1.00  0.00     0.020 A 
ATOM     92  C   UNL     1      16.400   3.828  10.174  1.00  0.00     0.020 A 
ATOM     93  C   UNL     1      16.169   3.025  11.291  1.00  0.00     0.054 A 
BRANCH  93  94
ATOM     94  S   UNL     1      17.003   3.376  12.863  1.00  0.00     0.124 S 
ATOM     95  O   UNL     1      15.906   3.888  13.680  1.00  0.00    -0.237 OA
ATOM     96  O   UNL     1      17.519   2.066  13.251  1.00  0.00    -0.237 OA
ATOM     97  O   UNL     1      18.022   4.360  12.503  1.00  0.00    -0.744 OA
ENDBRANCH  93  94
ENDBRANCH  67  88
ENDBRANCH  41  42
ENDBRANCH  33  36
ENDBRANCH  31  32
ENDBRANCH   1  31
TORSDOF 18
