REMARK SMILES O=C(NCCCNC(=O)c1ccc(-c2c3nc(c(-c4ccc(S(=O)(=O)[O-])cc4)c4ccc([nH]4)c(-c4ccc(S(=O)(=O)[O-])cc4)c4nc(c(-c5ccc(S(=O)(=O)[O-])cc5)c5ccc2[nH]5)C=C4)C=C3)cc1)C1=Cc2cc(Cl)cc(-c3ccc(O)cc3)c2O[C@@H]1C(F)(F)F
REMARK SMILES IDX 5 1 4 2 3 3 1 4 2 5 70 7 71 8 87 9 72 10 86 11 73 12 85 13
REMARK SMILES IDX 74 14 77 15 75 16 76 17 88 18 89 19 90 20 91 21 78 22 79 23
REMARK SMILES IDX 84 24 80 25 83 26 81 27 82 28 6 30 7 31 8 32 9 34 10 35
REMARK SMILES IDX 11 36 69 37 12 38 68 39 13 40 14 41 15 42 62 43 16 44 67 45
REMARK SMILES IDX 61 46 63 47 17 48 66 49 60 50 59 51 18 53 48 54 29 55 47 56
REMARK SMILES IDX 30 57 33 58 46 59 64 60 31 61 32 62 45 64 65 65 34 66 19 67
REMARK SMILES IDX 20 68 28 69 21 70 27 71 22 72 23 73 24 74 25 75 26 76 49 77
REMARK SMILES IDX 50 78 58 79 51 80 57 81 52 82 53 83 54 84 55 85 56 86 35 87
REMARK SMILES IDX 36 88 44 89 37 90 43 91 38 92 39 93 40 94 41 95 42 96
REMARK H PARENT 3 6 82 29 7 33 63 52 33 63
REMARK Flexibility Score: inf
ROOT
ATOM      1  C   UNL     1       4.082  -2.035   2.148  1.00  0.00     0.042 C 
ENDROOT
BRANCH   1   2
ATOM      2  C   UNL     1       3.025  -1.672   1.103  1.00  0.00     0.118 C 
BRANCH   2   3
ATOM      3  N   UNL     1       2.215  -0.512   1.492  1.00  0.00    -0.352 N 
ATOM      4  O   UNL     1       1.341   1.575   1.287  1.00  0.00    -0.270 OA
ATOM      5  C   UNL     1       2.223   0.773   1.013  1.00  0.00     0.251 C 
ATOM      6  H   UNL     1       1.564  -0.682   2.210  1.00  0.00     0.163 HD
BRANCH   5   7
ATOM      7  C   UNL     1       3.308   1.125   0.087  1.00  0.00     0.067 C 
ATOM      8  C   UNL     1       4.560   1.102   0.559  1.00  0.00     0.025 C 
ATOM      9  C   UNL     1       2.993   1.126  -1.373  1.00  0.00     0.314 C 
ATOM     10  C   UNL     1       5.546   0.553  -0.376  1.00  0.00     0.019 A 
ATOM     11  O   UNL     1       3.834   0.190  -2.087  1.00  0.00    -0.475 OA
ATOM     12  C   UNL     1       6.823   0.267   0.112  1.00  0.00     0.032 A 
ATOM     13  C   UNL     1       5.086  -0.054  -1.565  1.00  0.00     0.135 A 
ATOM     14  C   UNL     1       7.593  -0.703  -0.521  1.00  0.00     0.042 A 
ATOM     15  C   UNL     1       5.832  -1.084  -2.164  1.00  0.00     0.026 A 
ATOM     16  Cl  UNL     1       9.099  -1.165   0.169  1.00  0.00    -0.084 Cl
ATOM     17  C   UNL     1       7.095  -1.393  -1.627  1.00  0.00     0.033 A 
BRANCH   9  18
ATOM     18  C   UNL     1       3.052   2.540  -1.977  1.00  0.00     0.429 C 
ATOM     19  F   UNL     1       2.680   2.533  -3.281  1.00  0.00    -0.167 F 
ATOM     20  F   UNL     1       2.213   3.393  -1.342  1.00  0.00    -0.167 F 
ATOM     21  F   UNL     1       4.291   3.083  -1.921  1.00  0.00    -0.167 F 
ENDBRANCH   9  18
BRANCH  15  22
ATOM     22  C   UNL     1       5.243  -1.980  -3.171  1.00  0.00    -0.014 A 
ATOM     23  C   UNL     1       4.560  -3.139  -2.758  1.00  0.00     0.012 A 
ATOM     24  C   UNL     1       5.364  -1.739  -4.544  1.00  0.00     0.012 A 
ATOM     25  C   UNL     1       4.060  -4.058  -3.677  1.00  0.00     0.047 A 
ATOM     26  C   UNL     1       4.855  -2.656  -5.473  1.00  0.00     0.047 A 
ATOM     27  C   UNL     1       4.223  -3.815  -5.029  1.00  0.00     0.115 A 
BRANCH  27  28
ATOM     28  O   UNL     1       3.750  -4.751  -5.899  1.00  0.00    -0.508 OA
ATOM     29  H   UNL     1       3.329  -5.522  -5.574  1.00  0.00     0.293 HD
ENDBRANCH  27  28
ENDBRANCH  15  22
ENDBRANCH   5   7
ENDBRANCH   2   3
ENDBRANCH   1   2
BRANCH   1  30
ATOM     30  C   UNL     1       4.580  -3.473   2.010  1.00  0.00     0.118 C 
BRANCH  30  31
ATOM     31  N   UNL     1       5.304  -3.760   0.784  1.00  0.00    -0.352 N 
ATOM     32  C   UNL     1       5.977  -4.905   0.402  1.00  0.00     0.251 C 
ATOM     33  H   UNL     1       5.319  -3.028   0.126  1.00  0.00     0.163 HD
ATOM     34  O   UNL     1       6.520  -4.932  -0.701  1.00  0.00    -0.269 OA
BRANCH  32  35
ATOM     35  C   UNL     1       6.158  -6.046   1.339  1.00  0.00     0.039 A 
ATOM     36  C   UNL     1       7.389  -6.714   1.326  1.00  0.00     0.014 A 
ATOM     37  C   UNL     1       5.204  -6.406   2.288  1.00  0.00     0.014 A 
ATOM     38  C   UNL     1       7.709  -7.615   2.345  1.00  0.00     0.010 A 
ATOM     39  C   UNL     1       5.561  -7.212   3.364  1.00  0.00     0.010 A 
ATOM     40  C   UNL     1       6.830  -7.799   3.423  1.00  0.00    -0.014 A 
BRANCH  40  41
ATOM     41  C   UNL     1       7.250  -8.526   4.648  1.00  0.00     0.031 A 
ATOM     42  C   UNL     1       6.489  -9.731   5.130  1.00  0.00     0.074 A 
ATOM     43  C   UNL     1       8.266  -8.026   5.383  1.00  0.00     0.049 A 
ATOM     44  N   UNL     1       6.682 -10.451   6.205  1.00  0.00    -0.248 NA
ATOM     45  C   UNL     1       5.331 -10.155   4.325  1.00  0.00     0.031 C 
ATOM     46  C   UNL     1       9.015  -6.802   5.076  1.00  0.00     0.029 A 
ATOM     47  N   UNL     1       8.849  -8.482   6.538  1.00  0.00    -0.354 N 
ATOM     48  C   UNL     1       5.657 -11.390   6.221  1.00  0.00     0.074 A 
ATOM     49  C   UNL     1       4.812 -11.112   5.081  1.00  0.00     0.031 C 
ATOM     50  C   UNL     1       9.991  -6.638   5.983  1.00  0.00     0.029 A 
ATOM     51  C   UNL     1       9.918  -7.722   6.955  1.00  0.00     0.049 A 
ATOM     52  H   UNL     1       8.533  -9.278   7.023  1.00  0.00     0.167 HD
ATOM     53  C   UNL     1       5.452 -12.409   7.091  1.00  0.00     0.031 A 
ATOM     54  C   UNL     1      10.758  -7.889   7.994  1.00  0.00     0.031 A 
ATOM     55  C   UNL     1       6.319 -12.700   8.201  1.00  0.00     0.049 A 
ATOM     56  C   UNL     1      10.571  -9.083   8.885  1.00  0.00     0.074 A 
ATOM     57  C   UNL     1       6.245 -13.743   9.107  1.00  0.00     0.029 A 
ATOM     58  N   UNL     1       7.434 -11.950   8.545  1.00  0.00    -0.354 N 
ATOM     59  N   UNL     1       9.634 -10.001   8.843  1.00  0.00    -0.248 NA
ATOM     60  C   UNL     1      11.566  -9.278   9.946  1.00  0.00     0.031 C 
ATOM     61  C   UNL     1       7.306 -13.611  10.012  1.00  0.00     0.029 A 
ATOM     62  C   UNL     1       8.061 -12.508   9.645  1.00  0.00     0.049 A 
ATOM     63  H   UNL     1       7.736 -11.139   8.075  1.00  0.00     0.167 HD
ATOM     64  C   UNL     1       9.939 -10.896   9.861  1.00  0.00     0.074 A 
ATOM     65  C   UNL     1      11.158 -10.419  10.484  1.00  0.00     0.031 C 
ATOM     66  C   UNL     1       9.271 -12.011  10.248  1.00  0.00     0.031 A 
BRANCH  53  67
ATOM     67  C   UNL     1       4.248 -13.283   6.855  1.00  0.00    -0.014 A 
ATOM     68  C   UNL     1       4.189 -14.148   5.746  1.00  0.00     0.010 A 
ATOM     69  C   UNL     1       3.160 -13.240   7.745  1.00  0.00     0.010 A 
ATOM     70  C   UNL     1       3.043 -14.906   5.497  1.00  0.00     0.020 A 
ATOM     71  C   UNL     1       2.021 -14.020   7.515  1.00  0.00     0.020 A 
ATOM     72  C   UNL     1       1.961 -14.829   6.378  1.00  0.00     0.054 A 
BRANCH  72  73
ATOM     73  S   UNL     1       0.480 -15.817   6.028  1.00  0.00     0.124 S 
ATOM     74  O   UNL     1      -0.151 -15.042   4.962  1.00  0.00    -0.237 OA
ATOM     75  O   UNL     1       1.038 -17.104   5.621  1.00  0.00    -0.237 OA
ATOM     76  O   UNL     1      -0.237 -15.827   7.300  1.00  0.00    -0.744 OA
ENDBRANCH  72  73
ENDBRANCH  53  67
BRANCH  54  77
ATOM     77  C   UNL     1      11.886  -6.941   8.201  1.00  0.00    -0.014 A 
ATOM     78  C   UNL     1      13.203  -7.331   7.897  1.00  0.00     0.010 A 
ATOM     79  C   UNL     1      11.653  -5.639   8.679  1.00  0.00     0.010 A 
ATOM     80  C   UNL     1      14.268  -6.446   8.086  1.00  0.00     0.020 A 
ATOM     81  C   UNL     1      12.713  -4.742   8.847  1.00  0.00     0.020 A 
ATOM     82  C   UNL     1      14.016  -5.156   8.561  1.00  0.00     0.054 A 
BRANCH  82  83
ATOM     83  S   UNL     1      15.406  -4.004   8.749  1.00  0.00     0.124 S 
ATOM     84  O   UNL     1      16.023  -4.473   9.986  1.00  0.00    -0.237 OA
ATOM     85  O   UNL     1      16.178  -4.233   7.530  1.00  0.00    -0.237 OA
ATOM     86  O   UNL     1      14.756  -2.697   8.828  1.00  0.00    -0.744 OA
ENDBRANCH  82  83
ENDBRANCH  54  77
BRANCH  66  87
ATOM     87  C   UNL     1       9.869 -12.797  11.379  1.00  0.00    -0.014 A 
ATOM     88  C   UNL     1       9.807 -12.326  12.703  1.00  0.00     0.010 A 
ATOM     89  C   UNL     1      10.491 -14.030  11.113  1.00  0.00     0.010 A 
ATOM     90  C   UNL     1      10.402 -13.053  13.736  1.00  0.00     0.020 A 
ATOM     91  C   UNL     1      11.065 -14.771  12.148  1.00  0.00     0.020 A 
ATOM     92  C   UNL     1      11.035 -14.267  13.450  1.00  0.00     0.054 A 
BRANCH  92  93
ATOM     93  S   UNL     1      11.792 -15.203  14.806  1.00  0.00     0.124 S 
ATOM     94  O   UNL     1      13.053 -14.491  14.995  1.00  0.00    -0.237 OA
ATOM     95  O   UNL     1      10.819 -15.055  15.886  1.00  0.00    -0.237 OA
ATOM     96  O   UNL     1      11.912 -16.555  14.266  1.00  0.00    -0.744 OA
ENDBRANCH  92  93
ENDBRANCH  66  87
ENDBRANCH  40  41
ENDBRANCH  32  35
ENDBRANCH  30  31
ENDBRANCH   1  30
TORSDOF 16
