REMARK SMILES O=C(NCCCNC(=O)c1ccc(-c2c3nc(c(-c4ccc(S(=O)(=O)[O-])cc4)c4ccc([nH]4)c(-c4ccc(S(=O)(=O)[O-])cc4)c4nc(c(-c5ccc(S(=O)(=O)[O-])cc5)c5ccc2[nH]5)C=C4)C=C3)cc1)C1=C([O-])N(c2ccc3c(c2)OCCO3)CC1
REMARK SMILES IDX 6 1 5 2 4 3 3 4 1 5 2 6 70 8 71 9 85 10 72 11 73 12 84 13
REMARK SMILES IDX 74 14 75 15 79 16 76 17 78 18 77 19 80 20 83 21 81 22 82 23
REMARK SMILES IDX 7 24 8 25 9 27 10 28 11 29 69 30 12 31 68 32 13 33 14 34
REMARK SMILES IDX 15 35 62 36 16 37 67 38 61 39 63 40 17 41 66 42 60 43 59 44
REMARK SMILES IDX 18 46 48 47 29 48 47 49 30 50 33 51 46 52 64 53 31 54 32 55
REMARK SMILES IDX 45 57 65 58 34 59 19 60 20 61 28 62 21 63 27 64 22 65 23 66
REMARK SMILES IDX 24 67 25 68 26 69 49 70 50 71 58 72 51 73 57 74 52 75 53 76
REMARK SMILES IDX 54 77 55 78 56 79 35 80 36 81 44 82 37 83 43 84 38 85 39 86
REMARK SMILES IDX 40 87 41 88 42 89
REMARK H PARENT 3 7 7 26 63 45 33 56
REMARK Flexibility Score: inf
ROOT
ATOM      1  C   UNL     1       4.333   3.136  -1.878  1.00  0.00     0.118 C 
ENDROOT
BRANCH   1   2
ATOM      2  C   UNL     1       4.902   1.752  -1.608  1.00  0.00     0.042 C 
BRANCH   2   3
ATOM      3  C   UNL     1       4.630   1.216  -0.211  1.00  0.00     0.118 C 
BRANCH   3   4
ATOM      4  N   UNL     1       3.213   1.112   0.109  1.00  0.00    -0.352 N 
ATOM      5  O   UNL     1       1.238   0.146   0.575  1.00  0.00    -0.270 OA
ATOM      6  C   UNL     1       2.434   0.012   0.325  1.00  0.00     0.248 C 
ATOM      7  H   UNL     1       2.742   1.973   0.180  1.00  0.00     0.163 HD
BRANCH   6   8
ATOM      8  C   UNL     1       3.077  -1.298   0.310  1.00  0.00     0.027 C 
ATOM      9  C   UNL     1       2.767  -2.340  -0.477  1.00  0.00    -0.028 C 
ATOM     10  C   UNL     1       4.166  -1.699   1.261  1.00  0.00     0.064 C 
ATOM     11  O   UNL     1       1.784  -2.395  -1.407  1.00  0.00    -0.860 OA
ATOM     12  N   UNL     1       3.666  -3.378  -0.328  1.00  0.00    -0.354 N 
ATOM     13  C   UNL     1       4.773  -2.913   0.540  1.00  0.00     0.126 C 
BRANCH  12  14
ATOM     14  C   UNL     1       3.350  -4.736  -0.117  1.00  0.00     0.044 A 
ATOM     15  C   UNL     1       3.774  -5.688  -1.054  1.00  0.00     0.030 A 
ATOM     16  C   UNL     1       2.886  -5.163   1.137  1.00  0.00     0.076 A 
ATOM     17  C   UNL     1       3.860  -7.035  -0.699  1.00  0.00     0.052 A 
ATOM     18  C   UNL     1       3.052  -6.489   1.519  1.00  0.00     0.163 A 
ATOM     19  C   UNL     1       3.576  -7.412   0.610  1.00  0.00     0.161 A 
ATOM     20  O   UNL     1       2.808  -6.772   2.838  1.00  0.00    -0.486 OA
ATOM     21  O   UNL     1       3.926  -8.686   0.986  1.00  0.00    -0.486 OA
ATOM     22  C   UNL     1       3.151  -8.115   3.200  1.00  0.00     0.271 C 
ATOM     23  C   UNL     1       4.303  -8.660   2.369  1.00  0.00     0.271 C 
ENDBRANCH  12  14
ENDBRANCH   6   8
ENDBRANCH   3   4
ENDBRANCH   2   3
ENDBRANCH   1   2
BRANCH   1  24
ATOM     24  N   UNL     1       4.863   4.158  -0.984  1.00  0.00    -0.352 N 
ATOM     25  C   UNL     1       5.683   5.232  -1.229  1.00  0.00     0.251 C 
ATOM     26  H   UNL     1       4.586   4.062  -0.044  1.00  0.00     0.163 HD
ATOM     27  O   UNL     1       6.130   5.872  -0.278  1.00  0.00    -0.269 OA
BRANCH  25  28
ATOM     28  C   UNL     1       6.061   5.607  -2.611  1.00  0.00     0.039 A 
ATOM     29  C   UNL     1       7.378   6.002  -2.866  1.00  0.00     0.014 A 
ATOM     30  C   UNL     1       5.129   5.593  -3.650  1.00  0.00     0.014 A 
ATOM     31  C   UNL     1       7.779   6.293  -4.173  1.00  0.00     0.010 A 
ATOM     32  C   UNL     1       5.548   5.801  -4.962  1.00  0.00     0.010 A 
ATOM     33  C   UNL     1       6.878   6.148  -5.239  1.00  0.00    -0.014 A 
BRANCH  33  34
ATOM     34  C   UNL     1       7.298   6.342  -6.651  1.00  0.00     0.031 A 
ATOM     35  C   UNL     1       6.664   7.420  -7.487  1.00  0.00     0.074 A 
ATOM     36  C   UNL     1       8.178   5.487  -7.210  1.00  0.00     0.049 A 
ATOM     37  N   UNL     1       6.794   7.653  -8.769  1.00  0.00    -0.248 NA
ATOM     38  C   UNL     1       5.741   8.338  -6.800  1.00  0.00     0.031 C 
ATOM     39  C   UNL     1       8.835   4.372  -6.523  1.00  0.00     0.029 A 
ATOM     40  N   UNL     1       8.659   5.414  -8.494  1.00  0.00    -0.354 N 
ATOM     41  C   UNL     1       5.942   8.715  -9.048  1.00  0.00     0.074 A 
ATOM     42  C   UNL     1       5.281   9.063  -7.808  1.00  0.00     0.031 C 
ATOM     43  C   UNL     1       9.646   3.739  -7.387  1.00  0.00     0.029 A 
ATOM     44  C   UNL     1       9.536   4.374  -8.696  1.00  0.00     0.049 A 
ATOM     45  H   UNL     1       8.401   6.046  -9.203  1.00  0.00     0.167 HD
ATOM     46  C   UNL     1       5.735   9.351 -10.226  1.00  0.00     0.031 A 
ATOM     47  C   UNL     1      10.172   3.967  -9.811  1.00  0.00     0.031 A 
ATOM     48  C   UNL     1       6.416   9.030 -11.450  1.00  0.00     0.049 A 
ATOM     49  C   UNL     1       9.953   4.708 -11.099  1.00  0.00     0.074 A 
ATOM     50  C   UNL     1       6.319   9.659 -12.680  1.00  0.00     0.029 A 
ATOM     51  N   UNL     1       7.329   7.997 -11.599  1.00  0.00    -0.354 N 
ATOM     52  N   UNL     1       9.172   5.735 -11.332  1.00  0.00    -0.248 NA
ATOM     53  C   UNL     1      10.703   4.239 -12.271  1.00  0.00     0.031 C 
ATOM     54  C   UNL     1       7.156   8.989 -13.580  1.00  0.00     0.029 A 
ATOM     55  C   UNL     1       7.797   7.965 -12.901  1.00  0.00     0.049 A 
ATOM     56  H   UNL     1       7.603   7.378 -10.884  1.00  0.00     0.167 HD
ATOM     57  C   UNL     1       9.351   6.047 -12.674  1.00  0.00     0.074 A 
ATOM     58  C   UNL     1      10.321   5.107 -13.198  1.00  0.00     0.031 C 
ATOM     59  C   UNL     1       8.765   7.026 -13.405  1.00  0.00     0.031 A 
BRANCH  46  60
ATOM     60  C   UNL     1       4.720  10.461 -10.240  1.00  0.00    -0.014 A 
ATOM     61  C   UNL     1       5.000  11.704  -9.646  1.00  0.00     0.010 A 
ATOM     62  C   UNL     1       3.478  10.264 -10.870  1.00  0.00     0.010 A 
ATOM     63  C   UNL     1       4.038  12.717  -9.642  1.00  0.00     0.020 A 
ATOM     64  C   UNL     1       2.522  11.283 -10.888  1.00  0.00     0.020 A 
ATOM     65  C   UNL     1       2.801  12.497 -10.255  1.00  0.00     0.054 A 
BRANCH  65  66
ATOM     66  S   UNL     1       1.568  13.828 -10.242  1.00  0.00     0.124 S 
ATOM     67  O   UNL     1       1.024  13.719  -8.891  1.00  0.00    -0.237 OA
ATOM     68  O   UNL     1       2.373  15.019 -10.500  1.00  0.00    -0.237 OA
ATOM     69  O   UNL     1       0.650  13.457 -11.317  1.00  0.00    -0.744 OA
ENDBRANCH  65  66
ENDBRANCH  46  60
BRANCH  47  70
ATOM     70  C   UNL     1      11.091   2.801  -9.751  1.00  0.00    -0.014 A 
ATOM     71  C   UNL     1      12.483   2.997  -9.758  1.00  0.00     0.010 A 
ATOM     72  C   UNL     1      10.582   1.494  -9.656  1.00  0.00     0.010 A 
ATOM     73  C   UNL     1      13.351   1.905  -9.680  1.00  0.00     0.020 A 
ATOM     74  C   UNL     1      11.447   0.401  -9.558  1.00  0.00     0.020 A 
ATOM     75  C   UNL     1      12.828   0.613  -9.579  1.00  0.00     0.054 A 
BRANCH  75  76
ATOM     76  S   UNL     1      13.969  -0.788  -9.407  1.00  0.00     0.124 S 
ATOM     77  O   UNL     1      14.394  -1.004 -10.786  1.00  0.00    -0.237 OA
ATOM     78  O   UNL     1      14.989  -0.261  -8.505  1.00  0.00    -0.237 OA
ATOM     79  O   UNL     1      13.129  -1.839  -8.836  1.00  0.00    -0.744 OA
ENDBRANCH  75  76
ENDBRANCH  47  70
BRANCH  59  80
ATOM     80  C   UNL     1       9.176   7.151 -14.845  1.00  0.00    -0.014 A 
ATOM     81  C   UNL     1       8.677   6.268 -15.818  1.00  0.00     0.010 A 
ATOM     82  C   UNL     1      10.024   8.202 -15.236  1.00  0.00     0.010 A 
ATOM     83  C   UNL     1       9.037   6.422 -17.159  1.00  0.00     0.020 A 
ATOM     84  C   UNL     1      10.371   8.370 -16.579  1.00  0.00     0.020 A 
ATOM     85  C   UNL     1       9.883   7.472 -17.531  1.00  0.00     0.054 A 
BRANCH  85  86
ATOM     86  S   UNL     1      10.295   7.689 -19.284  1.00  0.00     0.124 S 
ATOM     87  O   UNL     1      11.329   6.678 -19.480  1.00  0.00    -0.237 OA
ATOM     88  O   UNL     1       9.023   7.425 -19.952  1.00  0.00    -0.237 OA
ATOM     89  O   UNL     1      10.754   9.075 -19.360  1.00  0.00    -0.744 OA
ENDBRANCH  85  86
ENDBRANCH  59  80
ENDBRANCH  33  34
ENDBRANCH  25  28
ENDBRANCH   1  24
TORSDOF 14
