REMARK SMILES Cc1cc(NC(=O)c2ccc(Br)cc2N)ccc1C(=O)NCCCNC(=O)c1ccc(-c2c3nc(c(-c4ccc(S(=O)(=O)[O-])cc4)c4ccc([nH]4)c(-c4ccc(S(=O)(=O)[O-])cc4)c4nc(c(-c5ccc(S(=O)(=O)[O-])cc5)c5ccc2[nH]5)C=C4)C=C3)cc1
REMARK SMILES IDX 23 1 22 2 21 3 19 4 20 5 18 7 1 8 2 9 3 10 4 11 17 12 16 13
REMARK SMILES IDX 5 14 6 15 7 17 8 18 9 19 14 20 10 21 13 22 11 23 12 24 15 25
REMARK SMILES IDX 24 28 25 29 26 30 27 32 28 33 29 34 87 35 30 36 86 37 31 38
REMARK SMILES IDX 32 39 33 40 80 41 34 42 85 43 79 44 81 45 35 46 84 47 78 48
REMARK SMILES IDX 77 49 36 51 66 52 47 53 65 54 48 55 51 56 64 57 82 58 49 59
REMARK SMILES IDX 50 60 63 62 83 63 52 64 37 65 38 66 46 67 39 68 45 69 40 70
REMARK SMILES IDX 41 71 42 72 43 73 44 74 67 75 68 76 76 77 69 78 75 79 70 80
REMARK SMILES IDX 71 81 72 82 73 83 74 84 53 85 54 86 62 87 55 88 61 89 56 90
REMARK SMILES IDX 57 91 58 92 59 93 60 94
REMARK H PARENT 21 6 5 16 15 26 15 27 25 31 81 50 51 61
REMARK Flexibility Score: inf
ROOT
ATOM      1  C   UNL     1       4.444  -0.125   0.311  1.00  0.00     0.042 C 
ENDROOT
BRANCH   1   2
ATOM      2  C   UNL     1       3.096   0.490   0.982  1.00  0.00     0.118 C 
BRANCH   2   3
ATOM      3  N   UNL     1       2.314   1.517   0.248  1.00  0.00    -0.352 N 
ATOM      4  C   UNL     1       1.024   1.675  -0.216  1.00  0.00     0.251 C 
ATOM      5  O   UNL     1       0.570   2.783  -0.507  1.00  0.00    -0.269 OA
ATOM      6  H   UNL     1       2.869   2.301   0.035  1.00  0.00     0.163 HD
BRANCH   4   7
ATOM      7  C   UNL     1       0.100   0.530  -0.361  1.00  0.00     0.042 A 
ATOM      8  C   UNL     1       1.818  -0.947  -1.551  1.00  0.00     0.045 C 
ATOM      9  C   UNL     1       0.504  -0.697  -0.885  1.00  0.00    -0.036 A 
ATOM     10  C   UNL     1      -0.355  -1.785  -0.754  1.00  0.00     0.030 A 
ATOM     11  C   UNL     1      -1.623  -1.641  -0.201  1.00  0.00     0.041 A 
ATOM     12  C   UNL     1      -1.259   0.718  -0.023  1.00  0.00     0.016 A 
ATOM     13  C   UNL     1      -2.138  -0.369   0.028  1.00  0.00     0.027 A 
BRANCH  11  14
ATOM     14  N   UNL     1      -2.339  -2.774   0.205  1.00  0.00    -0.322 N 
ATOM     15  C   UNL     1      -1.800  -3.960   0.684  1.00  0.00     0.257 C 
ATOM     16  H   UNL     1      -3.320  -2.724   0.145  1.00  0.00     0.170 HD
ATOM     17  O   UNL     1      -2.460  -4.998   0.629  1.00  0.00    -0.269 OA
BRANCH  15  18
ATOM     18  C   UNL     1      -0.445  -3.996   1.340  1.00  0.00     0.063 A 
ATOM     19  C   UNL     1       0.369  -5.101   1.026  1.00  0.00     0.017 A 
ATOM     20  C   UNL     1       0.017  -3.031   2.268  1.00  0.00     0.045 A 
ATOM     21  C   UNL     1       1.619  -5.267   1.632  1.00  0.00     0.016 A 
ATOM     22  C   UNL     1       1.270  -3.227   2.877  1.00  0.00     0.042 A 
ATOM     23  C   UNL     1       2.059  -4.331   2.561  1.00  0.00     0.020 A 
ATOM     24  Br  UNL     1       3.712  -4.583   3.445  1.00  0.00    -0.051 Br
BRANCH  20  25
ATOM     25  N   UNL     1      -0.766  -1.985   2.764  1.00  0.00    -0.398 N 
ATOM     26  H   UNL     1      -1.652  -1.805   2.373  1.00  0.00     0.156 HD
ATOM     27  H   UNL     1      -0.433  -1.429   3.504  1.00  0.00     0.156 HD
ENDBRANCH  20  25
ENDBRANCH  15  18
ENDBRANCH  11  14
ENDBRANCH   4   7
ENDBRANCH   2   3
ENDBRANCH   1   2
BRANCH   1  28
ATOM     28  C   UNL     1       5.833   0.523   0.741  1.00  0.00     0.118 C 
BRANCH  28  29
ATOM     29  N   UNL     1       7.251   0.236   0.102  1.00  0.00    -0.352 N 
ATOM     30  C   UNL     1       8.489   0.956  -0.210  1.00  0.00     0.251 C 
ATOM     31  H   UNL     1       7.324  -0.709  -0.167  1.00  0.00     0.163 HD
ATOM     32  O   UNL     1       9.479   0.492   0.388  1.00  0.00    -0.269 OA
BRANCH  30  33
ATOM     33  C   UNL     1       8.879   2.135  -1.208  1.00  0.00     0.039 A 
ATOM     34  C   UNL     1       9.822   3.154  -0.837  1.00  0.00     0.014 A 
ATOM     35  C   UNL     1       8.351   2.356  -2.475  1.00  0.00     0.014 A 
ATOM     36  C   UNL     1       9.752   4.502  -1.398  1.00  0.00     0.010 A 
ATOM     37  C   UNL     1       8.274   3.681  -3.029  1.00  0.00     0.010 A 
ATOM     38  C   UNL     1       8.756   4.810  -2.345  1.00  0.00    -0.014 A 
BRANCH  38  39
ATOM     39  C   UNL     1       7.963   6.134  -2.389  1.00  0.00     0.031 A 
ATOM     40  C   UNL     1       8.191   7.104  -3.454  1.00  0.00     0.074 A 
ATOM     41  C   UNL     1       6.899   6.551  -1.625  1.00  0.00     0.049 A 
ATOM     42  N   UNL     1       8.452   8.360  -3.276  1.00  0.00    -0.248 NA
ATOM     43  C   UNL     1       8.009   6.700  -4.835  1.00  0.00     0.031 C 
ATOM     44  C   UNL     1       5.990   7.715  -1.665  1.00  0.00     0.029 A 
ATOM     45  N   UNL     1       6.321   5.903  -0.560  1.00  0.00    -0.354 N 
ATOM     46  C   UNL     1       8.139   8.959  -4.478  1.00  0.00     0.074 A 
ATOM     47  C   UNL     1       8.110   7.879  -5.450  1.00  0.00     0.031 C 
ATOM     48  C   UNL     1       5.323   7.820  -0.486  1.00  0.00     0.029 A 
ATOM     49  C   UNL     1       5.800   6.767   0.391  1.00  0.00     0.049 A 
ATOM     50  H   UNL     1       6.280   4.923  -0.480  1.00  0.00     0.167 HD
ATOM     51  C   UNL     1       7.601  10.215  -4.547  1.00  0.00     0.031 A 
ATOM     52  C   UNL     1       6.378   6.828   1.638  1.00  0.00     0.031 A 
ATOM     53  C   UNL     1       7.179  10.729  -3.229  1.00  0.00     0.049 A 
ATOM     54  C   UNL     1       7.099   8.134   1.789  1.00  0.00     0.074 A 
ATOM     55  C   UNL     1       5.929  11.010  -2.690  1.00  0.00     0.029 A 
ATOM     56  N   UNL     1       8.057  10.733  -2.148  1.00  0.00    -0.354 N 
ATOM     57  N   UNL     1       7.124   9.036   0.857  1.00  0.00    -0.248 NA
ATOM     58  C   UNL     1       7.892   8.518   2.946  1.00  0.00     0.031 C 
ATOM     59  C   UNL     1       6.062  11.148  -1.279  1.00  0.00     0.029 A 
ATOM     60  C   UNL     1       7.398  10.993  -0.954  1.00  0.00     0.049 A 
ATOM     61  H   UNL     1       9.025  10.572  -2.221  1.00  0.00     0.167 HD
ATOM     62  C   UNL     1       7.935  10.067   1.201  1.00  0.00     0.074 A 
ATOM     63  C   UNL     1       8.369   9.711   2.545  1.00  0.00     0.031 C 
ATOM     64  C   UNL     1       8.153  11.076   0.306  1.00  0.00     0.031 A 
BRANCH  51  65
ATOM     65  C   UNL     1       7.156  10.827  -5.871  1.00  0.00    -0.014 A 
ATOM     66  C   UNL     1       6.239  11.895  -5.917  1.00  0.00     0.010 A 
ATOM     67  C   UNL     1       7.663  10.408  -7.120  1.00  0.00     0.010 A 
ATOM     68  C   UNL     1       5.795  12.447  -7.134  1.00  0.00     0.020 A 
ATOM     69  C   UNL     1       7.182  10.896  -8.342  1.00  0.00     0.020 A 
ATOM     70  C   UNL     1       6.255  11.927  -8.343  1.00  0.00     0.054 A 
BRANCH  70  71
ATOM     71  S   UNL     1       5.705  12.658  -9.907  1.00  0.00     0.124 S 
ATOM     72  O   UNL     1       4.251  12.549  -9.821  1.00  0.00    -0.237 OA
ATOM     73  O   UNL     1       6.242  14.013  -9.823  1.00  0.00    -0.237 OA
ATOM     74  O   UNL     1       6.325  11.812 -10.926  1.00  0.00    -0.744 OA
ENDBRANCH  70  71
ENDBRANCH  51  65
BRANCH  52  75
ATOM     75  C   UNL     1       6.902   5.505   2.258  1.00  0.00    -0.014 A 
ATOM     76  C   UNL     1       5.895   4.595   2.641  1.00  0.00     0.010 A 
ATOM     77  C   UNL     1       7.922   4.948   1.506  1.00  0.00     0.010 A 
ATOM     78  C   UNL     1       5.468   3.616   1.730  1.00  0.00     0.020 A 
ATOM     79  C   UNL     1       7.461   4.004   0.576  1.00  0.00     0.020 A 
ATOM     80  C   UNL     1       6.195   3.467   0.564  1.00  0.00     0.054 A 
BRANCH  80  81
ATOM     81  S   UNL     1       5.298   3.030  -1.185  1.00  0.00     0.124 S 
ATOM     82  O   UNL     1       3.919   3.020  -0.715  1.00  0.00    -0.237 OA
ATOM     83  O   UNL     1       5.564   4.123  -2.087  1.00  0.00    -0.237 OA
ATOM     84  O   UNL     1       5.803   1.744  -1.636  1.00  0.00    -0.744 OA
ENDBRANCH  80  81
ENDBRANCH  52  75
BRANCH  64  85
ATOM     85  C   UNL     1       9.055  12.268   0.500  1.00  0.00    -0.014 A 
ATOM     86  C   UNL     1       9.809  12.532   1.648  1.00  0.00     0.010 A 
ATOM     87  C   UNL     1       9.163  13.208  -0.556  1.00  0.00     0.010 A 
ATOM     88  C   UNL     1      10.638  13.655   1.736  1.00  0.00     0.020 A 
ATOM     89  C   UNL     1      10.006  14.316  -0.495  1.00  0.00     0.020 A 
ATOM     90  C   UNL     1      10.737  14.534   0.661  1.00  0.00     0.054 A 
BRANCH  90  91
ATOM     91  S   UNL     1      11.841  15.950   0.801  1.00  0.00     0.124 S 
ATOM     92  O   UNL     1      11.199  16.731   1.857  1.00  0.00    -0.237 OA
ATOM     93  O   UNL     1      13.107  15.321   1.169  1.00  0.00    -0.237 OA
ATOM     94  O   UNL     1      11.810  16.554  -0.528  1.00  0.00    -0.744 OA
ENDBRANCH  90  91
ENDBRANCH  64  85
ENDBRANCH  38  39
ENDBRANCH  30  33
ENDBRANCH  28  29
ENDBRANCH   1  28
TORSDOF 16
