REMARK SMILES C[C@@]1(CN2C(=O)c3ccc(C(=O)NCCCNC(=O)c4ccc(-c5c6nc(c(-c7ccc(S(=O)(=O)[O-])cc7)c7ccc([nH]7)c(-c7ccc(S(=O)(=O)[O-])cc7)c7nc(c(-c8ccc(S(=O)(=O)[O-])cc8)c8ccc5[nH]8)C=C7)C=C6)cc4)cc3C2=O)CCCO1
REMARK SMILES IDX 15 1 14 2 13 3 11 4 12 5 10 7 4 8 5 9 82 10 6 11 7 12 81 13
REMARK SMILES IDX 83 14 8 15 80 16 9 17 3 18 2 19 1 20 84 21 87 22 85 23 86 24
REMARK SMILES IDX 16 25 17 26 18 27 19 29 20 30 21 31 79 32 22 33 78 34 23 35
REMARK SMILES IDX 24 36 25 37 72 38 26 39 77 40 71 41 73 42 27 43 76 44 70 45
REMARK SMILES IDX 69 46 28 48 58 49 39 50 57 51 40 52 43 53 56 54 74 55 41 56
REMARK SMILES IDX 42 57 55 59 75 60 44 61 29 62 30 63 38 64 31 65 37 66 32 67
REMARK SMILES IDX 33 68 34 69 35 70 36 71 59 72 60 73 68 74 61 75 67 76 62 77
REMARK SMILES IDX 63 78 64 79 65 80 66 81 45 82 46 83 54 84 47 85 53 86 48 87
REMARK SMILES IDX 49 88 50 89 51 90 52 91
REMARK H PARENT 13 6 17 28 73 47 43 58
REMARK Flexibility Score: inf
ROOT
ATOM      1  C   UNL     1      -6.013   6.225  -0.914  1.00  0.00     0.042 C 
ENDROOT
BRANCH   1   2
ATOM      2  C   UNL     1      -6.200   5.130   0.137  1.00  0.00     0.118 C 
BRANCH   2   3
ATOM      3  N   UNL     1      -6.834   3.951  -0.427  1.00  0.00    -0.352 N 
ATOM      4  C   UNL     1      -6.339   2.746  -0.849  1.00  0.00     0.251 C 
ATOM      5  O   UNL     1      -7.151   1.888  -1.195  1.00  0.00    -0.269 OA
ATOM      6  H   UNL     1      -7.810   4.035  -0.524  1.00  0.00     0.163 HD
BRANCH   4   7
ATOM      7  C   UNL     1      -4.886   2.410  -0.887  1.00  0.00     0.040 A 
ATOM      8  N   UNL     1      -1.232  -0.386  -1.149  1.00  0.00    -0.271 N 
ATOM      9  C   UNL     1      -0.961   0.947  -1.256  1.00  0.00     0.261 C 
ATOM     10  C   UNL     1      -2.573  -0.621  -0.980  1.00  0.00     0.261 C 
ATOM     11  O   UNL     1       0.092   1.508  -1.496  1.00  0.00    -0.269 OA
ATOM     12  C   UNL     1      -2.230   1.643  -1.088  1.00  0.00     0.053 A 
ATOM     13  C   UNL     1      -3.218   0.693  -0.931  1.00  0.00     0.054 A 
ATOM     14  O   UNL     1      -3.173  -1.675  -0.936  1.00  0.00    -0.269 OA
ATOM     15  C   UNL     1      -2.512   2.989  -1.150  1.00  0.00     0.015 A 
ATOM     16  C   UNL     1      -4.552   1.041  -0.829  1.00  0.00     0.028 A 
ATOM     17  C   UNL     1      -3.858   3.364  -1.068  1.00  0.00     0.015 A 
BRANCH   8  18
ATOM     18  C   UNL     1      -0.242  -1.433  -1.332  1.00  0.00     0.164 C 
BRANCH  18  19
ATOM     19  C   UNL     1       0.651  -1.708  -0.093  1.00  0.00     0.084 C 
ATOM     20  C   UNL     1       1.567  -0.532   0.248  1.00  0.00     0.044 C 
ATOM     21  C   UNL     1       1.472  -2.986  -0.312  1.00  0.00     0.039 C 
ATOM     22  O   UNL     1      -0.186  -1.976   1.054  1.00  0.00    -0.373 OA
ATOM     23  C   UNL     1       0.562  -4.064   0.225  1.00  0.00     0.031 C 
ATOM     24  C   UNL     1      -0.099  -3.365   1.391  1.00  0.00     0.161 C 
ENDBRANCH  18  19
ENDBRANCH   8  18
ENDBRANCH   4   7
ENDBRANCH   2   3
ENDBRANCH   1   2
BRANCH   1  25
ATOM     25  C   UNL     1      -7.305   6.953  -1.277  1.00  0.00     0.118 C 
BRANCH  25  26
ATOM     26  N   UNL     1      -7.793   7.771  -0.177  1.00  0.00    -0.352 N 
ATOM     27  C   UNL     1      -7.989   9.127  -0.105  1.00  0.00     0.251 C 
ATOM     28  H   UNL     1      -8.016   7.274   0.643  1.00  0.00     0.163 HD
ATOM     29  O   UNL     1      -8.167   9.647   0.993  1.00  0.00    -0.269 OA
BRANCH  27  30
ATOM     30  C   UNL     1      -7.986   9.962  -1.327  1.00  0.00     0.039 A 
ATOM     31  C   UNL     1      -7.399  11.230  -1.275  1.00  0.00     0.014 A 
ATOM     32  C   UNL     1      -8.609   9.532  -2.503  1.00  0.00     0.014 A 
ATOM     33  C   UNL     1      -7.395  12.044  -2.410  1.00  0.00     0.010 A 
ATOM     34  C   UNL     1      -8.545  10.316  -3.653  1.00  0.00     0.010 A 
ATOM     35  C   UNL     1      -7.946  11.583  -3.616  1.00  0.00    -0.014 A 
BRANCH  35  36
ATOM     36  C   UNL     1      -7.909  12.414  -4.847  1.00  0.00     0.031 A 
ATOM     37  C   UNL     1      -9.188  12.909  -5.467  1.00  0.00     0.074 A 
ATOM     38  C   UNL     1      -6.726  12.669  -5.441  1.00  0.00     0.049 A 
ATOM     39  N   UNL     1      -9.360  13.588  -6.573  1.00  0.00    -0.248 NA
ATOM     40  C   UNL     1     -10.440  12.579  -4.766  1.00  0.00     0.031 C 
ATOM     41  C   UNL     1      -5.420  12.214  -4.957  1.00  0.00     0.029 A 
ATOM     42  N   UNL     1      -6.431  13.366  -6.585  1.00  0.00    -0.354 N 
ATOM     43  C   UNL     1     -10.734  13.748  -6.710  1.00  0.00     0.074 A 
ATOM     44  C   UNL     1     -11.352  13.059  -5.598  1.00  0.00     0.031 C 
ATOM     45  C   UNL     1      -4.464  12.662  -5.786  1.00  0.00     0.029 A 
ATOM     46  C   UNL     1      -5.088  13.400  -6.879  1.00  0.00     0.049 A 
ATOM     47  H   UNL     1      -7.115  13.801  -7.143  1.00  0.00     0.167 HD
ATOM     48  C   UNL     1     -11.419  14.421  -7.666  1.00  0.00     0.031 A 
ATOM     49  C   UNL     1      -4.431  13.955  -7.916  1.00  0.00     0.031 A 
ATOM     50  C   UNL     1     -10.799  15.115  -8.764  1.00  0.00     0.049 A 
ATOM     51  C   UNL     1      -5.213  14.694  -8.966  1.00  0.00     0.074 A 
ATOM     52  C   UNL     1     -11.401  15.872  -9.754  1.00  0.00     0.029 A 
ATOM     53  N   UNL     1      -9.435  15.137  -9.017  1.00  0.00    -0.354 N 
ATOM     54  N   UNL     1      -6.509  14.885  -9.046  1.00  0.00    -0.248 NA
ATOM     55  C   UNL     1      -4.444  15.303 -10.060  1.00  0.00     0.031 C 
ATOM     56  C   UNL     1     -10.405  16.313 -10.633  1.00  0.00     0.029 A 
ATOM     57  C   UNL     1      -9.178  15.876 -10.159  1.00  0.00     0.049 A 
ATOM     58  H   UNL     1      -8.751  14.692  -8.466  1.00  0.00     0.167 HD
ATOM     59  C   UNL     1      -6.707  15.657 -10.185  1.00  0.00     0.074 A 
ATOM     60  C   UNL     1      -5.399  15.910 -10.753  1.00  0.00     0.031 C 
ATOM     61  C   UNL     1      -7.869  16.116 -10.712  1.00  0.00     0.031 A 
BRANCH  48  62
ATOM     62  C   UNL     1     -12.922  14.433  -7.568  1.00  0.00    -0.014 A 
ATOM     63  C   UNL     1     -13.579  15.155  -6.555  1.00  0.00     0.010 A 
ATOM     64  C   UNL     1     -13.691  13.742  -8.523  1.00  0.00     0.010 A 
ATOM     65  C   UNL     1     -14.975  15.149  -6.472  1.00  0.00     0.020 A 
ATOM     66  C   UNL     1     -15.088  13.757  -8.460  1.00  0.00     0.020 A 
ATOM     67  C   UNL     1     -15.720  14.446  -7.422  1.00  0.00     0.054 A 
BRANCH  67  68
ATOM     68  S   UNL     1     -17.530  14.470  -7.300  1.00  0.00     0.124 S 
ATOM     69  O   UNL     1     -17.765  13.585  -6.161  1.00  0.00    -0.237 OA
ATOM     70  O   UNL     1     -17.818  15.882  -7.066  1.00  0.00    -0.237 OA
ATOM     71  O   UNL     1     -17.972  13.952  -8.592  1.00  0.00    -0.744 OA
ENDBRANCH  67  68
ENDBRANCH  48  62
BRANCH  49  72
ATOM     72  C   UNL     1      -2.950  13.843  -8.001  1.00  0.00    -0.014 A 
ATOM     73  C   UNL     1      -2.137  14.967  -7.774  1.00  0.00     0.010 A 
ATOM     74  C   UNL     1      -2.344  12.606  -8.287  1.00  0.00     0.010 A 
ATOM     75  C   UNL     1      -0.745  14.860  -7.847  1.00  0.00     0.020 A 
ATOM     76  C   UNL     1      -0.952  12.489  -8.334  1.00  0.00     0.020 A 
ATOM     77  C   UNL     1      -0.161  13.621  -8.125  1.00  0.00     0.054 A 
BRANCH  77  78
ATOM     78  S   UNL     1       1.649  13.493  -8.158  1.00  0.00     0.124 S 
ATOM     79  O   UNL     1       1.974  14.129  -9.430  1.00  0.00    -0.237 OA
ATOM     80  O   UNL     1       2.040  14.232  -6.960  1.00  0.00    -0.237 OA
ATOM     81  O   UNL     1       1.889  12.053  -8.097  1.00  0.00    -0.744 OA
ENDBRANCH  77  78
ENDBRANCH  49  72
BRANCH  61  82
ATOM     82  C   UNL     1      -7.777  16.966 -11.951  1.00  0.00    -0.014 A 
ATOM     83  C   UNL     1      -7.465  16.401 -13.200  1.00  0.00     0.010 A 
ATOM     84  C   UNL     1      -8.059  18.342 -11.870  1.00  0.00     0.010 A 
ATOM     85  C   UNL     1      -7.406  17.204 -14.342  1.00  0.00     0.020 A 
ATOM     86  C   UNL     1      -8.028  19.142 -13.014  1.00  0.00     0.020 A 
ATOM     87  C   UNL     1      -7.688  18.570 -14.241  1.00  0.00     0.054 A 
BRANCH  87  88
ATOM     88  S   UNL     1      -7.649  19.583 -15.745  1.00  0.00     0.124 S 
ATOM     89  O   UNL     1      -6.215  19.715 -15.986  1.00  0.00    -0.237 OA
ATOM     90  O   UNL     1      -8.374  18.757 -16.708  1.00  0.00    -0.237 OA
ATOM     91  O   UNL     1      -8.332  20.814 -15.352  1.00  0.00    -0.744 OA
ENDBRANCH  87  88
ENDBRANCH  61  82
ENDBRANCH  35  36
ENDBRANCH  27  30
ENDBRANCH  25  26
ENDBRANCH   1  25
TORSDOF 15
