REMARK SMILES COc1ccc(Br)cc1S(=O)(=O)N(C)CC(=O)NCCCNC(=O)c1ccc(-c2c3nc(c(-c4ccc(S(=O)(=O)[O-])cc4)c4ccc([nH]4)c(-c4ccc(S(=O)(=O)[O-])cc4)c4nc(c(-c5ccc(S(=O)(=O)[O-])cc5)c5ccc2[nH]5)C=C4)C=C3)cc1
REMARK SMILES IDX 19 1 18 2 16 3 17 4 15 6 13 7 14 8 10 9 11 10 12 11 9 12
REMARK SMILES IDX 3 13 4 14 5 15 8 16 6 17 7 18 2 19 1 20 20 21 21 22 22 23
REMARK SMILES IDX 23 24 24 26 25 27 26 28 84 29 27 30 83 31 28 32 29 33 30 34
REMARK SMILES IDX 77 35 31 36 82 37 76 38 78 39 32 40 81 41 75 42 74 43 33 45
REMARK SMILES IDX 63 46 44 47 62 48 45 49 48 50 61 51 79 52 46 53 47 54 60 56
REMARK SMILES IDX 80 57 49 58 34 59 35 60 43 61 36 62 42 63 37 64 38 65 39 66
REMARK SMILES IDX 40 67 41 68 64 69 65 70 73 71 66 72 72 73 67 74 68 75 69 76
REMARK SMILES IDX 70 77 71 78 50 79 51 80 59 81 52 82 58 83 53 84 54 85 55 86
REMARK SMILES IDX 56 87 57 88
REMARK H PARENT 18 5 22 25 78 44 48 55
REMARK Flexibility Score: inf
ROOT
ATOM      1  C   UNL     1      -4.181  -0.256   1.525  1.00  0.00     0.117 C 
ENDROOT
BRANCH   1   2
ATOM      2  N   UNL     1      -4.580   1.074   1.102  1.00  0.00    -0.355 N 
ATOM      3  C   UNL     1      -4.226   1.820   0.012  1.00  0.00     0.235 C 
ATOM      4  O   UNL     1      -4.808   2.898  -0.137  1.00  0.00    -0.274 OA
ATOM      5  H   UNL     1      -5.217   1.518   1.708  1.00  0.00     0.163 HD
BRANCH   3   6
ATOM      6  C   UNL     1      -3.200   1.330  -1.014  1.00  0.00     0.202 C 
BRANCH   6   7
ATOM      7  N   UNL     1      -1.740   1.541  -0.727  1.00  0.00    -0.191 NA
ATOM      8  C   UNL     1      -1.128   0.390  -0.062  1.00  0.00     0.125 C 
BRANCH   7   9
ATOM      9  S   UNL     1      -1.396   3.107  -0.161  1.00  0.00     0.247 S 
ATOM     10  O   UNL     1      -1.949   3.162   1.184  1.00  0.00    -0.207 OA
ATOM     11  O   UNL     1      -1.840   4.025  -1.184  1.00  0.00    -0.207 OA
BRANCH   9  12
ATOM     12  C   UNL     1       0.342   3.435   0.063  1.00  0.00     0.125 A 
ATOM     13  C   UNL     1       1.419   2.612  -0.277  1.00  0.00     0.138 A 
ATOM     14  C   UNL     1       2.715   3.007   0.111  1.00  0.00     0.049 A 
ATOM     15  C   UNL     1       2.938   4.190   0.820  1.00  0.00     0.019 A 
ATOM     16  C   UNL     1       0.582   4.649   0.748  1.00  0.00     0.041 A 
ATOM     17  C   UNL     1       1.869   5.017   1.122  1.00  0.00     0.019 A 
ATOM     18  Br  UNL     1       2.159   6.637   2.047  1.00  0.00    -0.051 Br
BRANCH  13  19
ATOM     19  O   UNL     1       1.232   1.487  -1.027  1.00  0.00    -0.495 OA
ATOM     20  C   UNL     1       2.117   0.400  -0.733  1.00  0.00     0.278 C 
ENDBRANCH  13  19
ENDBRANCH   9  12
ENDBRANCH   7   9
ENDBRANCH   6   7
ENDBRANCH   3   6
ENDBRANCH   1   2
BRANCH   1  21
ATOM     21  C   UNL     1      -3.043  -0.228   2.545  1.00  0.00     0.042 C 
BRANCH  21  22
ATOM     22  C   UNL     1      -3.484   0.019   3.982  1.00  0.00     0.118 C 
BRANCH  22  23
ATOM     23  N   UNL     1      -3.983  -1.193   4.615  1.00  0.00    -0.352 N 
ATOM     24  C   UNL     1      -3.507  -1.909   5.687  1.00  0.00     0.251 C 
ATOM     25  H   UNL     1      -4.798  -1.562   4.205  1.00  0.00     0.163 HD
ATOM     26  O   UNL     1      -3.981  -3.026   5.894  1.00  0.00    -0.269 OA
BRANCH  24  27
ATOM     27  C   UNL     1      -2.445  -1.388   6.588  1.00  0.00     0.039 A 
ATOM     28  C   UNL     1      -1.569  -2.305   7.186  1.00  0.00     0.014 A 
ATOM     29  C   UNL     1      -2.346  -0.037   6.932  1.00  0.00     0.014 A 
ATOM     30  C   UNL     1      -0.593  -1.870   8.091  1.00  0.00     0.010 A 
ATOM     31  C   UNL     1      -1.323   0.407   7.774  1.00  0.00     0.010 A 
ATOM     32  C   UNL     1      -0.451  -0.505   8.385  1.00  0.00    -0.014 A 
BRANCH  32  33
ATOM     33  C   UNL     1       0.555  -0.028   9.373  1.00  0.00     0.031 A 
ATOM     34  C   UNL     1       0.106   0.621  10.659  1.00  0.00     0.074 A 
ATOM     35  C   UNL     1       1.873  -0.138   9.110  1.00  0.00     0.049 A 
ATOM     36  N   UNL     1       0.828   1.143  11.618  1.00  0.00    -0.248 NA
ATOM     37  C   UNL     1      -1.346   0.713  10.884  1.00  0.00     0.031 C 
ATOM     38  C   UNL     1       2.451  -0.715   7.895  1.00  0.00     0.029 A 
ATOM     39  N   UNL     1       2.966   0.234   9.854  1.00  0.00    -0.354 N 
ATOM     40  C   UNL     1      -0.078   1.651  12.542  1.00  0.00     0.074 A 
ATOM     41  C   UNL     1      -1.402   1.407  12.011  1.00  0.00     0.031 C 
ATOM     42  C   UNL     1       3.791  -0.682   7.989  1.00  0.00     0.029 A 
ATOM     43  C   UNL     1       4.168  -0.056   9.254  1.00  0.00     0.049 A 
ATOM     44  H   UNL     1       2.895   0.668  10.735  1.00  0.00     0.167 HD
ATOM     45  C   UNL     1       0.161   2.251  13.734  1.00  0.00     0.031 A 
ATOM     46  C   UNL     1       5.431   0.153   9.671  1.00  0.00     0.031 A 
ATOM     47  C   UNL     1       1.471   2.470  14.285  1.00  0.00     0.049 A 
ATOM     48  C   UNL     1       5.676   0.791  11.010  1.00  0.00     0.074 A 
ATOM     49  C   UNL     1       1.812   3.027  15.506  1.00  0.00     0.029 A 
ATOM     50  N   UNL     1       2.659   2.134  13.654  1.00  0.00    -0.354 N 
ATOM     51  N   UNL     1       4.803   1.230  11.884  1.00  0.00    -0.248 NA
ATOM     52  C   UNL     1       7.078   0.948  11.424  1.00  0.00     0.031 C 
ATOM     53  C   UNL     1       3.208   3.050  15.602  1.00  0.00     0.029 A 
ATOM     54  C   UNL     1       3.734   2.475  14.457  1.00  0.00     0.049 A 
ATOM     55  H   UNL     1       2.728   1.715  12.766  1.00  0.00     0.167 HD
ATOM     56  C   UNL     1       5.548   1.694  12.962  1.00  0.00     0.074 A 
ATOM     57  C   UNL     1       6.942   1.474  12.634  1.00  0.00     0.031 C 
ATOM     58  C   UNL     1       5.116   2.249  14.120  1.00  0.00     0.031 A 
BRANCH  45  59
ATOM     59  C   UNL     1      -1.035   2.715  14.521  1.00  0.00    -0.014 A 
ATOM     60  C   UNL     1      -1.883   1.793  15.162  1.00  0.00     0.010 A 
ATOM     61  C   UNL     1      -1.313   4.090  14.627  1.00  0.00     0.010 A 
ATOM     62  C   UNL     1      -3.017   2.233  15.848  1.00  0.00     0.020 A 
ATOM     63  C   UNL     1      -2.434   4.536  15.333  1.00  0.00     0.020 A 
ATOM     64  C   UNL     1      -3.292   3.602  15.919  1.00  0.00     0.054 A 
BRANCH  64  65
ATOM     65  S   UNL     1      -4.774   4.152  16.809  1.00  0.00     0.124 S 
ATOM     66  O   UNL     1      -5.825   3.893  15.828  1.00  0.00    -0.237 OA
ATOM     67  O   UNL     1      -4.787   3.286  17.985  1.00  0.00    -0.237 OA
ATOM     68  O   UNL     1      -4.509   5.562  17.081  1.00  0.00    -0.744 OA
ENDBRANCH  64  65
ENDBRANCH  45  59
BRANCH  46  69
ATOM     69  C   UNL     1       6.569  -0.282   8.818  1.00  0.00    -0.014 A 
ATOM     70  C   UNL     1       7.298  -1.438   9.146  1.00  0.00     0.010 A 
ATOM     71  C   UNL     1       6.909   0.440   7.661  1.00  0.00     0.010 A 
ATOM     72  C   UNL     1       8.351  -1.865   8.332  1.00  0.00     0.020 A 
ATOM     73  C   UNL     1       7.949   0.006   6.835  1.00  0.00     0.020 A 
ATOM     74  C   UNL     1       8.668  -1.141   7.179  1.00  0.00     0.054 A 
BRANCH  74  75
ATOM     75  S   UNL     1       9.984  -1.754   6.089  1.00  0.00     0.124 S 
ATOM     76  O   UNL     1      11.186  -1.308   6.784  1.00  0.00    -0.237 OA
ATOM     77  O   UNL     1       9.751  -3.196   6.087  1.00  0.00    -0.237 OA
ATOM     78  O   UNL     1       9.707  -1.087   4.819  1.00  0.00    -0.744 OA
ENDBRANCH  74  75
ENDBRANCH  46  69
BRANCH  58  79
ATOM     79  C   UNL     1       6.158   2.629  15.135  1.00  0.00    -0.014 A 
ATOM     80  C   UNL     1       6.951   3.778  14.966  1.00  0.00     0.010 A 
ATOM     81  C   UNL     1       6.316   1.847  16.293  1.00  0.00     0.010 A 
ATOM     82  C   UNL     1       7.907   4.122  15.926  1.00  0.00     0.020 A 
ATOM     83  C   UNL     1       7.258   2.199  17.264  1.00  0.00     0.020 A 
ATOM     84  C   UNL     1       8.058   3.326  17.067  1.00  0.00     0.054 A 
BRANCH  84  85
ATOM     85  S   UNL     1       9.279   3.807  18.319  1.00  0.00     0.124 S 
ATOM     86  O   UNL     1      10.526   3.335  17.723  1.00  0.00    -0.237 OA
ATOM     87  O   UNL     1       9.124   5.259  18.384  1.00  0.00    -0.237 OA
ATOM     88  O   UNL     1       8.847   3.088  19.515  1.00  0.00    -0.744 OA
ENDBRANCH  84  85
ENDBRANCH  58  79
ENDBRANCH  32  33
ENDBRANCH  24  27
ENDBRANCH  22  23
ENDBRANCH  21  22
ENDBRANCH   1  21
TORSDOF 17
