REMARK SMILES CC(C)C[C@H](NC(=O)c1cc(Cl)nnc1Cl)C(=O)NCCCNC(=O)c1ccc(-c2c3nc(c(-c4ccc(S(=O)(=O)[O-])cc4)c4ccc([nH]4)c(-c4ccc(S(=O)(=O)[O-])cc4)c4nc(c(-c5ccc(S(=O)(=O)[O-])cc5)c5ccc2[nH]5)C=C4)C=C3)cc1
REMARK SMILES IDX 21 1 20 2 19 3 17 4 18 5 5 7 4 8 2 9 1 10 3 11 6 12 7 13
REMARK SMILES IDX 8 15 9 16 10 17 15 18 11 19 14 20 16 21 12 22 13 23 22 24
REMARK SMILES IDX 23 25 24 26 25 28 26 29 27 30 85 31 28 32 84 33 29 34 30 35
REMARK SMILES IDX 31 36 78 37 32 38 83 39 77 40 79 41 33 42 82 43 76 44 75 45
REMARK SMILES IDX 34 47 64 48 45 49 63 50 46 51 49 52 62 53 80 54 47 55 48 56
REMARK SMILES IDX 61 58 81 59 50 60 35 61 36 62 44 63 37 64 43 65 38 66 39 67
REMARK SMILES IDX 40 68 41 69 42 70 65 71 66 72 74 73 67 74 73 75 68 76 69 77
REMARK SMILES IDX 70 78 71 79 72 80 51 81 52 82 60 83 53 84 59 85 54 86 55 87
REMARK SMILES IDX 56 88 57 89 58 90
REMARK H PARENT 19 6 6 14 23 27 79 46 49 57
REMARK Flexibility Score: inf
ROOT
ATOM      1  C   UNL     1      -3.952  -3.475   2.055  1.00  0.00     0.042 C 
ENDROOT
BRANCH   1   2
ATOM      2  C   UNL     1      -3.408  -3.197   0.669  1.00  0.00     0.117 C 
BRANCH   2   3
ATOM      3  N   UNL     1      -3.709  -1.868   0.180  1.00  0.00    -0.354 N 
ATOM      4  C   UNL     1      -2.979  -1.082  -0.665  1.00  0.00     0.242 C 
ATOM      5  O   UNL     1      -3.563  -0.149  -1.224  1.00  0.00    -0.273 OA
ATOM      6  H   UNL     1      -4.556  -1.478   0.499  1.00  0.00     0.163 HD
BRANCH   4   7
ATOM      7  C   UNL     1      -1.503  -1.401  -0.998  1.00  0.00     0.171 C 
BRANCH   7   8
ATOM      8  C   UNL     1      -1.295  -2.280  -2.246  1.00  0.00     0.038 C 
BRANCH   8   9
ATOM      9  C   UNL     1      -2.042  -3.624  -2.376  1.00  0.00    -0.015 C 
ATOM     10  C   UNL     1      -3.480  -3.463  -2.886  1.00  0.00     0.007 C 
ATOM     11  C   UNL     1      -1.306  -4.543  -3.360  1.00  0.00     0.007 C 
ENDBRANCH   8   9
ENDBRANCH   7   8
BRANCH   7  12
ATOM     12  N   UNL     1      -0.725  -1.614   0.240  1.00  0.00    -0.340 N 
ATOM     13  C   UNL     1       0.111  -2.536   0.787  1.00  0.00     0.255 C 
ATOM     14  H   UNL     1      -0.851  -0.857   0.857  1.00  0.00     0.164 HD
ATOM     15  O   UNL     1       0.500  -2.386   1.942  1.00  0.00    -0.269 OA
BRANCH  13  16
ATOM     16  C   UNL     1       0.523  -3.749   0.104  1.00  0.00     0.082 A 
ATOM     17  C   UNL     1      -0.047  -4.960   0.501  1.00  0.00     0.060 A 
ATOM     18  C   UNL     1       1.585  -3.759  -0.777  1.00  0.00     0.164 A 
ATOM     19  C   UNL     1       0.416  -6.107  -0.098  1.00  0.00     0.152 A 
ATOM     20  N   UNL     1       2.007  -4.905  -1.350  1.00  0.00    -0.136 NA
ATOM     21  Cl  UNL     1       2.475  -2.369  -1.239  1.00  0.00    -0.059 Cl
ATOM     22  Cl  UNL     1      -0.250  -7.639   0.261  1.00  0.00    -0.060 Cl
ATOM     23  N   UNL     1       1.401  -6.095  -1.018  1.00  0.00    -0.137 NA
ENDBRANCH  13  16
ENDBRANCH   7  12
ENDBRANCH   4   7
ENDBRANCH   2   3
ENDBRANCH   1   2
BRANCH   1  24
ATOM     24  C   UNL     1      -5.459  -3.681   2.042  1.00  0.00     0.118 C 
BRANCH  24  25
ATOM     25  N   UNL     1      -5.841  -4.914   1.356  1.00  0.00    -0.352 N 
ATOM     26  C   UNL     1      -6.175  -6.141   1.880  1.00  0.00     0.251 C 
ATOM     27  H   UNL     1      -5.862  -4.858   0.373  1.00  0.00     0.163 HD
ATOM     28  O   UNL     1      -6.235  -7.127   1.151  1.00  0.00    -0.269 OA
BRANCH  26  29
ATOM     29  C   UNL     1      -6.437  -6.259   3.326  1.00  0.00     0.039 A 
ATOM     30  C   UNL     1      -5.847  -7.293   4.057  1.00  0.00     0.014 A 
ATOM     31  C   UNL     1      -7.250  -5.318   3.960  1.00  0.00     0.014 A 
ATOM     32  C   UNL     1      -6.004  -7.327   5.444  1.00  0.00     0.010 A 
ATOM     33  C   UNL     1      -7.324  -5.296   5.344  1.00  0.00     0.010 A 
ATOM     34  C   UNL     1      -6.710  -6.306   6.099  1.00  0.00    -0.014 A 
BRANCH  34  35
ATOM     35  C   UNL     1      -6.867  -6.280   7.571  1.00  0.00     0.031 A 
ATOM     36  C   UNL     1      -8.244  -6.398   8.164  1.00  0.00     0.074 A 
ATOM     37  C   UNL     1      -5.797  -6.069   8.361  1.00  0.00     0.049 A 
ATOM     38  N   UNL     1      -8.616  -6.275   9.411  1.00  0.00    -0.248 NA
ATOM     39  C   UNL     1      -9.353  -6.651   7.228  1.00  0.00     0.031 C 
ATOM     40  C   UNL     1      -4.417  -5.900   7.899  1.00  0.00     0.029 A 
ATOM     41  N   UNL     1      -5.705  -5.954   9.725  1.00  0.00    -0.354 N 
ATOM     42  C   UNL     1      -9.998  -6.411   9.403  1.00  0.00     0.074 A 
ATOM     43  C   UNL     1     -10.406  -6.575   8.027  1.00  0.00     0.031 C 
ATOM     44  C   UNL     1      -3.614  -5.736   8.963  1.00  0.00     0.029 A 
ATOM     45  C   UNL     1      -4.423  -5.752  10.178  1.00  0.00     0.049 A 
ATOM     46  H   UNL     1      -6.485  -6.010  10.324  1.00  0.00     0.167 HD
ATOM     47  C   UNL     1     -10.850  -6.425  10.453  1.00  0.00     0.031 A 
ATOM     48  C   UNL     1      -3.954  -5.599  11.431  1.00  0.00     0.031 A 
ATOM     49  C   UNL     1     -10.437  -6.308  11.822  1.00  0.00     0.049 A 
ATOM     50  C   UNL     1      -4.916  -5.638  12.584  1.00  0.00     0.074 A 
ATOM     51  C   UNL     1     -11.218  -6.369  12.962  1.00  0.00     0.029 A 
ATOM     52  N   UNL     1      -9.127  -6.126  12.237  1.00  0.00    -0.354 N 
ATOM     53  N   UNL     1      -6.218  -5.792  12.559  1.00  0.00    -0.248 NA
ATOM     54  C   UNL     1      -4.349  -5.489  13.932  1.00  0.00     0.031 C 
ATOM     55  C   UNL     1     -10.380  -6.198  14.069  1.00  0.00     0.029 A 
ATOM     56  C   UNL     1      -9.076  -6.067  13.616  1.00  0.00     0.049 A 
ATOM     57  H   UNL     1      -8.350  -6.050  11.638  1.00  0.00     0.167 HD
ATOM     58  C   UNL     1      -6.626  -5.776  13.887  1.00  0.00     0.074 A 
ATOM     59  C   UNL     1      -5.433  -5.603  14.691  1.00  0.00     0.031 C 
ATOM     60  C   UNL     1      -7.876  -5.898  14.394  1.00  0.00     0.031 A 
BRANCH  47  61
ATOM     61  C   UNL     1     -12.312  -6.598  10.156  1.00  0.00    -0.014 A 
ATOM     62  C   UNL     1     -12.821  -7.850   9.766  1.00  0.00     0.010 A 
ATOM     63  C   UNL     1     -13.193  -5.513  10.308  1.00  0.00     0.010 A 
ATOM     64  C   UNL     1     -14.183  -8.007   9.506  1.00  0.00     0.020 A 
ATOM     65  C   UNL     1     -14.561  -5.672  10.069  1.00  0.00     0.020 A 
ATOM     66  C   UNL     1     -15.045  -6.917   9.662  1.00  0.00     0.054 A 
BRANCH  66  67
ATOM     67  S   UNL     1     -16.812  -7.164   9.337  1.00  0.00     0.124 S 
ATOM     68  O   UNL     1     -16.814  -7.504   7.916  1.00  0.00    -0.237 OA
ATOM     69  O   UNL     1     -17.149  -8.257  10.245  1.00  0.00    -0.237 OA
ATOM     70  O   UNL     1     -17.411  -5.873   9.666  1.00  0.00    -0.744 OA
ENDBRANCH  66  67
ENDBRANCH  47  61
BRANCH  48  71
ATOM     71  C   UNL     1      -2.493  -5.436  11.652  1.00  0.00    -0.014 A 
ATOM     72  C   UNL     1      -1.726  -6.524  12.103  1.00  0.00     0.010 A 
ATOM     73  C   UNL     1      -1.854  -4.218  11.363  1.00  0.00     0.010 A 
ATOM     74  C   UNL     1      -0.342  -6.399  12.256  1.00  0.00     0.020 A 
ATOM     75  C   UNL     1      -0.468  -4.093  11.499  1.00  0.00     0.020 A 
ATOM     76  C   UNL     1       0.279  -5.186  11.943  1.00  0.00     0.054 A 
BRANCH  76  77
ATOM     77  S   UNL     1       2.085  -5.076  12.090  1.00  0.00     0.124 S 
ATOM     78  O   UNL     1       2.293  -5.315  13.515  1.00  0.00    -0.237 OA
ATOM     79  O   UNL     1       2.530  -6.144  11.198  1.00  0.00    -0.237 OA
ATOM     80  O   UNL     1       2.386  -3.722  11.633  1.00  0.00    -0.744 OA
ENDBRANCH  76  77
ENDBRANCH  48  71
BRANCH  60  81
ATOM     81  C   UNL     1      -8.034  -5.868  15.886  1.00  0.00    -0.014 A 
ATOM     82  C   UNL     1      -8.036  -4.649  16.583  1.00  0.00     0.010 A 
ATOM     83  C   UNL     1      -8.311  -7.062  16.577  1.00  0.00     0.010 A 
ATOM     84  C   UNL     1      -8.319  -4.623  17.950  1.00  0.00     0.020 A 
ATOM     85  C   UNL     1      -8.610  -7.038  17.941  1.00  0.00     0.020 A 
ATOM     86  C   UNL     1      -8.615  -5.816  18.617  1.00  0.00     0.054 A 
BRANCH  86  87
ATOM     87  S   UNL     1      -9.055  -5.737  20.375  1.00  0.00     0.124 S 
ATOM     88  O   UNL     1      -7.825  -5.229  20.977  1.00  0.00    -0.237 OA
ATOM     89  O   UNL     1     -10.184  -4.810  20.374  1.00  0.00    -0.237 OA
ATOM     90  O   UNL     1      -9.388  -7.119  20.714  1.00  0.00    -0.744 OA
ENDBRANCH  86  87
ENDBRANCH  60  81
ENDBRANCH  34  35
ENDBRANCH  26  29
ENDBRANCH  24  25
ENDBRANCH   1  24
TORSDOF 17
