REMARK SMILES CCc1ccnc(C(=O)c2[nH]c3ccc(OC(F)(F)F)cc3c2CC(=O)NCCCNC(=O)c2ccc(-c3c4nc(c(-c5ccc(S(=O)(=O)[O-])cc5)c5ccc([nH]5)c(-c5ccc(S(=O)(=O)[O-])cc5)c5nc(c(-c6ccc(S(=O)(=O)[O-])cc6)c6ccc3[nH]6)C=C5)C=C4)cc2)c1
REMARK SMILES IDX 28 1 27 2 25 3 26 4 24 6 23 7 10 8 11 9 12 10 22 12 13 13
REMARK SMILES IDX 21 14 14 15 15 16 8 17 9 18 7 19 3 20 4 21 94 22 5 23 6 24
REMARK SMILES IDX 2 25 1 26 16 27 17 28 18 29 19 30 20 31 29 32 30 33 31 34
REMARK SMILES IDX 32 35 33 37 34 38 35 39 93 40 36 41 92 42 37 43 38 44 39 45
REMARK SMILES IDX 86 46 40 47 91 48 85 49 87 50 41 51 90 52 84 53 83 54 42 56
REMARK SMILES IDX 72 57 53 58 71 59 54 60 57 61 70 62 88 63 55 64 56 65 69 67
REMARK SMILES IDX 89 68 58 69 43 70 44 71 52 72 45 73 51 74 46 75 47 76 48 77
REMARK SMILES IDX 49 78 50 79 73 80 74 81 82 82 75 83 81 84 76 85 77 86 78 87
REMARK SMILES IDX 79 88 80 89 59 90 60 91 68 92 61 93 67 94 62 95 63 96 64 97
REMARK SMILES IDX 65 98 66 99
REMARK H PARENT 27 5 11 11 31 36 87 55 57 66
REMARK Flexibility Score: inf
ROOT
ATOM      1  C   UNL     1      -0.705   8.898  -0.136  1.00  0.00     0.117 C 
ENDROOT
BRANCH   1   2
ATOM      2  N   UNL     1       0.372   8.561   0.776  1.00  0.00    -0.356 N 
ATOM      3  C   UNL     1       1.215   7.487   0.770  1.00  0.00     0.224 C 
ATOM      4  O   UNL     1       2.188   7.507   1.529  1.00  0.00    -0.275 OA
ATOM      5  H   UNL     1       0.517   9.203   1.508  1.00  0.00     0.163 HD
BRANCH   3   6
ATOM      6  C   UNL     1       1.031   6.353  -0.224  1.00  0.00     0.138 C 
BRANCH   6   7
ATOM      7  C   UNL     1      -0.239   5.567  -0.062  1.00  0.00    -0.002 A 
ATOM      8  C   UNL     1      -0.673   4.874   1.065  1.00  0.00     0.093 A 
ATOM      9  N   UNL     1      -1.928   4.382   0.789  1.00  0.00    -0.352 N 
ATOM     10  C   UNL     1      -2.265   4.621  -0.519  1.00  0.00     0.046 A 
ATOM     11  H   UNL     1      -2.505   3.922   1.441  1.00  0.00     0.167 HD
ATOM     12  C   UNL     1      -1.225   5.353  -1.084  1.00  0.00     0.008 A 
ATOM     13  C   UNL     1      -3.414   4.266  -1.232  1.00  0.00     0.030 A 
ATOM     14  C   UNL     1      -1.340   5.737  -2.436  1.00  0.00     0.057 A 
ATOM     15  C   UNL     1      -3.503   4.664  -2.572  1.00  0.00     0.049 A 
ATOM     16  C   UNL     1      -2.480   5.391  -3.178  1.00  0.00     0.130 A 
BRANCH   8  17
ATOM     17  C   UNL     1      -0.035   4.723   2.360  1.00  0.00     0.227 C 
ATOM     18  O   UNL     1       0.042   5.671   3.138  1.00  0.00    -0.285 OA
BRANCH  17  19
ATOM     19  C   UNL     1       0.500   3.361   2.743  1.00  0.00     0.113 A 
ATOM     20  C   UNL     1       0.881   1.014   2.320  1.00  0.00    -0.044 A 
ATOM     21  C   UNL     1       1.463   0.929   3.586  1.00  0.00     0.024 A 
ATOM     22  C   UNL     1       0.399   2.258   1.892  1.00  0.00     0.036 A 
ATOM     23  C   UNL     1       1.535   2.073   4.363  1.00  0.00     0.112 A 
ATOM     24  N   UNL     1       1.065   3.275   3.975  1.00  0.00    -0.253 NA
BRANCH  20  25
ATOM     25  C   UNL     1       0.737  -0.214   1.456  1.00  0.00     0.032 C 
ATOM     26  C   UNL     1       1.488  -0.111   0.136  1.00  0.00     0.009 C 
ENDBRANCH  20  25
ENDBRANCH  17  19
ENDBRANCH   8  17
BRANCH  16  27
ATOM     27  O   UNL     1      -2.454   5.835  -4.470  1.00  0.00    -0.406 OA
BRANCH  27  28
ATOM     28  C   UNL     1      -3.566   5.533  -5.296  1.00  0.00     0.573 C 
ATOM     29  F   UNL     1      -3.723   4.199  -5.431  1.00  0.00    -0.132 F 
ATOM     30  F   UNL     1      -4.698   6.083  -4.812  1.00  0.00    -0.132 F 
ATOM     31  F   UNL     1      -3.338   6.052  -6.524  1.00  0.00    -0.132 F 
ENDBRANCH  27  28
ENDBRANCH  16  27
ENDBRANCH   6   7
ENDBRANCH   3   6
ENDBRANCH   1   2
BRANCH   1  32
ATOM     32  C   UNL     1      -2.096   8.574   0.403  1.00  0.00     0.042 C 
BRANCH  32  33
ATOM     33  C   UNL     1      -2.500   9.333   1.665  1.00  0.00     0.118 C 
BRANCH  33  34
ATOM     34  N   UNL     1      -2.648  10.762   1.436  1.00  0.00    -0.352 N 
ATOM     35  C   UNL     1      -3.717  11.595   1.654  1.00  0.00     0.251 C 
ATOM     36  H   UNL     1      -1.852  11.204   1.062  1.00  0.00     0.163 HD
ATOM     37  O   UNL     1      -3.668  12.744   1.220  1.00  0.00    -0.269 OA
BRANCH  35  38
ATOM     38  C   UNL     1      -4.926  11.142   2.384  1.00  0.00     0.039 A 
ATOM     39  C   UNL     1      -6.176  11.576   1.926  1.00  0.00     0.014 A 
ATOM     40  C   UNL     1      -4.848  10.378   3.553  1.00  0.00     0.014 A 
ATOM     41  C   UNL     1      -7.343  11.212   2.606  1.00  0.00     0.010 A 
ATOM     42  C   UNL     1      -6.016   9.986   4.214  1.00  0.00     0.010 A 
ATOM     43  C   UNL     1      -7.272  10.403   3.749  1.00  0.00    -0.014 A 
BRANCH  43  44
ATOM     44  C   UNL     1      -8.504  10.005   4.473  1.00  0.00     0.031 A 
ATOM     45  C   UNL     1      -8.834  10.615   5.805  1.00  0.00     0.074 A 
ATOM     46  C   UNL     1      -9.311   9.060   3.957  1.00  0.00     0.049 A 
ATOM     47  N   UNL     1      -9.809  10.318   6.627  1.00  0.00    -0.248 NA
ATOM     48  C   UNL     1      -7.944  11.684   6.280  1.00  0.00     0.031 C 
ATOM     49  C   UNL     1      -9.096   8.361   2.690  1.00  0.00     0.029 A 
ATOM     50  N   UNL     1     -10.473   8.518   4.448  1.00  0.00    -0.354 N 
ATOM     51  C   UNL     1      -9.622  11.126   7.740  1.00  0.00     0.074 A 
ATOM     52  C   UNL     1      -8.455  11.943   7.477  1.00  0.00     0.031 C 
ATOM     53  C   UNL     1     -10.097   7.485   2.500  1.00  0.00     0.029 A 
ATOM     54  C   UNL     1     -11.014   7.553   3.636  1.00  0.00     0.049 A 
ATOM     55  H   UNL     1     -10.879   8.796   5.301  1.00  0.00     0.167 HD
ATOM     56  C   UNL     1     -10.345  11.178   8.885  1.00  0.00     0.031 A 
ATOM     57  C   UNL     1     -12.119   6.800   3.787  1.00  0.00     0.031 A 
ATOM     58  C   UNL     1     -11.530  10.409   9.146  1.00  0.00     0.049 A 
ATOM     59  C   UNL     1     -12.971   6.955   5.011  1.00  0.00     0.074 A 
ATOM     60  C   UNL     1     -12.332  10.409  10.275  1.00  0.00     0.029 A 
ATOM     61  N   UNL     1     -12.096   9.512   8.254  1.00  0.00    -0.354 N 
ATOM     62  N   UNL     1     -12.772   7.720   6.056  1.00  0.00    -0.248 NA
ATOM     63  C   UNL     1     -14.198   6.148   5.072  1.00  0.00     0.031 C 
ATOM     64  C   UNL     1     -13.391   9.515  10.060  1.00  0.00     0.029 A 
ATOM     65  C   UNL     1     -13.244   8.962   8.799  1.00  0.00     0.049 A 
ATOM     66  H   UNL     1     -11.736   9.298   7.364  1.00  0.00     0.167 HD
ATOM     67  C   UNL     1     -13.843   7.479   6.907  1.00  0.00     0.074 A 
ATOM     68  C   UNL     1     -14.696   6.509   6.248  1.00  0.00     0.031 C 
ATOM     69  C   UNL     1     -14.088   8.007   8.131  1.00  0.00     0.031 A 
BRANCH  56  70
ATOM     70  C   UNL     1      -9.831  12.100   9.950  1.00  0.00    -0.014 A 
ATOM     71  C   UNL     1     -10.198  13.456   9.966  1.00  0.00     0.010 A 
ATOM     72  C   UNL     1      -8.933  11.613  10.916  1.00  0.00     0.010 A 
ATOM     73  C   UNL     1      -9.637  14.325  10.906  1.00  0.00     0.020 A 
ATOM     74  C   UNL     1      -8.375  12.477  11.859  1.00  0.00     0.020 A 
ATOM     75  C   UNL     1      -8.713  13.834  11.833  1.00  0.00     0.054 A 
BRANCH  75  76
ATOM     76  S   UNL     1      -7.942  14.957  13.031  1.00  0.00     0.124 S 
ATOM     77  O   UNL     1      -6.663  15.246  12.388  1.00  0.00    -0.237 OA
ATOM     78  O   UNL     1      -8.876  16.079  13.095  1.00  0.00    -0.237 OA
ATOM     79  O   UNL     1      -7.867  14.146  14.243  1.00  0.00    -0.744 OA
ENDBRANCH  75  76
ENDBRANCH  56  70
BRANCH  57  80
ATOM     80  C   UNL     1     -12.469   5.819   2.733  1.00  0.00    -0.014 A 
ATOM     81  C   UNL     1     -13.279   6.203   1.651  1.00  0.00     0.010 A 
ATOM     82  C   UNL     1     -11.926   4.524   2.769  1.00  0.00     0.010 A 
ATOM     83  C   UNL     1     -13.527   5.309   0.606  1.00  0.00     0.020 A 
ATOM     84  C   UNL     1     -12.169   3.631   1.724  1.00  0.00     0.020 A 
ATOM     85  C   UNL     1     -12.966   4.030   0.647  1.00  0.00     0.054 A 
BRANCH  85  86
ATOM     86  S   UNL     1     -13.182   2.901  -0.757  1.00  0.00     0.124 S 
ATOM     87  O   UNL     1     -14.291   2.066  -0.307  1.00  0.00    -0.237 OA
ATOM     88  O   UNL     1     -13.480   3.801  -1.869  1.00  0.00    -0.237 OA
ATOM     89  O   UNL     1     -11.883   2.235  -0.840  1.00  0.00    -0.744 OA
ENDBRANCH  85  86
ENDBRANCH  57  80
BRANCH  69  90
ATOM     90  C   UNL     1     -15.331   7.544   8.832  1.00  0.00    -0.014 A 
ATOM     91  C   UNL     1     -15.296   6.403   9.653  1.00  0.00     0.010 A 
ATOM     92  C   UNL     1     -16.532   8.258   8.689  1.00  0.00     0.010 A 
ATOM     93  C   UNL     1     -16.452   5.970  10.308  1.00  0.00     0.020 A 
ATOM     94  C   UNL     1     -17.689   7.828   9.344  1.00  0.00     0.020 A 
ATOM     95  C   UNL     1     -17.645   6.679  10.140  1.00  0.00     0.054 A 
BRANCH  95  96
ATOM     96  S   UNL     1     -19.144   6.136  11.008  1.00  0.00     0.124 S 
ATOM     97  O   UNL     1     -19.773   5.273  10.012  1.00  0.00    -0.237 OA
ATOM     98  O   UNL     1     -18.621   5.453  12.189  1.00  0.00    -0.237 OA
ATOM     99  O   UNL     1     -19.843   7.389  11.282  1.00  0.00    -0.744 OA
ENDBRANCH  95  96
ENDBRANCH  69  90
ENDBRANCH  43  44
ENDBRANCH  35  38
ENDBRANCH  33  34
ENDBRANCH  32  33
ENDBRANCH   1  32
TORSDOF 19
