REMARK SMILES Cc1nsc(N(C)S(=O)(=O)c2cn[nH]c2C)c1C(=O)NCCCNC(=O)c1ccc(-c2c3nc(c(-c4ccc(S(=O)(=O)[O-])cc4)c4ccc([nH]4)c(-c4ccc(S(=O)(=O)[O-])cc4)c4nc(c(-c5ccc(S(=O)(=O)[O-])cc5)c5ccc2[nH]5)C=C4)C=C3)cc1
REMARK SMILES IDX 22 1 21 2 20 3 18 4 19 5 17 7 1 8 2 9 3 10 4 11 5 12 6 13
REMARK SMILES IDX 7 14 8 15 9 16 10 17 11 18 12 19 15 20 13 21 14 22 16 23
REMARK SMILES IDX 23 25 24 26 25 27 26 29 27 30 28 31 86 32 29 33 85 34 30 35
REMARK SMILES IDX 31 36 32 37 79 38 33 39 84 40 78 41 80 42 34 43 83 44 77 45
REMARK SMILES IDX 76 46 35 48 65 49 46 50 64 51 47 52 50 53 63 54 81 55 48 56
REMARK SMILES IDX 49 57 62 59 82 60 51 61 36 62 37 63 45 64 38 65 44 66 39 67
REMARK SMILES IDX 40 68 41 69 42 70 43 71 66 72 67 73 75 74 68 75 74 76 69 77
REMARK SMILES IDX 70 78 71 79 72 80 73 81 52 82 53 83 61 84 54 85 60 86 55 87
REMARK SMILES IDX 56 88 57 89 58 90 59 91
REMARK H PARENT 20 6 14 24 24 28 80 47 50 58
REMARK Flexibility Score: inf
ROOT
ATOM      1  C   UNL     1       0.854   2.054  -0.497  1.00  0.00     0.042 C 
ENDROOT
BRANCH   1   2
ATOM      2  C   UNL     1      -0.475   1.286  -0.354  1.00  0.00     0.118 C 
BRANCH   2   3
ATOM      3  N   UNL     1      -0.892   0.704  -1.620  1.00  0.00    -0.352 N 
ATOM      4  C   UNL     1      -0.322  -0.350  -2.304  1.00  0.00     0.256 C 
ATOM      5  O   UNL     1      -0.018  -0.156  -3.476  1.00  0.00    -0.269 OA
ATOM      6  H   UNL     1      -1.680   1.115  -2.043  1.00  0.00     0.163 HD
BRANCH   4   7
ATOM      7  C   UNL     1      -0.129  -1.642  -1.653  1.00  0.00     0.098 A 
ATOM      8  C   UNL     1       1.918  -0.979  -0.082  1.00  0.00     0.069 C 
ATOM      9  C   UNL     1       0.860  -1.891  -0.600  1.00  0.00     0.066 A 
ATOM     10  N   UNL     1       0.851  -3.097  -0.044  1.00  0.00    -0.195 NA
ATOM     11  S   UNL     1      -0.246  -4.024  -0.810  1.00  0.00    -0.017 S 
ATOM     12  C   UNL     1      -0.688  -2.877  -2.045  1.00  0.00     0.138 A 
BRANCH  12  13
ATOM     13  N   UNL     1      -1.553  -3.350  -3.154  1.00  0.00    -0.258 N 
ATOM     14  C   UNL     1      -1.333  -4.743  -3.620  1.00  0.00     0.165 C 
BRANCH  13  15
ATOM     15  S   UNL     1      -2.003  -2.253  -4.387  1.00  0.00     0.268 S 
ATOM     16  O   UNL     1      -2.715  -1.162  -3.745  1.00  0.00    -0.201 OA
ATOM     17  O   UNL     1      -0.858  -2.073  -5.247  1.00  0.00    -0.201 OA
BRANCH  15  18
ATOM     18  C   UNL     1      -3.173  -2.862  -5.522  1.00  0.00     0.128 A 
ATOM     19  C   UNL     1      -3.384  -4.189  -5.936  1.00  0.00     0.157 A 
ATOM     20  C   UNL     1      -3.974  -2.120  -6.382  1.00  0.00     0.053 A 
ATOM     21  N   UNL     1      -4.278  -4.300  -6.922  1.00  0.00    -0.183 NA
ATOM     22  N   UNL     1      -4.561  -3.023  -7.229  1.00  0.00    -0.281 N 
ATOM     23  C   UNL     1      -4.195  -0.667  -6.573  1.00  0.00     0.067 C 
ATOM     24  H   UNL     1      -5.133  -2.763  -7.987  1.00  0.00     0.190 HD
ENDBRANCH  15  18
ENDBRANCH  13  15
ENDBRANCH  12  13
ENDBRANCH   4   7
ENDBRANCH   2   3
ENDBRANCH   1   2
BRANCH   1  25
ATOM     25  C   UNL     1       0.710   3.449  -1.083  1.00  0.00     0.118 C 
BRANCH  25  26
ATOM     26  N   UNL     1       0.183   4.419  -0.128  1.00  0.00    -0.352 N 
ATOM     27  C   UNL     1      -0.099   5.755  -0.350  1.00  0.00     0.251 C 
ATOM     28  H   UNL     1       0.009   4.083   0.781  1.00  0.00     0.163 HD
ATOM     29  O   UNL     1      -0.194   6.532   0.594  1.00  0.00    -0.269 OA
BRANCH  27  30
ATOM     30  C   UNL     1      -0.252   6.229  -1.738  1.00  0.00     0.039 A 
ATOM     31  C   UNL     1       0.313   7.437  -2.158  1.00  0.00     0.014 A 
ATOM     32  C   UNL     1      -0.926   5.415  -2.641  1.00  0.00     0.014 A 
ATOM     33  C   UNL     1       0.275   7.770  -3.514  1.00  0.00     0.010 A 
ATOM     34  C   UNL     1      -0.820   5.664  -3.989  1.00  0.00     0.010 A 
ATOM     35  C   UNL     1      -0.272   6.865  -4.435  1.00  0.00    -0.014 A 
BRANCH  35  36
ATOM     36  C   UNL     1      -0.230   7.130  -5.874  1.00  0.00     0.031 A 
ATOM     37  C   UNL     1       1.103   7.431  -6.471  1.00  0.00     0.074 A 
ATOM     38  C   UNL     1      -1.281   6.891  -6.688  1.00  0.00     0.049 A 
ATOM     39  N   UNL     1       1.478   8.520  -7.057  1.00  0.00    -0.248 NA
ATOM     40  C   UNL     1       2.169   6.425  -6.351  1.00  0.00     0.031 C 
ATOM     41  C   UNL     1      -2.583   6.306  -6.344  1.00  0.00     0.029 A 
ATOM     42  N   UNL     1      -1.343   6.982  -8.045  1.00  0.00    -0.354 N 
ATOM     43  C   UNL     1       2.767   8.291  -7.535  1.00  0.00     0.074 A 
ATOM     44  C   UNL     1       3.190   7.039  -6.956  1.00  0.00     0.031 C 
ATOM     45  C   UNL     1      -3.178   5.846  -7.464  1.00  0.00     0.029 A 
ATOM     46  C   UNL     1      -2.395   6.274  -8.608  1.00  0.00     0.049 A 
ATOM     47  H   UNL     1      -0.701   7.504  -8.578  1.00  0.00     0.167 HD
ATOM     48  C   UNL     1       3.327   9.054  -8.518  1.00  0.00     0.031 A 
ATOM     49  C   UNL     1      -2.602   6.023  -9.922  1.00  0.00     0.031 A 
ATOM     50  C   UNL     1       2.542  10.227  -8.801  1.00  0.00     0.049 A 
ATOM     51  C   UNL     1      -1.844   7.043 -10.685  1.00  0.00     0.074 A 
ATOM     52  C   UNL     1       2.131  11.325  -8.072  1.00  0.00     0.029 A 
ATOM     53  N   UNL     1       1.736  10.189  -9.916  1.00  0.00    -0.354 N 
ATOM     54  N   UNL     1      -2.139   8.313 -10.663  1.00  0.00    -0.248 NA
ATOM     55  C   UNL     1      -0.497   6.729 -11.134  1.00  0.00     0.031 C 
ATOM     56  C   UNL     1       0.805  11.587  -8.526  1.00  0.00     0.029 A 
ATOM     57  C   UNL     1       0.509  10.675  -9.542  1.00  0.00     0.049 A 
ATOM     58  H   UNL     1       1.992   9.872 -10.813  1.00  0.00     0.167 HD
ATOM     59  C   UNL     1      -0.913   8.963 -10.659  1.00  0.00     0.074 A 
ATOM     60  C   UNL     1       0.049   7.949 -11.082  1.00  0.00     0.031 C 
ATOM     61  C   UNL     1      -0.755  10.175 -10.044  1.00  0.00     0.031 A 
BRANCH  48  62
ATOM     62  C   UNL     1       4.402   8.590  -9.470  1.00  0.00    -0.014 A 
ATOM     63  C   UNL     1       4.999   9.527 -10.341  1.00  0.00     0.010 A 
ATOM     64  C   UNL     1       4.652   7.228  -9.728  1.00  0.00     0.010 A 
ATOM     65  C   UNL     1       5.746   9.117 -11.455  1.00  0.00     0.020 A 
ATOM     66  C   UNL     1       5.433   6.810 -10.810  1.00  0.00     0.020 A 
ATOM     67  C   UNL     1       5.941   7.757 -11.691  1.00  0.00     0.054 A 
BRANCH  67  68
ATOM     68  S   UNL     1       6.788   7.230 -13.202  1.00  0.00     0.124 S 
ATOM     69  O   UNL     1       5.824   7.606 -14.232  1.00  0.00    -0.237 OA
ATOM     70  O   UNL     1       8.016   8.020 -13.164  1.00  0.00    -0.237 OA
ATOM     71  O   UNL     1       6.971   5.794 -13.009  1.00  0.00    -0.744 OA
ENDBRANCH  67  68
ENDBRANCH  48  62
BRANCH  49  72
ATOM     72  C   UNL     1      -3.241   4.833 -10.529  1.00  0.00    -0.014 A 
ATOM     73  C   UNL     1      -3.658   4.834 -11.871  1.00  0.00     0.010 A 
ATOM     74  C   UNL     1      -3.217   3.596  -9.848  1.00  0.00     0.010 A 
ATOM     75  C   UNL     1      -3.985   3.633 -12.524  1.00  0.00     0.020 A 
ATOM     76  C   UNL     1      -3.552   2.399 -10.488  1.00  0.00     0.020 A 
ATOM     77  C   UNL     1      -3.911   2.420 -11.832  1.00  0.00     0.054 A 
BRANCH  77  78
ATOM     78  S   UNL     1      -4.170   0.861 -12.727  1.00  0.00     0.124 S 
ATOM     79  O   UNL     1      -5.587   0.931 -13.072  1.00  0.00    -0.237 OA
ATOM     80  O   UNL     1      -3.239   0.980 -13.845  1.00  0.00    -0.237 OA
ATOM     81  O   UNL     1      -3.827  -0.164 -11.741  1.00  0.00    -0.744 OA
ENDBRANCH  77  78
ENDBRANCH  49  72
BRANCH  61  82
ATOM     82  C   UNL     1      -1.993  10.923  -9.596  1.00  0.00    -0.014 A 
ATOM     83  C   UNL     1      -2.920  10.400  -8.671  1.00  0.00     0.010 A 
ATOM     84  C   UNL     1      -2.136  12.264  -9.994  1.00  0.00     0.010 A 
ATOM     85  C   UNL     1      -3.974  11.186  -8.184  1.00  0.00     0.020 A 
ATOM     86  C   UNL     1      -3.173  13.059  -9.496  1.00  0.00     0.020 A 
ATOM     87  C   UNL     1      -4.093  12.513  -8.601  1.00  0.00     0.054 A 
BRANCH  87  88
ATOM     88  S   UNL     1      -5.425  13.542  -7.921  1.00  0.00     0.124 S 
ATOM     89  O   UNL     1      -6.614  12.986  -8.562  1.00  0.00    -0.237 OA
ATOM     90  O   UNL     1      -5.318  13.307  -6.483  1.00  0.00    -0.237 OA
ATOM     91  O   UNL     1      -5.070  14.896  -8.345  1.00  0.00    -0.744 OA
ENDBRANCH  87  88
ENDBRANCH  61  82
ENDBRANCH  35  36
ENDBRANCH  27  30
ENDBRANCH  25  26
ENDBRANCH   1  25
TORSDOF 16
