REMARK SMILES COc1ccc(C2=NO[C@](C)(C(=O)NCCCNC(=O)c3ccc(-c4c5nc(c(-c6ccc(S(=O)(=O)[O-])cc6)c6ccc([nH]6)c(-c6ccc(S(=O)(=O)[O-])cc6)c6nc(c(-c7ccc(S(=O)(=O)[O-])cc7)c7ccc4[nH]7)C=C6)C=C5)cc3)C2)c(OC)c1OC
REMARK SMILES IDX 16 1 15 2 14 3 12 4 13 5 10 7 7 8 8 9 81 10 9 11 11 12 6 13
REMARK SMILES IDX 3 14 4 15 85 16 5 17 82 18 2 19 1 20 86 21 87 22 83 23 84 24
REMARK SMILES IDX 17 25 18 26 19 27 20 29 21 30 22 31 80 32 23 33 79 34 24 35
REMARK SMILES IDX 25 36 26 37 73 38 27 39 78 40 72 41 74 42 28 43 77 44 71 45
REMARK SMILES IDX 70 46 29 48 59 49 40 50 58 51 41 52 44 53 57 54 75 55 42 56
REMARK SMILES IDX 43 57 56 59 76 60 45 61 30 62 31 63 39 64 32 65 38 66 33 67
REMARK SMILES IDX 34 68 35 69 36 70 37 71 60 72 61 73 69 74 62 75 68 76 63 77
REMARK SMILES IDX 64 78 65 79 66 80 67 81 46 82 47 83 55 84 48 85 54 86 49 87
REMARK SMILES IDX 50 88 51 89 52 90 53 91
REMARK H PARENT 14 6 18 28 74 47 44 58
REMARK Flexibility Score: inf
ROOT
ATOM      1  C   UNL     1       0.686   8.578   0.443  1.00  0.00     0.042 C 
ENDROOT
BRANCH   1   2
ATOM      2  C   UNL     1       0.293   9.110  -0.935  1.00  0.00     0.118 C 
BRANCH   2   3
ATOM      3  N   UNL     1       1.447   9.606  -1.664  1.00  0.00    -0.352 N 
ATOM      4  C   UNL     1       2.226   9.034  -2.633  1.00  0.00     0.267 C 
ATOM      5  O   UNL     1       3.199   9.700  -2.999  1.00  0.00    -0.270 OA
ATOM      6  H   UNL     1       1.718  10.520  -1.417  1.00  0.00     0.163 HD
BRANCH   4   7
ATOM      7  C   UNL     1       1.843   7.693  -3.303  1.00  0.00     0.217 C 
ATOM      8  C   UNL     1       2.118   5.434  -3.003  1.00  0.00     0.095 C 
ATOM      9  N   UNL     1       2.956   5.747  -3.935  1.00  0.00    -0.089 NA
ATOM     10  C   UNL     1       1.469   6.590  -2.337  1.00  0.00     0.122 C 
ATOM     11  O   UNL     1       2.992   7.166  -3.997  1.00  0.00    -0.379 OA
ATOM     12  C   UNL     1       0.773   7.973  -4.361  1.00  0.00     0.071 C 
BRANCH   8  13
ATOM     13  C   UNL     1       1.794   4.060  -2.571  1.00  0.00     0.046 A 
ATOM     14  C   UNL     1       1.075   1.503  -1.743  1.00  0.00     0.164 A 
ATOM     15  C   UNL     1       0.092   2.397  -2.181  1.00  0.00     0.051 A 
ATOM     16  C   UNL     1       2.438   1.869  -1.729  1.00  0.00     0.203 A 
ATOM     17  C   UNL     1       0.449   3.673  -2.599  1.00  0.00     0.018 A 
ATOM     18  C   UNL     1       2.800   3.179  -2.122  1.00  0.00     0.173 A 
BRANCH  14  19
ATOM     19  O   UNL     1       0.679   0.221  -1.458  1.00  0.00    -0.493 OA
ATOM     20  C   UNL     1      -0.054   0.144  -0.231  1.00  0.00     0.278 C 
ENDBRANCH  14  19
BRANCH  16  21
ATOM     21  O   UNL     1       3.453   0.989  -1.454  1.00  0.00    -0.490 OA
ATOM     22  C   UNL     1       3.236   0.020  -0.435  1.00  0.00     0.278 C 
ENDBRANCH  16  21
BRANCH  18  23
ATOM     23  O   UNL     1       4.057   3.730  -2.099  1.00  0.00    -0.492 OA
ATOM     24  C   UNL     1       5.118   3.051  -1.447  1.00  0.00     0.278 C 
ENDBRANCH  18  23
ENDBRANCH   8  13
ENDBRANCH   4   7
ENDBRANCH   2   3
ENDBRANCH   1   2
BRANCH   1  25
ATOM     25  C   UNL     1       0.986   9.680   1.455  1.00  0.00     0.118 C 
BRANCH  25  26
ATOM     26  N   UNL     1      -0.215  10.414   1.832  1.00  0.00    -0.352 N 
ATOM     27  C   UNL     1      -0.819  10.544   3.056  1.00  0.00     0.251 C 
ATOM     28  H   UNL     1      -0.662  10.889   1.094  1.00  0.00     0.163 HD
ATOM     29  O   UNL     1      -1.958  11.012   3.118  1.00  0.00    -0.269 OA
BRANCH  27  30
ATOM     30  C   UNL     1      -0.128  10.115   4.291  1.00  0.00     0.039 A 
ATOM     31  C   UNL     1      -0.857   9.447   5.278  1.00  0.00     0.014 A 
ATOM     32  C   UNL     1       1.228  10.391   4.491  1.00  0.00     0.014 A 
ATOM     33  C   UNL     1      -0.212   8.994   6.432  1.00  0.00     0.010 A 
ATOM     34  C   UNL     1       1.884   9.875   5.606  1.00  0.00     0.010 A 
ATOM     35  C   UNL     1       1.173   9.167   6.587  1.00  0.00    -0.014 A 
BRANCH  35  36
ATOM     36  C   UNL     1       1.900   8.594   7.749  1.00  0.00     0.031 A 
ATOM     37  C   UNL     1       2.601   9.495   8.729  1.00  0.00     0.074 A 
ATOM     38  C   UNL     1       1.991   7.255   7.877  1.00  0.00     0.049 A 
ATOM     39  N   UNL     1       3.351   9.174   9.752  1.00  0.00    -0.248 NA
ATOM     40  C   UNL     1       2.460  10.946   8.520  1.00  0.00     0.031 C 
ATOM     41  C   UNL     1       1.385   6.274   6.973  1.00  0.00     0.029 A 
ATOM     42  N   UNL     1       2.640   6.486   8.811  1.00  0.00    -0.354 N 
ATOM     43  C   UNL     1       3.783  10.377  10.298  1.00  0.00     0.074 A 
ATOM     44  C   UNL     1       3.249  11.433   9.467  1.00  0.00     0.031 C 
ATOM     45  C   UNL     1       1.672   5.038   7.408  1.00  0.00     0.029 A 
ATOM     46  C   UNL     1       2.523   5.133   8.589  1.00  0.00     0.049 A 
ATOM     47  H   UNL     1       3.142   6.866   9.568  1.00  0.00     0.167 HD
ATOM     48  C   UNL     1       4.543  10.583  11.401  1.00  0.00     0.031 A 
ATOM     49  C   UNL     1       3.054   4.085   9.249  1.00  0.00     0.031 A 
ATOM     50  C   UNL     1       5.070   9.527  12.225  1.00  0.00     0.049 A 
ATOM     51  C   UNL     1       3.921   4.340  10.451  1.00  0.00     0.074 A 
ATOM     52  C   UNL     1       5.804   9.635  13.394  1.00  0.00     0.029 A 
ATOM     53  N   UNL     1       4.929   8.172  11.966  1.00  0.00    -0.354 N 
ATOM     54  N   UNL     1       4.260   5.486  10.993  1.00  0.00    -0.248 NA
ATOM     55  C   UNL     1       4.474   3.162  11.133  1.00  0.00     0.031 C 
ATOM     56  C   UNL     1       6.159   8.347  13.807  1.00  0.00     0.029 A 
ATOM     57  C   UNL     1       5.590   7.434  12.933  1.00  0.00     0.049 A 
ATOM     58  H   UNL     1       4.432   7.791  11.206  1.00  0.00     0.167 HD
ATOM     59  C   UNL     1       5.048   5.165  12.093  1.00  0.00     0.074 A 
ATOM     60  C   UNL     1       5.120   3.719  12.149  1.00  0.00     0.031 C 
ATOM     61  C   UNL     1       5.657   5.995  12.976  1.00  0.00     0.031 A 
BRANCH  48  62
ATOM     62  C   UNL     1       4.861  12.008  11.775  1.00  0.00    -0.014 A 
ATOM     63  C   UNL     1       3.863  12.873  12.258  1.00  0.00     0.010 A 
ATOM     64  C   UNL     1       6.186  12.474  11.690  1.00  0.00     0.010 A 
ATOM     65  C   UNL     1       4.175  14.190  12.609  1.00  0.00     0.020 A 
ATOM     66  C   UNL     1       6.508  13.781  12.069  1.00  0.00     0.020 A 
ATOM     67  C   UNL     1       5.497  14.636  12.510  1.00  0.00     0.054 A 
BRANCH  67  68
ATOM     68  S   UNL     1       5.875  16.342  12.996  1.00  0.00     0.124 S 
ATOM     69  O   UNL     1       5.269  17.105  11.907  1.00  0.00    -0.237 OA
ATOM     70  O   UNL     1       5.210  16.460  14.291  1.00  0.00    -0.237 OA
ATOM     71  O   UNL     1       7.334  16.375  13.042  1.00  0.00    -0.744 OA
ENDBRANCH  67  68
ENDBRANCH  48  62
BRANCH  49  72
ATOM     72  C   UNL     1       2.780   2.698   8.782  1.00  0.00    -0.014 A 
ATOM     73  C   UNL     1       1.969   1.834   9.538  1.00  0.00     0.010 A 
ATOM     74  C   UNL     1       3.316   2.240   7.564  1.00  0.00     0.010 A 
ATOM     75  C   UNL     1       1.709   0.535   9.092  1.00  0.00     0.020 A 
ATOM     76  C   UNL     1       3.034   0.952   7.100  1.00  0.00     0.020 A 
ATOM     77  C   UNL     1       2.239   0.104   7.873  1.00  0.00     0.054 A 
BRANCH  77  78
ATOM     78  S   UNL     1       1.835  -1.563   7.280  1.00  0.00     0.124 S 
ATOM     79  O   UNL     1       2.639  -2.403   8.160  1.00  0.00    -0.237 OA
ATOM     80  O   UNL     1       0.390  -1.628   7.485  1.00  0.00    -0.237 OA
ATOM     81  O   UNL     1       2.253  -1.537   5.879  1.00  0.00    -0.744 OA
ENDBRANCH  77  78
ENDBRANCH  49  72
BRANCH  61  82
ATOM     82  C   UNL     1       6.438   5.364  14.098  1.00  0.00    -0.014 A 
ATOM     83  C   UNL     1       7.673   4.735  13.862  1.00  0.00     0.010 A 
ATOM     84  C   UNL     1       5.961   5.466  15.418  1.00  0.00     0.010 A 
ATOM     85  C   UNL     1       8.407   4.201  14.924  1.00  0.00     0.020 A 
ATOM     86  C   UNL     1       6.707   4.959  16.485  1.00  0.00     0.020 A 
ATOM     87  C   UNL     1       7.921   4.320  16.230  1.00  0.00     0.054 A 
BRANCH  87  88
ATOM     88  S   UNL     1       8.925   3.673  17.595  1.00  0.00     0.124 S 
ATOM     89  O   UNL     1       8.780   2.231  17.422  1.00  0.00    -0.237 OA
ATOM     90  O   UNL     1      10.250   4.212  17.300  1.00  0.00    -0.237 OA
ATOM     91  O   UNL     1       8.285   4.224  18.788  1.00  0.00    -0.744 OA
ENDBRANCH  87  88
ENDBRANCH  61  82
ENDBRANCH  35  36
ENDBRANCH  27  30
ENDBRANCH  25  26
ENDBRANCH   1  25
TORSDOF 17
