REMARK SMILES O=C(NCCCNC(=O)c1sccc1S(=O)(=O)Nc1ccc(-c2nc3ccccc3n2C(F)F)cc1)c1ccc(-c2c3nc(c(-c4ccc(S(=O)(=O)[O-])cc4)c4ccc([nH]4)c(-c4ccc(S(=O)(=O)[O-])cc4)c4nc(c(-c5ccc(S(=O)(=O)[O-])cc5)c5ccc2[nH]5)C=C4)C=C3)cc1
REMARK SMILES IDX 6 1 5 2 4 3 3 4 1 5 2 6 37 8 38 9 96 10 39 11 95 12 40 13
REMARK SMILES IDX 41 14 42 15 89 16 43 17 94 18 88 19 90 20 44 21 93 22 87 23
REMARK SMILES IDX 86 24 45 26 75 27 56 28 74 29 57 30 60 31 73 32 91 33 58 34
REMARK SMILES IDX 59 35 72 37 92 38 61 39 46 40 47 41 55 42 48 43 54 44 49 45
REMARK SMILES IDX 50 46 51 47 52 48 53 49 76 50 77 51 85 52 78 53 84 54 79 55
REMARK SMILES IDX 80 56 81 57 82 58 83 59 62 60 63 61 71 62 64 63 70 64 65 65
REMARK SMILES IDX 66 66 67 67 68 68 69 69 7 70 8 71 9 73 10 74 11 75 14 76
REMARK SMILES IDX 12 77 13 78 15 79 16 80 17 81 18 82 19 84 20 85 36 86 21 87
REMARK SMILES IDX 35 88 22 89 23 90 24 91 31 92 25 93 30 94 26 95 29 96 27 97
REMARK SMILES IDX 28 98 32 99 33 100 34 101
REMARK H PARENT 3 7 90 25 60 36 7 72 18 83
REMARK Flexibility Score: inf
ROOT
ATOM      1  C   UNL     1       5.160  -3.114  -0.632  1.00  0.00     0.118 C 
ENDROOT
BRANCH   1   2
ATOM      2  C   UNL     1       5.274  -1.900   0.279  1.00  0.00     0.042 C 
BRANCH   2   3
ATOM      3  C   UNL     1       4.905  -0.553  -0.361  1.00  0.00     0.118 C 
BRANCH   3   4
ATOM      4  N   UNL     1       3.527  -0.376  -0.777  1.00  0.00    -0.352 N 
ATOM      5  O   UNL     1       1.449   0.374  -0.870  1.00  0.00    -0.269 OA
ATOM      6  C   UNL     1       2.385   0.035  -0.142  1.00  0.00     0.251 C 
ATOM      7  H   UNL     1       3.380  -0.600  -1.725  1.00  0.00     0.163 HD
BRANCH   6   8
ATOM      8  C   UNL     1       2.191   0.011   1.329  1.00  0.00     0.039 A 
ATOM      9  C   UNL     1       3.209  -0.206   2.254  1.00  0.00     0.014 A 
ATOM     10  C   UNL     1       0.870   0.141   1.796  1.00  0.00     0.014 A 
ATOM     11  C   UNL     1       2.911  -0.454   3.582  1.00  0.00     0.010 A 
ATOM     12  C   UNL     1       0.569  -0.050   3.140  1.00  0.00     0.010 A 
ATOM     13  C   UNL     1       1.589  -0.402   4.019  1.00  0.00    -0.014 A 
BRANCH  13  14
ATOM     14  C   UNL     1       1.373  -0.597   5.446  1.00  0.00     0.031 A 
ATOM     15  C   UNL     1       2.025   0.417   6.320  1.00  0.00     0.074 A 
ATOM     16  C   UNL     1       0.577  -1.547   5.964  1.00  0.00     0.049 A 
ATOM     17  N   UNL     1       2.952   0.245   7.205  1.00  0.00    -0.248 NA
ATOM     18  C   UNL     1       1.669   1.825   6.085  1.00  0.00     0.031 C 
ATOM     19  C   UNL     1      -0.362  -2.416   5.254  1.00  0.00     0.029 A 
ATOM     20  N   UNL     1       0.354  -1.843   7.276  1.00  0.00    -0.354 N 
ATOM     21  C   UNL     1       3.164   1.496   7.781  1.00  0.00     0.074 A 
ATOM     22  C   UNL     1       2.463   2.446   6.955  1.00  0.00     0.031 C 
ATOM     23  C   UNL     1      -1.218  -2.956   6.149  1.00  0.00     0.029 A 
ATOM     24  C   UNL     1      -0.803  -2.575   7.490  1.00  0.00     0.049 A 
ATOM     25  H   UNL     1       0.958  -1.563   8.001  1.00  0.00     0.167 HD
ATOM     26  C   UNL     1       3.719   1.649   9.016  1.00  0.00     0.031 A 
ATOM     27  C   UNL     1      -1.426  -2.766   8.678  1.00  0.00     0.031 A 
ATOM     28  C   UNL     1       4.397   0.462   9.462  1.00  0.00     0.049 A 
ATOM     29  C   UNL     1      -0.447  -2.498   9.758  1.00  0.00     0.074 A 
ATOM     30  C   UNL     1       5.460  -0.292   9.006  1.00  0.00     0.029 A 
ATOM     31  N   UNL     1       3.762  -0.310  10.405  1.00  0.00    -0.354 N 
ATOM     32  N   UNL     1       0.594  -3.245   9.997  1.00  0.00    -0.248 NA
ATOM     33  C   UNL     1      -0.405  -1.170  10.352  1.00  0.00     0.031 C 
ATOM     34  C   UNL     1       5.143  -1.635   9.361  1.00  0.00     0.029 A 
ATOM     35  C   UNL     1       3.921  -1.619  10.036  1.00  0.00     0.049 A 
ATOM     36  H   UNL     1       3.282   0.017  11.200  1.00  0.00     0.167 HD
ATOM     37  C   UNL     1       1.582  -2.365  10.413  1.00  0.00     0.074 A 
ATOM     38  C   UNL     1       0.876  -1.126  10.724  1.00  0.00     0.031 C 
ATOM     39  C   UNL     1       2.905  -2.637  10.206  1.00  0.00     0.031 A 
BRANCH  26  40
ATOM     40  C   UNL     1       3.296   2.733   9.984  1.00  0.00    -0.014 A 
ATOM     41  C   UNL     1       3.929   2.805  11.243  1.00  0.00     0.010 A 
ATOM     42  C   UNL     1       2.105   3.472   9.826  1.00  0.00     0.010 A 
ATOM     43  C   UNL     1       3.335   3.481  12.317  1.00  0.00     0.020 A 
ATOM     44  C   UNL     1       1.531   4.191  10.875  1.00  0.00     0.020 A 
ATOM     45  C   UNL     1       2.123   4.146  12.129  1.00  0.00     0.054 A 
BRANCH  45  46
ATOM     46  S   UNL     1       1.270   4.863  13.554  1.00  0.00     0.124 S 
ATOM     47  O   UNL     1       0.864   3.668  14.286  1.00  0.00    -0.237 OA
ATOM     48  O   UNL     1       2.321   5.664  14.175  1.00  0.00    -0.237 OA
ATOM     49  O   UNL     1       0.184   5.630  12.949  1.00  0.00    -0.744 OA
ENDBRANCH  45  46
ENDBRANCH  26  40
BRANCH  27  50
ATOM     50  C   UNL     1      -2.888  -2.846   8.913  1.00  0.00    -0.014 A 
ATOM     51  C   UNL     1      -3.401  -3.295  10.143  1.00  0.00     0.010 A 
ATOM     52  C   UNL     1      -3.783  -2.231   8.013  1.00  0.00     0.010 A 
ATOM     53  C   UNL     1      -4.750  -3.088  10.479  1.00  0.00     0.020 A 
ATOM     54  C   UNL     1      -5.129  -2.034   8.334  1.00  0.00     0.020 A 
ATOM     55  C   UNL     1      -5.601  -2.443   9.577  1.00  0.00     0.054 A 
BRANCH  55  56
ATOM     56  S   UNL     1      -7.295  -2.026  10.083  1.00  0.00     0.124 S 
ATOM     57  O   UNL     1      -7.943  -3.334  10.103  1.00  0.00    -0.237 OA
ATOM     58  O   UNL     1      -7.092  -1.400  11.386  1.00  0.00    -0.237 OA
ATOM     59  O   UNL     1      -7.755  -1.121   9.031  1.00  0.00    -0.744 OA
ENDBRANCH  55  56
ENDBRANCH  27  50
BRANCH  39  60
ATOM     60  C   UNL     1       3.306  -4.046   9.844  1.00  0.00    -0.014 A 
ATOM     61  C   UNL     1       2.854  -4.706   8.685  1.00  0.00     0.010 A 
ATOM     62  C   UNL     1       4.300  -4.664  10.624  1.00  0.00     0.010 A 
ATOM     63  C   UNL     1       3.369  -5.960   8.329  1.00  0.00     0.020 A 
ATOM     64  C   UNL     1       4.831  -5.905  10.265  1.00  0.00     0.020 A 
ATOM     65  C   UNL     1       4.358  -6.551   9.122  1.00  0.00     0.054 A 
BRANCH  65  66
ATOM     66  S   UNL     1       5.072  -8.139   8.613  1.00  0.00     0.124 S 
ATOM     67  O   UNL     1       3.975  -9.072   8.852  1.00  0.00    -0.237 OA
ATOM     68  O   UNL     1       5.410  -7.909   7.210  1.00  0.00    -0.237 OA
ATOM     69  O   UNL     1       6.226  -8.301   9.498  1.00  0.00    -0.744 OA
ENDBRANCH  65  66
ENDBRANCH  39  60
ENDBRANCH  13  14
ENDBRANCH   6   8
ENDBRANCH   3   4
ENDBRANCH   2   3
ENDBRANCH   1   2
BRANCH   1  70
ATOM     70  N   UNL     1       6.015  -3.001  -1.792  1.00  0.00    -0.351 N 
ATOM     71  C   UNL     1       6.598  -3.967  -2.560  1.00  0.00     0.262 C 
ATOM     72  H   UNL     1       6.210  -2.078  -2.073  1.00  0.00     0.163 HD
ATOM     73  O   UNL     1       7.416  -3.565  -3.392  1.00  0.00    -0.268 OA
BRANCH  71  74
ATOM     74  C   UNL     1       6.319  -5.367  -2.337  1.00  0.00     0.112 A 
ATOM     75  S   UNL     1       7.741  -6.346  -2.164  1.00  0.00    -0.137 S 
ATOM     76  C   UNL     1       5.176  -6.150  -2.298  1.00  0.00     0.111 A 
ATOM     77  C   UNL     1       6.843  -7.770  -1.950  1.00  0.00     0.067 A 
ATOM     78  C   UNL     1       5.494  -7.532  -2.029  1.00  0.00     0.035 A 
BRANCH  76  79
ATOM     79  S   UNL     1       3.506  -5.741  -2.560  1.00  0.00     0.263 S 
ATOM     80  O   UNL     1       3.105  -6.658  -3.601  1.00  0.00    -0.201 OA
ATOM     81  O   UNL     1       2.946  -5.843  -1.225  1.00  0.00    -0.201 OA
BRANCH  79  82
ATOM     82  N   UNL     1       3.141  -4.206  -3.064  1.00  0.00    -0.280 N 
ATOM     83  H   UNL     1       2.409  -3.745  -2.594  1.00  0.00     0.180 HD
BRANCH  82  84
ATOM     84  C   UNL     1       3.780  -3.496  -4.101  1.00  0.00     0.049 A 
ATOM     85  C   UNL     1       3.717  -2.103  -4.028  1.00  0.00     0.027 A 
ATOM     86  C   UNL     1       4.560  -4.096  -5.075  1.00  0.00     0.027 A 
ATOM     87  C   UNL     1       4.608  -1.311  -4.759  1.00  0.00     0.014 A 
ATOM     88  C   UNL     1       5.440  -3.303  -5.812  1.00  0.00     0.014 A 
ATOM     89  C   UNL     1       5.544  -1.914  -5.597  1.00  0.00     0.018 A 
BRANCH  89  90
ATOM     90  C   UNL     1       6.672  -1.221  -6.237  1.00  0.00     0.145 A 
ATOM     91  N   UNL     1       7.185  -1.639  -7.384  1.00  0.00    -0.228 NA
ATOM     92  N   UNL     1       7.468  -0.212  -5.716  1.00  0.00    -0.266 N 
ATOM     93  C   UNL     1       8.376  -0.998  -7.540  1.00  0.00     0.089 A 
ATOM     94  C   UNL     1       8.593  -0.089  -6.514  1.00  0.00     0.074 A 
ATOM     95  C   UNL     1       9.339  -1.171  -8.543  1.00  0.00     0.030 A 
ATOM     96  C   UNL     1       9.760   0.686  -6.443  1.00  0.00     0.029 A 
ATOM     97  C   UNL     1      10.513  -0.416  -8.484  1.00  0.00     0.002 A 
ATOM     98  C   UNL     1      10.717   0.498  -7.450  1.00  0.00     0.002 A 
BRANCH  92  99
ATOM     99  C   UNL     1       7.226   0.573  -4.525  1.00  0.00     0.451 C 
ATOM    100  F   UNL     1       6.156   1.397  -4.691  1.00  0.00    -0.185 F 
ATOM    101  F   UNL     1       6.970  -0.190  -3.428  1.00  0.00    -0.185 F 
ENDBRANCH  92  99
ENDBRANCH  89  90
ENDBRANCH  82  84
ENDBRANCH  79  82
ENDBRANCH  76  79
ENDBRANCH  71  74
ENDBRANCH   1  70
TORSDOF 18
