REMARK SMILES Cc1ccc2[nH]cc([C@@H](C(=O)NCCCNC(=O)c3ccc(-c4c5nc(c(-c6ccc(S(=O)(=O)[O-])cc6)c6ccc([nH]6)c(-c6ccc(S(=O)(=O)[O-])cc6)c6nc(c(-c7ccc(S(=O)(=O)[O-])cc7)c7ccc4[nH]7)C=C6)C=C5)cc3)[NH+]3CCN(c4ccc(F)cc4)CC3)c2c1
REMARK SMILES IDX 14 1 13 2 12 3 10 4 11 5 9 7 8 8 1 9 2 10 3 11 93 12 4 13
REMARK SMILES IDX 92 14 5 15 6 16 7 17 79 19 80 20 91 21 81 23 90 24 82 25
REMARK SMILES IDX 83 26 84 27 89 28 85 29 88 30 86 31 87 32 15 33 16 34 17 35
REMARK SMILES IDX 18 37 19 38 20 39 78 40 21 41 77 42 22 43 23 44 24 45 71 46
REMARK SMILES IDX 25 47 76 48 70 49 72 50 26 51 75 52 69 53 68 54 27 56 57 57
REMARK SMILES IDX 38 58 56 59 39 60 42 61 55 62 73 63 40 64 41 65 54 67 74 68
REMARK SMILES IDX 43 69 28 70 29 71 37 72 30 73 36 74 31 75 32 76 33 77 34 78
REMARK SMILES IDX 35 79 58 80 59 81 67 82 60 83 66 84 61 85 62 86 63 87 64 88
REMARK SMILES IDX 65 89 44 90 45 91 53 92 46 93 52 94 47 95 48 96 49 97 50 98
REMARK SMILES IDX 51 99
REMARK H PARENT 12 6 6 18 79 22 16 36 72 55 42 66
REMARK Flexibility Score: inf
ROOT
ATOM      1  C   UNL     1      -0.619  -1.459   3.587  1.00  0.00     0.042 C 
ENDROOT
BRANCH   1   2
ATOM      2  C   UNL     1      -0.618  -2.825   2.906  1.00  0.00     0.118 C 
BRANCH   2   3
ATOM      3  N   UNL     1      -1.952  -3.295   2.583  1.00  0.00    -0.351 N 
ATOM      4  C   UNL     1      -2.648  -3.231   1.401  1.00  0.00     0.283 C 
ATOM      5  O   UNL     1      -3.786  -3.712   1.430  1.00  0.00    -0.268 OA
ATOM      6  H   UNL     1      -2.432  -3.726   3.326  1.00  0.00     0.163 HD
BRANCH   4   7
ATOM      7  C   UNL     1      -1.970  -2.632   0.124  1.00  0.00     0.307 C 
BRANCH   7   8
ATOM      8  C   UNL     1      -1.699  -1.154   0.252  1.00  0.00     0.044 A 
ATOM      9  C   UNL     1       3.382  -0.629  -0.258  1.00  0.00     0.044 C 
ATOM     10  C   UNL     1       1.984  -0.100  -0.132  1.00  0.00    -0.050 A 
ATOM     11  C   UNL     1       1.751   1.268   0.033  1.00  0.00     0.005 A 
ATOM     12  C   UNL     1       0.900  -0.994  -0.123  1.00  0.00     0.014 A 
ATOM     13  C   UNL     1       0.461   1.768   0.240  1.00  0.00     0.027 A 
ATOM     14  C   UNL     1      -0.411  -0.521   0.114  1.00  0.00     0.009 A 
ATOM     15  C   UNL     1      -0.590   0.848   0.304  1.00  0.00     0.046 A 
ATOM     16  N   UNL     1      -1.922   1.050   0.573  1.00  0.00    -0.361 N 
ATOM     17  C   UNL     1      -2.580  -0.150   0.615  1.00  0.00     0.094 A 
ATOM     18  H   UNL     1      -2.342   1.929   0.715  1.00  0.00     0.166 HD
ENDBRANCH   7   8
BRANCH   7  19
ATOM     19  N   UNL     1      -2.664  -3.009  -1.133  1.00  0.00    -0.318 N 
ATOM     20  C   UNL     1      -4.064  -2.593  -1.322  1.00  0.00     0.284 C 
ATOM     21  C   UNL     1      -1.891  -2.778  -2.366  1.00  0.00     0.284 C 
ATOM     22  H   UNL     1      -2.725  -4.013  -0.963  1.00  0.00     0.349 HD
ATOM     23  C   UNL     1      -4.328  -1.246  -2.028  1.00  0.00     0.178 C 
ATOM     24  C   UNL     1      -2.057  -1.397  -3.044  1.00  0.00     0.178 C 
ATOM     25  N   UNL     1      -3.478  -1.051  -3.209  1.00  0.00    -0.360 N 
BRANCH  25  26
ATOM     26  C   UNL     1      -3.708   0.106  -3.957  1.00  0.00     0.037 A 
ATOM     27  C   UNL     1      -3.846   1.373  -3.369  1.00  0.00     0.029 A 
ATOM     28  C   UNL     1      -3.800   0.007  -5.352  1.00  0.00     0.029 A 
ATOM     29  C   UNL     1      -4.106   2.504  -4.147  1.00  0.00     0.041 A 
ATOM     30  C   UNL     1      -4.062   1.134  -6.135  1.00  0.00     0.041 A 
ATOM     31  C   UNL     1      -4.219   2.370  -5.523  1.00  0.00     0.123 A 
ATOM     32  F   UNL     1      -4.482   3.449  -6.272  1.00  0.00    -0.207 F 
ENDBRANCH  25  26
ENDBRANCH   7  19
ENDBRANCH   4   7
ENDBRANCH   2   3
ENDBRANCH   1   2
BRANCH   1  33
ATOM     33  C   UNL     1      -1.334  -1.423   4.931  1.00  0.00     0.118 C 
BRANCH  33  34
ATOM     34  N   UNL     1      -0.663  -2.230   5.936  1.00  0.00    -0.352 N 
ATOM     35  C   UNL     1      -0.149  -1.875   7.158  1.00  0.00     0.251 C 
ATOM     36  H   UNL     1      -0.562  -3.181   5.704  1.00  0.00     0.163 HD
ATOM     37  O   UNL     1       0.568  -2.675   7.754  1.00  0.00    -0.269 OA
BRANCH  35  38
ATOM     38  C   UNL     1      -0.435  -0.550   7.757  1.00  0.00     0.039 A 
ATOM     39  C   UNL     1       0.583   0.089   8.472  1.00  0.00     0.014 A 
ATOM     40  C   UNL     1      -1.700   0.040   7.678  1.00  0.00     0.014 A 
ATOM     41  C   UNL     1       0.343   1.327   9.072  1.00  0.00     0.010 A 
ATOM     42  C   UNL     1      -1.917   1.310   8.214  1.00  0.00     0.010 A 
ATOM     43  C   UNL     1      -0.902   1.960   8.931  1.00  0.00    -0.014 A 
BRANCH  43  44
ATOM     44  C   UNL     1      -1.142   3.296   9.534  1.00  0.00     0.031 A 
ATOM     45  C   UNL     1      -2.146   3.471  10.643  1.00  0.00     0.074 A 
ATOM     46  C   UNL     1      -0.472   4.365   9.061  1.00  0.00     0.049 A 
ATOM     47  N   UNL     1      -2.453   4.554  11.312  1.00  0.00    -0.248 NA
ATOM     48  C   UNL     1      -2.923   2.285  11.035  1.00  0.00     0.031 C 
ATOM     49  C   UNL     1       0.481   4.340   7.949  1.00  0.00     0.029 A 
ATOM     50  N   UNL     1      -0.485   5.679   9.457  1.00  0.00    -0.354 N 
ATOM     51  C   UNL     1      -3.465   4.185  12.190  1.00  0.00     0.074 A 
ATOM     52  C   UNL     1      -3.754   2.790  11.935  1.00  0.00     0.031 C 
ATOM     53  C   UNL     1       0.987   5.572   7.776  1.00  0.00     0.029 A 
ATOM     54  C   UNL     1       0.379   6.477   8.746  1.00  0.00     0.049 A 
ATOM     55  H   UNL     1      -1.058   6.017  10.183  1.00  0.00     0.167 HD
ATOM     56  C   UNL     1      -4.086   4.931  13.136  1.00  0.00     0.031 A 
ATOM     57  C   UNL     1       0.661   7.789   8.865  1.00  0.00     0.031 A 
ATOM     58  C   UNL     1      -3.788   6.315  13.396  1.00  0.00     0.049 A 
ATOM     59  C   UNL     1      -0.004   8.588   9.950  1.00  0.00     0.074 A 
ATOM     60  C   UNL     1      -4.314   7.140  14.375  1.00  0.00     0.029 A 
ATOM     61  N   UNL     1      -2.884   7.079  12.674  1.00  0.00    -0.354 N 
ATOM     62  N   UNL     1      -0.900   8.199  10.825  1.00  0.00    -0.248 NA
ATOM     63  C   UNL     1       0.397   9.995  10.078  1.00  0.00     0.031 C 
ATOM     64  C   UNL     1      -3.759   8.416  14.217  1.00  0.00     0.029 A 
ATOM     65  C   UNL     1      -2.849   8.370  13.173  1.00  0.00     0.049 A 
ATOM     66  H   UNL     1      -2.346   6.751  11.917  1.00  0.00     0.167 HD
ATOM     67  C   UNL     1      -1.152   9.307  11.625  1.00  0.00     0.074 A 
ATOM     68  C   UNL     1      -0.304  10.376  11.137  1.00  0.00     0.031 C 
ATOM     69  C   UNL     1      -2.006   9.427  12.672  1.00  0.00     0.031 A 
BRANCH  56  70
ATOM     70  C   UNL     1      -5.160   4.261  13.954  1.00  0.00    -0.014 A 
ATOM     71  C   UNL     1      -4.841   3.271  14.901  1.00  0.00     0.010 A 
ATOM     72  C   UNL     1      -6.504   4.641  13.790  1.00  0.00     0.010 A 
ATOM     73  C   UNL     1      -5.851   2.637  15.631  1.00  0.00     0.020 A 
ATOM     74  C   UNL     1      -7.514   4.030  14.538  1.00  0.00     0.020 A 
ATOM     75  C   UNL     1      -7.183   3.015  15.439  1.00  0.00     0.054 A 
BRANCH  75  76
ATOM     76  S   UNL     1      -8.475   2.180  16.400  1.00  0.00     0.124 S 
ATOM     77  O   UNL     1      -8.564   0.889  15.723  1.00  0.00    -0.237 OA
ATOM     78  O   UNL     1      -7.904   2.145  17.744  1.00  0.00    -0.237 OA
ATOM     79  O   UNL     1      -9.639   3.048  16.244  1.00  0.00    -0.744 OA
ENDBRANCH  75  76
ENDBRANCH  56  70
BRANCH  57  80
ATOM     80  C   UNL     1       1.659   8.409   7.953  1.00  0.00    -0.014 A 
ATOM     81  C   UNL     1       2.943   8.740   8.419  1.00  0.00     0.010 A 
ATOM     82  C   UNL     1       1.345   8.624   6.599  1.00  0.00     0.010 A 
ATOM     83  C   UNL     1       3.894   9.281   7.549  1.00  0.00     0.020 A 
ATOM     84  C   UNL     1       2.300   9.142   5.721  1.00  0.00     0.020 A 
ATOM     85  C   UNL     1       3.568   9.474   6.204  1.00  0.00     0.054 A 
BRANCH  85  86
ATOM     86  S   UNL     1       4.842  10.099   5.072  1.00  0.00     0.124 S 
ATOM     87  O   UNL     1       4.881  11.517   5.413  1.00  0.00    -0.237 OA
ATOM     88  O   UNL     1       6.017   9.321   5.457  1.00  0.00    -0.237 OA
ATOM     89  O   UNL     1       4.305   9.785   3.750  1.00  0.00    -0.744 OA
ENDBRANCH  85  86
ENDBRANCH  57  80
BRANCH  69  90
ATOM     90  C   UNL     1      -2.044  10.753  13.382  1.00  0.00    -0.014 A 
ATOM     91  C   UNL     1      -2.642  11.880  12.790  1.00  0.00     0.010 A 
ATOM     92  C   UNL     1      -1.503  10.862  14.676  1.00  0.00     0.010 A 
ATOM     93  C   UNL     1      -2.662  13.104  13.465  1.00  0.00     0.020 A 
ATOM     94  C   UNL     1      -1.544  12.077  15.364  1.00  0.00     0.020 A 
ATOM     95  C   UNL     1      -2.108  13.195  14.746  1.00  0.00     0.054 A 
BRANCH  95  96
ATOM     96  S   UNL     1      -2.166  14.787  15.614  1.00  0.00     0.124 S 
ATOM     97  O   UNL     1      -1.106  15.536  14.945  1.00  0.00    -0.237 OA
ATOM     98  O   UNL     1      -3.526  15.250  15.348  1.00  0.00    -0.237 OA
ATOM     99  O   UNL     1      -1.897  14.432  17.006  1.00  0.00    -0.744 OA
ENDBRANCH  95  96
ENDBRANCH  69  90
ENDBRANCH  43  44
ENDBRANCH  35  38
ENDBRANCH  33  34
ENDBRANCH   1  33
TORSDOF 16
