REMARK SMILES C[C@@H](NC(=O)[C@@H]([NH3+])CC(=O)NCCCNC(=O)c1ccc(-c2c3nc(c(-c4ccc(S(=O)(=O)[O-])cc4)c4ccc([nH]4)c(-c4ccc(S(=O)(=O)[O-])cc4)c4nc(c(-c5ccc(S(=O)(=O)[O-])cc5)c5ccc2[nH]5)C=C4)C=C3)cc1)C(=O)NC1C(C)(C)SC1(C)C
REMARK SMILES IDX 12 1 11 2 9 3 10 4 8 6 6 7 4 8 3 9 5 11 2 12 1 13 78 14
REMARK SMILES IDX 79 15 80 16 81 18 82 19 86 20 83 21 84 22 85 23 87 24 88 25
REMARK SMILES IDX 7 26 13 30 14 31 15 32 16 33 17 35 18 36 19 37 77 38 20 39
REMARK SMILES IDX 76 40 21 41 22 42 23 43 70 44 24 45 75 46 69 47 71 48 25 49
REMARK SMILES IDX 74 50 68 51 67 52 26 54 56 55 37 56 55 57 38 58 41 59 54 60
REMARK SMILES IDX 72 61 39 62 40 63 53 65 73 66 42 67 27 68 28 69 36 70 29 71
REMARK SMILES IDX 35 72 30 73 31 74 32 75 33 76 34 77 57 78 58 79 66 80 59 81
REMARK SMILES IDX 65 82 60 83 61 84 62 85 63 86 64 87 43 88 44 89 52 90 45 91
REMARK SMILES IDX 51 92 46 93 47 94 48 95 49 96 50 97
REMARK H PARENT 11 5 3 10 80 17 7 27 7 28 7 29 15 34 71 53 41 64
REMARK Flexibility Score: inf
ROOT
ATOM      1  C   UNL     1       1.278  -4.858  -1.656  1.00  0.00     0.117 C 
ENDROOT
BRANCH   1   2
ATOM      2  N   UNL     1       0.074  -5.616  -1.940  1.00  0.00    -0.356 N 
ATOM      3  C   UNL     1      -1.226  -5.240  -1.809  1.00  0.00     0.226 C 
ATOM      4  O   UNL     1      -2.110  -6.072  -2.016  1.00  0.00    -0.275 OA
ATOM      5  H   UNL     1       0.219  -6.530  -2.275  1.00  0.00     0.163 HD
BRANCH   3   6
ATOM      6  C   UNL     1      -1.563  -3.826  -1.403  1.00  0.00     0.175 C 
BRANCH   6   7
ATOM      7  C   UNL     1      -1.689  -3.730   0.109  1.00  0.00     0.280 C 
BRANCH   7   8
ATOM      8  C   UNL     1      -0.424  -3.287   0.890  1.00  0.00     0.279 C 
ATOM      9  N   UNL     1       0.238  -2.113   0.727  1.00  0.00    -0.339 N 
ATOM     10  H   UNL     1       1.011  -1.994   1.325  1.00  0.00     0.164 HD
ATOM     11  O   UNL     1      -0.001  -4.005   1.802  1.00  0.00    -0.268 OA
BRANCH   9  12
ATOM     12  C   UNL     1       0.000  -0.999  -0.181  1.00  0.00     0.168 C 
ATOM     13  C   UNL     1       1.123   0.035  -0.100  1.00  0.00     0.041 C 
BRANCH  12  14
ATOM     14  C   UNL     1      -1.359  -0.337   0.068  1.00  0.00     0.242 C 
ATOM     15  O   UNL     1      -1.954   0.241  -0.847  1.00  0.00    -0.273 OA
ATOM     16  N   UNL     1      -1.905  -0.288   1.328  1.00  0.00    -0.349 N 
ATOM     17  H   UNL     1      -2.889  -0.313   1.364  1.00  0.00     0.163 HD
BRANCH  16  18
ATOM     18  C   UNL     1      -1.218  -0.202   2.648  1.00  0.00     0.113 C 
ATOM     19  C   UNL     1      -1.657   1.123   3.392  1.00  0.00     0.032 C 
ATOM     20  C   UNL     1      -1.669  -1.163   3.839  1.00  0.00     0.032 C 
ATOM     21  C   UNL     1      -0.591   2.210   3.289  1.00  0.00     0.025 C 
ATOM     22  C   UNL     1      -3.048   1.694   3.103  1.00  0.00     0.025 C 
ATOM     23  S   UNL     1      -1.631   0.285   5.002  1.00  0.00    -0.145 SA
ATOM     24  C   UNL     1      -3.049  -1.817   3.845  1.00  0.00     0.025 C 
ATOM     25  C   UNL     1      -0.612  -2.169   4.316  1.00  0.00     0.025 C 
ENDBRANCH  16  18
ENDBRANCH  12  14
ENDBRANCH   9  12
ENDBRANCH   7   8
BRANCH   7  26
ATOM     26  N   UNL     1      -2.824  -2.848   0.445  1.00  0.00    -0.347 N 
ATOM     27  H   UNL     1      -2.628  -1.902   0.119  1.00  0.00     0.345 HD
ATOM     28  H   UNL     1      -2.959  -2.838   1.456  1.00  0.00     0.345 HD
ATOM     29  H   UNL     1      -3.670  -3.195  -0.007  1.00  0.00     0.345 HD
ENDBRANCH   7  26
ENDBRANCH   6   7
ENDBRANCH   3   6
ENDBRANCH   1   2
BRANCH   1  30
ATOM     30  C   UNL     1       1.860  -5.240  -0.305  1.00  0.00     0.042 C 
BRANCH  30  31
ATOM     31  C   UNL     1       2.654  -6.529  -0.291  1.00  0.00     0.118 C 
BRANCH  31  32
ATOM     32  N   UNL     1       3.848  -6.452  -1.106  1.00  0.00    -0.352 N 
ATOM     33  C   UNL     1       5.153  -6.714  -0.789  1.00  0.00     0.251 C 
ATOM     34  H   UNL     1       3.697  -6.165  -2.036  1.00  0.00     0.163 HD
ATOM     35  O   UNL     1       6.024  -6.397  -1.605  1.00  0.00    -0.269 OA
BRANCH  33  36
ATOM     36  C   UNL     1       5.535  -7.345   0.496  1.00  0.00     0.039 A 
ATOM     37  C   UNL     1       6.780  -7.022   1.040  1.00  0.00     0.014 A 
ATOM     38  C   UNL     1       4.726  -8.285   1.143  1.00  0.00     0.014 A 
ATOM     39  C   UNL     1       7.202  -7.625   2.225  1.00  0.00     0.010 A 
ATOM     40  C   UNL     1       5.098  -8.801   2.382  1.00  0.00     0.010 A 
ATOM     41  C   UNL     1       6.357  -8.509   2.917  1.00  0.00    -0.014 A 
BRANCH  41  42
ATOM     42  C   UNL     1       6.815  -9.163   4.168  1.00  0.00     0.031 A 
ATOM     43  C   UNL     1       6.981 -10.661   4.226  1.00  0.00     0.074 A 
ATOM     44  C   UNL     1       7.084  -8.405   5.249  1.00  0.00     0.049 A 
ATOM     45  N   UNL     1       7.444 -11.399   5.202  1.00  0.00    -0.248 NA
ATOM     46  C   UNL     1       6.548 -11.436   3.050  1.00  0.00     0.031 C 
ATOM     47  C   UNL     1       6.902  -6.953   5.333  1.00  0.00     0.029 A 
ATOM     48  N   UNL     1       7.587  -8.746   6.479  1.00  0.00    -0.354 N 
ATOM     49  C   UNL     1       7.339 -12.716   4.767  1.00  0.00     0.074 A 
ATOM     50  C   UNL     1       6.721 -12.683   3.462  1.00  0.00     0.031 C 
ATOM     51  C   UNL     1       7.343  -6.522   6.526  1.00  0.00     0.029 A 
ATOM     52  C   UNL     1       7.809  -7.667   7.301  1.00  0.00     0.049 A 
ATOM     53  H   UNL     1       7.772  -9.676   6.747  1.00  0.00     0.167 HD
ATOM     54  C   UNL     1       7.744 -13.850   5.386  1.00  0.00     0.031 A 
ATOM     55  C   UNL     1       8.346  -7.605   8.534  1.00  0.00     0.031 A 
ATOM     56  C   UNL     1       8.392 -13.874   6.670  1.00  0.00     0.049 A 
ATOM     57  C   UNL     1       8.825  -8.875   9.181  1.00  0.00     0.074 A 
ATOM     58  C   UNL     1       8.916 -14.959   7.350  1.00  0.00     0.029 A 
ATOM     59  N   UNL     1       8.604 -12.760   7.467  1.00  0.00    -0.354 N 
ATOM     60  N   UNL     1       8.802 -10.101   8.712  1.00  0.00    -0.248 NA
ATOM     61  C   UNL     1       9.421  -8.750  10.518  1.00  0.00     0.031 C 
ATOM     62  C   UNL     1       9.402 -14.507   8.582  1.00  0.00     0.029 A 
ATOM     63  C   UNL     1       9.229 -13.133   8.644  1.00  0.00     0.049 A 
ATOM     64  H   UNL     1       8.347 -11.839   7.231  1.00  0.00     0.167 HD
ATOM     65  C   UNL     1       9.404 -10.889   9.687  1.00  0.00     0.074 A 
ATOM     66  C   UNL     1       9.801  -9.997  10.757  1.00  0.00     0.031 C 
ATOM     67  C   UNL     1       9.609 -12.229   9.698  1.00  0.00     0.031 A 
BRANCH  54  68
ATOM     68  C   UNL     1       7.501 -15.161   4.683  1.00  0.00    -0.014 A 
ATOM     69  C   UNL     1       8.225 -15.516   3.529  1.00  0.00     0.010 A 
ATOM     70  C   UNL     1       6.571 -16.074   5.213  1.00  0.00     0.010 A 
ATOM     71  C   UNL     1       7.999 -16.744   2.901  1.00  0.00     0.020 A 
ATOM     72  C   UNL     1       6.362 -17.314   4.603  1.00  0.00     0.020 A 
ATOM     73  C   UNL     1       7.068 -17.636   3.442  1.00  0.00     0.054 A 
BRANCH  73  74
ATOM     74  S   UNL     1       6.825 -19.239   2.630  1.00  0.00     0.124 S 
ATOM     75  O   UNL     1       6.079 -18.860   1.432  1.00  0.00    -0.237 OA
ATOM     76  O   UNL     1       8.194 -19.692   2.398  1.00  0.00    -0.237 OA
ATOM     77  O   UNL     1       6.073 -20.016   3.611  1.00  0.00    -0.744 OA
ENDBRANCH  73  74
ENDBRANCH  54  68
BRANCH  55  78
ATOM     78  C   UNL     1       8.499  -6.294   9.222  1.00  0.00    -0.014 A 
ATOM     79  C   UNL     1       9.775  -5.739   9.425  1.00  0.00     0.010 A 
ATOM     80  C   UNL     1       7.369  -5.596   9.684  1.00  0.00     0.010 A 
ATOM     81  C   UNL     1       9.922  -4.528  10.108  1.00  0.00     0.020 A 
ATOM     82  C   UNL     1       7.509  -4.370  10.342  1.00  0.00     0.020 A 
ATOM     83  C   UNL     1       8.787  -3.853  10.566  1.00  0.00     0.054 A 
BRANCH  83  84
ATOM     84  S   UNL     1       8.996  -2.269  11.426  1.00  0.00     0.124 S 
ATOM     85  O   UNL     1       9.471  -2.698  12.738  1.00  0.00    -0.237 OA
ATOM     86  O   UNL     1       9.978  -1.581  10.591  1.00  0.00    -0.237 OA
ATOM     87  O   UNL     1       7.655  -1.689  11.402  1.00  0.00    -0.744 OA
ENDBRANCH  83  84
ENDBRANCH  55  78
BRANCH  67  88
ATOM     88  C   UNL     1      10.319 -12.799  10.896  1.00  0.00    -0.014 A 
ATOM     89  C   UNL     1       9.690 -12.866  12.152  1.00  0.00     0.010 A 
ATOM     90  C   UNL     1      11.631 -13.287  10.757  1.00  0.00     0.010 A 
ATOM     91  C   UNL     1      10.381 -13.357  13.261  1.00  0.00     0.020 A 
ATOM     92  C   UNL     1      12.314 -13.808  11.858  1.00  0.00     0.020 A 
ATOM     93  C   UNL     1      11.693 -13.817  13.108  1.00  0.00     0.054 A 
BRANCH  93  94
ATOM     94  S   UNL     1      12.572 -14.453  14.561  1.00  0.00     0.124 S 
ATOM     95  O   UNL     1      12.929 -13.222  15.260  1.00  0.00    -0.237 OA
ATOM     96  O   UNL     1      11.559 -15.277  15.216  1.00  0.00    -0.237 OA
ATOM     97  O   UNL     1      13.693 -15.194  13.989  1.00  0.00    -0.744 OA
ENDBRANCH  93  94
ENDBRANCH  67  88
ENDBRANCH  41  42
ENDBRANCH  33  36
ENDBRANCH  31  32
ENDBRANCH  30  31
ENDBRANCH   1  30
TORSDOF 19
