REMARK SMILES Cc1ccc(NS(=O)(=O)c2cc(C(=O)Nc3ccccc3C(=O)NCCCNC(=O)c3ccc(-c4c5nc(c(-c6ccc(S(=O)(=O)[O-])cc6)c6ccc([nH]6)c(-c6ccc(S(=O)(=O)[O-])cc6)c6nc(c(-c7ccc(S(=O)(=O)[O-])cc7)c7ccc4[nH]7)C=C6)C=C5)cc3)ccc2Br)cc1
REMARK SMILES IDX 25 1 24 2 22 3 23 4 21 6 16 7 17 8 18 9 20 10 19 11 15 12
REMARK SMILES IDX 13 13 14 14 12 16 10 17 11 18 93 19 92 20 94 21 91 22 7 23
REMARK SMILES IDX 8 24 9 25 6 26 5 28 1 29 2 30 3 31 96 32 4 33 95 34 26 35
REMARK SMILES IDX 27 36 28 37 29 38 30 40 31 41 32 42 90 43 33 44 89 45 34 46
REMARK SMILES IDX 35 47 36 48 83 49 37 50 88 51 82 52 84 53 38 54 87 55 81 56
REMARK SMILES IDX 80 57 39 59 69 60 50 61 68 62 51 63 54 64 67 65 85 66 52 67
REMARK SMILES IDX 53 68 66 70 86 71 55 72 40 73 41 74 49 75 42 76 48 77 43 78
REMARK SMILES IDX 44 79 45 80 46 81 47 82 70 83 71 84 79 85 72 86 78 87 73 88
REMARK SMILES IDX 74 89 75 90 76 91 77 92 56 93 57 94 65 95 58 96 64 97 59 98
REMARK SMILES IDX 60 99 61 100 62 101 63 102
REMARK H PARENT 24 5 15 15 6 27 28 39 84 58 54 69
REMARK Flexibility Score: inf
ROOT
ATOM      1  C   UNL     1      -3.443  -1.238   3.505  1.00  0.00     0.118 C 
ENDROOT
BRANCH   1   2
ATOM      2  N   UNL     1      -2.136  -1.836   3.328  1.00  0.00    -0.352 N 
ATOM      3  C   UNL     1      -1.006  -1.250   2.817  1.00  0.00     0.253 C 
ATOM      4  O   UNL     1       0.096  -1.600   3.230  1.00  0.00    -0.269 OA
ATOM      5  H   UNL     1      -2.048  -2.776   3.608  1.00  0.00     0.163 HD
BRANCH   3   6
ATOM      6  C   UNL     1      -1.089  -0.363   1.630  1.00  0.00     0.063 A 
ATOM      7  C   UNL     1       0.079  -0.671   0.265  1.00  0.00     0.054 A 
ATOM      8  C   UNL     1       0.035   0.642  -1.283  1.00  0.00     0.027 A 
ATOM      9  C   UNL     1      -1.210   1.945  -1.295  1.00  0.00     0.002 A 
ATOM     10  C   UNL     1      -2.225   0.982   1.484  1.00  0.00     0.016 A 
ATOM     11  C   UNL     1      -2.293   2.068   0.073  1.00  0.00     0.001 A 
BRANCH   7  12
ATOM     12  N   UNL     1       0.826  -1.962   0.523  1.00  0.00    -0.321 N 
ATOM     13  C   UNL     1       0.458  -3.321   0.640  1.00  0.00     0.255 C 
ATOM     14  O   UNL     1       1.358  -4.147   0.828  1.00  0.00    -0.269 OA
ATOM     15  H   UNL     1       1.794  -1.822   0.634  1.00  0.00     0.170 HD
BRANCH  13  16
ATOM     16  C   UNL     1      -0.916  -3.873   0.377  1.00  0.00     0.041 A 
ATOM     17  C   UNL     1      -3.143  -3.232  -0.397  1.00  0.00     0.102 A 
ATOM     18  C   UNL     1      -1.955  -3.001   0.249  1.00  0.00     0.037 A 
ATOM     19  C   UNL     1      -3.512  -4.546  -0.568  1.00  0.00     0.038 A 
ATOM     20  C   UNL     1      -2.564  -5.544  -0.246  1.00  0.00     0.018 A 
ATOM     21  Br  UNL     1      -5.251  -5.059  -1.086  1.00  0.00    -0.049 Br
ATOM     22  C   UNL     1      -1.242  -5.204   0.147  1.00  0.00     0.015 A 
BRANCH  17  23
ATOM     23  S   UNL     1      -3.895  -1.770  -1.096  1.00  0.00     0.263 S 
ATOM     24  O   UNL     1      -5.229  -1.666  -0.544  1.00  0.00    -0.201 OA
ATOM     25  O   UNL     1      -3.682  -1.827  -2.526  1.00  0.00    -0.201 OA
BRANCH  23  26
ATOM     26  N   UNL     1      -3.056  -0.394  -0.481  1.00  0.00    -0.280 N 
ATOM     27  H   UNL     1      -3.615   0.278  -0.028  1.00  0.00     0.180 HD
BRANCH  26  28
ATOM     28  C   UNL     1      -1.554  -0.075  -0.543  1.00  0.00     0.049 A 
ATOM     29  C   UNL     1       3.558  -0.371  -0.818  1.00  0.00     0.044 C 
ATOM     30  C   UNL     1       2.071  -0.155  -0.858  1.00  0.00    -0.051 A 
ATOM     31  C   UNL     1       1.032  -1.249  -1.801  1.00  0.00     0.005 A 
ATOM     32  C   UNL     1       1.458   1.044   0.248  1.00  0.00     0.005 A 
ATOM     33  C   UNL     1      -0.739  -1.236  -1.689  1.00  0.00     0.027 A 
ATOM     34  C   UNL     1      -0.313   1.176   0.461  1.00  0.00     0.027 A 
ENDBRANCH  26  28
ENDBRANCH  23  26
ENDBRANCH  17  23
ENDBRANCH  13  16
ENDBRANCH   7  12
ENDBRANCH   3   6
ENDBRANCH   1   2
BRANCH   1  35
ATOM     35  C   UNL     1      -4.526  -1.745   2.582  1.00  0.00     0.042 C 
BRANCH  35  36
ATOM     36  C   UNL     1      -5.481  -2.688   3.277  1.00  0.00     0.118 C 
BRANCH  36  37
ATOM     37  N   UNL     1      -6.468  -1.994   4.112  1.00  0.00    -0.352 N 
ATOM     38  C   UNL     1      -7.746  -2.336   4.536  1.00  0.00     0.251 C 
ATOM     39  H   UNL     1      -6.166  -1.114   4.435  1.00  0.00     0.163 HD
ATOM     40  O   UNL     1      -8.504  -1.548   5.090  1.00  0.00    -0.269 OA
BRANCH  38  41
ATOM     41  C   UNL     1      -8.208  -3.741   4.515  1.00  0.00     0.039 A 
ATOM     42  C   UNL     1      -8.338  -4.213   5.834  1.00  0.00     0.014 A 
ATOM     43  C   UNL     1      -7.659  -4.527   3.524  1.00  0.00     0.014 A 
ATOM     44  C   UNL     1      -7.449  -5.168   6.258  1.00  0.00     0.010 A 
ATOM     45  C   UNL     1      -6.654  -5.347   3.944  1.00  0.00     0.010 A 
ATOM     46  C   UNL     1      -6.532  -5.613   5.312  1.00  0.00    -0.014 A 
BRANCH  46  47
ATOM     47  C   UNL     1      -5.621  -6.694   5.566  1.00  0.00     0.031 A 
ATOM     48  C   UNL     1      -6.386  -7.959   5.425  1.00  0.00     0.074 A 
ATOM     49  C   UNL     1      -4.331  -6.338   5.771  1.00  0.00     0.049 A 
ATOM     50  N   UNL     1      -6.409  -8.940   6.249  1.00  0.00    -0.248 NA
ATOM     51  C   UNL     1      -7.482  -8.114   4.423  1.00  0.00     0.031 C 
ATOM     52  C   UNL     1      -3.113  -7.119   5.920  1.00  0.00     0.029 A 
ATOM     53  N   UNL     1      -3.914  -5.045   6.131  1.00  0.00    -0.354 N 
ATOM     54  C   UNL     1      -6.964  -9.975   5.516  1.00  0.00     0.074 A 
ATOM     55  C   UNL     1      -7.887  -9.367   4.615  1.00  0.00     0.031 C 
ATOM     56  C   UNL     1      -2.246  -6.429   6.694  1.00  0.00     0.029 A 
ATOM     57  C   UNL     1      -2.888  -5.177   7.081  1.00  0.00     0.049 A 
ATOM     58  H   UNL     1      -4.277  -4.199   5.782  1.00  0.00     0.167 HD
ATOM     59  C   UNL     1      -6.267 -11.139   5.422  1.00  0.00     0.031 A 
ATOM     60  C   UNL     1      -3.171  -4.790   8.359  1.00  0.00     0.031 A 
ATOM     61  C   UNL     1      -5.037 -11.002   6.206  1.00  0.00     0.049 A 
ATOM     62  C   UNL     1      -3.437  -6.045   9.191  1.00  0.00     0.074 A 
ATOM     63  C   UNL     1      -3.728 -10.733   5.847  1.00  0.00     0.029 A 
ATOM     64  N   UNL     1      -5.157 -10.649   7.542  1.00  0.00    -0.354 N 
ATOM     65  N   UNL     1      -3.961  -7.154   8.714  1.00  0.00    -0.248 NA
ATOM     66  C   UNL     1      -2.908  -6.222  10.544  1.00  0.00     0.031 C 
ATOM     67  C   UNL     1      -3.088 -10.143   6.980  1.00  0.00     0.029 A 
ATOM     68  C   UNL     1      -4.026  -9.994   7.990  1.00  0.00     0.049 A 
ATOM     69  H   UNL     1      -5.946 -10.841   8.100  1.00  0.00     0.167 HD
ATOM     70  C   UNL     1      -3.743  -8.185   9.602  1.00  0.00     0.074 A 
ATOM     71  C   UNL     1      -3.107  -7.537  10.740  1.00  0.00     0.031 C 
ATOM     72  C   UNL     1      -3.991  -9.514   9.366  1.00  0.00     0.031 A 
BRANCH  59  73
ATOM     73  C   UNL     1      -6.497 -12.232   4.408  1.00  0.00    -0.014 A 
ATOM     74  C   UNL     1      -5.516 -13.237   4.304  1.00  0.00     0.010 A 
ATOM     75  C   UNL     1      -7.620 -12.368   3.562  1.00  0.00     0.010 A 
ATOM     76  C   UNL     1      -5.636 -14.310   3.417  1.00  0.00     0.020 A 
ATOM     77  C   UNL     1      -7.750 -13.439   2.658  1.00  0.00     0.020 A 
ATOM     78  C   UNL     1      -6.757 -14.411   2.601  1.00  0.00     0.054 A 
BRANCH  78  79
ATOM     79  S   UNL     1      -6.898 -15.851   1.514  1.00  0.00     0.124 S 
ATOM     80  O   UNL     1      -5.718 -15.716   0.663  1.00  0.00    -0.237 OA
ATOM     81  O   UNL     1      -6.867 -16.962   2.462  1.00  0.00    -0.237 OA
ATOM     82  O   UNL     1      -8.176 -15.652   0.834  1.00  0.00    -0.744 OA
ENDBRANCH  78  79
ENDBRANCH  59  73
BRANCH  60  83
ATOM     83  C   UNL     1      -3.811  -3.416   8.368  1.00  0.00    -0.014 A 
ATOM     84  C   UNL     1      -2.971  -2.336   7.980  1.00  0.00     0.010 A 
ATOM     85  C   UNL     1      -5.199  -3.186   8.293  1.00  0.00     0.010 A 
ATOM     86  C   UNL     1      -3.482  -1.137   7.455  1.00  0.00     0.020 A 
ATOM     87  C   UNL     1      -5.723  -1.973   7.758  1.00  0.00     0.020 A 
ATOM     88  C   UNL     1      -4.857  -0.956   7.333  1.00  0.00     0.054 A 
BRANCH  88  89
ATOM     89  S   UNL     1      -5.425   0.586   6.520  1.00  0.00     0.124 S 
ATOM     90  O   UNL     1      -5.153   1.602   7.528  1.00  0.00    -0.237 OA
ATOM     91  O   UNL     1      -4.581   0.654   5.327  1.00  0.00    -0.237 OA
ATOM     92  O   UNL     1      -6.824   0.347   6.223  1.00  0.00    -0.744 OA
ENDBRANCH  88  89
ENDBRANCH  60  83
BRANCH  72  93
ATOM     93  C   UNL     1      -4.189 -10.560  10.451  1.00  0.00    -0.014 A 
ATOM     94  C   UNL     1      -4.353 -10.251  11.806  1.00  0.00     0.010 A 
ATOM     95  C   UNL     1      -4.380 -11.922  10.089  1.00  0.00     0.010 A 
ATOM     96  C   UNL     1      -4.585 -11.251  12.755  1.00  0.00     0.020 A 
ATOM     97  C   UNL     1      -4.713 -12.911  11.011  1.00  0.00     0.020 A 
ATOM     98  C   UNL     1      -4.764 -12.573  12.351  1.00  0.00     0.054 A 
BRANCH  98  99
ATOM     99  S   UNL     1      -5.072 -13.832  13.602  1.00  0.00     0.124 S 
ATOM    100  O   UNL     1      -3.753 -13.967  14.215  1.00  0.00    -0.237 OA
ATOM    101  O   UNL     1      -6.093 -13.205  14.438  1.00  0.00    -0.237 OA
ATOM    102  O   UNL     1      -5.526 -14.988  12.832  1.00  0.00    -0.744 OA
ENDBRANCH  98  99
ENDBRANCH  72  93
ENDBRANCH  46  47
ENDBRANCH  38  41
ENDBRANCH  36  37
ENDBRANCH  35  36
ENDBRANCH   1  35
TORSDOF 18
