REMARK SMILES COc1ccc(-c2ncn(CC(=O)NCCCNC(=O)c3ccc(-c4c5nc(c(-c6ccc(S(=O)(=O)[O-])cc6)c6ccc([nH]6)c(-c6ccc(S(=O)(=O)[O-])cc6)c6nc(c(-c7ccc(S(=O)(=O)[O-])cc7)c7ccc4[nH]7)C=C6)C=C5)cc3)c2-c2ccc(OC)cc2)cc1
REMARK SMILES IDX 16 1 15 2 14 3 12 4 13 5 11 7 10 8 7 9 8 10 81 11 9 12 6 13
REMARK SMILES IDX 3 14 4 15 91 16 5 17 90 18 2 19 1 20 82 21 83 22 89 23 84 24
REMARK SMILES IDX 88 25 85 26 86 27 87 28 17 29 18 30 19 31 20 33 21 34 22 35
REMARK SMILES IDX 80 36 23 37 79 38 24 39 25 40 26 41 73 42 27 43 78 44 72 45
REMARK SMILES IDX 74 46 28 47 77 48 71 49 70 50 29 52 59 53 40 54 58 55 41 56
REMARK SMILES IDX 44 57 57 58 75 59 42 60 43 61 56 63 76 64 45 65 30 66 31 67
REMARK SMILES IDX 39 68 32 69 38 70 33 71 34 72 35 73 36 74 37 75 60 76 61 77
REMARK SMILES IDX 69 78 62 79 68 80 63 81 64 82 65 83 66 84 67 85 46 86 47 87
REMARK SMILES IDX 55 88 48 89 54 90 49 91 50 92 51 93 52 94 53 95
REMARK H PARENT 14 6 18 32 74 51 44 62
REMARK Flexibility Score: inf
ROOT
ATOM      1  C   UNL     1       0.936   6.961   6.688  1.00  0.00     0.042 C 
ENDROOT
BRANCH   1   2
ATOM      2  C   UNL     1       1.144   6.791   8.195  1.00  0.00     0.117 C 
BRANCH   2   3
ATOM      3  N   UNL     1       0.241   5.840   8.822  1.00  0.00    -0.354 N 
ATOM      4  C   UNL     1       0.475   4.566   9.252  1.00  0.00     0.239 C 
ATOM      5  O   UNL     1      -0.373   4.048   9.983  1.00  0.00    -0.273 OA
ATOM      6  H   UNL     1      -0.678   6.165   8.958  1.00  0.00     0.163 HD
BRANCH   4   7
ATOM      7  C   UNL     1       1.759   3.837   8.917  1.00  0.00     0.223 C 
BRANCH   7   8
ATOM      8  N   UNL     1       2.029   3.724   7.494  1.00  0.00    -0.321 N 
ATOM      9  C   UNL     1       2.001   3.280   5.361  1.00  0.00     0.096 A 
ATOM     10  N   UNL     1       3.126   4.038   5.587  1.00  0.00    -0.236 NA
ATOM     11  C   UNL     1       1.329   3.006   6.547  1.00  0.00     0.076 A 
ATOM     12  C   UNL     1       3.128   4.264   6.879  1.00  0.00     0.201 A 
BRANCH   9  13
ATOM     13  C   UNL     1       1.624   2.781   4.053  1.00  0.00     0.003 A 
ATOM     14  C   UNL     1       0.879   1.696   1.577  1.00  0.00     0.118 A 
ATOM     15  C   UNL     1      -0.047   2.412   2.336  1.00  0.00     0.047 A 
ATOM     16  C   UNL     1       2.189   1.555   2.037  1.00  0.00     0.047 A 
ATOM     17  C   UNL     1       0.320   2.947   3.572  1.00  0.00     0.014 A 
ATOM     18  C   UNL     1       2.562   2.103   3.269  1.00  0.00     0.014 A 
BRANCH  14  19
ATOM     19  O   UNL     1       0.419   1.232   0.376  1.00  0.00    -0.497 OA
ATOM     20  C   UNL     1       0.958  -0.018  -0.038  1.00  0.00     0.278 C 
ENDBRANCH  14  19
ENDBRANCH   9  13
BRANCH  11  21
ATOM     21  C   UNL     1       0.223   2.092   6.812  1.00  0.00     0.001 A 
ATOM     22  C   UNL     1      -1.035   2.551   7.205  1.00  0.00     0.014 A 
ATOM     23  C   UNL     1       0.414   0.717   6.624  1.00  0.00     0.014 A 
ATOM     24  C   UNL     1      -2.064   1.642   7.460  1.00  0.00     0.047 A 
ATOM     25  C   UNL     1      -0.625  -0.190   6.857  1.00  0.00     0.047 A 
ATOM     26  C   UNL     1      -1.866   0.271   7.287  1.00  0.00     0.118 A 
BRANCH  26  27
ATOM     27  O   UNL     1      -2.950  -0.504   7.583  1.00  0.00    -0.497 OA
ATOM     28  C   UNL     1      -2.909  -1.860   7.155  1.00  0.00     0.278 C 
ENDBRANCH  26  27
ENDBRANCH  11  21
ENDBRANCH   7   8
ENDBRANCH   4   7
ENDBRANCH   2   3
ENDBRANCH   1   2
BRANCH   1  29
ATOM     29  C   UNL     1      -0.382   7.624   6.328  1.00  0.00     0.118 C 
BRANCH  29  30
ATOM     30  N   UNL     1      -0.466   9.021   6.749  1.00  0.00    -0.352 N 
ATOM     31  C   UNL     1      -1.490   9.925   6.514  1.00  0.00     0.251 C 
ATOM     32  H   UNL     1       0.300   9.363   7.263  1.00  0.00     0.163 HD
ATOM     33  O   UNL     1      -1.290  11.123   6.631  1.00  0.00    -0.269 OA
BRANCH  31  34
ATOM     34  C   UNL     1      -2.816   9.415   6.104  1.00  0.00     0.039 A 
ATOM     35  C   UNL     1      -3.579  10.084   5.144  1.00  0.00     0.014 A 
ATOM     36  C   UNL     1      -3.282   8.233   6.672  1.00  0.00     0.014 A 
ATOM     37  C   UNL     1      -4.764   9.498   4.700  1.00  0.00     0.010 A 
ATOM     38  C   UNL     1      -4.356   7.580   6.120  1.00  0.00     0.010 A 
ATOM     39  C   UNL     1      -5.133   8.225   5.167  1.00  0.00    -0.014 A 
BRANCH  39  40
ATOM     40  C   UNL     1      -6.245   7.497   4.556  1.00  0.00     0.031 A 
ATOM     41  C   UNL     1      -6.184   7.446   3.071  1.00  0.00     0.074 A 
ATOM     42  C   UNL     1      -7.144   6.754   5.240  1.00  0.00     0.049 A 
ATOM     43  N   UNL     1      -6.945   8.073   2.239  1.00  0.00    -0.248 NA
ATOM     44  C   UNL     1      -5.046   6.755   2.439  1.00  0.00     0.031 C 
ATOM     45  C   UNL     1      -7.172   6.463   6.680  1.00  0.00     0.029 A 
ATOM     46  N   UNL     1      -8.176   5.998   4.769  1.00  0.00    -0.354 N 
ATOM     47  C   UNL     1      -6.544   7.655   0.977  1.00  0.00     0.074 A 
ATOM     48  C   UNL     1      -5.258   7.027   1.150  1.00  0.00     0.031 C 
ATOM     49  C   UNL     1      -7.999   5.421   6.920  1.00  0.00     0.029 A 
ATOM     50  C   UNL     1      -8.698   5.094   5.692  1.00  0.00     0.049 A 
ATOM     51  H   UNL     1      -8.523   6.083   3.852  1.00  0.00     0.167 HD
ATOM     52  C   UNL     1      -7.426   7.596  -0.060  1.00  0.00     0.031 A 
ATOM     53  C   UNL     1      -9.637   4.139   5.469  1.00  0.00     0.031 A 
ATOM     54  C   UNL     1      -8.633   8.332   0.224  1.00  0.00     0.049 A 
ATOM     55  C   UNL     1     -10.388   4.554   4.263  1.00  0.00     0.074 A 
ATOM     56  C   UNL     1      -8.918   9.641   0.560  1.00  0.00     0.029 A 
ATOM     57  N   UNL     1      -9.731   7.596   0.602  1.00  0.00    -0.354 N 
ATOM     58  N   UNL     1     -11.139   5.618   4.219  1.00  0.00    -0.248 NA
ATOM     59  C   UNL     1      -9.971   4.032   2.974  1.00  0.00     0.031 C 
ATOM     60  C   UNL     1      -9.955   9.555   1.537  1.00  0.00     0.029 A 
ATOM     61  C   UNL     1     -10.308   8.211   1.684  1.00  0.00     0.049 A 
ATOM     62  H   UNL     1     -10.049   6.769   0.170  1.00  0.00     0.167 HD
ATOM     63  C   UNL     1     -10.907   6.158   2.963  1.00  0.00     0.074 A 
ATOM     64  C   UNL     1     -10.280   5.078   2.203  1.00  0.00     0.031 C 
ATOM     65  C   UNL     1     -10.991   7.506   2.752  1.00  0.00     0.031 A 
BRANCH  52  66
ATOM     66  C   UNL     1      -7.366   6.523  -1.120  1.00  0.00    -0.014 A 
ATOM     67  C   UNL     1      -8.241   6.589  -2.222  1.00  0.00     0.010 A 
ATOM     68  C   UNL     1      -6.661   5.314  -0.936  1.00  0.00     0.010 A 
ATOM     69  C   UNL     1      -8.421   5.488  -3.073  1.00  0.00     0.020 A 
ATOM     70  C   UNL     1      -6.798   4.229  -1.802  1.00  0.00     0.020 A 
ATOM     71  C   UNL     1      -7.697   4.314  -2.854  1.00  0.00     0.054 A 
BRANCH  71  72
ATOM     72  S   UNL     1      -7.973   2.882  -3.924  1.00  0.00     0.124 S 
ATOM     73  O   UNL     1      -9.345   2.514  -3.586  1.00  0.00    -0.237 OA
ATOM     74  O   UNL     1      -7.778   3.450  -5.255  1.00  0.00    -0.237 OA
ATOM     75  O   UNL     1      -6.946   1.934  -3.500  1.00  0.00    -0.744 OA
ENDBRANCH  71  72
ENDBRANCH  52  66
BRANCH  53  76
ATOM     76  C   UNL     1      -9.744   2.775   6.045  1.00  0.00    -0.014 A 
ATOM     77  C   UNL     1     -10.904   1.999   5.852  1.00  0.00     0.010 A 
ATOM     78  C   UNL     1      -8.590   2.118   6.517  1.00  0.00     0.010 A 
ATOM     79  C   UNL     1     -10.886   0.606   6.044  1.00  0.00     0.020 A 
ATOM     80  C   UNL     1      -8.567   0.730   6.716  1.00  0.00     0.020 A 
ATOM     81  C   UNL     1      -9.708  -0.024   6.450  1.00  0.00     0.054 A 
BRANCH  81  82
ATOM     82  S   UNL     1      -9.634  -1.842   6.496  1.00  0.00     0.124 S 
ATOM     83  O   UNL     1     -10.466  -2.159   7.653  1.00  0.00    -0.237 OA
ATOM     84  O   UNL     1     -10.189  -2.217   5.199  1.00  0.00    -0.237 OA
ATOM     85  O   UNL     1      -8.210  -2.127   6.661  1.00  0.00    -0.744 OA
ENDBRANCH  81  82
ENDBRANCH  53  76
BRANCH  65  86
ATOM     86  C   UNL     1     -11.674   8.354   3.808  1.00  0.00    -0.014 A 
ATOM     87  C   UNL     1     -11.271   8.433   5.157  1.00  0.00     0.010 A 
ATOM     88  C   UNL     1     -12.723   9.188   3.382  1.00  0.00     0.010 A 
ATOM     89  C   UNL     1     -11.931   9.285   6.059  1.00  0.00     0.020 A 
ATOM     90  C   UNL     1     -13.370  10.054   4.267  1.00  0.00     0.020 A 
ATOM     91  C   UNL     1     -12.984  10.086   5.607  1.00  0.00     0.054 A 
BRANCH  91  92
ATOM     92  S   UNL     1     -13.839  11.188   6.770  1.00  0.00     0.124 S 
ATOM     93  O   UNL     1     -14.521  10.248   7.656  1.00  0.00    -0.237 OA
ATOM     94  O   UNL     1     -12.741  11.939   7.374  1.00  0.00    -0.237 OA
ATOM     95  O   UNL     1     -14.722  11.980   5.915  1.00  0.00    -0.744 OA
ENDBRANCH  91  92
ENDBRANCH  65  86
ENDBRANCH  39  40
ENDBRANCH  31  34
ENDBRANCH  29  30
ENDBRANCH   1  29
TORSDOF 18
