REMARK SMILES O=C(NCCCNC(=O)c1ccccc1C(=O)N1CCOCCOCCOCC1)c1ccc(-c2c3nc(c(-c4ccc(S(=O)(=O)[O-])cc4)c4ccc([nH]4)c(-c4ccc(S(=O)(=O)[O-])cc4)c4nc(c(-c5ccc(S(=O)(=O)[O-])cc5)c5ccc2[nH]5)C=C4)C=C3)cc1
REMARK SMILES IDX 10 1 11 2 12 3 13 4 14 5 15 6 8 7 7 8 9 10 6 11 5 12 4 13
REMARK SMILES IDX 3 14 1 15 2 16 30 18 31 19 89 20 32 21 88 22 33 23 34 24
REMARK SMILES IDX 35 25 82 26 36 27 87 28 81 29 83 30 37 31 86 32 80 33 79 34
REMARK SMILES IDX 38 36 68 37 49 38 67 39 50 40 53 41 66 42 84 43 51 44 52 45
REMARK SMILES IDX 65 47 85 48 54 49 39 50 40 51 48 52 41 53 47 54 42 55 43 56
REMARK SMILES IDX 44 57 45 58 46 59 69 60 70 61 78 62 71 63 77 64 72 65 73 66
REMARK SMILES IDX 74 67 75 68 76 69 55 70 56 71 64 72 57 73 63 74 58 75 59 76
REMARK SMILES IDX 60 77 61 78 62 79 16 80 17 81 18 82 19 83 20 84 21 85 22 86
REMARK SMILES IDX 29 88 28 89 27 90 26 91 25 92 24 93 23 94
REMARK H PARENT 7 9 3 17 83 35 53 46
REMARK Flexibility Score: 60.00
ROOT
ATOM      1  C   UNL     1       6.349   0.418  -6.177  1.00  0.00     0.052 A 
ATOM      2  C   UNL     1       7.654   0.273  -6.681  1.00  0.00     0.014 A 
ATOM      3  C   UNL     1       7.913  -0.612  -7.723  1.00  0.00     0.001 A 
ATOM      4  C   UNL     1       6.869  -1.343  -8.280  1.00  0.00     0.001 A 
ATOM      5  C   UNL     1       5.565  -1.174  -7.805  1.00  0.00     0.014 A 
ATOM      6  C   UNL     1       5.282  -0.275  -6.760  1.00  0.00     0.052 A 
ENDROOT
BRANCH   1   7
ATOM      7  C   UNL     1       6.231   1.334  -5.039  1.00  0.00     0.252 C 
ATOM      8  N   UNL     1       5.874   0.876  -3.807  1.00  0.00    -0.352 N 
ATOM      9  H   UNL     1       5.918   1.543  -3.083  1.00  0.00     0.163 HD
ATOM     10  O   UNL     1       6.529   2.515  -5.199  1.00  0.00    -0.269 OA
BRANCH   8  11
ATOM     11  C   UNL     1       5.437  -0.451  -3.400  1.00  0.00     0.118 C 
BRANCH  11  12
ATOM     12  C   UNL     1       5.472  -0.657  -1.896  1.00  0.00     0.042 C 
BRANCH  12  13
ATOM     13  C   UNL     1       4.754   0.420  -1.091  1.00  0.00     0.118 C 
BRANCH  13  14
ATOM     14  N   UNL     1       3.305   0.284  -1.000  1.00  0.00    -0.352 N 
ATOM     15  O   UNL     1       1.280  -0.043  -0.040  1.00  0.00    -0.269 OA
ATOM     16  C   UNL     1       2.502  -0.027   0.074  1.00  0.00     0.251 C 
ATOM     17  H   UNL     1       2.823   0.439  -1.844  1.00  0.00     0.163 HD
BRANCH  16  18
ATOM     18  C   UNL     1       3.118  -0.403   1.360  1.00  0.00     0.039 A 
ATOM     19  C   UNL     1       4.149   0.359   1.898  1.00  0.00     0.014 A 
ATOM     20  C   UNL     1       2.700  -1.573   1.998  1.00  0.00     0.014 A 
ATOM     21  C   UNL     1       4.930  -0.179   2.906  1.00  0.00     0.010 A 
ATOM     22  C   UNL     1       3.391  -2.031   3.123  1.00  0.00     0.010 A 
ATOM     23  C   UNL     1       4.548  -1.367   3.552  1.00  0.00    -0.014 A 
BRANCH  23  24
ATOM     24  C   UNL     1       5.359  -1.836   4.704  1.00  0.00     0.031 A 
ATOM     25  C   UNL     1       6.042  -3.178   4.693  1.00  0.00     0.074 A 
ATOM     26  C   UNL     1       5.538  -0.987   5.736  1.00  0.00     0.049 A 
ATOM     27  N   UNL     1       6.824  -3.703   5.602  1.00  0.00    -0.248 NA
ATOM     28  C   UNL     1       5.815  -4.048   3.527  1.00  0.00     0.031 C 
ATOM     29  C   UNL     1       4.913   0.337   5.855  1.00  0.00     0.029 A 
ATOM     30  N   UNL     1       6.328  -1.076   6.851  1.00  0.00    -0.354 N 
ATOM     31  C   UNL     1       7.161  -4.969   5.134  1.00  0.00     0.074 A 
ATOM     32  C   UNL     1       6.482  -5.143   3.869  1.00  0.00     0.031 C 
ATOM     33  C   UNL     1       5.415   0.969   6.923  1.00  0.00     0.029 A 
ATOM     34  C   UNL     1       6.320   0.065   7.619  1.00  0.00     0.049 A 
ATOM     35  H   UNL     1       6.850  -1.878   7.081  1.00  0.00     0.167 HD
ATOM     36  C   UNL     1       7.965  -5.896   5.708  1.00  0.00     0.031 A 
ATOM     37  C   UNL     1       6.955   0.353   8.769  1.00  0.00     0.031 A 
ATOM     38  C   UNL     1       8.640  -5.707   6.967  1.00  0.00     0.049 A 
ATOM     39  C   UNL     1       7.838  -0.691   9.378  1.00  0.00     0.074 A 
ATOM     40  C   UNL     1       9.466  -6.588   7.644  1.00  0.00     0.029 A 
ATOM     41  N   UNL     1       8.577  -4.552   7.733  1.00  0.00    -0.354 N 
ATOM     42  N   UNL     1       8.125  -1.888   8.925  1.00  0.00    -0.248 NA
ATOM     43  C   UNL     1       8.476  -0.352  10.655  1.00  0.00     0.031 C 
ATOM     44  C   UNL     1       9.874  -5.978   8.836  1.00  0.00     0.029 A 
ATOM     45  C   UNL     1       9.342  -4.699   8.878  1.00  0.00     0.049 A 
ATOM     46  H   UNL     1       8.063  -3.746   7.497  1.00  0.00     0.167 HD
ATOM     47  C   UNL     1       8.977  -2.450   9.866  1.00  0.00     0.074 A 
ATOM     48  C   UNL     1       9.187  -1.446  10.891  1.00  0.00     0.031 C 
ATOM     49  C   UNL     1       9.525  -3.689   9.888  1.00  0.00     0.031 A 
BRANCH  36  50
ATOM     50  C   UNL     1       8.144  -7.210   4.991  1.00  0.00    -0.014 A 
ATOM     51  C   UNL     1       8.929  -7.303   3.828  1.00  0.00     0.010 A 
ATOM     52  C   UNL     1       7.562  -8.379   5.516  1.00  0.00     0.010 A 
ATOM     53  C   UNL     1       9.104  -8.533   3.186  1.00  0.00     0.020 A 
ATOM     54  C   UNL     1       7.753  -9.616   4.890  1.00  0.00     0.020 A 
ATOM     55  C   UNL     1       8.511  -9.682   3.720  1.00  0.00     0.054 A 
BRANCH  55  56
ATOM     56  S   UNL     1       8.777 -11.270   2.883  1.00  0.00     0.124 S 
ATOM     57  O   UNL     1       7.920 -11.138   1.707  1.00  0.00    -0.237 OA
ATOM     58  O   UNL     1      10.214 -11.257   2.616  1.00  0.00    -0.237 OA
ATOM     59  O   UNL     1       8.339 -12.258   3.865  1.00  0.00    -0.744 OA
ENDBRANCH  55  56
ENDBRANCH  36  50
BRANCH  37  60
ATOM     60  C   UNL     1       6.733   1.670   9.424  1.00  0.00    -0.014 A 
ATOM     61  C   UNL     1       7.760   2.625   9.493  1.00  0.00     0.010 A 
ATOM     62  C   UNL     1       5.468   1.984   9.956  1.00  0.00     0.010 A 
ATOM     63  C   UNL     1       7.530   3.865  10.098  1.00  0.00     0.020 A 
ATOM     64  C   UNL     1       5.225   3.232  10.530  1.00  0.00     0.020 A 
ATOM     65  C   UNL     1       6.264   4.160  10.613  1.00  0.00     0.054 A 
BRANCH  65  66
ATOM     66  S   UNL     1       5.967   5.790  11.350  1.00  0.00     0.124 S 
ATOM     67  O   UNL     1       6.565   5.636  12.672  1.00  0.00    -0.237 OA
ATOM     68  O   UNL     1       6.671   6.688  10.437  1.00  0.00    -0.237 OA
ATOM     69  O   UNL     1       4.511   5.912  11.329  1.00  0.00    -0.744 OA
ENDBRANCH  65  66
ENDBRANCH  37  60
BRANCH  49  70
ATOM     70  C   UNL     1      10.414  -4.009  11.056  1.00  0.00    -0.014 A 
ATOM     71  C   UNL     1       9.872  -4.244  12.333  1.00  0.00     0.010 A 
ATOM     72  C   UNL     1      11.805  -4.086  10.871  1.00  0.00     0.010 A 
ATOM     73  C   UNL     1      10.713  -4.507  13.416  1.00  0.00     0.020 A 
ATOM     74  C   UNL     1      12.647  -4.373  11.947  1.00  0.00     0.020 A 
ATOM     75  C   UNL     1      12.096  -4.563  13.217  1.00  0.00     0.054 A 
BRANCH  75  76
ATOM     76  S   UNL     1      13.169  -4.922  14.634  1.00  0.00     0.124 S 
ATOM     77  O   UNL     1      13.187  -3.640  15.332  1.00  0.00    -0.237 OA
ATOM     78  O   UNL     1      12.455  -6.000  15.315  1.00  0.00    -0.237 OA
ATOM     79  O   UNL     1      14.434  -5.315  14.017  1.00  0.00    -0.744 OA
ENDBRANCH  75  76
ENDBRANCH  49  70
ENDBRANCH  23  24
ENDBRANCH  16  18
ENDBRANCH  13  14
ENDBRANCH  12  13
ENDBRANCH  11  12
ENDBRANCH   8  11
ENDBRANCH   1   7
BRANCH   6  80
ATOM     80  C   UNL     1       3.895  -0.302  -6.231  1.00  0.00     0.254 C 
ATOM     81  O   UNL     1       3.414  -1.430  -6.120  1.00  0.00    -0.269 OA
ATOM     82  N   UNL     1       3.213   0.850  -5.838  1.00  0.00    -0.334 N 
BRANCH  82  83
ATOM     83  C   UNL     1       2.214   0.765  -4.752  1.00  0.00     0.148 C 
BRANCH  83  84
ATOM     84  C   UNL     1       1.381  -0.515  -4.584  1.00  0.00     0.181 C 
BRANCH  84  85
ATOM     85  O   UNL     1       0.481  -0.397  -3.476  1.00  0.00    -0.377 OA
BRANCH  85  86
ATOM     86  C   UNL     1      -0.887  -0.162  -3.824  1.00  0.00     0.188 CG0
ATOM     87  G   UNL     1      -1.174   1.329  -4.002  1.00  0.00     0.000 G0
ENDBRANCH  85  86
ENDBRANCH  84  85
ENDBRANCH  83  84
ENDBRANCH  82  83
BRANCH  82  88
ATOM     88  C   UNL     1       3.533   2.211  -6.325  1.00  0.00     0.148 C 
BRANCH  88  89
ATOM     89  C   UNL     1       2.382   2.853  -7.120  1.00  0.00     0.181 C 
BRANCH  89  90
ATOM     90  O   UNL     1       1.428   3.408  -6.216  1.00  0.00    -0.377 OA
BRANCH  90  91
ATOM     91  C   UNL     1       0.086   3.431  -6.713  1.00  0.00     0.188 C 
BRANCH  91  92
ATOM     92  C   UNL     1      -0.850   3.125  -5.540  1.00  0.00     0.188 C 
BRANCH  92  93
ATOM     93  O   UNL     1      -0.835   1.706  -5.338  1.00  0.00    -0.377 OA
BRANCH  93  94
ATOM     94  C   UNL     1      -1.174   1.329  -4.002  1.00  0.00     0.188 CG0
ATOM     95  G   UNL     1      -0.887  -0.162  -3.824  1.00  0.00     0.000 G0
ENDBRANCH  93  94
ENDBRANCH  92  93
ENDBRANCH  91  92
ENDBRANCH  90  91
ENDBRANCH  89  90
ENDBRANCH  88  89
ENDBRANCH  82  88
ENDBRANCH   6  80
TORSDOF 14
