REMARK SMILES O=C(CCC1CC[NH+]([C@H]2CCO[C@@]3(CCSC3)C2)CC1)NCCCNC(=O)c1ccc(-c2c3nc(c(-c4ccc(S(=O)(=O)[O-])cc4)c4ccc([nH]4)c(-c4ccc(S(=O)(=O)[O-])cc4)c4nc(c(-c5ccc(S(=O)(=O)[O-])cc5)c5ccc2[nH]5)C=C4)C=C3)cc1
REMARK SMILES IDX 23 1 22 2 21 3 1 4 2 5 3 7 4 8 5 9 6 10 20 11 7 12 19 13
REMARK SMILES IDX 8 14 9 16 10 17 18 18 11 19 13 20 12 21 14 22 17 23 15 24
REMARK SMILES IDX 16 25 24 26 25 27 26 28 27 30 28 31 29 32 87 33 30 34 86 35
REMARK SMILES IDX 31 36 32 37 33 38 80 39 34 40 85 41 79 42 81 43 35 44 84 45
REMARK SMILES IDX 78 46 77 47 36 49 66 50 47 51 65 52 48 53 51 54 64 55 82 56
REMARK SMILES IDX 49 57 50 58 63 60 83 61 52 62 37 63 38 64 46 65 39 66 45 67
REMARK SMILES IDX 40 68 41 69 42 70 43 71 44 72 67 73 68 74 76 75 69 76 75 77
REMARK SMILES IDX 70 78 71 79 72 80 73 81 74 82 53 83 54 84 62 85 55 86 61 87
REMARK SMILES IDX 56 88 57 89 58 90 59 91 60 92
REMARK H PARENT 21 6 8 15 25 29 81 48 51 59
REMARK Flexibility Score: inf
ROOT
ATOM      1  C   UNL     1       3.847  -4.263  -3.648  1.00  0.00     0.042 C 
ENDROOT
BRANCH   1   2
ATOM      2  C   UNL     1       3.324  -5.596  -3.119  1.00  0.00     0.117 C 
BRANCH   2   3
ATOM      3  N   UNL     1       1.926  -5.574  -2.725  1.00  0.00    -0.356 N 
ATOM      4  O   UNL     1       1.908  -7.770  -2.071  1.00  0.00    -0.275 OA
ATOM      5  C   UNL     1       1.353  -6.676  -2.124  1.00  0.00     0.220 C 
ATOM      6  H   UNL     1       1.385  -4.768  -2.888  1.00  0.00     0.163 HD
BRANCH   5   7
ATOM      7  C   UNL     1       0.017  -6.421  -1.441  1.00  0.00     0.100 C 
BRANCH   7   8
ATOM      8  C   UNL     1       0.126  -6.678   0.075  1.00  0.00     0.014 C 
BRANCH   8   9
ATOM      9  C   UNL     1       0.470  -5.436   0.935  1.00  0.00     0.000 C 
ATOM     10  C   UNL     1       1.613  -4.589   0.375  1.00  0.00     0.065 C 
ATOM     11  C   UNL     1       0.767  -5.820   2.403  1.00  0.00     0.065 C 
ATOM     12  C   UNL     1       2.970  -5.228   0.636  1.00  0.00     0.262 C 
ATOM     13  C   UNL     1       2.224  -6.234   2.686  1.00  0.00     0.262 C 
ATOM     14  N   UNL     1       3.254  -5.406   2.061  1.00  0.00    -0.332 N 
ATOM     15  H   UNL     1       4.100  -5.960   2.189  1.00  0.00     0.348 HD
BRANCH  14  16
ATOM     16  C   UNL     1       3.684  -4.163   2.731  1.00  0.00     0.189 C 
ATOM     17  C   UNL     1       2.600  -3.248   3.312  1.00  0.00     0.093 C 
ATOM     18  C   UNL     1       4.704  -4.456   3.857  1.00  0.00     0.101 C 
ATOM     19  C   UNL     1       3.259  -1.967   3.785  1.00  0.00     0.167 C 
ATOM     20  C   UNL     1       5.232  -3.148   4.510  1.00  0.00     0.084 C 
ATOM     21  O   UNL     1       4.147  -2.265   4.850  1.00  0.00    -0.374 OA
ATOM     22  C   UNL     1       5.911  -3.421   5.861  1.00  0.00     0.047 C 
ATOM     23  C   UNL     1       6.292  -2.431   3.644  1.00  0.00     0.105 C 
ATOM     24  C   UNL     1       7.306  -3.944   5.615  1.00  0.00     0.072 C 
ATOM     25  S   UNL     1       7.934  -2.912   4.277  1.00  0.00    -0.159 SA
ENDBRANCH  14  16
ENDBRANCH   8   9
ENDBRANCH   7   8
ENDBRANCH   5   7
ENDBRANCH   2   3
ENDBRANCH   1   2
BRANCH   1  26
ATOM     26  C   UNL     1       3.888  -3.110  -2.646  1.00  0.00     0.118 C 
BRANCH  26  27
ATOM     27  N   UNL     1       4.965  -3.194  -1.671  1.00  0.00    -0.352 N 
ATOM     28  C   UNL     1       5.802  -2.215  -1.185  1.00  0.00     0.251 C 
ATOM     29  H   UNL     1       5.120  -4.093  -1.301  1.00  0.00     0.163 HD
ATOM     30  O   UNL     1       6.602  -2.488  -0.293  1.00  0.00    -0.269 OA
BRANCH  28  31
ATOM     31  C   UNL     1       5.804  -0.858  -1.778  1.00  0.00     0.039 A 
ATOM     32  C   UNL     1       7.032  -0.321  -2.180  1.00  0.00     0.014 A 
ATOM     33  C   UNL     1       4.628  -0.131  -1.975  1.00  0.00     0.014 A 
ATOM     34  C   UNL     1       7.069   0.892  -2.873  1.00  0.00     0.010 A 
ATOM     35  C   UNL     1       4.661   1.050  -2.720  1.00  0.00     0.010 A 
ATOM     36  C   UNL     1       5.879   1.561  -3.198  1.00  0.00    -0.014 A 
BRANCH  36  37
ATOM     37  C   UNL     1       5.892   2.757  -4.082  1.00  0.00     0.031 A 
ATOM     38  C   UNL     1       5.464   4.102  -3.562  1.00  0.00     0.074 A 
ATOM     39  C   UNL     1       6.234   2.618  -5.380  1.00  0.00     0.049 A 
ATOM     40  N   UNL     1       5.362   5.238  -4.204  1.00  0.00    -0.248 NA
ATOM     41  C   UNL     1       5.082   4.176  -2.144  1.00  0.00     0.031 C 
ATOM     42  C   UNL     1       6.636   1.363  -6.020  1.00  0.00     0.029 A 
ATOM     43  N   UNL     1       6.293   3.540  -6.397  1.00  0.00    -0.354 N 
ATOM     44  C   UNL     1       4.894   6.159  -3.274  1.00  0.00     0.074 A 
ATOM     45  C   UNL     1       4.691   5.438  -2.035  1.00  0.00     0.031 C 
ATOM     46  C   UNL     1       6.921   1.598  -7.311  1.00  0.00     0.029 A 
ATOM     47  C   UNL     1       6.685   3.008  -7.604  1.00  0.00     0.049 A 
ATOM     48  H   UNL     1       6.074   4.492  -6.274  1.00  0.00     0.167 HD
ATOM     49  C   UNL     1       4.667   7.486  -3.432  1.00  0.00     0.031 A 
ATOM     50  C   UNL     1       6.833   3.583  -8.813  1.00  0.00     0.031 A 
ATOM     51  C   UNL     1       4.874   8.204  -4.663  1.00  0.00     0.049 A 
ATOM     52  C   UNL     1       6.563   5.055  -8.966  1.00  0.00     0.074 A 
ATOM     53  C   UNL     1       4.717   9.558  -4.905  1.00  0.00     0.029 A 
ATOM     54  N   UNL     1       5.278   7.629  -5.859  1.00  0.00    -0.354 N 
ATOM     55  N   UNL     1       6.175   5.919  -8.058  1.00  0.00    -0.248 NA
ATOM     56  C   UNL     1       6.759   5.631 -10.304  1.00  0.00     0.031 C 
ATOM     57  C   UNL     1       4.979   9.794  -6.259  1.00  0.00     0.029 A 
ATOM     58  C   UNL     1       5.354   8.597  -6.847  1.00  0.00     0.049 A 
ATOM     59  H   UNL     1       5.481   6.675  -5.986  1.00  0.00     0.167 HD
ATOM     60  C   UNL     1       6.107   7.146  -8.710  1.00  0.00     0.074 A 
ATOM     61  C   UNL     1       6.505   6.914 -10.083  1.00  0.00     0.031 C 
ATOM     62  C   UNL     1       5.749   8.355  -8.212  1.00  0.00     0.031 A 
BRANCH  49  63
ATOM     63  C   UNL     1       4.156   8.249  -2.239  1.00  0.00    -0.014 A 
ATOM     64  C   UNL     1       4.984   8.505  -1.131  1.00  0.00     0.010 A 
ATOM     65  C   UNL     1       2.841   8.751  -2.240  1.00  0.00     0.010 A 
ATOM     66  C   UNL     1       4.492   9.207  -0.027  1.00  0.00     0.020 A 
ATOM     67  C   UNL     1       2.355   9.478  -1.150  1.00  0.00     0.020 A 
ATOM     68  C   UNL     1       3.179   9.685  -0.042  1.00  0.00     0.054 A 
BRANCH  68  69
ATOM     69  S   UNL     1       2.570  10.603   1.399  1.00  0.00     0.124 S 
ATOM     70  O   UNL     1       2.387   9.535   2.379  1.00  0.00    -0.237 OA
ATOM     71  O   UNL     1       3.665  11.529   1.677  1.00  0.00    -0.237 OA
ATOM     72  O   UNL     1       1.338  11.225   0.919  1.00  0.00    -0.744 OA
ENDBRANCH  68  69
ENDBRANCH  49  63
BRANCH  50  73
ATOM     73  C   UNL     1       7.270   2.765  -9.977  1.00  0.00    -0.014 A 
ATOM     74  C   UNL     1       8.558   2.923 -10.518  1.00  0.00     0.010 A 
ATOM     75  C   UNL     1       6.403   1.812 -10.543  1.00  0.00     0.010 A 
ATOM     76  C   UNL     1       8.966   2.155 -11.614  1.00  0.00     0.020 A 
ATOM     77  C   UNL     1       6.816   1.025 -11.621  1.00  0.00     0.020 A 
ATOM     78  C   UNL     1       8.092   1.210 -12.157  1.00  0.00     0.054 A 
BRANCH  78  79
ATOM     79  S   UNL     1       8.661   0.186 -13.544  1.00  0.00     0.124 S 
ATOM     80  O   UNL     1       8.611   1.128 -14.657  1.00  0.00    -0.237 OA
ATOM     81  O   UNL     1       9.997  -0.217 -13.112  1.00  0.00    -0.237 OA
ATOM     82  O   UNL     1       7.679  -0.896 -13.593  1.00  0.00    -0.744 OA
ENDBRANCH  78  79
ENDBRANCH  50  73
BRANCH  62  83
ATOM     83  C   UNL     1       5.799   9.532  -9.149  1.00  0.00    -0.014 A 
ATOM     84  C   UNL     1       4.842   9.698 -10.165  1.00  0.00     0.010 A 
ATOM     85  C   UNL     1       6.790  10.516  -8.973  1.00  0.00     0.010 A 
ATOM     86  C   UNL     1       4.892  10.812 -11.008  1.00  0.00     0.020 A 
ATOM     87  C   UNL     1       6.828  11.644  -9.797  1.00  0.00     0.020 A 
ATOM     88  C   UNL     1       5.885  11.778 -10.818  1.00  0.00     0.054 A 
BRANCH  88  89
ATOM     89  S   UNL     1       5.901  13.238 -11.895  1.00  0.00     0.124 S 
ATOM     90  O   UNL     1       6.423  12.689 -13.143  1.00  0.00    -0.237 OA
ATOM     91  O   UNL     1       4.495  13.633 -11.921  1.00  0.00    -0.237 OA
ATOM     92  O   UNL     1       6.790  14.169 -11.203  1.00  0.00    -0.744 OA
ENDBRANCH  88  89
ENDBRANCH  62  83
ENDBRANCH  36  37
ENDBRANCH  28  31
ENDBRANCH  26  27
ENDBRANCH   1  26
TORSDOF 16
