REMARK SMILES Cc1ccc(OCCC(=O)N2C[C@H](O)C[C@@H]2C(=O)NCCCNC(=O)c2ccc(-c3c4nc(c(-c5ccc(S(=O)(=O)[O-])cc5)c5ccc([nH]5)c(-c5ccc(S(=O)(=O)[O-])cc5)c5nc(c(-c6ccc(S(=O)(=O)[O-])cc6)c6ccc3[nH]6)C=C5)C=C4)cc2)cc1
REMARK SMILES IDX 20 1 19 2 17 3 18 4 16 6 11 7 12 8 13 9 15 10 9 11 10 12
REMARK SMILES IDX 8 13 7 14 6 15 5 16 1 17 2 18 3 19 87 20 4 21 86 22 14 23
REMARK SMILES IDX 21 25 22 26 23 27 24 28 25 30 26 31 27 32 85 33 28 34 84 35
REMARK SMILES IDX 29 36 30 37 31 38 78 39 32 40 83 41 77 42 79 43 33 44 82 45
REMARK SMILES IDX 76 46 75 47 34 49 64 50 45 51 63 52 46 53 49 54 62 55 80 56
REMARK SMILES IDX 47 57 48 58 61 60 81 61 50 62 35 63 36 64 44 65 37 66 43 67
REMARK SMILES IDX 38 68 39 69 40 70 41 71 42 72 65 73 66 74 74 75 67 76 73 77
REMARK SMILES IDX 68 78 69 79 70 80 71 81 72 82 51 83 52 84 60 85 53 86 59 87
REMARK SMILES IDX 54 88 55 89 56 90 57 91 58 92
REMARK H PARENT 19 5 14 24 23 29 79 48 49 59
REMARK Flexibility Score: inf
ROOT
ATOM      1  C   UNL     1      -3.138   1.445   4.186  1.00  0.00     0.117 C 
ENDROOT
BRANCH   1   2
ATOM      2  N   UNL     1      -1.850   1.093   4.769  1.00  0.00    -0.354 N 
ATOM      3  C   UNL     1      -0.591   1.234   4.264  1.00  0.00     0.242 C 
ATOM      4  O   UNL     1       0.329   1.330   5.089  1.00  0.00    -0.273 OA
ATOM      5  H   UNL     1      -1.895   0.691   5.667  1.00  0.00     0.163 HD
BRANCH   3   6
ATOM      6  C   UNL     1      -0.246   1.178   2.747  1.00  0.00     0.177 C 
ATOM      7  N   UNL     1      -1.308   0.935   1.768  1.00  0.00    -0.328 N 
ATOM      8  C   UNL     1      -1.301  -0.459   1.336  1.00  0.00     0.152 C 
ATOM      9  C   UNL     1      -0.204  -1.153   2.132  1.00  0.00     0.136 C 
ATOM     10  C   UNL     1       0.719  -0.006   2.529  1.00  0.00     0.069 C 
BRANCH   7  11
ATOM     11  C   UNL     1      -1.900   1.957   1.041  1.00  0.00     0.226 C 
ATOM     12  O   UNL     1      -1.463   3.108   1.051  1.00  0.00    -0.275 OA
BRANCH  11  13
ATOM     13  C   UNL     1      -3.208   1.629   0.327  1.00  0.00     0.141 C 
BRANCH  13  14
ATOM     14  C   UNL     1      -3.259   1.873  -1.176  1.00  0.00     0.239 C 
BRANCH  14  15
ATOM     15  O   UNL     1      -2.755   0.774  -1.953  1.00  0.00    -0.493 OA
BRANCH  15  16
ATOM     16  C   UNL     1      -1.397   0.645  -2.027  1.00  0.00     0.119 A 
ATOM     17  C   UNL     1       2.774  -0.174  -1.424  1.00  0.00     0.044 C 
ATOM     18  C   UNL     1       1.338   0.115  -1.742  1.00  0.00    -0.051 A 
ATOM     19  C   UNL     1       0.449  -0.924  -2.039  1.00  0.00     0.007 A 
ATOM     20  C   UNL     1       0.864   1.429  -1.713  1.00  0.00     0.007 A 
ATOM     21  C   UNL     1      -0.915  -0.657  -2.196  1.00  0.00     0.046 A 
ATOM     22  C   UNL     1      -0.495   1.693  -1.866  1.00  0.00     0.046 A 
ENDBRANCH  15  16
ENDBRANCH  14  15
ENDBRANCH  13  14
ENDBRANCH  11  13
ENDBRANCH   7  11
BRANCH   9  23
ATOM     23  O   UNL     1      -0.719  -1.846   3.261  1.00  0.00    -0.391 OA
ATOM     24  H   UNL     1      -1.198  -1.224   3.831  1.00  0.00     0.211 HD
ENDBRANCH   9  23
ENDBRANCH   3   6
ENDBRANCH   1   2
BRANCH   1  25
ATOM     25  C   UNL     1      -3.836   0.281   3.501  1.00  0.00     0.042 C 
BRANCH  25  26
ATOM     26  C   UNL     1      -4.960  -0.369   4.287  1.00  0.00     0.118 C 
BRANCH  26  27
ATOM     27  N   UNL     1      -6.247  -0.278   3.588  1.00  0.00    -0.352 N 
ATOM     28  C   UNL     1      -7.369  -1.075   3.765  1.00  0.00     0.251 C 
ATOM     29  H   UNL     1      -6.323   0.433   2.911  1.00  0.00     0.163 HD
ATOM     30  O   UNL     1      -8.345  -1.034   3.043  1.00  0.00    -0.269 OA
BRANCH  28  31
ATOM     31  C   UNL     1      -7.348  -1.926   4.970  1.00  0.00     0.039 A 
ATOM     32  C   UNL     1      -7.866  -1.332   6.127  1.00  0.00     0.014 A 
ATOM     33  C   UNL     1      -6.399  -2.941   5.021  1.00  0.00     0.014 A 
ATOM     34  C   UNL     1      -7.247  -1.577   7.343  1.00  0.00     0.010 A 
ATOM     35  C   UNL     1      -5.729  -3.111   6.216  1.00  0.00     0.010 A 
ATOM     36  C   UNL     1      -6.104  -2.369   7.353  1.00  0.00    -0.014 A 
BRANCH  36  37
ATOM     37  C   UNL     1      -5.180  -2.440   8.478  1.00  0.00     0.031 A 
ATOM     38  C   UNL     1      -5.095  -3.711   9.232  1.00  0.00     0.074 A 
ATOM     39  C   UNL     1      -4.332  -1.421   8.757  1.00  0.00     0.049 A 
ATOM     40  N   UNL     1      -4.484  -3.855  10.358  1.00  0.00    -0.248 NA
ATOM     41  C   UNL     1      -5.785  -4.929   8.800  1.00  0.00     0.031 C 
ATOM     42  C   UNL     1      -3.115  -1.499   9.566  1.00  0.00     0.029 A 
ATOM     43  N   UNL     1      -4.508  -0.046   8.562  1.00  0.00    -0.354 N 
ATOM     44  C   UNL     1      -4.399  -5.205  10.600  1.00  0.00     0.074 A 
ATOM     45  C   UNL     1      -5.337  -5.813   9.693  1.00  0.00     0.031 C 
ATOM     46  C   UNL     1      -2.839  -0.280  10.051  1.00  0.00     0.029 A 
ATOM     47  C   UNL     1      -3.955   0.578   9.698  1.00  0.00     0.049 A 
ATOM     48  H   UNL     1      -4.932   0.394   7.790  1.00  0.00     0.167 HD
ATOM     49  C   UNL     1      -3.418  -5.664  11.424  1.00  0.00     0.031 A 
ATOM     50  C   UNL     1      -4.664   1.335  10.588  1.00  0.00     0.031 A 
ATOM     51  C   UNL     1      -2.856  -4.580  12.227  1.00  0.00     0.049 A 
ATOM     52  C   UNL     1      -4.591   0.814  12.011  1.00  0.00     0.074 A 
ATOM     53  C   UNL     1      -1.656  -3.890  12.215  1.00  0.00     0.029 A 
ATOM     54  N   UNL     1      -3.715  -3.858  13.051  1.00  0.00    -0.354 N 
ATOM     55  N   UNL     1      -4.144  -0.370  12.332  1.00  0.00    -0.248 NA
ATOM     56  C   UNL     1      -5.048   1.563  13.178  1.00  0.00     0.031 C 
ATOM     57  C   UNL     1      -1.844  -2.683  12.949  1.00  0.00     0.029 A 
ATOM     58  C   UNL     1      -3.137  -2.668  13.443  1.00  0.00     0.049 A 
ATOM     59  H   UNL     1      -4.614  -4.157  13.319  1.00  0.00     0.167 HD
ATOM     60  C   UNL     1      -4.254  -0.562  13.685  1.00  0.00     0.074 A 
ATOM     61  C   UNL     1      -4.811   0.688  14.173  1.00  0.00     0.031 C 
ATOM     62  C   UNL     1      -3.891  -1.738  14.280  1.00  0.00     0.031 A 
BRANCH  49  63
ATOM     63  C   UNL     1      -2.821  -7.054  11.321  1.00  0.00    -0.014 A 
ATOM     64  C   UNL     1      -1.681  -7.385  12.082  1.00  0.00     0.010 A 
ATOM     65  C   UNL     1      -3.246  -8.035  10.399  1.00  0.00     0.010 A 
ATOM     66  C   UNL     1      -0.994  -8.601  11.907  1.00  0.00     0.020 A 
ATOM     67  C   UNL     1      -2.589  -9.260  10.231  1.00  0.00     0.020 A 
ATOM     68  C   UNL     1      -1.451  -9.531  10.974  1.00  0.00     0.054 A 
BRANCH  68  69
ATOM     69  S   UNL     1      -0.541 -11.074  10.711  1.00  0.00     0.124 S 
ATOM     70  O   UNL     1       0.727 -10.599  10.164  1.00  0.00    -0.237 OA
ATOM     71  O   UNL     1      -0.478 -11.640  12.055  1.00  0.00    -0.237 OA
ATOM     72  O   UNL     1      -1.379 -11.815   9.769  1.00  0.00    -0.744 OA
ENDBRANCH  68  69
ENDBRANCH  49  63
BRANCH  50  73
ATOM     73  C   UNL     1      -5.813   2.069   9.991  1.00  0.00    -0.014 A 
ATOM     74  C   UNL     1      -5.499   3.153   9.144  1.00  0.00     0.010 A 
ATOM     75  C   UNL     1      -7.063   1.439   9.859  1.00  0.00     0.010 A 
ATOM     76  C   UNL     1      -6.312   3.453   8.050  1.00  0.00     0.020 A 
ATOM     77  C   UNL     1      -7.884   1.744   8.764  1.00  0.00     0.020 A 
ATOM     78  C   UNL     1      -7.456   2.688   7.825  1.00  0.00     0.054 A 
BRANCH  78  79
ATOM     79  S   UNL     1      -8.215   2.772   6.173  1.00  0.00     0.124 S 
ATOM     80  O   UNL     1      -8.562   4.184   6.057  1.00  0.00    -0.237 OA
ATOM     81  O   UNL     1      -7.115   2.320   5.320  1.00  0.00    -0.237 OA
ATOM     82  O   UNL     1      -9.342   1.851   6.275  1.00  0.00    -0.744 OA
ENDBRANCH  78  79
ENDBRANCH  50  73
BRANCH  62  83
ATOM     83  C   UNL     1      -4.161  -2.141  15.717  1.00  0.00    -0.014 A 
ATOM     84  C   UNL     1      -5.129  -1.552  16.545  1.00  0.00     0.010 A 
ATOM     85  C   UNL     1      -3.485  -3.272  16.241  1.00  0.00     0.010 A 
ATOM     86  C   UNL     1      -5.366  -2.026  17.846  1.00  0.00     0.020 A 
ATOM     87  C   UNL     1      -3.747  -3.783  17.516  1.00  0.00     0.020 A 
ATOM     88  C   UNL     1      -4.671  -3.136  18.325  1.00  0.00     0.054 A 
BRANCH  88  89
ATOM     89  S   UNL     1      -5.031  -3.781  19.978  1.00  0.00     0.124 S 
ATOM     90  O   UNL     1      -4.131  -2.988  20.812  1.00  0.00    -0.237 OA
ATOM     91  O   UNL     1      -6.454  -3.490  20.142  1.00  0.00    -0.237 OA
ATOM     92  O   UNL     1      -4.702  -5.200  19.871  1.00  0.00    -0.744 OA
ENDBRANCH  88  89
ENDBRANCH  62  83
ENDBRANCH  36  37
ENDBRANCH  28  31
ENDBRANCH  26  27
ENDBRANCH  25  26
ENDBRANCH   1  25
TORSDOF 19
