REMARK SMILES CS(=O)(=O)c1ccc(-c2cc(Cl)cc3c2O[C@H](C(F)(F)F)C(C(=O)NCCCNC(=O)c2ccc(-c4c5nc(c(-c6ccc(S(=O)(=O)[O-])cc6)c6ccc([nH]6)c(-c6ccc(S(=O)(=O)[O-])cc6)c6nc(c(-c7ccc(S(=O)(=O)[O-])cc7)c7ccc4[nH]7)C=C6)C=C5)cc2)=C3)cc1
REMARK SMILES IDX 27 1 26 2 25 3 23 4 24 5 22 7 9 8 10 9 15 10 11 11 14 12
REMARK SMILES IDX 16 13 12 14 13 15 92 16 17 17 8 18 5 19 6 20 94 21 7 22
REMARK SMILES IDX 93 23 2 24 1 25 3 26 4 27 18 28 19 29 20 30 21 31 28 32
REMARK SMILES IDX 29 33 30 34 31 36 32 37 33 38 91 39 34 40 90 41 35 42 36 43
REMARK SMILES IDX 37 44 84 45 38 46 89 47 83 48 85 49 39 50 88 51 82 52 81 53
REMARK SMILES IDX 40 55 70 56 51 57 69 58 52 59 55 60 68 61 86 62 53 63 54 64
REMARK SMILES IDX 67 66 87 67 56 68 41 69 42 70 50 71 43 72 49 73 44 74 45 75
REMARK SMILES IDX 46 76 47 77 48 78 71 79 72 80 80 81 73 82 79 83 74 84 75 85
REMARK SMILES IDX 76 86 77 87 78 88 57 89 58 90 66 91 59 92 65 93 60 94 61 95
REMARK SMILES IDX 62 96 63 97 64 98
REMARK H PARENT 25 6 29 35 85 54 55 65
REMARK Flexibility Score: inf
ROOT
ATOM      1  C   UNL     1       2.912  14.308   3.397  1.00  0.00     0.042 C 
ENDROOT
BRANCH   1   2
ATOM      2  C   UNL     1       2.426  13.795   2.040  1.00  0.00     0.118 C 
BRANCH   2   3
ATOM      3  N   UNL     1       3.326  12.773   1.542  1.00  0.00    -0.352 N 
ATOM      4  C   UNL     1       3.028  11.473   1.300  1.00  0.00     0.251 C 
ATOM      5  O   UNL     1       3.840  10.598   1.579  1.00  0.00    -0.270 OA
ATOM      6  H   UNL     1       4.252  13.053   1.360  1.00  0.00     0.163 HD
BRANCH   4   7
ATOM      7  C   UNL     1       1.766  11.192   0.555  1.00  0.00     0.067 C 
ATOM      8  C   UNL     1       2.256   7.200  -0.072  1.00  0.00     0.026 A 
ATOM      9  C   UNL     1       3.589   7.007  -0.524  1.00  0.00     0.033 A 
ATOM     10  C   UNL     1       1.786   8.525  -0.072  1.00  0.00     0.135 A 
ATOM     11  C   UNL     1       4.346   8.030  -1.091  1.00  0.00     0.042 A 
ATOM     12  C   UNL     1       2.523   9.522  -0.759  1.00  0.00     0.019 A 
ATOM     13  O   UNL     1       0.648   8.926   0.614  1.00  0.00    -0.475 OA
ATOM     14  Cl  UNL     1       5.960   7.719  -1.591  1.00  0.00    -0.084 Cl
ATOM     15  C   UNL     1       3.791   9.280  -1.278  1.00  0.00     0.032 A 
ATOM     16  C   UNL     1       1.996  10.905  -0.742  1.00  0.00     0.025 C 
ATOM     17  C   UNL     1       0.790  10.264   1.267  1.00  0.00     0.314 C 
BRANCH   8  18
ATOM     18  C   UNL     1       1.475   5.946   0.117  1.00  0.00    -0.015 A 
ATOM     19  C   UNL     1       0.721   3.287  -0.483  1.00  0.00     0.067 A 
ATOM     20  C   UNL     1       1.691   3.522   0.488  1.00  0.00     0.021 A 
ATOM     21  C   UNL     1       0.027   4.360  -1.051  1.00  0.00     0.021 A 
ATOM     22  C   UNL     1       2.042   4.846   0.802  1.00  0.00     0.010 A 
ATOM     23  C   UNL     1       0.396   5.679  -0.744  1.00  0.00     0.010 A 
BRANCH  19  24
ATOM     24  S   UNL     1       0.409   1.657  -1.130  1.00  0.00     0.175 S 
ATOM     25  C   UNL     1       0.989   0.481   0.059  1.00  0.00     0.163 C 
ATOM     26  O   UNL     1       1.235   1.518  -2.314  1.00  0.00    -0.224 OA
ATOM     27  O   UNL     1      -1.034   1.506  -1.206  1.00  0.00    -0.224 OA
ENDBRANCH  19  24
ENDBRANCH   8  18
BRANCH  17  28
ATOM     28  C   UNL     1      -0.568  10.995   1.384  1.00  0.00     0.429 C 
ATOM     29  F   UNL     1      -1.544  10.400   0.660  1.00  0.00    -0.167 F 
ATOM     30  F   UNL     1      -0.987  11.050   2.670  1.00  0.00    -0.167 F 
ATOM     31  F   UNL     1      -0.505  12.283   0.952  1.00  0.00    -0.167 F 
ENDBRANCH  17  28
ENDBRANCH   4   7
ENDBRANCH   2   3
ENDBRANCH   1   2
BRANCH   1  32
ATOM     32  C   UNL     1       4.298  14.952   3.380  1.00  0.00     0.118 C 
BRANCH  32  33
ATOM     33  N   UNL     1       4.375  16.126   2.526  1.00  0.00    -0.352 N 
ATOM     34  C   UNL     1       4.856  17.380   2.817  1.00  0.00     0.251 C 
ATOM     35  H   UNL     1       4.034  16.006   1.610  1.00  0.00     0.163 HD
ATOM     36  O   UNL     1       4.705  18.295   2.014  1.00  0.00    -0.269 OA
BRANCH  34  37
ATOM     37  C   UNL     1       5.524  17.626   4.114  1.00  0.00     0.039 A 
ATOM     38  C   UNL     1       5.160  18.748   4.860  1.00  0.00     0.014 A 
ATOM     39  C   UNL     1       6.489  16.740   4.601  1.00  0.00     0.014 A 
ATOM     40  C   UNL     1       5.712  18.943   6.128  1.00  0.00     0.010 A 
ATOM     41  C   UNL     1       6.974  16.892   5.897  1.00  0.00     0.010 A 
ATOM     42  C   UNL     1       6.592  17.995   6.676  1.00  0.00    -0.014 A 
BRANCH  42  43
ATOM     43  C   UNL     1       7.118  18.137   8.059  1.00  0.00     0.031 A 
ATOM     44  C   UNL     1       8.598  18.277   8.297  1.00  0.00     0.074 A 
ATOM     45  C   UNL     1       6.270  18.076   9.107  1.00  0.00     0.049 A 
ATOM     46  N   UNL     1       9.248  18.353   9.431  1.00  0.00    -0.248 NA
ATOM     47  C   UNL     1       9.465  18.307   7.107  1.00  0.00     0.031 C 
ATOM     48  C   UNL     1       4.818  17.898   9.014  1.00  0.00     0.029 A 
ATOM     49  N   UNL     1       6.506  18.152  10.457  1.00  0.00    -0.354 N 
ATOM     50  C   UNL     1      10.595  18.421   9.092  1.00  0.00     0.074 A 
ATOM     51  C   UNL     1      10.673  18.320   7.652  1.00  0.00     0.031 C 
ATOM     52  C   UNL     1       4.292  17.911  10.249  1.00  0.00     0.029 A 
ATOM     53  C   UNL     1       5.369  18.052  11.225  1.00  0.00     0.049 A 
ATOM     54  H   UNL     1       7.405  18.268  10.841  1.00  0.00     0.167 HD
ATOM     55  C   UNL     1      11.668  18.575   9.903  1.00  0.00     0.031 A 
ATOM     56  C   UNL     1       5.207  18.066  12.563  1.00  0.00     0.031 A 
ATOM     57  C   UNL     1      11.586  18.687  11.335  1.00  0.00     0.049 A 
ATOM     58  C   UNL     1       6.416  18.231  13.444  1.00  0.00     0.074 A 
ATOM     59  C   UNL     1      12.610  18.903  12.241  1.00  0.00     0.029 A 
ATOM     60  N   UNL     1      10.415  18.592  12.072  1.00  0.00    -0.354 N 
ATOM     61  N   UNL     1       7.675  18.361  13.099  1.00  0.00    -0.248 NA
ATOM     62  C   UNL     1       6.181  18.263  14.894  1.00  0.00     0.031 C 
ATOM     63  C   UNL     1      12.066  18.882  13.529  1.00  0.00     0.029 A 
ATOM     64  C   UNL     1      10.693  18.719  13.422  1.00  0.00     0.049 A 
ATOM     65  H   UNL     1       9.517  18.454  11.690  1.00  0.00     0.167 HD
ATOM     66  C   UNL     1       8.378  18.520  14.288  1.00  0.00     0.074 A 
ATOM     67  C   UNL     1       7.402  18.486  15.358  1.00  0.00     0.031 C 
ATOM     68  C   UNL     1       9.711  18.683  14.477  1.00  0.00     0.031 A 
BRANCH  55  69
ATOM     69  C   UNL     1      13.029  18.627   9.257  1.00  0.00    -0.014 A 
ATOM     70  C   UNL     1      13.414  19.718   8.456  1.00  0.00     0.010 A 
ATOM     71  C   UNL     1      13.952  17.589   9.484  1.00  0.00     0.010 A 
ATOM     72  C   UNL     1      14.677  19.748   7.858  1.00  0.00     0.020 A 
ATOM     73  C   UNL     1      15.228  17.631   8.915  1.00  0.00     0.020 A 
ATOM     74  C   UNL     1      15.575  18.703   8.090  1.00  0.00     0.054 A 
BRANCH  74  75
ATOM     75  S   UNL     1      17.215  18.782   7.320  1.00  0.00     0.124 S 
ATOM     76  O   UNL     1      16.901  18.527   5.916  1.00  0.00    -0.237 OA
ATOM     77  O   UNL     1      17.649  20.142   7.629  1.00  0.00    -0.237 OA
ATOM     78  O   UNL     1      17.966  17.723   7.991  1.00  0.00    -0.744 OA
ENDBRANCH  74  75
ENDBRANCH  55  69
BRANCH  56  79
ATOM     79  C   UNL     1       3.845  17.936  13.151  1.00  0.00    -0.014 A 
ATOM     80  C   UNL     1       3.236  19.028  13.794  1.00  0.00     0.010 A 
ATOM     81  C   UNL     1       3.144  16.719  13.062  1.00  0.00     0.010 A 
ATOM     82  C   UNL     1       1.961  18.901  14.354  1.00  0.00     0.020 A 
ATOM     83  C   UNL     1       1.857  16.597  13.594  1.00  0.00     0.020 A 
ATOM     84  C   UNL     1       1.278  17.686  14.248  1.00  0.00     0.054 A 
BRANCH  84  85
ATOM     85  S   UNL     1      -0.395  17.560  14.938  1.00  0.00     0.124 S 
ATOM     86  O   UNL     1      -0.132  17.544  16.373  1.00  0.00    -0.237 OA
ATOM     87  O   UNL     1      -1.039  18.766  14.425  1.00  0.00    -0.237 OA
ATOM     88  O   UNL     1      -0.901  16.308  14.379  1.00  0.00    -0.744 OA
ENDBRANCH  84  85
ENDBRANCH  56  79
BRANCH  68  89
ATOM     89  C   UNL     1      10.194  18.875  15.891  1.00  0.00    -0.014 A 
ATOM     90  C   UNL     1      10.191  17.818  16.817  1.00  0.00     0.010 A 
ATOM     91  C   UNL     1      10.710  20.126  16.280  1.00  0.00     0.010 A 
ATOM     92  C   UNL     1      10.662  18.017  18.117  1.00  0.00     0.020 A 
ATOM     93  C   UNL     1      11.211  20.320  17.570  1.00  0.00     0.020 A 
ATOM     94  C   UNL     1      11.170  19.267  18.485  1.00  0.00     0.054 A 
BRANCH  94  95
ATOM     95  S   UNL     1      11.813  19.487  20.166  1.00  0.00     0.124 S 
ATOM     96  O   UNL     1      10.588  19.504  20.961  1.00  0.00    -0.237 OA
ATOM     97  O   UNL     1      12.660  18.310  20.342  1.00  0.00    -0.237 OA
ATOM     98  O   UNL     1      12.530  20.759  20.100  1.00  0.00    -0.744 OA
ENDBRANCH  94  95
ENDBRANCH  68  89
ENDBRANCH  42  43
ENDBRANCH  34  37
ENDBRANCH  32  33
ENDBRANCH   1  32
TORSDOF 16
