REMARK SMILES COc1ccc([C@@H]([NH3+])[C@](C)(C(N)=O)C(=O)NCCCNC(=O)c2ccc(-c3c4nc(c(-c5ccc(S(=O)(=O)[O-])cc5)c5ccc([nH]5)c(-c5ccc(S(=O)(=O)[O-])cc5)c5nc(c(-c6ccc(S(=O)(=O)[O-])cc6)c6ccc3[nH]6)C=C5)C=C4)cc2)cc1OC
REMARK SMILES IDX 18 1 17 2 16 3 14 4 15 5 9 7 10 8 7 9 6 10 3 11 4 12 84 13
REMARK SMILES IDX 5 14 83 15 2 16 1 17 85 18 86 19 8 20 11 24 12 25 13 26
REMARK SMILES IDX 19 29 20 30 21 31 22 33 23 34 24 35 82 36 25 37 81 38 26 39
REMARK SMILES IDX 27 40 28 41 75 42 29 43 80 44 74 45 76 46 30 47 79 48 73 49
REMARK SMILES IDX 72 50 31 52 61 53 42 54 60 55 43 56 46 57 59 58 77 59 44 60
REMARK SMILES IDX 45 61 58 63 78 64 47 65 32 66 33 67 41 68 34 69 40 70 35 71
REMARK SMILES IDX 36 72 37 73 38 74 39 75 62 76 63 77 71 78 64 79 70 80 65 81
REMARK SMILES IDX 66 82 67 83 68 84 69 85 48 86 49 87 57 88 50 89 56 90 51 91
REMARK SMILES IDX 52 92 53 93 54 94 55 95
REMARK H PARENT 16 6 8 21 8 22 8 23 12 27 12 28 20 32 76 51 46 62
REMARK Flexibility Score: inf
ROOT
ATOM      1  C   UNL     1      -1.323   6.011  -7.638  1.00  0.00     0.042 C 
ENDROOT
BRANCH   1   2
ATOM      2  C   UNL     1      -0.797   5.401  -6.349  1.00  0.00     0.117 C 
BRANCH   2   3
ATOM      3  N   UNL     1      -0.974   3.957  -6.318  1.00  0.00    -0.355 N 
ATOM      4  C   UNL     1      -0.073   2.935  -6.313  1.00  0.00     0.241 C 
ATOM      5  O   UNL     1      -0.544   1.801  -6.455  1.00  0.00    -0.274 OA
ATOM      6  H   UNL     1      -1.914   3.666  -6.298  1.00  0.00     0.163 HD
BRANCH   4   7
ATOM      7  C   UNL     1       1.438   3.175  -6.153  1.00  0.00     0.180 C 
ATOM      8  C   UNL     1       2.178   1.822  -6.309  1.00  0.00     0.039 C 
BRANCH   7   9
ATOM      9  C   UNL     1       1.719   3.837  -4.751  1.00  0.00     0.237 C 
BRANCH   9  10
ATOM     10  C   UNL     1       0.913   3.251  -3.594  1.00  0.00     0.015 A 
ATOM     11  C   UNL     1      -0.730   2.189  -1.558  1.00  0.00     0.160 A 
ATOM     12  C   UNL     1       0.345   1.449  -2.069  1.00  0.00     0.051 A 
ATOM     13  C   UNL     1      -0.966   3.486  -2.020  1.00  0.00     0.161 A 
ATOM     14  C   UNL     1       1.160   1.977  -3.076  1.00  0.00     0.014 A 
ATOM     15  C   UNL     1      -0.137   3.999  -3.029  1.00  0.00     0.060 A 
BRANCH  11  16
ATOM     16  O   UNL     1      -1.454   1.637  -0.536  1.00  0.00    -0.493 OA
ATOM     17  C   UNL     1      -2.397   0.681  -1.021  1.00  0.00     0.278 C 
ENDBRANCH  11  16
BRANCH  13  18
ATOM     18  O   UNL     1      -1.914   4.386  -1.617  1.00  0.00    -0.493 OA
ATOM     19  C   UNL     1      -2.972   3.938  -0.786  1.00  0.00     0.278 C 
ENDBRANCH  13  18
ENDBRANCH   9  10
BRANCH   9  20
ATOM     20  N   UNL     1       3.148   3.896  -4.378  1.00  0.00    -0.350 N 
ATOM     21  H   UNL     1       3.498   2.951  -4.221  1.00  0.00     0.345 HD
ATOM     22  H   UNL     1       3.254   4.444  -3.524  1.00  0.00     0.345 HD
ATOM     23  H   UNL     1       3.679   4.334  -5.131  1.00  0.00     0.345 HD
ENDBRANCH   9  20
ENDBRANCH   7   9
BRANCH   7  24
ATOM     24  C   UNL     1       1.968   4.064  -7.285  1.00  0.00     0.239 C 
ATOM     25  N   UNL     1       1.497   3.821  -8.546  1.00  0.00    -0.369 N 
ATOM     26  O   UNL     1       2.818   4.936  -7.120  1.00  0.00    -0.274 OA
ATOM     27  H   UNL     1       0.816   3.125  -8.691  1.00  0.00     0.159 HD
ATOM     28  H   UNL     1       1.839   4.341  -9.308  1.00  0.00     0.159 HD
ENDBRANCH   7  24
ENDBRANCH   4   7
ENDBRANCH   2   3
ENDBRANCH   1   2
BRANCH   1  29
ATOM     29  C   UNL     1      -2.820   5.822  -7.832  1.00  0.00     0.118 C 
BRANCH  29  30
ATOM     30  N   UNL     1      -3.610   6.540  -6.842  1.00  0.00    -0.352 N 
ATOM     31  C   UNL     1      -4.433   7.633  -6.996  1.00  0.00     0.251 C 
ATOM     32  H   UNL     1      -3.546   6.191  -5.923  1.00  0.00     0.163 HD
ATOM     33  O   UNL     1      -4.858   8.220  -6.010  1.00  0.00    -0.269 OA
BRANCH  31  34
ATOM     34  C   UNL     1      -4.774   8.108  -8.354  1.00  0.00     0.039 A 
ATOM     35  C   UNL     1      -4.720   9.476  -8.629  1.00  0.00     0.014 A 
ATOM     36  C   UNL     1      -5.129   7.204  -9.357  1.00  0.00     0.014 A 
ATOM     37  C   UNL     1      -4.934   9.926  -9.935  1.00  0.00     0.010 A 
ATOM     38  C   UNL     1      -5.245   7.643 -10.672  1.00  0.00     0.010 A 
ATOM     39  C   UNL     1      -5.146   9.008 -10.976  1.00  0.00    -0.014 A 
BRANCH  39  40
ATOM     40  C   UNL     1      -5.254   9.445 -12.393  1.00  0.00     0.031 A 
ATOM     41  C   UNL     1      -6.513   9.175 -13.172  1.00  0.00     0.074 A 
ATOM     42  C   UNL     1      -4.190  10.007 -13.001  1.00  0.00     0.049 A 
ATOM     43  N   UNL     1      -6.760   9.387 -14.439  1.00  0.00    -0.248 NA
ATOM     44  C   UNL     1      -7.633   8.560 -12.438  1.00  0.00     0.031 C 
ATOM     45  C   UNL     1      -2.900  10.290 -12.366  1.00  0.00     0.029 A 
ATOM     46  N   UNL     1      -4.019  10.430 -14.296  1.00  0.00    -0.354 N 
ATOM     47  C   UNL     1      -8.050   8.918 -14.657  1.00  0.00     0.074 A 
ATOM     48  C   UNL     1      -8.515   8.362 -13.406  1.00  0.00     0.031 C 
ATOM     49  C   UNL     1      -2.083  10.863 -13.264  1.00  0.00     0.029 A 
ATOM     50  C   UNL     1      -2.767  10.939 -14.551  1.00  0.00     0.049 A 
ATOM     51  H   UNL     1      -4.727  10.375 -14.979  1.00  0.00     0.167 HD
ATOM     52  C   UNL     1      -8.789   8.963 -15.792  1.00  0.00     0.031 A 
ATOM     53  C   UNL     1      -2.221  11.400 -15.694  1.00  0.00     0.031 A 
ATOM     54  C   UNL     1      -8.324   9.524 -17.033  1.00  0.00     0.049 A 
ATOM     55  C   UNL     1      -3.049  11.407 -16.950  1.00  0.00     0.074 A 
ATOM     56  C   UNL     1      -9.015   9.666 -18.223  1.00  0.00     0.029 A 
ATOM     57  N   UNL     1      -7.050  10.029 -17.247  1.00  0.00    -0.354 N 
ATOM     58  N   UNL     1      -4.291  11.020 -17.119  1.00  0.00    -0.248 NA
ATOM     59  C   UNL     1      -2.405  11.918 -18.168  1.00  0.00     0.031 C 
ATOM     60  C   UNL     1      -8.140  10.197 -19.175  1.00  0.00     0.029 A 
ATOM     61  C   UNL     1      -6.925  10.451 -18.560  1.00  0.00     0.049 A 
ATOM     62  H   UNL     1      -6.340  10.079 -16.567  1.00  0.00     0.167 HD
ATOM     63  C   UNL     1      -4.585  11.267 -18.456  1.00  0.00     0.074 A 
ATOM     64  C   UNL     1      -3.397  11.850 -19.045  1.00  0.00     0.031 C 
ATOM     65  C   UNL     1      -5.736  11.030 -19.134  1.00  0.00     0.031 A 
BRANCH  52  66
ATOM     66  C   UNL     1     -10.177   8.379 -15.745  1.00  0.00    -0.014 A 
ATOM     67  C   UNL     1     -11.201   8.991 -14.999  1.00  0.00     0.010 A 
ATOM     68  C   UNL     1     -10.475   7.227 -16.495  1.00  0.00     0.010 A 
ATOM     69  C   UNL     1     -12.483   8.438 -14.968  1.00  0.00     0.020 A 
ATOM     70  C   UNL     1     -11.765   6.688 -16.494  1.00  0.00     0.020 A 
ATOM     71  C   UNL     1     -12.757   7.289 -15.716  1.00  0.00     0.054 A 
BRANCH  71  72
ATOM     72  S   UNL     1     -14.437   6.608 -15.675  1.00  0.00     0.124 S 
ATOM     73  O   UNL     1     -14.508   6.064 -14.321  1.00  0.00    -0.237 OA
ATOM     74  O   UNL     1     -15.265   7.785 -15.922  1.00  0.00    -0.237 OA
ATOM     75  O   UNL     1     -14.436   5.614 -16.745  1.00  0.00    -0.744 OA
ENDBRANCH  71  72
ENDBRANCH  52  66
BRANCH  53  76
ATOM     76  C   UNL     1      -0.815  11.892 -15.703  1.00  0.00    -0.014 A 
ATOM     77  C   UNL     1      -0.536  13.257 -15.888  1.00  0.00     0.010 A 
ATOM     78  C   UNL     1       0.255  10.997 -15.516  1.00  0.00     0.010 A 
ATOM     79  C   UNL     1       0.784  13.716 -15.905  1.00  0.00     0.020 A 
ATOM     80  C   UNL     1       1.575  11.456 -15.500  1.00  0.00     0.020 A 
ATOM     81  C   UNL     1       1.832  12.812 -15.706  1.00  0.00     0.054 A 
BRANCH  81  82
ATOM     82  S   UNL     1       3.534  13.439 -15.682  1.00  0.00     0.124 S 
ATOM     83  O   UNL     1       3.757  13.765 -17.087  1.00  0.00    -0.237 OA
ATOM     84  O   UNL     1       3.436  14.579 -14.774  1.00  0.00    -0.237 OA
ATOM     85  O   UNL     1       4.307  12.309 -15.170  1.00  0.00    -0.744 OA
ENDBRANCH  81  82
ENDBRANCH  53  76
BRANCH  65  86
ATOM     86  C   UNL     1      -5.785  11.429 -20.585  1.00  0.00    -0.014 A 
ATOM     87  C   UNL     1      -5.073  10.712 -21.563  1.00  0.00     0.010 A 
ATOM     88  C   UNL     1      -6.615  12.493 -20.984  1.00  0.00     0.010 A 
ATOM     89  C   UNL     1      -5.175  11.065 -22.912  1.00  0.00     0.020 A 
ATOM     90  C   UNL     1      -6.744  12.829 -22.334  1.00  0.00     0.020 A 
ATOM     91  C   UNL     1      -6.015  12.119 -23.289  1.00  0.00     0.054 A 
BRANCH  91  92
ATOM     92  S   UNL     1      -6.178  12.514 -25.051  1.00  0.00     0.124 S 
ATOM     93  O   UNL     1      -4.880  13.113 -25.350  1.00  0.00    -0.237 OA
ATOM     94  O   UNL     1      -6.419  11.204 -25.651  1.00  0.00    -0.237 OA
ATOM     95  O   UNL     1      -7.313  13.432 -25.098  1.00  0.00    -0.744 OA
ENDBRANCH  91  92
ENDBRANCH  65  86
ENDBRANCH  39  40
ENDBRANCH  31  34
ENDBRANCH  29  30
ENDBRANCH   1  29
TORSDOF 19
