REMARK SMILES CN(C)c1cc(C(=O)NCCCNC(=O)c2ccc(-c3c4nc(c(-c5ccc(S(=O)(=O)[O-])cc5)c5ccc([nH]5)c(-c5ccc(S(=O)(=O)[O-])cc5)c5nc(c(-c6ccc(S(=O)(=O)[O-])cc6)c6ccc3[nH]6)C=C5)C=C4)cc2)c(F)cc1F
REMARK SMILES IDX 12 1 11 2 10 3 9 4 7 5 8 6 6 8 4 9 5 10 79 11 78 12 80 13
REMARK SMILES IDX 76 14 77 15 2 16 1 17 3 18 13 19 14 20 15 22 16 23 17 24
REMARK SMILES IDX 75 25 18 26 74 27 19 28 20 29 21 30 68 31 22 32 73 33 67 34
REMARK SMILES IDX 69 35 23 36 72 37 66 38 65 39 24 41 54 42 35 43 53 44 36 45
REMARK SMILES IDX 39 46 52 47 70 48 37 49 38 50 51 52 71 53 40 54 25 55 26 56
REMARK SMILES IDX 34 57 27 58 33 59 28 60 29 61 30 62 31 63 32 64 55 65 56 66
REMARK SMILES IDX 64 67 57 68 63 69 58 70 59 71 60 72 61 73 62 74 41 75 42 76
REMARK SMILES IDX 50 77 43 78 49 79 44 80 45 81 46 82 47 83 48 84
REMARK H PARENT 9 7 13 21 69 40 39 51
REMARK Flexibility Score: inf
ROOT
ATOM      1  C   UNL     1       4.495   1.539  -8.497  1.00  0.00     0.118 C 
ENDROOT
BRANCH   1   2
ATOM      2  C   UNL     1       3.273   0.849  -7.890  1.00  0.00     0.042 C 
BRANCH   2   3
ATOM      3  C   UNL     1       3.622  -0.350  -7.007  1.00  0.00     0.118 C 
BRANCH   3   4
ATOM      4  N   UNL     1       4.133   0.082  -5.720  1.00  0.00    -0.352 N 
ATOM      5  C   UNL     1       3.573   0.200  -4.477  1.00  0.00     0.254 C 
ATOM      6  O   UNL     1       4.315   0.613  -3.581  1.00  0.00    -0.269 OA
ATOM      7  H   UNL     1       5.081   0.346  -5.746  1.00  0.00     0.163 HD
BRANCH   5   8
ATOM      8  C   UNL     1       2.186  -0.195  -4.113  1.00  0.00     0.077 A 
ATOM      9  C   UNL     1       0.737  -0.944  -2.246  1.00  0.00     0.073 A 
ATOM     10  C   UNL     1       1.986  -0.546  -2.760  1.00  0.00     0.046 A 
ATOM     11  C   UNL     1      -0.322  -1.017  -3.165  1.00  0.00     0.149 A 
ATOM     12  C   UNL     1      -0.165  -0.635  -4.494  1.00  0.00     0.081 A 
ATOM     13  F   UNL     1      -1.547  -1.400  -2.774  1.00  0.00    -0.205 F 
ATOM     14  C   UNL     1       1.075  -0.198  -4.950  1.00  0.00     0.139 A 
ATOM     15  F   UNL     1       1.123   0.258  -6.205  1.00  0.00    -0.206 F 
BRANCH   9  16
ATOM     16  N   UNL     1       0.611  -1.224  -0.885  1.00  0.00    -0.375 N 
ATOM     17  C   UNL     1       1.070  -0.194   0.043  1.00  0.00     0.143 C 
ATOM     18  C   UNL     1      -0.404  -2.156  -0.420  1.00  0.00     0.143 C 
ENDBRANCH   9  16
ENDBRANCH   5   8
ENDBRANCH   3   4
ENDBRANCH   2   3
ENDBRANCH   1   2
BRANCH   1  19
ATOM     19  N   UNL     1       5.146   0.711  -9.504  1.00  0.00    -0.352 N 
ATOM     20  C   UNL     1       5.311   0.919 -10.852  1.00  0.00     0.251 C 
ATOM     21  H   UNL     1       5.526  -0.131  -9.165  1.00  0.00     0.163 HD
ATOM     22  O   UNL     1       5.670  -0.015 -11.563  1.00  0.00    -0.269 OA
BRANCH  20  23
ATOM     23  C   UNL     1       5.058   2.248 -11.452  1.00  0.00     0.039 A 
ATOM     24  C   UNL     1       4.401   2.317 -12.685  1.00  0.00     0.014 A 
ATOM     25  C   UNL     1       5.503   3.420 -10.834  1.00  0.00     0.014 A 
ATOM     26  C   UNL     1       4.130   3.560 -13.263  1.00  0.00     0.010 A 
ATOM     27  C   UNL     1       5.180   4.661 -11.381  1.00  0.00     0.010 A 
ATOM     28  C   UNL     1       4.483   4.744 -12.596  1.00  0.00    -0.014 A 
BRANCH  28  29
ATOM     29  C   UNL     1       4.095   6.077 -13.127  1.00  0.00     0.031 A 
ATOM     30  C   UNL     1       5.144   7.067 -13.553  1.00  0.00     0.074 A 
ATOM     31  C   UNL     1       2.792   6.424 -13.143  1.00  0.00     0.049 A 
ATOM     32  N   UNL     1       4.997   8.306 -13.946  1.00  0.00    -0.248 NA
ATOM     33  C   UNL     1       6.543   6.612 -13.513  1.00  0.00     0.031 C 
ATOM     34  C   UNL     1       1.682   5.564 -12.725  1.00  0.00     0.029 A 
ATOM     35  N   UNL     1       2.181   7.596 -13.512  1.00  0.00    -0.354 N 
ATOM     36  C   UNL     1       6.280   8.785 -14.183  1.00  0.00     0.074 A 
ATOM     37  C   UNL     1       7.196   7.714 -13.854  1.00  0.00     0.031 C 
ATOM     38  C   UNL     1       0.527   6.231 -12.874  1.00  0.00     0.029 A 
ATOM     39  C   UNL     1       0.815   7.579 -13.352  1.00  0.00     0.049 A 
ATOM     40  H   UNL     1       2.673   8.375 -13.858  1.00  0.00     0.167 HD
ATOM     41  C   UNL     1       6.659  10.002 -14.643  1.00  0.00     0.031 A 
ATOM     42  C   UNL     1      -0.104   8.544 -13.547  1.00  0.00     0.031 A 
ATOM     43  C   UNL     1       5.742  11.063 -14.971  1.00  0.00     0.049 A 
ATOM     44  C   UNL     1       0.344   9.895 -14.030  1.00  0.00     0.074 A 
ATOM     45  C   UNL     1       6.024  12.311 -15.500  1.00  0.00     0.029 A 
ATOM     46  N   UNL     1       4.367  11.006 -14.794  1.00  0.00    -0.354 N 
ATOM     47  N   UNL     1       1.558  10.308 -14.310  1.00  0.00    -0.248 NA
ATOM     48  C   UNL     1      -0.700  10.910 -14.225  1.00  0.00     0.031 C 
ATOM     49  C   UNL     1       4.826  13.029 -15.590  1.00  0.00     0.029 A 
ATOM     50  C   UNL     1       3.791  12.208 -15.171  1.00  0.00     0.049 A 
ATOM     51  H   UNL     1       3.874  10.226 -14.451  1.00  0.00     0.167 HD
ATOM     52  C   UNL     1       1.421  11.626 -14.728  1.00  0.00     0.074 A 
ATOM     53  C   UNL     1       0.005  11.934 -14.686  1.00  0.00     0.031 C 
ATOM     54  C   UNL     1       2.381  12.504 -15.110  1.00  0.00     0.031 A 
BRANCH  41  55
ATOM     55  C   UNL     1       8.135  10.258 -14.809  1.00  0.00    -0.014 A 
ATOM     56  C   UNL     1       8.873   9.623 -15.825  1.00  0.00     0.010 A 
ATOM     57  C   UNL     1       8.784  11.180 -13.968  1.00  0.00     0.010 A 
ATOM     58  C   UNL     1      10.241   9.874 -15.969  1.00  0.00     0.020 A 
ATOM     59  C   UNL     1      10.146  11.454 -14.126  1.00  0.00     0.020 A 
ATOM     60  C   UNL     1      10.870  10.785 -15.115  1.00  0.00     0.054 A 
BRANCH  60  61
ATOM     61  S   UNL     1      12.641  11.105 -15.339  1.00  0.00     0.124 S 
ATOM     62  O   UNL     1      13.236   9.873 -14.828  1.00  0.00    -0.237 OA
ATOM     63  O   UNL     1      12.752  11.304 -16.782  1.00  0.00    -0.237 OA
ATOM     64  O   UNL     1      12.884  12.296 -14.528  1.00  0.00    -0.744 OA
ENDBRANCH  60  61
ENDBRANCH  41  55
BRANCH  42  65
ATOM     65  C   UNL     1      -1.541   8.265 -13.279  1.00  0.00    -0.014 A 
ATOM     66  C   UNL     1      -2.457   8.157 -14.340  1.00  0.00     0.010 A 
ATOM     67  C   UNL     1      -1.998   8.084 -11.960  1.00  0.00     0.010 A 
ATOM     68  C   UNL     1      -3.805   7.887 -14.087  1.00  0.00     0.020 A 
ATOM     69  C   UNL     1      -3.339   7.785 -11.705  1.00  0.00     0.020 A 
ATOM     70  C   UNL     1      -4.237   7.699 -12.771  1.00  0.00     0.054 A 
BRANCH  70  71
ATOM     71  S   UNL     1      -5.979   7.290 -12.471  1.00  0.00     0.124 S 
ATOM     72  O   UNL     1      -6.636   8.572 -12.706  1.00  0.00    -0.237 OA
ATOM     73  O   UNL     1      -6.237   6.254 -13.468  1.00  0.00    -0.237 OA
ATOM     74  O   UNL     1      -5.987   6.825 -11.086  1.00  0.00    -0.744 OA
ENDBRANCH  70  71
ENDBRANCH  42  65
BRANCH  54  75
ATOM     75  C   UNL     1       1.932  13.880 -15.522  1.00  0.00    -0.014 A 
ATOM     76  C   UNL     1       1.483  14.811 -14.568  1.00  0.00     0.010 A 
ATOM     77  C   UNL     1       2.008  14.264 -16.873  1.00  0.00     0.010 A 
ATOM     78  C   UNL     1       1.091  16.093 -14.963  1.00  0.00     0.020 A 
ATOM     79  C   UNL     1       1.643  15.554 -17.268  1.00  0.00     0.020 A 
ATOM     80  C   UNL     1       1.174  16.456 -16.311  1.00  0.00     0.054 A 
BRANCH  80  81
ATOM     81  S   UNL     1       0.704  18.141 -16.790  1.00  0.00     0.124 S 
ATOM     82  O   UNL     1      -0.752  18.092 -16.686  1.00  0.00    -0.237 OA
ATOM     83  O   UNL     1       1.378  18.961 -15.786  1.00  0.00    -0.237 OA
ATOM     84  O   UNL     1       1.228  18.275 -18.148  1.00  0.00    -0.744 OA
ENDBRANCH  80  81
ENDBRANCH  54  75
ENDBRANCH  28  29
ENDBRANCH  20  23
ENDBRANCH   1  19
TORSDOF 14
