REMARK SMILES CN(CCO)C(=O)N[C@H]1C=C[C@@H](C(=O)NCCCNC(=O)c2ccc(-c3c4nc(c(-c5ccc(S(=O)(=O)[O-])cc5)c5ccc([nH]5)c(-c5ccc(S(=O)(=O)[O-])cc5)c5nc(c(-c6ccc(S(=O)(=O)[O-])cc6)c6ccc3[nH]6)C=C5)C=C4)cc2)C1
REMARK SMILES IDX 16 1 15 2 13 3 14 4 12 6 9 7 10 8 82 9 11 10 8 11 6 12 7 13
REMARK SMILES IDX 2 15 1 16 3 17 4 18 5 19 17 21 18 22 19 23 20 24 21 26 22 27
REMARK SMILES IDX 23 28 81 29 24 30 80 31 25 32 26 33 27 34 74 35 28 36 79 37
REMARK SMILES IDX 73 38 75 39 29 40 78 41 72 42 71 43 30 45 60 46 41 47 59 48
REMARK SMILES IDX 42 49 45 50 58 51 76 52 43 53 44 54 57 56 77 57 46 58 31 59
REMARK SMILES IDX 32 60 40 61 33 62 39 63 34 64 35 65 36 66 37 67 38 68 61 69
REMARK SMILES IDX 62 70 70 71 63 72 69 73 64 74 65 75 66 76 67 77 68 78 47 79
REMARK SMILES IDX 48 80 56 81 49 82 55 83 50 84 51 85 52 86 53 87 54 88
REMARK H PARENT 15 5 8 14 5 20 19 25 75 44 45 55
REMARK Flexibility Score: inf
ROOT
ATOM      1  C   UNL     1      -2.276   5.613   3.338  1.00  0.00     0.117 C 
ENDROOT
BRANCH   1   2
ATOM      2  N   UNL     1      -2.651   6.885   2.741  1.00  0.00    -0.356 N 
ATOM      3  C   UNL     1      -2.605   7.326   1.455  1.00  0.00     0.227 C 
ATOM      4  O   UNL     1      -2.998   8.476   1.236  1.00  0.00    -0.274 OA
ATOM      5  H   UNL     1      -2.999   7.545   3.383  1.00  0.00     0.163 HD
BRANCH   3   6
ATOM      6  C   UNL     1      -2.128   6.448   0.297  1.00  0.00     0.103 C 
ATOM      7  C   UNL     1      -0.692   4.457   0.035  1.00  0.00     0.107 C 
ATOM      8  C   UNL     1      -2.146   4.119   0.109  1.00  0.00    -0.006 C 
ATOM      9  C   UNL     1      -0.678   5.960   0.392  1.00  0.00     0.047 C 
ATOM     10  C   UNL     1      -2.931   5.194   0.206  1.00  0.00    -0.016 C 
BRANCH   7  11
ATOM     11  N   UNL     1       0.066   3.663   0.979  1.00  0.00    -0.332 N 
ATOM     12  C   UNL     1       0.664   2.462   0.994  1.00  0.00     0.317 C 
ATOM     13  O   UNL     1       1.386   2.260   1.976  1.00  0.00    -0.249 OA
ATOM     14  H   UNL     1       0.171   4.128   1.840  1.00  0.00     0.165 HD
BRANCH  12  15
ATOM     15  N   UNL     1       0.471   1.489   0.051  1.00  0.00    -0.326 N 
ATOM     16  C   UNL     1       1.190   0.237   0.284  1.00  0.00     0.148 C 
BRANCH  15  17
ATOM     17  C   UNL     1      -0.480   1.459  -1.061  1.00  0.00     0.149 C 
BRANCH  17  18
ATOM     18  C   UNL     1      -1.793   0.731  -0.732  1.00  0.00     0.177 C 
BRANCH  18  19
ATOM     19  O   UNL     1      -2.163   0.823   0.640  1.00  0.00    -0.395 OA
ATOM     20  H   UNL     1      -1.481   0.402   1.188  1.00  0.00     0.210 HD
ENDBRANCH  18  19
ENDBRANCH  17  18
ENDBRANCH  15  17
ENDBRANCH  12  15
ENDBRANCH   7  11
ENDBRANCH   3   6
ENDBRANCH   1   2
BRANCH   1  21
ATOM     21  C   UNL     1      -1.037   5.738   4.211  1.00  0.00     0.042 C 
BRANCH  21  22
ATOM     22  C   UNL     1      -1.261   6.589   5.450  1.00  0.00     0.118 C 
BRANCH  22  23
ATOM     23  N   UNL     1      -2.201   5.983   6.381  1.00  0.00    -0.352 N 
ATOM     24  C   UNL     1      -2.034   5.666   7.708  1.00  0.00     0.251 C 
ATOM     25  H   UNL     1      -3.086   5.769   6.006  1.00  0.00     0.163 HD
ATOM     26  O   UNL     1      -2.875   4.990   8.284  1.00  0.00    -0.269 OA
BRANCH  24  27
ATOM     27  C   UNL     1      -0.825   6.129   8.424  1.00  0.00     0.039 A 
ATOM     28  C   UNL     1      -0.171   5.250   9.290  1.00  0.00     0.014 A 
ATOM     29  C   UNL     1      -0.334   7.423   8.235  1.00  0.00     0.014 A 
ATOM     30  C   UNL     1       1.009   5.652   9.918  1.00  0.00     0.010 A 
ATOM     31  C   UNL     1       0.891   7.785   8.779  1.00  0.00     0.010 A 
ATOM     32  C   UNL     1       1.568   6.911   9.641  1.00  0.00    -0.014 A 
BRANCH  32  33
ATOM     33  C   UNL     1       2.847   7.345  10.257  1.00  0.00     0.031 A 
ATOM     34  C   UNL     1       2.874   8.549  11.161  1.00  0.00     0.074 A 
ATOM     35  C   UNL     1       3.988   6.692   9.963  1.00  0.00     0.049 A 
ATOM     36  N   UNL     1       3.894   9.111  11.757  1.00  0.00    -0.248 NA
ATOM     37  C   UNL     1       1.591   9.228  11.402  1.00  0.00     0.031 C 
ATOM     38  C   UNL     1       4.097   5.530   9.076  1.00  0.00     0.029 A 
ATOM     39  N   UNL     1       5.276   6.912  10.381  1.00  0.00    -0.354 N 
ATOM     40  C   UNL     1       3.378  10.212  12.431  1.00  0.00     0.074 A 
ATOM     41  C   UNL     1       1.969  10.279  12.112  1.00  0.00     0.031 C 
ATOM     42  C   UNL     1       5.373   5.112   9.056  1.00  0.00     0.029 A 
ATOM     43  C   UNL     1       6.179   6.001   9.886  1.00  0.00     0.049 A 
ATOM     44  H   UNL     1       5.530   7.652  10.979  1.00  0.00     0.167 HD
ATOM     45  C   UNL     1       4.010  11.074  13.263  1.00  0.00     0.031 A 
ATOM     46  C   UNL     1       7.508   5.892  10.082  1.00  0.00     0.031 A 
ATOM     47  C   UNL     1       5.412  11.004  13.575  1.00  0.00     0.049 A 
ATOM     48  C   UNL     1       8.198   6.884  10.977  1.00  0.00     0.074 A 
ATOM     49  C   UNL     1       6.146  11.805  14.432  1.00  0.00     0.029 A 
ATOM     50  N   UNL     1       6.295  10.079  13.037  1.00  0.00    -0.354 N 
ATOM     51  N   UNL     1       7.684   7.888  11.648  1.00  0.00    -0.248 NA
ATOM     52  C   UNL     1       9.647   6.721  11.150  1.00  0.00     0.031 C 
ATOM     53  C   UNL     1       7.483  11.399  14.369  1.00  0.00     0.029 A 
ATOM     54  C   UNL     1       7.572  10.303  13.525  1.00  0.00     0.049 A 
ATOM     55  H   UNL     1       6.051   9.367  12.402  1.00  0.00     0.167 HD
ATOM     56  C   UNL     1       8.742   8.455  12.351  1.00  0.00     0.074 A 
ATOM     57  C   UNL     1       9.920   7.676  12.029  1.00  0.00     0.031 C 
ATOM     58  C   UNL     1       8.736   9.520  13.191  1.00  0.00     0.031 A 
BRANCH  45  59
ATOM     59  C   UNL     1       3.177  12.171  13.878  1.00  0.00    -0.014 A 
ATOM     60  C   UNL     1       2.159  11.879  14.806  1.00  0.00     0.010 A 
ATOM     61  C   UNL     1       3.408  13.512  13.521  1.00  0.00     0.010 A 
ATOM     62  C   UNL     1       1.345  12.895  15.310  1.00  0.00     0.020 A 
ATOM     63  C   UNL     1       2.618  14.537  14.052  1.00  0.00     0.020 A 
ATOM     64  C   UNL     1       1.574  14.218  14.922  1.00  0.00     0.054 A 
BRANCH  64  65
ATOM     65  S   UNL     1       0.491  15.516  15.580  1.00  0.00     0.124 S 
ATOM     66  O   UNL     1      -0.748  15.274  14.844  1.00  0.00    -0.237 OA
ATOM     67  O   UNL     1       0.445  15.203  17.006  1.00  0.00    -0.237 OA
ATOM     68  O   UNL     1       1.186  16.754  15.238  1.00  0.00    -0.744 OA
ENDBRANCH  64  65
ENDBRANCH  45  59
BRANCH  46  69
ATOM     69  C   UNL     1       8.262   4.774   9.451  1.00  0.00    -0.014 A 
ATOM     70  C   UNL     1       8.767   3.727  10.243  1.00  0.00     0.010 A 
ATOM     71  C   UNL     1       8.460   4.733   8.059  1.00  0.00     0.010 A 
ATOM     72  C   UNL     1       9.466   2.668   9.658  1.00  0.00     0.020 A 
ATOM     73  C   UNL     1       9.134   3.661   7.466  1.00  0.00     0.020 A 
ATOM     74  C   UNL     1       9.641   2.639   8.272  1.00  0.00     0.054 A 
BRANCH  74  75
ATOM     75  S   UNL     1      10.503   1.224   7.532  1.00  0.00     0.124 S 
ATOM     76  O   UNL     1      11.881   1.453   7.955  1.00  0.00    -0.237 OA
ATOM     77  O   UNL     1       9.830   0.086   8.153  1.00  0.00    -0.237 OA
ATOM     78  O   UNL     1      10.254   1.381   6.101  1.00  0.00    -0.744 OA
ENDBRANCH  74  75
ENDBRANCH  46  69
BRANCH  58  79
ATOM     79  C   UNL     1      10.038   9.882  13.857  1.00  0.00    -0.014 A 
ATOM     80  C   UNL     1      11.098  10.454  13.134  1.00  0.00     0.010 A 
ATOM     81  C   UNL     1      10.180   9.690  15.245  1.00  0.00     0.010 A 
ATOM     82  C   UNL     1      12.290  10.796  13.779  1.00  0.00     0.020 A 
ATOM     83  C   UNL     1      11.357  10.059  15.899  1.00  0.00     0.020 A 
ATOM     84  C   UNL     1      12.412  10.597  15.158  1.00  0.00     0.054 A 
BRANCH  84  85
ATOM     85  S   UNL     1      13.953  11.088  15.979  1.00  0.00     0.124 S 
ATOM     86  O   UNL     1      14.882  10.057  15.523  1.00  0.00    -0.237 OA
ATOM     87  O   UNL     1      14.187  12.427  15.444  1.00  0.00    -0.237 OA
ATOM     88  O   UNL     1      13.619  11.041  17.400  1.00  0.00    -0.744 OA
ENDBRANCH  84  85
ENDBRANCH  58  79
ENDBRANCH  32  33
ENDBRANCH  24  27
ENDBRANCH  22  23
ENDBRANCH  21  22
ENDBRANCH   1  21
TORSDOF 18
