REMARK SMILES O=C(NCCCNC(=O)c1ccc2nc(-c3cc(F)cc(Br)c3)[nH]c2c1)c1ccc(-c2c3nc(c(-c4ccc(S(=O)(=O)[O-])cc4)c4ccc([nH]4)c(-c4ccc(S(=O)(=O)[O-])cc4)c4nc(c(-c5ccc(S(=O)(=O)[O-])cc5)c5ccc2[nH]5)C=C4)C=C3)cc1
REMARK SMILES IDX 4 1 3 2 1 3 2 4 27 6 28 7 86 8 29 9 85 10 30 11 31 12 32 13
REMARK SMILES IDX 79 14 33 15 84 16 78 17 80 18 34 19 83 20 77 21 76 22 35 24
REMARK SMILES IDX 65 25 46 26 64 27 47 28 50 29 63 30 81 31 48 32 49 33 62 35
REMARK SMILES IDX 82 36 51 37 36 38 37 39 45 40 38 41 44 42 39 43 40 44 41 45
REMARK SMILES IDX 42 46 43 47 66 48 67 49 75 50 68 51 74 52 69 53 70 54 71 55
REMARK SMILES IDX 72 56 73 57 52 58 53 59 61 60 54 61 60 62 55 63 56 64 57 65
REMARK SMILES IDX 58 66 59 67 5 68 6 69 7 70 8 71 9 73 10 74 11 75 26 76 12 77
REMARK SMILES IDX 25 78 13 79 24 80 14 81 15 82 16 84 17 85 23 86 18 87 21 88
REMARK SMILES IDX 19 89 20 90 22 91
REMARK H PARENT 3 5 80 23 50 34 7 72 24 83
REMARK Flexibility Score: inf
ROOT
ATOM      1  C   UNL     1       4.463   0.499  -1.258  1.00  0.00     0.118 C 
ENDROOT
BRANCH   1   2
ATOM      2  N   UNL     1       3.036   0.508  -0.961  1.00  0.00    -0.352 N 
ATOM      3  O   UNL     1       1.115  -0.059   0.065  1.00  0.00    -0.269 OA
ATOM      4  C   UNL     1       2.343  -0.036   0.096  1.00  0.00     0.251 C 
ATOM      5  H   UNL     1       2.478   0.978  -1.622  1.00  0.00     0.163 HD
BRANCH   4   6
ATOM      6  C   UNL     1       3.068  -0.613   1.250  1.00  0.00     0.039 A 
ATOM      7  C   UNL     1       4.198   0.017   1.767  1.00  0.00     0.014 A 
ATOM      8  C   UNL     1       2.604  -1.797   1.835  1.00  0.00     0.014 A 
ATOM      9  C   UNL     1       4.967  -0.623   2.729  1.00  0.00     0.010 A 
ATOM     10  C   UNL     1       3.318  -2.383   2.888  1.00  0.00     0.010 A 
ATOM     11  C   UNL     1       4.529  -1.821   3.318  1.00  0.00    -0.014 A 
BRANCH  11  12
ATOM     12  C   UNL     1       5.338  -2.408   4.419  1.00  0.00     0.031 A 
ATOM     13  C   UNL     1       5.987  -3.759   4.288  1.00  0.00     0.074 A 
ATOM     14  C   UNL     1       5.546  -1.662   5.524  1.00  0.00     0.049 A 
ATOM     15  N   UNL     1       6.795  -4.363   5.124  1.00  0.00    -0.248 NA
ATOM     16  C   UNL     1       5.694  -4.537   3.074  1.00  0.00     0.031 C 
ATOM     17  C   UNL     1       4.952  -0.344   5.775  1.00  0.00     0.029 A 
ATOM     18  N   UNL     1       6.342  -1.877   6.619  1.00  0.00    -0.354 N 
ATOM     19  C   UNL     1       7.096  -5.591   4.548  1.00  0.00     0.074 A 
ATOM     20  C   UNL     1       6.362  -5.661   3.303  1.00  0.00     0.031 C 
ATOM     21  C   UNL     1       5.461   0.161   6.907  1.00  0.00     0.029 A 
ATOM     22  C   UNL     1       6.362  -0.821   7.498  1.00  0.00     0.049 A 
ATOM     23  H   UNL     1       6.851  -2.708   6.761  1.00  0.00     0.167 HD
ATOM     24  C   UNL     1       7.915  -6.568   5.010  1.00  0.00     0.031 A 
ATOM     25  C   UNL     1       7.022  -0.655   8.659  1.00  0.00     0.031 A 
ATOM     26  C   UNL     1       8.643  -6.496   6.251  1.00  0.00     0.049 A 
ATOM     27  C   UNL     1       7.924  -1.750   9.144  1.00  0.00     0.074 A 
ATOM     28  C   UNL     1       9.495  -7.436   6.806  1.00  0.00     0.029 A 
ATOM     29  N   UNL     1       8.611  -5.422   7.128  1.00  0.00    -0.354 N 
ATOM     30  N   UNL     1       8.198  -2.900   8.575  1.00  0.00    -0.248 NA
ATOM     31  C   UNL     1       8.606  -1.527  10.424  1.00  0.00     0.031 C 
ATOM     32  C   UNL     1       9.951  -6.945   8.035  1.00  0.00     0.029 A 
ATOM     33  C   UNL     1       9.421  -5.679   8.223  1.00  0.00     0.049 A 
ATOM     34  H   UNL     1       8.090  -4.598   6.992  1.00  0.00     0.167 HD
ATOM     35  C   UNL     1       9.085  -3.539   9.431  1.00  0.00     0.074 A 
ATOM     36  C   UNL     1       9.330  -2.632  10.534  1.00  0.00     0.031 C 
ATOM     37  C   UNL     1       9.640  -4.771   9.319  1.00  0.00     0.031 A 
BRANCH  24  38
ATOM     38  C   UNL     1       8.062  -7.812   4.172  1.00  0.00    -0.014 A 
ATOM     39  C   UNL     1       8.809  -7.797   2.981  1.00  0.00     0.010 A 
ATOM     40  C   UNL     1       7.495  -9.023   4.609  1.00  0.00     0.010 A 
ATOM     41  C   UNL     1       8.963  -8.965   2.227  1.00  0.00     0.020 A 
ATOM     42  C   UNL     1       7.666 -10.198   3.869  1.00  0.00     0.020 A 
ATOM     43  C   UNL     1       8.387 -10.158   2.675  1.00  0.00     0.054 A 
BRANCH  43  44
ATOM     44  S   UNL     1       8.628 -11.664   1.692  1.00  0.00     0.124 S 
ATOM     45  O   UNL     1       7.732 -11.431   0.561  1.00  0.00    -0.237 OA
ATOM     46  O   UNL     1      10.055 -11.620   1.380  1.00  0.00    -0.237 OA
ATOM     47  O   UNL     1       8.223 -12.737   2.596  1.00  0.00    -0.744 OA
ENDBRANCH  43  44
ENDBRANCH  24  38
BRANCH  25  48
ATOM     48  C   UNL     1       6.827   0.591   9.446  1.00  0.00    -0.014 A 
ATOM     49  C   UNL     1       7.858   1.538   9.570  1.00  0.00     0.010 A 
ATOM     50  C   UNL     1       5.586   0.845  10.059  1.00  0.00     0.010 A 
ATOM     51  C   UNL     1       7.657   2.708  10.308  1.00  0.00     0.020 A 
ATOM     52  C   UNL     1       5.372   2.026  10.771  1.00  0.00     0.020 A 
ATOM     53  C   UNL     1       6.414   2.944  10.904  1.00  0.00     0.054 A 
BRANCH  53  54
ATOM     54  S   UNL     1       6.152   4.490  11.816  1.00  0.00     0.124 S 
ATOM     55  O   UNL     1       6.803   4.203  13.090  1.00  0.00    -0.237 OA
ATOM     56  O   UNL     1       6.819   5.477  10.971  1.00  0.00    -0.237 OA
ATOM     57  O   UNL     1       4.696   4.610  11.867  1.00  0.00    -0.744 OA
ENDBRANCH  53  54
ENDBRANCH  25  48
BRANCH  37  58
ATOM     58  C   UNL     1      10.573  -5.196  10.419  1.00  0.00    -0.014 A 
ATOM     59  C   UNL     1      10.081  -5.544  11.689  1.00  0.00     0.010 A 
ATOM     60  C   UNL     1      11.956  -5.256  10.176  1.00  0.00     0.010 A 
ATOM     61  C   UNL     1      10.961  -5.902  12.713  1.00  0.00     0.020 A 
ATOM     62  C   UNL     1      12.838  -5.637  11.190  1.00  0.00     0.020 A 
ATOM     63  C   UNL     1      12.336  -5.939  12.458  1.00  0.00     0.054 A 
BRANCH  63  64
ATOM     64  S   UNL     1      13.462  -6.418  13.796  1.00  0.00     0.124 S 
ATOM     65  O   UNL     1      13.511  -5.200  14.600  1.00  0.00    -0.237 OA
ATOM     66  O   UNL     1      12.771  -7.549  14.411  1.00  0.00    -0.237 OA
ATOM     67  O   UNL     1      14.700  -6.757  13.100  1.00  0.00    -0.744 OA
ENDBRANCH  63  64
ENDBRANCH  37  58
ENDBRANCH  11  12
ENDBRANCH   4   6
ENDBRANCH   1   2
BRANCH   1  68
ATOM     68  C   UNL     1       4.807  -0.309  -2.501  1.00  0.00     0.042 C 
BRANCH  68  69
ATOM     69  C   UNL     1       4.255   0.277  -3.792  1.00  0.00     0.118 C 
BRANCH  69  70
ATOM     70  N   UNL     1       4.798   1.599  -4.071  1.00  0.00    -0.352 N 
ATOM     71  C   UNL     1       5.642   2.003  -5.072  1.00  0.00     0.251 C 
ATOM     72  H   UNL     1       4.517   2.308  -3.448  1.00  0.00     0.163 HD
ATOM     73  O   UNL     1       6.168   3.112  -5.027  1.00  0.00    -0.269 OA
BRANCH  71  74
ATOM     74  C   UNL     1       5.921   1.110  -6.216  1.00  0.00     0.042 A 
ATOM     75  C   UNL     1       4.865   0.504  -6.910  1.00  0.00     0.016 A 
ATOM     76  C   UNL     1       7.257   0.949  -6.619  1.00  0.00     0.042 A 
ATOM     77  C   UNL     1       5.117  -0.336  -7.998  1.00  0.00     0.031 A 
ATOM     78  C   UNL     1       7.473   0.114  -7.717  1.00  0.00     0.067 A 
ATOM     79  C   UNL     1       6.445  -0.519  -8.407  1.00  0.00     0.089 A 
ATOM     80  N   UNL     1       8.609  -0.280  -8.377  1.00  0.00    -0.338 N 
ATOM     81  N   UNL     1       6.935  -1.244  -9.457  1.00  0.00    -0.229 NA
ATOM     82  C   UNL     1       8.244  -1.092  -9.427  1.00  0.00     0.138 A 
ATOM     83  H   UNL     1       9.530  -0.024  -8.140  1.00  0.00     0.168 HD
BRANCH  82  84
ATOM     84  C   UNL     1       9.175  -1.647 -10.402  1.00  0.00     0.021 A 
ATOM     85  C   UNL     1      10.409  -2.185 -10.027  1.00  0.00     0.051 A 
ATOM     86  C   UNL     1       8.802  -1.668 -11.755  1.00  0.00     0.027 A 
ATOM     87  C   UNL     1      11.245  -2.728 -10.999  1.00  0.00     0.125 A 
ATOM     88  C   UNL     1       9.658  -2.205 -12.715  1.00  0.00     0.021 A 
ATOM     89  F   UNL     1      12.421  -3.253 -10.632  1.00  0.00    -0.207 F 
ATOM     90  C   UNL     1      10.885  -2.741 -12.342  1.00  0.00     0.055 A 
ATOM     91  Br  UNL     1       9.145  -2.203 -14.534  1.00  0.00    -0.051 Br
ENDBRANCH  82  84
ENDBRANCH  71  74
ENDBRANCH  69  70
ENDBRANCH  68  69
ENDBRANCH   1  68
TORSDOF 14
