REMARK SMILES Cc1cc(Cl)c2c(c1)C=C(C(=O)NCCCNC(=O)c1ccc(-c3c4nc(c(-c5ccc(S(=O)(=O)[O-])cc5)c5ccc([nH]5)c(-c5ccc(S(=O)(=O)[O-])cc5)c5nc(c(-c6ccc(S(=O)(=O)[O-])cc6)c6ccc3[nH]6)C=C5)C=C4)cc1)[C@@H](C(F)(F)F)O2
REMARK SMILES IDX 16 1 15 2 14 3 13 4 11 5 12 6 10 8 1 9 2 10 3 11 8 12 4 13
REMARK SMILES IDX 7 14 5 15 6 16 9 17 85 18 80 19 81 20 82 21 83 22 84 23
REMARK SMILES IDX 17 24 18 25 19 27 20 28 21 29 79 30 22 31 78 32 23 33 24 34
REMARK SMILES IDX 25 35 72 36 26 37 77 38 71 39 73 40 27 41 76 42 70 43 69 44
REMARK SMILES IDX 28 46 58 47 39 48 57 49 40 50 43 51 56 52 74 53 41 54 42 55
REMARK SMILES IDX 55 57 75 58 44 59 29 60 30 61 38 62 31 63 37 64 32 65 33 66
REMARK SMILES IDX 34 67 35 68 36 69 59 70 60 71 68 72 61 73 67 74 62 75 63 76
REMARK SMILES IDX 64 77 65 78 66 79 45 80 46 81 54 82 47 83 53 84 48 85 49 86
REMARK SMILES IDX 50 87 51 88 52 89
REMARK H PARENT 13 7 17 26 73 45 43 56
REMARK Flexibility Score: inf
ROOT
ATOM      1  C   UNL     1       1.637  11.052   2.099  1.00  0.00     0.118 C 
ENDROOT
BRANCH   1   2
ATOM      2  C   UNL     1       0.895   9.760   2.416  1.00  0.00     0.042 C 
BRANCH   2   3
ATOM      3  C   UNL     1       0.241   9.158   1.182  1.00  0.00     0.118 C 
BRANCH   3   4
ATOM      4  N   UNL     1       1.210   8.491   0.324  1.00  0.00    -0.352 N 
ATOM      5  C   UNL     1       1.533   7.220  -0.007  1.00  0.00     0.251 C 
ATOM      6  O   UNL     1       2.464   7.107  -0.812  1.00  0.00    -0.270 OA
ATOM      7  H   UNL     1       1.786   9.140  -0.140  1.00  0.00     0.163 HD
BRANCH   5   8
ATOM      8  C   UNL     1       0.856   5.997   0.514  1.00  0.00     0.067 C 
ATOM      9  C   UNL     1       1.046  -0.158  -0.058  1.00  0.00     0.044 C 
ATOM     10  C   UNL     1       0.611   1.156   0.518  1.00  0.00    -0.049 A 
ATOM     11  C   UNL     1      -0.391   1.210   1.494  1.00  0.00     0.028 A 
ATOM     12  C   UNL     1       1.185   2.351   0.061  1.00  0.00     0.015 A 
ATOM     13  C   UNL     1      -0.796   2.437   2.019  1.00  0.00     0.084 A 
ATOM     14  C   UNL     1       0.776   3.584   0.583  1.00  0.00     0.019 A 
ATOM     15  Cl  UNL     1      -2.033   2.449   3.225  1.00  0.00    -0.080 Cl
ATOM     16  C   UNL     1      -0.218   3.625   1.562  1.00  0.00     0.146 A 
ATOM     17  C   UNL     1       1.401   4.825   0.140  1.00  0.00     0.025 C 
ATOM     18  O   UNL     1      -0.615   4.803   2.131  1.00  0.00    -0.474 OA
ATOM     19  C   UNL     1      -0.380   6.014   1.367  1.00  0.00     0.314 C 
BRANCH  19  20
ATOM     20  C   UNL     1      -1.649   6.361   0.564  1.00  0.00     0.429 C 
ATOM     21  F   UNL     1      -2.650   6.746   1.392  1.00  0.00    -0.167 F 
ATOM     22  F   UNL     1      -1.454   7.383  -0.304  1.00  0.00    -0.167 F 
ATOM     23  F   UNL     1      -2.102   5.316  -0.166  1.00  0.00    -0.167 F 
ENDBRANCH  19  20
ENDBRANCH   5   8
ENDBRANCH   3   4
ENDBRANCH   2   3
ENDBRANCH   1   2
BRANCH   1  24
ATOM     24  N   UNL     1       0.725  12.106   1.661  1.00  0.00    -0.352 N 
ATOM     25  C   UNL     1       0.223  13.182   2.349  1.00  0.00     0.251 C 
ATOM     26  H   UNL     1       0.424  12.033   0.726  1.00  0.00     0.163 HD
ATOM     27  O   UNL     1      -0.753  13.785   1.906  1.00  0.00    -0.269 OA
BRANCH  25  28
ATOM     28  C   UNL     1       0.852  13.607   3.614  1.00  0.00     0.039 A 
ATOM     29  C   UNL     1       0.050  14.021   4.679  1.00  0.00     0.014 A 
ATOM     30  C   UNL     1       2.243  13.617   3.735  1.00  0.00     0.014 A 
ATOM     31  C   UNL     1       0.647  14.385   5.887  1.00  0.00     0.010 A 
ATOM     32  C   UNL     1       2.828  13.876   4.966  1.00  0.00     0.010 A 
ATOM     33  C   UNL     1       2.038  14.283   6.049  1.00  0.00    -0.014 A 
BRANCH  33  34
ATOM     34  C   UNL     1       2.698  14.640   7.327  1.00  0.00     0.031 A 
ATOM     35  C   UNL     1       3.669  15.789   7.370  1.00  0.00     0.074 A 
ATOM     36  C   UNL     1       2.455  13.909   8.432  1.00  0.00     0.049 A 
ATOM     37  N   UNL     1       4.367  16.240   8.379  1.00  0.00    -0.248 NA
ATOM     38  C   UNL     1       3.906  16.509   6.107  1.00  0.00     0.031 C 
ATOM     39  C   UNL     1       1.554  12.757   8.504  1.00  0.00     0.029 A 
ATOM     40  N   UNL     1       2.934  14.037   9.710  1.00  0.00    -0.354 N 
ATOM     41  C   UNL     1       5.121  17.292   7.873  1.00  0.00     0.074 A 
ATOM     42  C   UNL     1       4.860  17.358   6.453  1.00  0.00     0.031 C 
ATOM     43  C   UNL     1       1.498  12.323   9.774  1.00  0.00     0.029 A 
ATOM     44  C   UNL     1       2.390  13.136  10.594  1.00  0.00     0.049 A 
ATOM     45  H   UNL     1       3.604  14.710   9.970  1.00  0.00     0.167 HD
ATOM     46  C   UNL     1       5.927  18.156   8.535  1.00  0.00     0.031 A 
ATOM     47  C   UNL     1       2.579  12.992  11.920  1.00  0.00     0.031 A 
ATOM     48  C   UNL     1       6.181  18.087   9.947  1.00  0.00     0.049 A 
ATOM     49  C   UNL     1       3.525  13.922  12.627  1.00  0.00     0.074 A 
ATOM     50  C   UNL     1       6.965  18.921  10.722  1.00  0.00     0.029 A 
ATOM     51  N   UNL     1       5.649  17.128  10.796  1.00  0.00    -0.354 N 
ATOM     52  N   UNL     1       4.202  14.934  12.138  1.00  0.00    -0.248 NA
ATOM     53  C   UNL     1       3.733  13.691  14.063  1.00  0.00     0.031 C 
ATOM     54  C   UNL     1       6.945  18.437  12.034  1.00  0.00     0.029 A 
ATOM     55  C   UNL     1       6.106  17.334  12.085  1.00  0.00     0.049 A 
ATOM     56  H   UNL     1       5.037  16.407  10.521  1.00  0.00     0.167 HD
ATOM     57  C   UNL     1       4.904  15.472  13.210  1.00  0.00     0.074 A 
ATOM     58  C   UNL     1       4.559  14.681  14.375  1.00  0.00     0.031 C 
ATOM     59  C   UNL     1       5.757  16.526  13.228  1.00  0.00     0.031 A 
BRANCH  46  60
ATOM     60  C   UNL     1       6.572  19.248   7.724  1.00  0.00    -0.014 A 
ATOM     61  C   UNL     1       5.794  20.282   7.168  1.00  0.00     0.010 A 
ATOM     62  C   UNL     1       7.960  19.245   7.505  1.00  0.00     0.010 A 
ATOM     63  C   UNL     1       6.383  21.256   6.358  1.00  0.00     0.020 A 
ATOM     64  C   UNL     1       8.559  20.236   6.721  1.00  0.00     0.020 A 
ATOM     65  C   UNL     1       7.762  21.221   6.133  1.00  0.00     0.054 A 
BRANCH  65  66
ATOM     66  S   UNL     1       8.495  22.491   5.066  1.00  0.00     0.124 S 
ATOM     67  O   UNL     1       8.011  22.089   3.747  1.00  0.00    -0.237 OA
ATOM     68  O   UNL     1       7.920  23.725   5.595  1.00  0.00    -0.237 OA
ATOM     69  O   UNL     1       9.931  22.335   5.276  1.00  0.00    -0.744 OA
ENDBRANCH  65  66
ENDBRANCH  46  60
BRANCH  47  70
ATOM     70  C   UNL     1       1.806  11.962  12.665  1.00  0.00    -0.014 A 
ATOM     71  C   UNL     1       0.750  12.352  13.507  1.00  0.00     0.010 A 
ATOM     72  C   UNL     1       2.073  10.591  12.493  1.00  0.00     0.010 A 
ATOM     73  C   UNL     1      -0.027  11.393  14.161  1.00  0.00     0.020 A 
ATOM     74  C   UNL     1       1.283   9.627  13.128  1.00  0.00     0.020 A 
ATOM     75  C   UNL     1       0.238  10.036  13.959  1.00  0.00     0.054 A 
BRANCH  75  76
ATOM     76  S   UNL     1      -0.841   8.812  14.755  1.00  0.00     0.124 S 
ATOM     77  O   UNL     1      -0.490   8.966  16.163  1.00  0.00    -0.237 OA
ATOM     78  O   UNL     1      -2.173   9.280  14.379  1.00  0.00    -0.237 OA
ATOM     79  O   UNL     1      -0.436   7.549  14.142  1.00  0.00    -0.744 OA
ENDBRANCH  75  76
ENDBRANCH  47  70
BRANCH  59  80
ATOM     80  C   UNL     1       6.384  16.893  14.545  1.00  0.00    -0.014 A 
ATOM     81  C   UNL     1       7.424  16.117  15.085  1.00  0.00     0.010 A 
ATOM     82  C   UNL     1       6.003  18.083  15.191  1.00  0.00     0.010 A 
ATOM     83  C   UNL     1       8.070  16.524  16.254  1.00  0.00     0.020 A 
ATOM     84  C   UNL     1       6.665  18.506  16.346  1.00  0.00     0.020 A 
ATOM     85  C   UNL     1       7.693  17.721  16.872  1.00  0.00     0.054 A 
BRANCH  85  86
ATOM     86  S   UNL     1       8.611  18.267  18.338  1.00  0.00     0.124 S 
ATOM     87  O   UNL     1       8.179  17.302  19.345  1.00  0.00    -0.237 OA
ATOM     88  O   UNL     1      10.001  18.145  17.906  1.00  0.00    -0.237 OA
ATOM     89  O   UNL     1       8.147  19.637  18.549  1.00  0.00    -0.744 OA
ENDBRANCH  85  86
ENDBRANCH  59  80
ENDBRANCH  33  34
ENDBRANCH  25  28
ENDBRANCH   1  24
TORSDOF 14
