REMARK SMILES C[NH+]1CCN(C(=O)c2ccc3c(c2)N(CC(=O)NCCCNC(=O)c2ccc(-c4c5nc(c(-c6ccc(S(=O)(=O)[O-])cc6)c6ccc([nH]6)c(-c6ccc(S(=O)(=O)[O-])cc6)c6nc(c(-c7ccc(S(=O)(=O)[O-])cc7)c7ccc4[nH]7)C=C6)C=C5)cc2)C(=O)CO3)CC1
REMARK SMILES IDX 20 1 19 2 18 3 16 4 17 5 15 7 14 8 8 9 9 10 13 11 10 12
REMARK SMILES IDX 12 13 11 14 88 15 85 16 87 17 86 18 6 19 1 20 2 21 3 22
REMARK SMILES IDX 90 23 4 25 89 26 5 27 7 28 21 29 22 30 23 31 24 33 25 34
REMARK SMILES IDX 26 35 84 36 27 37 83 38 28 39 29 40 30 41 77 42 31 43 82 44
REMARK SMILES IDX 76 45 78 46 32 47 81 48 75 49 74 50 33 52 63 53 44 54 62 55
REMARK SMILES IDX 45 56 48 57 61 58 79 59 46 60 47 61 60 63 80 64 49 65 34 66
REMARK SMILES IDX 35 67 43 68 36 69 42 70 37 71 38 72 39 73 40 74 41 75 64 76
REMARK SMILES IDX 65 77 73 78 66 79 72 80 67 81 68 82 69 83 70 84 71 85 50 86
REMARK SMILES IDX 51 87 59 88 52 89 58 90 53 91 54 92 55 93 56 94 57 95
REMARK H PARENT 18 6 2 24 22 32 78 51 48 62
REMARK Flexibility Score: inf
ROOT
ATOM      1  C   UNL     1      -2.443  -6.824   0.537  1.00  0.00     0.042 C 
ENDROOT
BRANCH   1   2
ATOM      2  C   UNL     1      -1.418  -6.683   1.659  1.00  0.00     0.117 C 
BRANCH   2   3
ATOM      3  N   UNL     1      -0.739  -5.402   1.637  1.00  0.00    -0.354 N 
ATOM      4  C   UNL     1      -0.880  -4.338   2.476  1.00  0.00     0.240 C 
ATOM      5  O   UNL     1      -0.081  -3.405   2.353  1.00  0.00    -0.273 OA
ATOM      6  H   UNL     1      -0.082  -5.285   0.914  1.00  0.00     0.163 HD
BRANCH   4   7
ATOM      7  C   UNL     1      -1.940  -4.317   3.584  1.00  0.00     0.225 C 
BRANCH   7   8
ATOM      8  N   UNL     1      -3.321  -4.406   3.111  1.00  0.00    -0.296 N 
ATOM      9  C   UNL     1      -3.770  -1.295   1.062  1.00  0.00     0.042 A 
ATOM     10  C   UNL     1      -4.993  -1.558   0.444  1.00  0.00     0.018 A 
ATOM     11  C   UNL     1      -3.227  -2.200   1.986  1.00  0.00     0.044 A 
ATOM     12  C   UNL     1      -5.655  -2.751   0.719  1.00  0.00     0.049 A 
ATOM     13  C   UNL     1      -3.877  -3.412   2.255  1.00  0.00     0.087 A 
ATOM     14  C   UNL     1      -5.105  -3.664   1.622  1.00  0.00     0.143 A 
ATOM     15  O   UNL     1      -5.807  -4.827   1.777  1.00  0.00    -0.482 OA
ATOM     16  C   UNL     1      -4.097  -5.489   3.506  1.00  0.00     0.265 C 
ATOM     17  C   UNL     1      -5.533  -5.483   2.998  1.00  0.00     0.330 C 
ATOM     18  O   UNL     1      -3.695  -6.370   4.267  1.00  0.00    -0.270 OA
BRANCH   9  19
ATOM     19  C   UNL     1      -3.091  -0.016   0.768  1.00  0.00     0.254 C 
ATOM     20  C   UNL     1       2.448   0.094   0.058  1.00  0.00     0.332 C 
ATOM     21  N   UNL     1       1.043   0.082  -0.343  1.00  0.00    -0.334 N 
ATOM     22  C   UNL     1       0.327   1.245   0.225  1.00  0.00     0.283 C 
ATOM     23  C   UNL     1       0.390  -1.164   0.112  1.00  0.00     0.283 C 
ATOM     24  H   UNL     1       1.005   0.133  -1.361  1.00  0.00     0.347 HD
ATOM     25  C   UNL     1      -1.176   1.242  -0.120  1.00  0.00     0.181 C 
ATOM     26  C   UNL     1      -1.097  -1.209  -0.286  1.00  0.00     0.181 C 
ATOM     27  N   UNL     1      -1.817  -0.031   0.217  1.00  0.00    -0.327 N 
ATOM     28  O   UNL     1      -3.712   1.015   1.023  1.00  0.00    -0.269 OA
ENDBRANCH   9  19
ENDBRANCH   7   8
ENDBRANCH   4   7
ENDBRANCH   2   3
ENDBRANCH   1   2
BRANCH   1  29
ATOM     29  C   UNL     1      -1.840  -6.857  -0.866  1.00  0.00     0.118 C 
BRANCH  29  30
ATOM     30  N   UNL     1      -0.947  -7.989  -1.071  1.00  0.00    -0.352 N 
ATOM     31  C   UNL     1      -0.992  -9.006  -1.991  1.00  0.00     0.251 C 
ATOM     32  H   UNL     1      -0.187  -8.033  -0.446  1.00  0.00     0.163 HD
ATOM     33  O   UNL     1      -0.228  -9.963  -1.860  1.00  0.00    -0.269 OA
BRANCH  31  34
ATOM     34  C   UNL     1      -1.946  -8.976  -3.121  1.00  0.00     0.039 A 
ATOM     35  C   UNL     1      -2.589 -10.162  -3.490  1.00  0.00     0.014 A 
ATOM     36  C   UNL     1      -2.179  -7.805  -3.847  1.00  0.00     0.014 A 
ATOM     37  C   UNL     1      -3.510 -10.159  -4.541  1.00  0.00     0.010 A 
ATOM     38  C   UNL     1      -3.148  -7.788  -4.850  1.00  0.00     0.010 A 
ATOM     39  C   UNL     1      -3.824  -8.965  -5.208  1.00  0.00    -0.014 A 
BRANCH  39  40
ATOM     40  C   UNL     1      -4.864  -8.924  -6.269  1.00  0.00     0.031 A 
ATOM     41  C   UNL     1      -4.496  -8.565  -7.685  1.00  0.00     0.074 A 
ATOM     42  C   UNL     1      -6.154  -9.146  -5.945  1.00  0.00     0.049 A 
ATOM     43  N   UNL     1      -5.276  -8.410  -8.725  1.00  0.00    -0.248 NA
ATOM     44  C   UNL     1      -3.070  -8.327  -7.963  1.00  0.00     0.031 C 
ATOM     45  C   UNL     1      -6.647  -9.467  -4.603  1.00  0.00     0.029 A 
ATOM     46  N   UNL     1      -7.289  -9.126  -6.718  1.00  0.00    -0.354 N 
ATOM     47  C   UNL     1      -4.441  -8.039  -9.773  1.00  0.00     0.074 A 
ATOM     48  C   UNL     1      -3.101  -7.951  -9.234  1.00  0.00     0.031 C 
ATOM     49  C   UNL     1      -7.979  -9.633  -4.651  1.00  0.00     0.029 A 
ATOM     50  C   UNL     1      -8.441  -9.390  -6.014  1.00  0.00     0.049 A 
ATOM     51  H   UNL     1      -7.279  -8.941  -7.684  1.00  0.00     0.167 HD
ATOM     52  C   UNL     1      -4.758  -7.808 -11.070  1.00  0.00     0.031 A 
ATOM     53  C   UNL     1      -9.727  -9.422  -6.414  1.00  0.00     0.031 A 
ATOM     54  C   UNL     1      -6.090  -7.909 -11.607  1.00  0.00     0.049 A 
ATOM     55  C   UNL     1     -10.054  -9.154  -7.858  1.00  0.00     0.074 A 
ATOM     56  C   UNL     1      -6.502  -7.750 -12.919  1.00  0.00     0.029 A 
ATOM     57  N   UNL     1      -7.225  -8.193 -10.864  1.00  0.00    -0.354 N 
ATOM     58  N   UNL     1      -9.241  -8.867  -8.846  1.00  0.00    -0.248 NA
ATOM     59  C   UNL     1     -11.470  -9.226  -8.242  1.00  0.00     0.031 C 
ATOM     60  C   UNL     1      -7.893  -7.887 -12.961  1.00  0.00     0.029 A 
ATOM     61  C   UNL     1      -8.341  -8.191 -11.685  1.00  0.00     0.049 A 
ATOM     62  H   UNL     1      -7.237  -8.370  -9.896  1.00  0.00     0.167 HD
ATOM     63  C   UNL     1     -10.045  -8.751  -9.975  1.00  0.00     0.074 A 
ATOM     64  C   UNL     1     -11.405  -9.014  -9.549  1.00  0.00     0.031 C 
ATOM     65  C   UNL     1      -9.689  -8.455 -11.249  1.00  0.00     0.031 A 
BRANCH  52  66
ATOM     66  C   UNL     1      -3.642  -7.416 -12.004  1.00  0.00    -0.014 A 
ATOM     67  C   UNL     1      -2.658  -8.344 -12.390  1.00  0.00     0.010 A 
ATOM     68  C   UNL     1      -3.606  -6.117 -12.543  1.00  0.00     0.010 A 
ATOM     69  C   UNL     1      -1.637  -7.970 -13.268  1.00  0.00     0.020 A 
ATOM     70  C   UNL     1      -2.602  -5.747 -13.444  1.00  0.00     0.020 A 
ATOM     71  C   UNL     1      -1.615  -6.672 -13.788  1.00  0.00     0.054 A 
BRANCH  71  72
ATOM     72  S   UNL     1      -0.293  -6.223 -14.946  1.00  0.00     0.124 S 
ATOM     73  O   UNL     1       0.864  -6.129 -14.059  1.00  0.00    -0.237 OA
ATOM     74  O   UNL     1      -0.282  -7.351 -15.873  1.00  0.00    -0.237 OA
ATOM     75  O   UNL     1      -0.746  -4.956 -15.515  1.00  0.00    -0.744 OA
ENDBRANCH  71  72
ENDBRANCH  52  66
BRANCH  53  76
ATOM     76  C   UNL     1     -10.804  -9.726  -5.433  1.00  0.00    -0.014 A 
ATOM     77  C   UNL     1     -11.501 -10.946  -5.491  1.00  0.00     0.010 A 
ATOM     78  C   UNL     1     -11.135  -8.798  -4.428  1.00  0.00     0.010 A 
ATOM     79  C   UNL     1     -12.522 -11.223  -4.578  1.00  0.00     0.020 A 
ATOM     80  C   UNL     1     -12.136  -9.084  -3.496  1.00  0.00     0.020 A 
ATOM     81  C   UNL     1     -12.832 -10.290  -3.585  1.00  0.00     0.054 A 
BRANCH  81  82
ATOM     82  S   UNL     1     -14.130 -10.690  -2.381  1.00  0.00     0.124 S 
ATOM     83  O   UNL     1     -15.342 -10.526  -3.177  1.00  0.00    -0.237 OA
ATOM     84  O   UNL     1     -13.800 -12.062  -2.005  1.00  0.00    -0.237 OA
ATOM     85  O   UNL     1     -13.933  -9.699  -1.326  1.00  0.00    -0.744 OA
ENDBRANCH  81  82
ENDBRANCH  53  76
BRANCH  65  86
ATOM     86  C   UNL     1     -10.778  -8.434 -12.288  1.00  0.00    -0.014 A 
ATOM     87  C   UNL     1     -11.726  -7.397 -12.332  1.00  0.00     0.010 A 
ATOM     88  C   UNL     1     -10.820  -9.443 -13.268  1.00  0.00     0.010 A 
ATOM     89  C   UNL     1     -12.714  -7.385 -13.320  1.00  0.00     0.020 A 
ATOM     90  C   UNL     1     -11.789  -9.419 -14.274  1.00  0.00     0.020 A 
ATOM     91  C   UNL     1     -12.739  -8.396 -14.285  1.00  0.00     0.054 A 
BRANCH  91  92
ATOM     92  S   UNL     1     -14.004  -8.334 -15.584  1.00  0.00     0.124 S 
ATOM     93  O   UNL     1     -15.206  -8.731 -14.857  1.00  0.00    -0.237 OA
ATOM     94  O   UNL     1     -13.959  -6.937 -16.009  1.00  0.00    -0.237 OA
ATOM     95  O   UNL     1     -13.529  -9.296 -16.576  1.00  0.00    -0.744 OA
ENDBRANCH  91  92
ENDBRANCH  65  86
ENDBRANCH  39  40
ENDBRANCH  31  34
ENDBRANCH  29  30
ENDBRANCH   1  29
TORSDOF 15
