REMARK SMILES O=C(CCC(=O)N1CCc2sccc2C1)NC1(C(=O)NCCCNC(=O)c2ccc(-c3c4nc(c(-c5ccc(S(=O)(=O)[O-])cc5)c5ccc([nH]5)c(-c5ccc(S(=O)(=O)[O-])cc5)c5nc(c(-c6ccc(S(=O)(=O)[O-])cc6)c6ccc3[nH]6)C=C5)C=C4)cc2)CCCCC1
REMARK SMILES IDX 21 1 20 2 18 3 19 4 17 6 87 7 91 8 88 9 90 10 89 11 16 12
REMARK SMILES IDX 1 13 2 14 3 16 4 17 5 18 6 19 7 20 8 21 15 22 9 23 14 24
REMARK SMILES IDX 10 25 13 26 11 27 12 28 22 29 23 30 24 31 25 32 26 34 27 35
REMARK SMILES IDX 28 36 86 37 29 38 85 39 30 40 31 41 32 42 79 43 33 44 84 45
REMARK SMILES IDX 78 46 80 47 34 48 83 49 77 50 76 51 35 53 65 54 46 55 64 56
REMARK SMILES IDX 47 57 50 58 63 59 81 60 48 61 49 62 62 64 82 65 51 66 36 67
REMARK SMILES IDX 37 68 45 69 38 70 44 71 39 72 40 73 41 74 42 75 43 76 66 77
REMARK SMILES IDX 67 78 75 79 68 80 74 81 69 82 70 83 71 84 72 85 73 86 52 87
REMARK SMILES IDX 53 88 61 89 54 90 60 91 55 92 56 93 57 94 58 95 59 96
REMARK H PARENT 20 5 16 15 24 33 80 52 50 63
REMARK Flexibility Score: inf
ROOT
ATOM      1  C   UNL     1      -0.871   3.537   3.359  1.00  0.00     0.117 C 
ENDROOT
BRANCH   1   2
ATOM      2  N   UNL     1      -1.020   2.441   2.431  1.00  0.00    -0.354 N 
ATOM      3  C   UNL     1      -0.130   1.484   2.035  1.00  0.00     0.245 C 
ATOM      4  O   UNL     1      -0.630   0.467   1.540  1.00  0.00    -0.272 OA
ATOM      5  H   UNL     1      -1.910   2.372   2.015  1.00  0.00     0.163 HD
BRANCH   3   6
ATOM      6  C   UNL     1       1.418   1.614   2.270  1.00  0.00     0.119 C 
ATOM      7  C   UNL     1       1.798   1.286   3.741  1.00  0.00     0.038 C 
ATOM      8  C   UNL     1       1.966   2.979   1.803  1.00  0.00     0.038 C 
ATOM      9  C   UNL     1       2.089   2.427   4.718  1.00  0.00     0.003 C 
ATOM     10  C   UNL     1       2.315   4.092   2.784  1.00  0.00     0.003 C 
ATOM     11  C   UNL     1       2.833   3.613   4.127  1.00  0.00     0.000 C 
BRANCH   6  12
ATOM     12  N   UNL     1       2.082   0.503   1.433  1.00  0.00    -0.342 N 
ATOM     13  O   UNL     1       1.425   1.093  -0.693  1.00  0.00    -0.275 OA
ATOM     14  C   UNL     1       2.118   0.415   0.044  1.00  0.00     0.221 C 
ATOM     15  H   UNL     1       2.528  -0.219   1.932  1.00  0.00     0.164 HD
BRANCH  14  16
ATOM     16  C   UNL     1       3.279  -0.482  -0.488  1.00  0.00     0.110 C 
BRANCH  16  17
ATOM     17  C   UNL     1       3.983   0.087  -1.754  1.00  0.00     0.110 C 
BRANCH  17  18
ATOM     18  C   UNL     1       5.378   0.814  -1.713  1.00  0.00     0.223 C 
ATOM     19  O   UNL     1       6.270   0.441  -2.480  1.00  0.00    -0.275 OA
BRANCH  18  20
ATOM     20  N   UNL     1       5.564   1.931  -0.918  1.00  0.00    -0.338 N 
ATOM     21  C   UNL     1       4.709   2.206   0.188  1.00  0.00     0.125 C 
ATOM     22  C   UNL     1       6.737   2.842  -0.983  1.00  0.00     0.156 C 
ATOM     23  C   UNL     1       5.441   1.817   1.483  1.00  0.00     0.068 C 
ATOM     24  C   UNL     1       7.010   3.439   0.415  1.00  0.00    -0.015 A 
ATOM     25  C   UNL     1       6.481   2.872   1.568  1.00  0.00     0.011 A 
ATOM     26  C   UNL     1       7.539   4.731   0.742  1.00  0.00     0.017 A 
ATOM     27  S   UNL     1       6.844   3.696   2.996  1.00  0.00    -0.149 S 
ATOM     28  C   UNL     1       7.488   5.000   2.098  1.00  0.00     0.065 A 
ENDBRANCH  18  20
ENDBRANCH  17  18
ENDBRANCH  16  17
ENDBRANCH  14  16
ENDBRANCH   6  12
ENDBRANCH   3   6
ENDBRANCH   1   2
BRANCH   1  29
ATOM     29  C   UNL     1      -1.081   4.908   2.743  1.00  0.00     0.042 C 
BRANCH  29  30
ATOM     30  C   UNL     1      -2.546   5.219   2.511  1.00  0.00     0.118 C 
BRANCH  30  31
ATOM     31  N   UNL     1      -3.293   5.218   3.764  1.00  0.00    -0.352 N 
ATOM     32  C   UNL     1      -3.646   6.260   4.588  1.00  0.00     0.251 C 
ATOM     33  H   UNL     1      -3.591   4.330   4.067  1.00  0.00     0.163 HD
ATOM     34  O   UNL     1      -3.941   6.030   5.758  1.00  0.00    -0.269 OA
BRANCH  32  35
ATOM     35  C   UNL     1      -3.677   7.641   4.065  1.00  0.00     0.039 A 
ATOM     36  C   UNL     1      -3.353   8.710   4.903  1.00  0.00     0.014 A 
ATOM     37  C   UNL     1      -4.073   7.882   2.750  1.00  0.00     0.014 A 
ATOM     38  C   UNL     1      -3.373  10.013   4.398  1.00  0.00     0.010 A 
ATOM     39  C   UNL     1      -3.967   9.155   2.215  1.00  0.00     0.010 A 
ATOM     40  C   UNL     1      -3.648  10.240   3.040  1.00  0.00    -0.014 A 
BRANCH  40  41
ATOM     41  C   UNL     1      -3.663  11.599   2.450  1.00  0.00     0.031 A 
ATOM     42  C   UNL     1      -4.924  12.111   1.801  1.00  0.00     0.074 A 
ATOM     43  C   UNL     1      -2.528  12.322   2.409  1.00  0.00     0.049 A 
ATOM     44  N   UNL     1      -5.112  13.205   1.109  1.00  0.00    -0.248 NA
ATOM     45  C   UNL     1      -6.122  11.258   1.905  1.00  0.00     0.031 C 
ATOM     46  C   UNL     1      -1.234  11.906   2.955  1.00  0.00     0.029 A 
ATOM     47  N   UNL     1      -2.277  13.558   1.870  1.00  0.00    -0.354 N 
ATOM     48  C   UNL     1      -6.429  13.150   0.668  1.00  0.00     0.074 A 
ATOM     49  C   UNL     1      -6.978  11.892   1.118  1.00  0.00     0.031 C 
ATOM     50  C   UNL     1      -0.335  12.882   2.751  1.00  0.00     0.029 A 
ATOM     51  C   UNL     1      -0.974  13.970   2.020  1.00  0.00     0.049 A 
ATOM     52  H   UNL     1      -2.965  14.098   1.418  1.00  0.00     0.167 HD
ATOM     53  C   UNL     1      -7.129  14.077  -0.027  1.00  0.00     0.031 A 
ATOM     54  C   UNL     1      -0.362  15.095   1.605  1.00  0.00     0.031 A 
ATOM     55  C   UNL     1      -6.585  15.343  -0.434  1.00  0.00     0.049 A 
ATOM     56  C   UNL     1      -1.165  16.121   0.855  1.00  0.00     0.074 A 
ATOM     57  C   UNL     1      -7.224  16.389  -1.075  1.00  0.00     0.029 A 
ATOM     58  N   UNL     1      -5.271  15.737  -0.232  1.00  0.00    -0.354 N 
ATOM     59  N   UNL     1      -2.429  16.081   0.503  1.00  0.00    -0.248 NA
ATOM     60  C   UNL     1      -0.464  17.348   0.454  1.00  0.00     0.031 C 
ATOM     61  C   UNL     1      -6.282  17.399  -1.301  1.00  0.00     0.029 A 
ATOM     62  C   UNL     1      -5.072  17.003  -0.753  1.00  0.00     0.049 A 
ATOM     63  H   UNL     1      -4.581  15.196   0.216  1.00  0.00     0.167 HD
ATOM     64  C   UNL     1      -2.679  17.285  -0.145  1.00  0.00     0.074 A 
ATOM     65  C   UNL     1      -1.442  18.038  -0.116  1.00  0.00     0.031 C 
ATOM     66  C   UNL     1      -3.827  17.728  -0.714  1.00  0.00     0.031 A 
BRANCH  53  67
ATOM     67  C   UNL     1      -8.558  13.753  -0.379  1.00  0.00    -0.014 A 
ATOM     68  C   UNL     1      -9.552  13.674   0.614  1.00  0.00     0.010 A 
ATOM     69  C   UNL     1      -8.919  13.550  -1.723  1.00  0.00     0.010 A 
ATOM     70  C   UNL     1     -10.869  13.351   0.276  1.00  0.00     0.020 A 
ATOM     71  C   UNL     1     -10.242  13.257  -2.070  1.00  0.00     0.020 A 
ATOM     72  C   UNL     1     -11.204  13.141  -1.065  1.00  0.00     0.054 A 
BRANCH  72  73
ATOM     73  S   UNL     1     -12.926  12.745  -1.477  1.00  0.00     0.124 S 
ATOM     74  O   UNL     1     -13.036  11.364  -1.014  1.00  0.00    -0.237 OA
ATOM     75  O   UNL     1     -13.676  13.729  -0.699  1.00  0.00    -0.237 OA
ATOM     76  O   UNL     1     -12.986  12.924  -2.925  1.00  0.00    -0.744 OA
ENDBRANCH  72  73
ENDBRANCH  53  67
BRANCH  54  77
ATOM     77  C   UNL     1       1.077  15.314   1.910  1.00  0.00    -0.014 A 
ATOM     78  C   UNL     1       1.465  16.272   2.863  1.00  0.00     0.010 A 
ATOM     79  C   UNL     1       2.068  14.547   1.270  1.00  0.00     0.010 A 
ATOM     80  C   UNL     1       2.816  16.471   3.159  1.00  0.00     0.020 A 
ATOM     81  C   UNL     1       3.419  14.724   1.583  1.00  0.00     0.020 A 
ATOM     82  C   UNL     1       3.785  15.694   2.519  1.00  0.00     0.054 A 
BRANCH  82  83
ATOM     83  S   UNL     1       5.529  15.930   2.961  1.00  0.00     0.124 S 
ATOM     84  O   UNL     1       5.841  17.193   2.302  1.00  0.00    -0.237 OA
ATOM     85  O   UNL     1       5.482  15.970   4.421  1.00  0.00    -0.237 OA
ATOM     86  O   UNL     1       6.186  14.750   2.401  1.00  0.00    -0.744 OA
ENDBRANCH  82  83
ENDBRANCH  54  77
BRANCH  66  87
ATOM     87  C   UNL     1      -3.803  19.098  -1.332  1.00  0.00    -0.014 A 
ATOM     88  C   UNL     1      -3.137  19.333  -2.548  1.00  0.00     0.010 A 
ATOM     89  C   UNL     1      -4.504  20.150  -0.716  1.00  0.00     0.010 A 
ATOM     90  C   UNL     1      -3.147  20.606  -3.121  1.00  0.00     0.020 A 
ATOM     91  C   UNL     1      -4.540  21.417  -1.301  1.00  0.00     0.020 A 
ATOM     92  C   UNL     1      -3.849  21.640  -2.494  1.00  0.00     0.054 A 
BRANCH  92  93
ATOM     93  S   UNL     1      -3.885  23.272  -3.282  1.00  0.00     0.124 S 
ATOM     94  O   UNL     1      -2.538  23.769  -3.012  1.00  0.00    -0.237 OA
ATOM     95  O   UNL     1      -4.168  22.949  -4.678  1.00  0.00    -0.237 OA
ATOM     96  O   UNL     1      -4.959  23.972  -2.581  1.00  0.00    -0.744 OA
ENDBRANCH  92  93
ENDBRANCH  66  87
ENDBRANCH  40  41
ENDBRANCH  32  35
ENDBRANCH  30  31
ENDBRANCH  29  30
ENDBRANCH   1  29
TORSDOF 18
