REMARK SMILES CC(C)n1ccc(C[C@@H](C(=O)NCCCNC(=O)c2ccc(-c3c4nc(c(-c5ccc(S(=O)(=O)[O-])cc5)c5ccc([nH]5)c(-c5ccc(S(=O)(=O)[O-])cc5)c5nc(c(-c6ccc(S(=O)(=O)[O-])cc6)c6ccc3[nH]6)C=C5)C=C4)cc2)c2cccc(Cl)c2)n1
REMARK SMILES IDX 14 1 13 2 12 3 10 4 11 5 9 7 8 8 7 9 4 10 5 11 86 12 6 13
REMARK SMILES IDX 2 14 1 15 3 16 79 17 80 18 85 19 81 20 83 21 82 22 84 23
REMARK SMILES IDX 15 24 16 25 17 26 18 28 19 29 20 30 78 31 21 32 77 33 22 34
REMARK SMILES IDX 23 35 24 36 71 37 25 38 76 39 70 40 72 41 26 42 75 43 69 44
REMARK SMILES IDX 68 45 27 47 57 48 38 49 56 50 39 51 42 52 55 53 73 54 40 55
REMARK SMILES IDX 41 56 54 58 74 59 43 60 28 61 29 62 37 63 30 64 36 65 31 66
REMARK SMILES IDX 32 67 33 68 34 69 35 70 58 71 59 72 67 73 60 74 66 75 61 76
REMARK SMILES IDX 62 77 63 78 64 79 65 80 44 81 45 82 53 83 46 84 52 85 47 86
REMARK SMILES IDX 48 87 49 88 50 89 51 90
REMARK H PARENT 12 6 16 27 72 46 42 57
REMARK Flexibility Score: inf
ROOT
ATOM      1  C   UNL     1      -2.387  -2.559  -0.673  1.00  0.00     0.042 C 
ENDROOT
BRANCH   1   2
ATOM      2  C   UNL     1      -3.425  -1.975  -1.626  1.00  0.00     0.117 C 
BRANCH   2   3
ATOM      3  N   UNL     1      -4.759  -2.030  -1.038  1.00  0.00    -0.355 N 
ATOM      4  C   UNL     1      -5.305  -1.188  -0.105  1.00  0.00     0.227 C 
ATOM      5  O   UNL     1      -6.073  -1.697   0.714  1.00  0.00    -0.274 OA
ATOM      6  H   UNL     1      -5.338  -2.762  -1.350  1.00  0.00     0.163 HD
BRANCH   4   7
ATOM      7  C   UNL     1      -5.001   0.319  -0.129  1.00  0.00     0.114 C 
BRANCH   7   8
ATOM      8  C   UNL     1      -4.310   0.768   1.178  1.00  0.00     0.076 C 
BRANCH   8   9
ATOM      9  C   UNL     1      -3.076   0.041   1.596  1.00  0.00     0.064 A 
ATOM     10  N   UNL     1      -1.034  -0.561   1.683  1.00  0.00    -0.270 N 
ATOM     11  C   UNL     1      -1.656  -1.253   2.690  1.00  0.00     0.109 A 
ATOM     12  N   UNL     1      -1.891   0.236   0.993  1.00  0.00    -0.178 NA
ATOM     13  C   UNL     1      -2.972  -0.867   2.674  1.00  0.00     0.045 A 
BRANCH  10  14
ATOM     14  C   UNL     1       0.351  -0.763   1.251  1.00  0.00     0.101 C 
ATOM     15  C   UNL     1       0.805   0.175   0.129  1.00  0.00     0.033 C 
ATOM     16  C   UNL     1       1.326  -0.667   2.429  1.00  0.00     0.033 C 
ENDBRANCH  10  14
ENDBRANCH   8   9
ENDBRANCH   7   8
BRANCH   7  17
ATOM     17  C   UNL     1      -6.265   1.209  -0.287  1.00  0.00    -0.034 A 
ATOM     18  C   UNL     1      -6.090   2.595  -0.475  1.00  0.00     0.004 A 
ATOM     19  C   UNL     1      -7.582   0.739  -0.122  1.00  0.00     0.025 A 
ATOM     20  C   UNL     1      -7.169   3.482  -0.413  1.00  0.00     0.002 A 
ATOM     21  C   UNL     1      -8.660   1.629  -0.076  1.00  0.00     0.041 A 
ATOM     22  C   UNL     1      -8.456   2.999  -0.199  1.00  0.00     0.020 A 
ATOM     23  Cl  UNL     1     -10.257   1.035   0.171  1.00  0.00    -0.084 Cl
ENDBRANCH   7  17
ENDBRANCH   4   7
ENDBRANCH   2   3
ENDBRANCH   1   2
BRANCH   1  24
ATOM     24  C   UNL     1      -2.511  -4.042  -0.426  1.00  0.00     0.118 C 
BRANCH  24  25
ATOM     25  N   UNL     1      -1.514  -4.882  -1.077  1.00  0.00    -0.352 N 
ATOM     26  C   UNL     1      -1.050  -6.145  -0.706  1.00  0.00     0.251 C 
ATOM     27  H   UNL     1      -1.111  -4.506  -1.892  1.00  0.00     0.163 HD
ATOM     28  O   UNL     1      -0.116  -6.643  -1.302  1.00  0.00    -0.269 OA
BRANCH  26  29
ATOM     29  C   UNL     1      -1.688  -6.871   0.427  1.00  0.00     0.039 A 
ATOM     30  C   UNL     1      -1.165  -8.035   1.002  1.00  0.00     0.014 A 
ATOM     31  C   UNL     1      -2.918  -6.443   0.878  1.00  0.00     0.014 A 
ATOM     32  C   UNL     1      -1.966  -8.747   1.909  1.00  0.00     0.010 A 
ATOM     33  C   UNL     1      -3.370  -6.827   2.091  1.00  0.00     0.010 A 
ATOM     34  C   UNL     1      -3.138  -8.147   2.366  1.00  0.00    -0.014 A 
BRANCH  34  35
ATOM     35  C   UNL     1      -4.185  -8.746   3.163  1.00  0.00     0.031 A 
ATOM     36  C   UNL     1      -3.873  -8.841   4.601  1.00  0.00     0.074 A 
ATOM     37  C   UNL     1      -5.462  -8.822   2.720  1.00  0.00     0.049 A 
ATOM     38  N   UNL     1      -3.531  -9.897   5.256  1.00  0.00    -0.248 NA
ATOM     39  C   UNL     1      -3.738  -7.588   5.364  1.00  0.00     0.031 C 
ATOM     40  C   UNL     1      -6.047  -8.334   1.461  1.00  0.00     0.029 A 
ATOM     41  N   UNL     1      -6.553  -9.264   3.395  1.00  0.00    -0.354 N 
ATOM     42  C   UNL     1      -3.341  -9.474   6.564  1.00  0.00     0.074 A 
ATOM     43  C   UNL     1      -3.223  -8.040   6.506  1.00  0.00     0.031 C 
ATOM     44  C   UNL     1      -7.399  -8.328   1.559  1.00  0.00     0.029 A 
ATOM     45  C   UNL     1      -7.775  -8.953   2.815  1.00  0.00     0.049 A 
ATOM     46  H   UNL     1      -6.482  -9.770   4.237  1.00  0.00     0.167 HD
ATOM     47  C   UNL     1      -3.559 -10.300   7.625  1.00  0.00     0.031 A 
ATOM     48  C   UNL     1      -8.998  -9.168   3.364  1.00  0.00     0.031 A 
ATOM     49  C   UNL     1      -3.822 -11.650   7.189  1.00  0.00     0.049 A 
ATOM     50  C   UNL     1      -8.811 -10.179   4.440  1.00  0.00     0.074 A 
ATOM     51  C   UNL     1      -3.105 -12.600   6.490  1.00  0.00     0.029 A 
ATOM     52  N   UNL     1      -5.148 -12.015   7.078  1.00  0.00    -0.354 N 
ATOM     53  N   UNL     1      -8.425 -11.405   4.214  1.00  0.00    -0.248 NA
ATOM     54  C   UNL     1      -8.587  -9.704   5.798  1.00  0.00     0.031 C 
ATOM     55  C   UNL     1      -4.054 -13.208   5.615  1.00  0.00     0.029 A 
ATOM     56  C   UNL     1      -5.311 -12.653   5.872  1.00  0.00     0.049 A 
ATOM     57  H   UNL     1      -5.852 -11.849   7.745  1.00  0.00     0.167 HD
ATOM     58  C   UNL     1      -7.540 -11.704   5.243  1.00  0.00     0.074 A 
ATOM     59  C   UNL     1      -7.763 -10.659   6.242  1.00  0.00     0.031 C 
ATOM     60  C   UNL     1      -6.517 -12.595   5.064  1.00  0.00     0.031 A 
BRANCH  47  61
ATOM     61  C   UNL     1      -3.901  -9.829   9.014  1.00  0.00    -0.014 A 
ATOM     62  C   UNL     1      -3.978 -10.782  10.048  1.00  0.00     0.010 A 
ATOM     63  C   UNL     1      -4.365  -8.530   9.308  1.00  0.00     0.010 A 
ATOM     64  C   UNL     1      -4.545 -10.465  11.289  1.00  0.00     0.020 A 
ATOM     65  C   UNL     1      -4.888  -8.189  10.556  1.00  0.00     0.020 A 
ATOM     66  C   UNL     1      -5.009  -9.171  11.528  1.00  0.00     0.054 A 
BRANCH  66  67
ATOM     67  S   UNL     1      -5.843  -8.800  13.089  1.00  0.00     0.124 S 
ATOM     68  O   UNL     1      -7.054  -9.607  12.980  1.00  0.00    -0.237 OA
ATOM     69  O   UNL     1      -4.866  -9.250  14.077  1.00  0.00    -0.237 OA
ATOM     70  O   UNL     1      -6.045  -7.354  13.034  1.00  0.00    -0.744 OA
ENDBRANCH  66  67
ENDBRANCH  47  61
BRANCH  48  71
ATOM     71  C   UNL     1     -10.232  -8.353   3.231  1.00  0.00    -0.014 A 
ATOM     72  C   UNL     1     -11.492  -8.870   3.585  1.00  0.00     0.010 A 
ATOM     73  C   UNL     1     -10.132  -6.962   3.020  1.00  0.00     0.010 A 
ATOM     74  C   UNL     1     -12.597  -8.021   3.778  1.00  0.00     0.020 A 
ATOM     75  C   UNL     1     -11.229  -6.109   3.209  1.00  0.00     0.020 A 
ATOM     76  C   UNL     1     -12.452  -6.641   3.610  1.00  0.00     0.054 A 
BRANCH  76  77
ATOM     77  S   UNL     1     -13.834  -5.538   4.040  1.00  0.00     0.124 S 
ATOM     78  O   UNL     1     -14.793  -5.810   2.974  1.00  0.00    -0.237 OA
ATOM     79  O   UNL     1     -14.217  -6.011   5.368  1.00  0.00    -0.237 OA
ATOM     80  O   UNL     1     -13.235  -4.206   4.012  1.00  0.00    -0.744 OA
ENDBRANCH  76  77
ENDBRANCH  48  71
BRANCH  60  81
ATOM     81  C   UNL     1      -6.515 -13.431   3.797  1.00  0.00    -0.014 A 
ATOM     82  C   UNL     1      -6.417 -12.885   2.500  1.00  0.00     0.010 A 
ATOM     83  C   UNL     1      -6.449 -14.828   3.933  1.00  0.00     0.010 A 
ATOM     84  C   UNL     1      -6.280 -13.714   1.374  1.00  0.00     0.020 A 
ATOM     85  C   UNL     1      -6.295 -15.659   2.819  1.00  0.00     0.020 A 
ATOM     86  C   UNL     1      -6.220 -15.100   1.543  1.00  0.00     0.054 A 
BRANCH  86  87
ATOM     87  S   UNL     1      -5.994 -16.167   0.091  1.00  0.00     0.124 S 
ATOM     88  O   UNL     1      -7.271 -16.034  -0.604  1.00  0.00    -0.237 OA
ATOM     89  O   UNL     1      -4.846 -15.564  -0.582  1.00  0.00    -0.237 OA
ATOM     90  O   UNL     1      -5.739 -17.488   0.667  1.00  0.00    -0.744 OA
ENDBRANCH  86  87
ENDBRANCH  60  81
ENDBRANCH  34  35
ENDBRANCH  26  29
ENDBRANCH  24  25
ENDBRANCH   1  24
TORSDOF 17
