REMARK SMILES Cc1ccc2nc(C(=O)N3CCC4(CC3)[C@H](C(=O)NCCCNC(=O)c3ccc(-c5c6nc(c(-c7ccc(S(=O)(=O)[O-])cc7)c7ccc([nH]7)c(-c7ccc(S(=O)(=O)[O-])cc7)c7nc(c(-c8ccc(S(=O)(=O)[O-])cc8)c8ccc5[nH]8)C=C7)C=C6)cc3)CC(=O)N4C)cn2c1
REMARK SMILES IDX 22 1 21 2 20 3 19 4 17 5 18 6 16 8 8 9 9 10 10 11 11 12
REMARK SMILES IDX 15 13 12 14 14 15 13 16 89 17 86 18 87 19 90 20 88 21 7 22
REMARK SMILES IDX 1 23 2 24 3 25 93 26 4 27 92 28 5 29 91 30 6 31 23 32 24 33
REMARK SMILES IDX 25 35 26 36 27 37 85 38 28 39 84 40 29 41 30 42 31 43 78 44
REMARK SMILES IDX 32 45 83 46 77 47 79 48 33 49 82 50 76 51 75 52 34 54 64 55
REMARK SMILES IDX 45 56 63 57 46 58 49 59 62 60 80 61 47 62 48 63 61 65 81 66
REMARK SMILES IDX 50 67 35 68 36 69 44 70 37 71 43 72 38 73 39 74 40 75 41 76
REMARK SMILES IDX 42 77 65 78 66 79 74 80 67 81 73 82 68 83 69 84 70 85 71 86
REMARK SMILES IDX 72 87 51 88 52 89 60 90 53 91 59 92 54 93 55 94 56 95 57 96
REMARK SMILES IDX 58 97
REMARK H PARENT 19 7 23 34 79 53 49 64
REMARK Flexibility Score: inf
ROOT
ATOM      1  C   UNL     1       3.408   8.812  -9.111  1.00  0.00     0.118 C 
ENDROOT
BRANCH   1   2
ATOM      2  C   UNL     1       1.938   9.177  -8.947  1.00  0.00     0.042 C 
BRANCH   2   3
ATOM      3  C   UNL     1       0.974   8.346  -9.812  1.00  0.00     0.117 C 
BRANCH   3   4
ATOM      4  N   UNL     1       1.153   6.896  -9.736  1.00  0.00    -0.356 N 
ATOM      5  C   UNL     1       0.392   5.864  -9.288  1.00  0.00     0.226 C 
ATOM      6  O   UNL     1       0.864   4.732  -9.456  1.00  0.00    -0.275 OA
ATOM      7  H   UNL     1       2.023   6.602 -10.091  1.00  0.00     0.163 HD
BRANCH   5   8
ATOM      8  C   UNL     1      -0.976   5.997  -8.610  1.00  0.00     0.113 C 
ATOM      9  C   UNL     1       0.299   6.562  -3.245  1.00  0.00     0.274 C 
ATOM     10  O   UNL     1       1.123   7.314  -2.722  1.00  0.00    -0.267 OA
ATOM     11  N   UNL     1      -0.366   6.900  -4.414  1.00  0.00    -0.337 N 
ATOM     12  C   UNL     1       0.372   7.698  -5.357  1.00  0.00     0.122 C 
ATOM     13  C   UNL     1      -1.740   6.531  -4.766  1.00  0.00     0.122 C 
ATOM     14  C   UNL     1       0.337   6.972  -6.678  1.00  0.00     0.051 C 
ATOM     15  C   UNL     1      -1.896   6.011  -6.210  1.00  0.00     0.051 C 
ATOM     16  C   UNL     1      -1.070   6.799  -7.274  1.00  0.00     0.058 C 
ATOM     17  N   UNL     1      -1.793   8.009  -7.716  1.00  0.00    -0.339 N 
ATOM     18  C   UNL     1      -2.006   6.576  -9.569  1.00  0.00     0.116 C 
ATOM     19  C   UNL     1      -2.333   7.910  -8.992  1.00  0.00     0.223 C 
ATOM     20  C   UNL     1      -2.060   9.211  -6.945  1.00  0.00     0.147 C 
ATOM     21  O   UNL     1      -2.981   8.767  -9.582  1.00  0.00    -0.275 OA
BRANCH   9  22
ATOM     22  C   UNL     1       0.144   5.189  -2.770  1.00  0.00     0.147 A 
ATOM     23  C   UNL     1       1.056   0.004  -0.021  1.00  0.00     0.046 C 
ATOM     24  C   UNL     1       0.662   1.092  -0.966  1.00  0.00    -0.034 A 
ATOM     25  C   UNL     1      -0.044   0.751  -2.201  1.00  0.00     0.009 A 
ATOM     26  C   UNL     1       0.927   2.390  -0.721  1.00  0.00     0.096 A 
ATOM     27  C   UNL     1      -0.438   1.695  -3.078  1.00  0.00     0.048 A 
ATOM     28  N   UNL     1       0.520   3.352  -1.636  1.00  0.00    -0.306 N 
ATOM     29  C   UNL     1      -0.162   3.063  -2.811  1.00  0.00     0.137 A 
ATOM     30  C   UNL     1       0.710   4.702  -1.607  1.00  0.00     0.127 A 
ATOM     31  N   UNL     1      -0.414   4.152  -3.502  1.00  0.00    -0.223 NA
ENDBRANCH   9  22
ENDBRANCH   5   8
ENDBRANCH   3   4
ENDBRANCH   2   3
ENDBRANCH   1   2
BRANCH   1  32
ATOM     32  N   UNL     1       3.938   9.215 -10.391  1.00  0.00    -0.352 N 
ATOM     33  C   UNL     1       4.334  10.417 -10.907  1.00  0.00     0.251 C 
ATOM     34  H   UNL     1       4.036   8.468 -11.025  1.00  0.00     0.163 HD
ATOM     35  O   UNL     1       4.769  10.383 -12.062  1.00  0.00    -0.269 OA
BRANCH  33  36
ATOM     36  C   UNL     1       4.208  11.734 -10.218  1.00  0.00     0.039 A 
ATOM     37  C   UNL     1       3.894  11.949  -8.872  1.00  0.00     0.014 A 
ATOM     38  C   UNL     1       4.397  12.854 -11.046  1.00  0.00     0.014 A 
ATOM     39  C   UNL     1       3.648  13.238  -8.400  1.00  0.00     0.010 A 
ATOM     40  C   UNL     1       4.185  14.140 -10.575  1.00  0.00     0.010 A 
ATOM     41  C   UNL     1       3.751  14.326  -9.267  1.00  0.00    -0.014 A 
BRANCH  41  42
ATOM     42  C   UNL     1       3.517  15.675  -8.756  1.00  0.00     0.031 A 
ATOM     43  C   UNL     1       4.486  16.130  -7.715  1.00  0.00     0.074 A 
ATOM     44  C   UNL     1       2.606  16.504  -9.309  1.00  0.00     0.049 A 
ATOM     45  N   UNL     1       4.227  16.572  -6.528  1.00  0.00    -0.248 NA
ATOM     46  C   UNL     1       5.926  15.972  -7.985  1.00  0.00     0.031 C 
ATOM     47  C   UNL     1       1.782  16.271 -10.499  1.00  0.00     0.029 A 
ATOM     48  N   UNL     1       2.322  17.801  -9.003  1.00  0.00    -0.354 N 
ATOM     49  C   UNL     1       5.453  16.910  -5.957  1.00  0.00     0.074 A 
ATOM     50  C   UNL     1       6.466  16.399  -6.843  1.00  0.00     0.031 C 
ATOM     51  C   UNL     1       1.319  17.454 -10.962  1.00  0.00     0.029 A 
ATOM     52  C   UNL     1       1.693  18.503 -10.029  1.00  0.00     0.049 A 
ATOM     53  H   UNL     1       2.541  18.206  -8.133  1.00  0.00     0.167 HD
ATOM     54  C   UNL     1       5.547  17.738  -4.878  1.00  0.00     0.031 A 
ATOM     55  C   UNL     1       1.571  19.854 -10.143  1.00  0.00     0.031 A 
ATOM     56  C   UNL     1       4.283  17.885  -4.210  1.00  0.00     0.049 A 
ATOM     57  C   UNL     1       1.758  20.419  -8.783  1.00  0.00     0.074 A 
ATOM     58  C   UNL     1       3.437  17.010  -3.561  1.00  0.00     0.029 A 
ATOM     59  N   UNL     1       3.534  19.000  -4.500  1.00  0.00    -0.354 N 
ATOM     60  N   UNL     1       0.924  20.211  -7.803  1.00  0.00    -0.248 NA
ATOM     61  C   UNL     1       3.103  20.811  -8.392  1.00  0.00     0.031 C 
ATOM     62  C   UNL     1       2.131  17.419  -3.948  1.00  0.00     0.029 A 
ATOM     63  C   UNL     1       2.250  18.573  -4.727  1.00  0.00     0.049 A 
ATOM     64  H   UNL     1       3.857  19.930  -4.538  1.00  0.00     0.167 HD
ATOM     65  C   UNL     1       1.735  19.994  -6.699  1.00  0.00     0.074 A 
ATOM     66  C   UNL     1       3.063  20.461  -7.103  1.00  0.00     0.031 C 
ATOM     67  C   UNL     1       1.337  19.192  -5.667  1.00  0.00     0.031 A 
BRANCH  54  68
ATOM     68  C   UNL     1       6.713  18.650  -4.600  1.00  0.00    -0.014 A 
ATOM     69  C   UNL     1       7.684  18.971  -5.570  1.00  0.00     0.010 A 
ATOM     70  C   UNL     1       6.722  19.412  -3.413  1.00  0.00     0.010 A 
ATOM     71  C   UNL     1       8.623  19.985  -5.370  1.00  0.00     0.020 A 
ATOM     72  C   UNL     1       7.634  20.460  -3.218  1.00  0.00     0.020 A 
ATOM     73  C   UNL     1       8.584  20.733  -4.199  1.00  0.00     0.054 A 
BRANCH  73  74
ATOM     74  S   UNL     1       9.755  22.101  -4.019  1.00  0.00     0.124 S 
ATOM     75  O   UNL     1      11.029  21.393  -3.917  1.00  0.00    -0.237 OA
ATOM     76  O   UNL     1       9.549  22.854  -5.253  1.00  0.00    -0.237 OA
ATOM     77  O   UNL     1       9.315  22.773  -2.799  1.00  0.00    -0.744 OA
ENDBRANCH  73  74
ENDBRANCH  54  68
BRANCH  55  78
ATOM     78  C   UNL     1       1.786  20.672 -11.372  1.00  0.00    -0.014 A 
ATOM     79  C   UNL     1       2.532  20.146 -12.447  1.00  0.00     0.010 A 
ATOM     80  C   UNL     1       1.551  22.063 -11.364  1.00  0.00     0.010 A 
ATOM     81  C   UNL     1       3.116  20.978 -13.408  1.00  0.00     0.020 A 
ATOM     82  C   UNL     1       2.138  22.907 -12.326  1.00  0.00     0.020 A 
ATOM     83  C   UNL     1       2.958  22.359 -13.313  1.00  0.00     0.054 A 
BRANCH  83  84
ATOM     84  S   UNL     1       3.941  23.409 -14.423  1.00  0.00     0.124 S 
ATOM     85  O   UNL     1       5.298  23.174 -13.936  1.00  0.00    -0.237 OA
ATOM     86  O   UNL     1       3.644  22.847 -15.739  1.00  0.00    -0.237 OA
ATOM     87  O   UNL     1       3.416  24.751 -14.189  1.00  0.00    -0.744 OA
ENDBRANCH  83  84
ENDBRANCH  55  78
BRANCH  67  88
ATOM     88  C   UNL     1      -0.090  18.682  -5.625  1.00  0.00    -0.014 A 
ATOM     89  C   UNL     1      -0.778  18.801  -4.404  1.00  0.00     0.010 A 
ATOM     90  C   UNL     1      -0.672  17.898  -6.643  1.00  0.00     0.010 A 
ATOM     91  C   UNL     1      -1.977  18.122  -4.181  1.00  0.00     0.020 A 
ATOM     92  C   UNL     1      -1.894  17.236  -6.436  1.00  0.00     0.020 A 
ATOM     93  C   UNL     1      -2.523  17.331  -5.193  1.00  0.00     0.054 A 
BRANCH  93  94
ATOM     94  S   UNL     1      -4.046  16.416  -4.830  1.00  0.00     0.124 S 
ATOM     95  O   UNL     1      -3.579  15.393  -3.896  1.00  0.00    -0.237 OA
ATOM     96  O   UNL     1      -4.908  17.443  -4.247  1.00  0.00    -0.237 OA
ATOM     97  O   UNL     1      -4.479  15.913  -6.131  1.00  0.00    -0.744 OA
ENDBRANCH  93  94
ENDBRANCH  67  88
ENDBRANCH  41  42
ENDBRANCH  33  36
ENDBRANCH   1  32
TORSDOF 14
