REMARK SMILES CC(C)[NH2+][C@@]1(C(=O)NCCCNC(=O)c2ccc(-c3c4nc(c(-c5ccc(S(=O)(=O)[O-])cc5)c5ccc([nH]5)c(-c5ccc(S(=O)(=O)[O-])cc5)c5nc(c(-c6ccc(S(=O)(=O)[O-])cc6)c6ccc3[nH]6)C=C5)C=C4)cc2)CC[C@H](Oc2ccccc2F)C1
REMARK SMILES IDX 10 1 9 2 8 3 6 4 7 5 5 7 75 8 86 9 76 10 77 11 4 12 2 15
REMARK SMILES IDX 1 16 3 17 78 18 79 19 80 20 84 21 81 22 83 23 85 24 82 25
REMARK SMILES IDX 11 26 12 27 13 28 14 30 15 31 16 32 74 33 17 34 73 35 18 36
REMARK SMILES IDX 19 37 20 38 67 39 21 40 72 41 66 42 68 43 22 44 71 45 65 46
REMARK SMILES IDX 64 47 23 49 53 50 34 51 52 52 35 53 38 54 51 55 69 56 36 57
REMARK SMILES IDX 37 58 50 60 70 61 39 62 24 63 25 64 33 65 26 66 32 67 27 68
REMARK SMILES IDX 28 69 29 70 30 71 31 72 54 73 55 74 63 75 56 76 62 77 57 78
REMARK SMILES IDX 58 79 59 80 60 81 61 82 40 83 41 84 49 85 42 86 48 87 43 88
REMARK SMILES IDX 44 89 45 90 46 91 47 92
REMARK H PARENT 8 6 4 13 4 14 12 29 68 48 38 59
REMARK Flexibility Score: inf
ROOT
ATOM      1  C   UNL     1      -3.465   5.328   2.974  1.00  0.00     0.042 C 
ENDROOT
BRANCH   1   2
ATOM      2  C   UNL     1      -2.016   4.859   3.002  1.00  0.00     0.118 C 
BRANCH   2   3
ATOM      3  N   UNL     1      -1.902   3.425   2.848  1.00  0.00    -0.351 N 
ATOM      4  C   UNL     1      -1.621   2.605   1.808  1.00  0.00     0.281 C 
ATOM      5  O   UNL     1      -1.666   1.396   2.096  1.00  0.00    -0.268 OA
ATOM      6  H   UNL     1      -2.064   2.937   3.688  1.00  0.00     0.163 HD
BRANCH   4   7
ATOM      7  C   UNL     1      -1.317   3.032   0.313  1.00  0.00     0.179 C 
ATOM      8  C   UNL     1      -0.499   4.289   0.045  1.00  0.00     0.083 C 
ATOM      9  C   UNL     1      -2.647   3.260  -0.440  1.00  0.00     0.124 C 
ATOM     10  C   UNL     1      -1.460   5.397  -0.353  1.00  0.00     0.052 C 
ATOM     11  C   UNL     1      -2.749   4.744  -0.836  1.00  0.00     0.180 C 
BRANCH   7  12
ATOM     12  N   UNL     1      -0.660   1.843  -0.347  1.00  0.00    -0.332 N 
ATOM     13  H   UNL     1      -1.261   1.033  -0.197  1.00  0.00     0.347 HD
ATOM     14  H   UNL     1      -0.543   2.104  -1.326  1.00  0.00     0.347 HD
BRANCH  12  15
ATOM     15  C   UNL     1       0.693   1.496   0.134  1.00  0.00     0.176 C 
ATOM     16  C   UNL     1       0.818  -0.035   0.172  1.00  0.00     0.075 C 
ATOM     17  C   UNL     1       1.774   2.044  -0.804  1.00  0.00     0.075 C 
ENDBRANCH  12  15
ENDBRANCH   7  12
BRANCH  11  18
ATOM     18  O   UNL     1      -3.968   5.214  -0.264  1.00  0.00    -0.487 OA
BRANCH  18  19
ATOM     19  C   UNL     1      -4.307   6.526  -0.140  1.00  0.00     0.155 A 
ATOM     20  C   UNL     1      -3.570   7.626  -0.568  1.00  0.00     0.049 A 
ATOM     21  C   UNL     1      -5.479   6.753   0.593  1.00  0.00     0.165 A 
ATOM     22  C   UNL     1      -3.935   8.916  -0.159  1.00  0.00     0.004 A 
ATOM     23  C   UNL     1      -5.860   8.031   0.985  1.00  0.00     0.043 A 
ATOM     24  F   UNL     1      -6.220   5.712   1.008  1.00  0.00    -0.203 F 
ATOM     25  C   UNL     1      -5.069   9.117   0.629  1.00  0.00     0.003 A 
ENDBRANCH  18  19
ENDBRANCH  11  18
ENDBRANCH   4   7
ENDBRANCH   2   3
ENDBRANCH   1   2
BRANCH   1  26
ATOM     26  C   UNL     1      -4.088   5.491   4.356  1.00  0.00     0.118 C 
BRANCH  26  27
ATOM     27  N   UNL     1      -3.622   6.711   5.009  1.00  0.00    -0.352 N 
ATOM     28  C   UNL     1      -4.233   7.926   5.211  1.00  0.00     0.251 C 
ATOM     29  H   UNL     1      -2.707   6.653   5.368  1.00  0.00     0.163 HD
ATOM     30  O   UNL     1      -3.526   8.886   5.517  1.00  0.00    -0.269 OA
BRANCH  28  31
ATOM     31  C   UNL     1      -5.701   8.114   5.079  1.00  0.00     0.039 A 
ATOM     32  C   UNL     1      -6.188   9.374   4.702  1.00  0.00     0.014 A 
ATOM     33  C   UNL     1      -6.612   7.112   5.413  1.00  0.00     0.014 A 
ATOM     34  C   UNL     1      -7.567   9.608   4.621  1.00  0.00     0.010 A 
ATOM     35  C   UNL     1      -7.982   7.315   5.241  1.00  0.00     0.010 A 
ATOM     36  C   UNL     1      -8.480   8.571   4.865  1.00  0.00    -0.014 A 
BRANCH  36  37
ATOM     37  C   UNL     1      -9.954   8.775   4.773  1.00  0.00     0.031 A 
ATOM     38  C   UNL     1     -10.826   8.552   5.984  1.00  0.00     0.074 A 
ATOM     39  C   UNL     1     -10.524   9.078   3.590  1.00  0.00     0.049 A 
ATOM     40  N   UNL     1     -12.132   8.560   6.077  1.00  0.00    -0.248 NA
ATOM     41  C   UNL     1     -10.139   8.252   7.251  1.00  0.00     0.031 C 
ATOM     42  C   UNL     1      -9.806   9.290   2.333  1.00  0.00     0.029 A 
ATOM     43  N   UNL     1     -11.844   9.242   3.247  1.00  0.00    -0.354 N 
ATOM     44  C   UNL     1     -12.422   8.235   7.398  1.00  0.00     0.074 A 
ATOM     45  C   UNL     1     -11.157   7.989   8.057  1.00  0.00     0.031 C 
ATOM     46  C   UNL     1     -10.689   9.563   1.359  1.00  0.00     0.029 A 
ATOM     47  C   UNL     1     -12.039   9.511   1.913  1.00  0.00     0.049 A 
ATOM     48  H   UNL     1     -12.582   9.173   3.896  1.00  0.00     0.167 HD
ATOM     49  C   UNL     1     -13.626   8.165   8.016  1.00  0.00     0.031 A 
ATOM     50  C   UNL     1     -13.172   9.688   1.206  1.00  0.00     0.031 A 
ATOM     51  C   UNL     1     -14.882   8.434   7.368  1.00  0.00     0.049 A 
ATOM     52  C   UNL     1     -14.497   9.618   1.910  1.00  0.00     0.074 A 
ATOM     53  C   UNL     1     -16.151   8.451   7.922  1.00  0.00     0.029 A 
ATOM     54  N   UNL     1     -15.029   8.736   6.023  1.00  0.00    -0.354 N 
ATOM     55  N   UNL     1     -14.745   9.362   3.173  1.00  0.00    -0.248 NA
ATOM     56  C   UNL     1     -15.695   9.875   1.099  1.00  0.00     0.031 C 
ATOM     57  C   UNL     1     -17.069   8.724   6.902  1.00  0.00     0.029 A 
ATOM     58  C   UNL     1     -16.368   8.927   5.724  1.00  0.00     0.049 A 
ATOM     59  H   UNL     1     -14.291   8.805   5.375  1.00  0.00     0.167 HD
ATOM     60  C   UNL     1     -16.126   9.452   3.312  1.00  0.00     0.074 A 
ATOM     61  C   UNL     1     -16.657   9.798   2.009  1.00  0.00     0.031 C 
ATOM     62  C   UNL     1     -16.883   9.268   4.422  1.00  0.00     0.031 A 
BRANCH  49  63
ATOM     63  C   UNL     1     -13.635   7.776   9.473  1.00  0.00    -0.014 A 
ATOM     64  C   UNL     1     -13.127   8.642  10.459  1.00  0.00     0.010 A 
ATOM     65  C   UNL     1     -14.167   6.534   9.864  1.00  0.00     0.010 A 
ATOM     66  C   UNL     1     -13.095   8.248  11.800  1.00  0.00     0.020 A 
ATOM     67  C   UNL     1     -14.165   6.149  11.208  1.00  0.00     0.020 A 
ATOM     68  C   UNL     1     -13.606   6.999  12.165  1.00  0.00     0.054 A 
BRANCH  68  69
ATOM     69  S   UNL     1     -13.546   6.511  13.910  1.00  0.00     0.124 S 
ATOM     70  O   UNL     1     -12.133   6.179  14.080  1.00  0.00    -0.237 OA
ATOM     71  O   UNL     1     -13.994   7.717  14.599  1.00  0.00    -0.237 OA
ATOM     72  O   UNL     1     -14.465   5.377  13.985  1.00  0.00    -0.744 OA
ENDBRANCH  68  69
ENDBRANCH  49  63
BRANCH  50  73
ATOM     73  C   UNL     1     -13.091   9.979  -0.252  1.00  0.00    -0.014 A 
ATOM     74  C   UNL     1     -13.349  11.274  -0.732  1.00  0.00     0.010 A 
ATOM     75  C   UNL     1     -12.713   8.974  -1.161  1.00  0.00     0.010 A 
ATOM     76  C   UNL     1     -13.236  11.559  -2.096  1.00  0.00     0.020 A 
ATOM     77  C   UNL     1     -12.575   9.261  -2.522  1.00  0.00     0.020 A 
ATOM     78  C   UNL     1     -12.844  10.552  -2.982  1.00  0.00     0.054 A 
BRANCH  78  79
ATOM     79  S   UNL     1     -12.629  10.966  -4.736  1.00  0.00     0.124 S 
ATOM     80  O   UNL     1     -14.011  11.084  -5.192  1.00  0.00    -0.237 OA
ATOM     81  O   UNL     1     -11.874  12.216  -4.674  1.00  0.00    -0.237 OA
ATOM     82  O   UNL     1     -11.887   9.826  -5.268  1.00  0.00    -0.744 OA
ENDBRANCH  78  79
ENDBRANCH  50  73
BRANCH  62  83
ATOM     83  C   UNL     1     -18.369   9.465   4.286  1.00  0.00    -0.014 A 
ATOM     84  C   UNL     1     -19.172   8.520   3.625  1.00  0.00     0.010 A 
ATOM     85  C   UNL     1     -18.976  10.588   4.878  1.00  0.00     0.010 A 
ATOM     86  C   UNL     1     -20.554   8.708   3.535  1.00  0.00     0.020 A 
ATOM     87  C   UNL     1     -20.359  10.767   4.812  1.00  0.00     0.020 A 
ATOM     88  C   UNL     1     -21.139   9.832   4.128  1.00  0.00     0.054 A 
BRANCH  88  89
ATOM     89  S   UNL     1     -22.940  10.031   4.039  1.00  0.00     0.124 S 
ATOM     90  O   UNL     1     -23.130  10.454   2.655  1.00  0.00    -0.237 OA
ATOM     91  O   UNL     1     -23.428   8.691   4.359  1.00  0.00    -0.237 OA
ATOM     92  O   UNL     1     -23.226  11.049   5.047  1.00  0.00    -0.744 OA
ENDBRANCH  88  89
ENDBRANCH  62  83
ENDBRANCH  36  37
ENDBRANCH  28  31
ENDBRANCH  26  27
ENDBRANCH   1  26
TORSDOF 17
