REMARK SMILES CO[C@@H]1C[C@@H](C(=O)NCCCNC(=O)c2ccc(-c3c4nc(c(-c5ccc(S(=O)(=O)[O-])cc5)c5ccc([nH]5)c(-c5ccc(S(=O)(=O)[O-])cc5)c5nc(c(-c6ccc(S(=O)(=O)[O-])cc6)c6ccc3[nH]6)C=C5)C=C4)cc2)N(C(=O)CSc2cccs2)C1
REMARK SMILES IDX 9 1 8 2 6 3 7 4 5 6 3 7 4 8 85 9 75 10 2 11 1 12 76 13 77 14
REMARK SMILES IDX 78 15 79 16 80 17 81 18 84 19 82 20 83 21 10 22 11 23 12 24
REMARK SMILES IDX 13 25 14 27 15 28 16 29 74 30 17 31 73 32 18 33 19 34 20 35
REMARK SMILES IDX 67 36 21 37 72 38 66 39 68 40 22 41 71 42 65 43 64 44 23 46
REMARK SMILES IDX 53 47 34 48 52 49 35 50 38 51 51 52 69 53 36 54 37 55 50 57
REMARK SMILES IDX 70 58 39 59 24 60 25 61 33 62 26 63 32 64 27 65 28 66 29 67
REMARK SMILES IDX 30 68 31 69 54 70 55 71 63 72 56 73 62 74 57 75 58 76 59 77
REMARK SMILES IDX 60 78 61 79 40 80 41 81 49 82 42 83 48 84 43 85 44 86 45 87
REMARK SMILES IDX 46 88 47 89
REMARK H PARENT 8 5 12 26 68 45 38 56
REMARK Flexibility Score: inf
ROOT
ATOM      1  C   UNL     1       3.800   4.582  -1.397  1.00  0.00     0.117 C 
ENDROOT
BRANCH   1   2
ATOM      2  N   UNL     1       3.839   4.253   0.016  1.00  0.00    -0.354 N 
ATOM      3  C   UNL     1       2.996   3.528   0.797  1.00  0.00     0.242 C 
ATOM      4  O   UNL     1       3.366   3.297   1.952  1.00  0.00    -0.273 OA
ATOM      5  H   UNL     1       4.617   4.620   0.495  1.00  0.00     0.163 HD
BRANCH   3   6
ATOM      6  C   UNL     1       1.739   2.850   0.242  1.00  0.00     0.177 C 
ATOM      7  C   UNL     1       0.992   1.261  -1.390  1.00  0.00     0.139 C 
ATOM      8  C   UNL     1       2.193   1.595  -0.518  1.00  0.00     0.069 C 
ATOM      9  C   UNL     1       0.492   2.651  -1.807  1.00  0.00     0.152 C 
ATOM     10  N   UNL     1       0.877   3.548  -0.716  1.00  0.00    -0.327 N 
BRANCH   7  11
ATOM     11  O   UNL     1      -0.037   0.586  -0.659  1.00  0.00    -0.380 OA
ATOM     12  C   UNL     1       0.364  -0.673  -0.135  1.00  0.00     0.195 C 
ENDBRANCH   7  11
BRANCH  10  13
ATOM     13  C   UNL     1       0.152   4.709  -0.510  1.00  0.00     0.233 C 
ATOM     14  O   UNL     1      -0.693   5.076  -1.330  1.00  0.00    -0.274 OA
BRANCH  13  15
ATOM     15  C   UNL     1       0.471   5.584   0.694  1.00  0.00     0.175 C 
BRANCH  15  16
ATOM     16  S   UNL     1      -0.330   4.979   2.202  1.00  0.00    -0.105 SA
BRANCH  16  17
ATOM     17  C   UNL     1      -2.002   5.374   1.851  1.00  0.00     0.060 A 
ATOM     18  C   UNL     1      -2.986   4.463   1.539  1.00  0.00     0.027 A 
ATOM     19  S   UNL     1      -2.600   6.974   1.887  1.00  0.00    -0.137 S 
ATOM     20  C   UNL     1      -4.240   5.093   1.290  1.00  0.00     0.013 A 
ATOM     21  C   UNL     1      -4.168   6.461   1.434  1.00  0.00     0.066 A 
ENDBRANCH  16  17
ENDBRANCH  15  16
ENDBRANCH  13  15
ENDBRANCH  10  13
ENDBRANCH   3   6
ENDBRANCH   1   2
BRANCH   1  22
ATOM     22  C   UNL     1       3.388   6.023  -1.664  1.00  0.00     0.042 C 
BRANCH  22  23
ATOM     23  C   UNL     1       4.159   7.055  -0.849  1.00  0.00     0.118 C 
BRANCH  23  24
ATOM     24  N   UNL     1       5.586   7.030  -1.132  1.00  0.00    -0.352 N 
ATOM     25  C   UNL     1       6.382   8.003  -1.683  1.00  0.00     0.251 C 
ATOM     26  H   UNL     1       6.047   6.194  -0.894  1.00  0.00     0.163 HD
ATOM     27  O   UNL     1       7.519   7.722  -2.049  1.00  0.00    -0.269 OA
BRANCH  25  28
ATOM     28  C   UNL     1       5.862   9.376  -1.849  1.00  0.00     0.039 A 
ATOM     29  C   UNL     1       6.090  10.047  -3.053  1.00  0.00     0.014 A 
ATOM     30  C   UNL     1       5.162  10.005  -0.815  1.00  0.00     0.014 A 
ATOM     31  C   UNL     1       5.568  11.328  -3.240  1.00  0.00     0.010 A 
ATOM     32  C   UNL     1       4.580  11.250  -1.030  1.00  0.00     0.010 A 
ATOM     33  C   UNL     1       4.785  11.929  -2.240  1.00  0.00    -0.014 A 
BRANCH  33  34
ATOM     34  C   UNL     1       4.183  13.272  -2.435  1.00  0.00     0.031 A 
ATOM     35  C   UNL     1       4.608  14.422  -1.562  1.00  0.00     0.074 A 
ATOM     36  C   UNL     1       3.208  13.441  -3.349  1.00  0.00     0.049 A 
ATOM     37  N   UNL     1       4.156  15.649  -1.538  1.00  0.00    -0.248 NA
ATOM     38  C   UNL     1       5.660  14.149  -0.569  1.00  0.00     0.031 C 
ATOM     39  C   UNL     1       2.674  12.393  -4.224  1.00  0.00     0.029 A 
ATOM     40  N   UNL     1       2.484  14.556  -3.688  1.00  0.00    -0.354 N 
ATOM     41  C   UNL     1       4.848  16.286  -0.514  1.00  0.00     0.074 A 
ATOM     42  C   UNL     1       5.718  15.299   0.087  1.00  0.00     0.031 C 
ATOM     43  C   UNL     1       1.726  12.922  -5.014  1.00  0.00     0.029 A 
ATOM     44  C   UNL     1       1.559  14.333  -4.679  1.00  0.00     0.049 A 
ATOM     45  H   UNL     1       2.616  15.434  -3.261  1.00  0.00     0.167 HD
ATOM     46  C   UNL     1       4.779  17.580  -0.120  1.00  0.00     0.031 A 
ATOM     47  C   UNL     1       0.671  15.168  -5.253  1.00  0.00     0.031 A 
ATOM     48  C   UNL     1       3.927  18.564  -0.731  1.00  0.00     0.049 A 
ATOM     49  C   UNL     1       0.624  16.604  -4.813  1.00  0.00     0.074 A 
ATOM     50  C   UNL     1       3.831  19.915  -0.448  1.00  0.00     0.029 A 
ATOM     51  N   UNL     1       3.023  18.303  -1.750  1.00  0.00    -0.354 N 
ATOM     52  N   UNL     1       1.334  17.205  -3.887  1.00  0.00    -0.248 NA
ATOM     53  C   UNL     1      -0.335  17.479  -5.502  1.00  0.00     0.031 C 
ATOM     54  C   UNL     1       2.840  20.464  -1.269  1.00  0.00     0.029 A 
ATOM     55  C   UNL     1       2.353  19.464  -2.096  1.00  0.00     0.049 A 
ATOM     56  H   UNL     1       2.880  17.423  -2.167  1.00  0.00     0.167 HD
ATOM     57  C   UNL     1       0.924  18.533  -3.898  1.00  0.00     0.074 A 
ATOM     58  C   UNL     1      -0.087  18.650  -4.930  1.00  0.00     0.031 C 
ATOM     59  C   UNL     1       1.347  19.562  -3.124  1.00  0.00     0.031 A 
BRANCH  46  60
ATOM     60  C   UNL     1       5.649  17.998   1.036  1.00  0.00    -0.014 A 
ATOM     61  C   UNL     1       7.046  18.089   0.897  1.00  0.00     0.010 A 
ATOM     62  C   UNL     1       5.062  18.320   2.273  1.00  0.00     0.010 A 
ATOM     63  C   UNL     1       7.844  18.444   1.988  1.00  0.00     0.020 A 
ATOM     64  C   UNL     1       5.855  18.703   3.359  1.00  0.00     0.020 A 
ATOM     65  C   UNL     1       7.244  18.741   3.215  1.00  0.00     0.054 A 
BRANCH  65  66
ATOM     66  S   UNL     1       8.301  19.204   4.613  1.00  0.00     0.124 S 
ATOM     67  O   UNL     1       8.856  17.912   5.010  1.00  0.00    -0.237 OA
ATOM     68  O   UNL     1       9.251  20.134   4.007  1.00  0.00    -0.237 OA
ATOM     69  O   UNL     1       7.372  19.803   5.568  1.00  0.00    -0.744 OA
ENDBRANCH  65  66
ENDBRANCH  46  60
BRANCH  47  70
ATOM     70  C   UNL     1      -0.224  14.665  -6.329  1.00  0.00    -0.014 A 
ATOM     71  C   UNL     1       0.004  15.024  -7.669  1.00  0.00     0.010 A 
ATOM     72  C   UNL     1      -1.287  13.796  -6.024  1.00  0.00     0.010 A 
ATOM     73  C   UNL     1      -0.819  14.529  -8.684  1.00  0.00     0.020 A 
ATOM     74  C   UNL     1      -2.098  13.280  -7.040  1.00  0.00     0.020 A 
ATOM     75  C   UNL     1      -1.863  13.657  -8.364  1.00  0.00     0.054 A 
BRANCH  75  76
ATOM     76  S   UNL     1      -2.873  12.970  -9.706  1.00  0.00     0.124 S 
ATOM     77  O   UNL     1      -3.720  14.104 -10.059  1.00  0.00    -0.237 OA
ATOM     78  O   UNL     1      -1.868  12.597 -10.699  1.00  0.00    -0.237 OA
ATOM     79  O   UNL     1      -3.559  11.845  -9.075  1.00  0.00    -0.744 OA
ENDBRANCH  75  76
ENDBRANCH  47  70
BRANCH  59  80
ATOM     80  C   UNL     1       0.739  20.914  -3.380  1.00  0.00    -0.014 A 
ATOM     81  C   UNL     1      -0.574  21.209  -2.973  1.00  0.00     0.010 A 
ATOM     82  C   UNL     1       1.514  21.920  -3.986  1.00  0.00     0.010 A 
ATOM     83  C   UNL     1      -1.111  22.480  -3.194  1.00  0.00     0.020 A 
ATOM     84  C   UNL     1       0.989  23.198  -4.186  1.00  0.00     0.020 A 
ATOM     85  C   UNL     1      -0.326  23.466  -3.800  1.00  0.00     0.054 A 
BRANCH  85  86
ATOM     86  S   UNL     1      -1.028  25.123  -4.034  1.00  0.00     0.124 S 
ATOM     87  O   UNL     1      -1.916  24.917  -5.175  1.00  0.00    -0.237 OA
ATOM     88  O   UNL     1      -1.693  25.375  -2.758  1.00  0.00    -0.237 OA
ATOM     89  O   UNL     1       0.140  25.960  -4.296  1.00  0.00    -0.744 OA
ENDBRANCH  85  86
ENDBRANCH  59  80
ENDBRANCH  33  34
ENDBRANCH  25  28
ENDBRANCH  23  24
ENDBRANCH  22  23
ENDBRANCH   1  22
TORSDOF 18
