REMARK SMILES CC(=O)N[C@H](CSCC(=O)Nc1ccc2c(c1)N1CC[NH+]=C1S2)C(=O)NCCCNC(=O)c1ccc(-c2c3nc(c(-c4ccc(S(=O)(=O)[O-])cc4)c4ccc([nH]4)c(-c4ccc(S(=O)(=O)[O-])cc4)c4nc(c(-c5ccc(S(=O)(=O)[O-])cc5)c5ccc2[nH]5)C=C4)C=C3)cc1
REMARK SMILES IDX 27 1 26 2 24 3 25 4 5 6 4 7 1 8 2 9 3 10 6 12 7 13 8 14 9 15
REMARK SMILES IDX 10 16 11 17 12 19 13 20 17 21 14 22 16 23 15 24 18 25 23 26
REMARK SMILES IDX 19 27 22 28 20 29 21 30 28 32 29 33 30 34 31 35 32 37 33 38
REMARK SMILES IDX 34 39 92 40 35 41 91 42 36 43 37 44 38 45 85 46 39 47 90 48
REMARK SMILES IDX 84 49 86 50 40 51 89 52 83 53 82 54 41 56 71 57 52 58 70 59
REMARK SMILES IDX 53 60 56 61 69 62 87 63 54 64 55 65 68 67 88 68 57 69 42 70
REMARK SMILES IDX 43 71 51 72 44 73 50 74 45 75 46 76 47 77 48 78 49 79 72 80
REMARK SMILES IDX 73 81 81 82 74 83 80 84 75 85 76 86 77 87 78 88 79 89 58 90
REMARK SMILES IDX 59 91 67 92 60 93 66 94 61 95 62 96 63 97 64 98 65 99
REMARK H PARENT 26 5 4 11 11 18 21 31 30 36 86 55 56 66
REMARK Flexibility Score: inf
ROOT
ATOM      1  C   UNL     1       0.379  -5.500  -0.772  1.00  0.00     0.117 C 
ENDROOT
BRANCH   1   2
ATOM      2  N   UNL     1       0.490  -4.868  -2.074  1.00  0.00    -0.354 N 
ATOM      3  C   UNL     1       1.327  -3.896  -2.530  1.00  0.00     0.243 C 
ATOM      4  O   UNL     1       1.466  -3.825  -3.757  1.00  0.00    -0.273 OA
ATOM      5  H   UNL     1      -0.151  -5.200  -2.744  1.00  0.00     0.163 HD
BRANCH   3   6
ATOM      6  C   UNL     1       2.117  -2.949  -1.601  1.00  0.00     0.181 C 
BRANCH   6   7
ATOM      7  N   UNL     1       3.549  -3.212  -1.409  1.00  0.00    -0.344 N 
ATOM      8  C   UNL     1       3.582  -5.586  -0.697  1.00  0.00     0.114 C 
ATOM      9  C   UNL     1       4.249  -4.266  -0.918  1.00  0.00     0.217 C 
ATOM     10  O   UNL     1       5.456  -4.125  -0.713  1.00  0.00    -0.275 OA
ATOM     11  H   UNL     1       4.122  -2.466  -1.696  1.00  0.00     0.164 HD
ENDBRANCH   6   7
BRANCH   6  12
ATOM     12  C   UNL     1       1.353  -2.474  -0.362  1.00  0.00     0.105 C 
BRANCH  12  13
ATOM     13  S   UNL     1       1.592  -0.686  -0.021  1.00  0.00    -0.149 SA
BRANCH  13  14
ATOM     14  C   UNL     1       2.787  -0.676   1.343  1.00  0.00     0.169 C 
BRANCH  14  15
ATOM     15  C   UNL     1       2.796  -1.879   2.271  1.00  0.00     0.234 C 
ATOM     16  O   UNL     1       3.517  -2.852   2.034  1.00  0.00    -0.274 OA
ATOM     17  N   UNL     1       2.107  -1.852   3.454  1.00  0.00    -0.325 N 
ATOM     18  H   UNL     1       2.401  -2.508   4.127  1.00  0.00     0.169 HD
BRANCH  17  19
ATOM     19  C   UNL     1       1.046  -1.027   3.846  1.00  0.00     0.045 A 
ATOM     20  C   UNL     1      -0.038  -0.762   2.992  1.00  0.00     0.027 A 
ATOM     21  C   UNL     1       1.064  -0.513   5.146  1.00  0.00     0.079 A 
ATOM     22  C   UNL     1      -1.073   0.089   3.381  1.00  0.00     0.022 A 
ATOM     23  C   UNL     1       0.070   0.375   5.522  1.00  0.00     0.144 A 
ATOM     24  C   UNL     1      -0.989   0.668   4.630  1.00  0.00     0.067 A 
ATOM     25  N   UNL     1      -0.006   1.103   6.676  1.00  0.00    -0.216 N 
ATOM     26  S   UNL     1      -2.092   1.894   5.348  1.00  0.00     0.002 SA
ATOM     27  C   UNL     1       0.760   1.167   7.877  1.00  0.00     0.289 C 
ATOM     28  C   UNL     1      -1.031   1.998   6.733  1.00  0.00     0.316 C 
ATOM     29  C   UNL     1       0.166   2.458   8.498  1.00  0.00     0.280 C 
ATOM     30  N   UNL     1      -1.088   2.821   7.737  1.00  0.00    -0.264 N 
ATOM     31  H   UNL     1      -1.768   3.502   7.946  1.00  0.00     0.305 HD
ENDBRANCH  17  19
ENDBRANCH  14  15
ENDBRANCH  13  14
ENDBRANCH  12  13
ENDBRANCH   6  12
ENDBRANCH   3   6
ENDBRANCH   1   2
BRANCH   1  32
ATOM     32  C   UNL     1      -1.048  -5.794  -0.354  1.00  0.00     0.042 C 
BRANCH  32  33
ATOM     33  C   UNL     1      -1.785  -6.724  -1.306  1.00  0.00     0.118 C 
BRANCH  33  34
ATOM     34  N   UNL     1      -1.114  -8.006  -1.512  1.00  0.00    -0.352 N 
ATOM     35  C   UNL     1      -1.455  -9.283  -1.120  1.00  0.00     0.251 C 
ATOM     36  H   UNL     1      -0.272  -7.948  -2.019  1.00  0.00     0.163 HD
ATOM     37  O   UNL     1      -0.662 -10.200  -1.280  1.00  0.00    -0.269 OA
BRANCH  35  38
ATOM     38  C   UNL     1      -2.758  -9.527  -0.466  1.00  0.00     0.039 A 
ATOM     39  C   UNL     1      -3.904  -8.891  -0.930  1.00  0.00     0.014 A 
ATOM     40  C   UNL     1      -2.825 -10.356   0.657  1.00  0.00     0.014 A 
ATOM     41  C   UNL     1      -5.034  -8.858  -0.130  1.00  0.00     0.010 A 
ATOM     42  C   UNL     1      -4.016 -10.437   1.387  1.00  0.00     0.010 A 
ATOM     43  C   UNL     1      -5.108  -9.627   1.044  1.00  0.00    -0.014 A 
BRANCH  43  44
ATOM     44  C   UNL     1      -6.330  -9.535   1.887  1.00  0.00     0.031 A 
ATOM     45  C   UNL     1      -6.255  -9.045   3.311  1.00  0.00     0.074 A 
ATOM     46  C   UNL     1      -7.530  -9.792   1.326  1.00  0.00     0.049 A 
ATOM     47  N   UNL     1      -7.231  -8.856   4.164  1.00  0.00    -0.248 NA
ATOM     48  C   UNL     1      -4.923  -8.730   3.855  1.00  0.00     0.031 C 
ATOM     49  C   UNL     1      -7.730 -10.244  -0.054  1.00  0.00     0.029 A 
ATOM     50  N   UNL     1      -8.804  -9.656   1.816  1.00  0.00    -0.354 N 
ATOM     51  C   UNL     1      -6.632  -8.435   5.346  1.00  0.00     0.074 A 
ATOM     52  C   UNL     1      -5.206  -8.414   5.112  1.00  0.00     0.031 C 
ATOM     53  C   UNL     1      -9.040 -10.241  -0.332  1.00  0.00     0.029 A 
ATOM     54  C   UNL     1      -9.780  -9.889   0.875  1.00  0.00     0.049 A 
ATOM     55  H   UNL     1      -9.001  -9.415   2.750  1.00  0.00     0.167 HD
ATOM     56  C   UNL     1      -7.219  -8.091   6.517  1.00  0.00     0.031 A 
ATOM     57  C   UNL     1     -11.124  -9.837   0.963  1.00  0.00     0.031 A 
ATOM     58  C   UNL     1      -8.642  -8.085   6.731  1.00  0.00     0.049 A 
ATOM     59  C   UNL     1     -11.751  -9.481   2.276  1.00  0.00     0.074 A 
ATOM     60  C   UNL     1      -9.332  -7.748   7.882  1.00  0.00     0.029 A 
ATOM     61  N   UNL     1      -9.592  -8.417   5.777  1.00  0.00    -0.354 N 
ATOM     62  N   UNL     1     -11.162  -9.124   3.392  1.00  0.00    -0.248 NA
ATOM     63  C   UNL     1     -13.216  -9.538   2.354  1.00  0.00     0.031 C 
ATOM     64  C   UNL     1     -10.697  -7.926   7.640  1.00  0.00     0.029 A 
ATOM     65  C   UNL     1     -10.862  -8.314   6.320  1.00  0.00     0.049 A 
ATOM     66  H   UNL     1      -9.394  -8.686   4.851  1.00  0.00     0.167 HD
ATOM     67  C   UNL     1     -12.184  -8.923   4.310  1.00  0.00     0.074 A 
ATOM     68  C   UNL     1     -13.430  -9.168   3.611  1.00  0.00     0.031 C 
ATOM     69  C   UNL     1     -12.093  -8.577   5.617  1.00  0.00     0.031 A 
BRANCH  56  70
ATOM     70  C   UNL     1      -6.334  -7.704   7.674  1.00  0.00    -0.014 A 
ATOM     71  C   UNL     1      -6.241  -8.553   8.792  1.00  0.00     0.010 A 
ATOM     72  C   UNL     1      -5.675  -6.462   7.703  1.00  0.00     0.010 A 
ATOM     73  C   UNL     1      -5.521  -8.163   9.925  1.00  0.00     0.020 A 
ATOM     74  C   UNL     1      -4.933  -6.079   8.825  1.00  0.00     0.020 A 
ATOM     75  C   UNL     1      -4.877  -6.924   9.937  1.00  0.00     0.054 A 
BRANCH  75  76
ATOM     76  S   UNL     1      -3.939  -6.432  11.410  1.00  0.00     0.124 S 
ATOM     77  O   UNL     1      -4.993  -5.977  12.310  1.00  0.00    -0.237 OA
ATOM     78  O   UNL     1      -3.269  -7.672  11.796  1.00  0.00    -0.237 OA
ATOM     79  O   UNL     1      -3.046  -5.387  10.911  1.00  0.00    -0.744 OA
ENDBRANCH  75  76
ENDBRANCH  56  70
BRANCH  57  80
ATOM     80  C   UNL     1     -11.934 -10.134  -0.249  1.00  0.00    -0.014 A 
ATOM     81  C   UNL     1     -11.935 -11.430  -0.800  1.00  0.00     0.010 A 
ATOM     82  C   UNL     1     -12.597  -9.100  -0.932  1.00  0.00     0.010 A 
ATOM     83  C   UNL     1     -12.510 -11.670  -2.049  1.00  0.00     0.020 A 
ATOM     84  C   UNL     1     -13.203  -9.344  -2.170  1.00  0.00     0.020 A 
ATOM     85  C   UNL     1     -13.121 -10.619  -2.736  1.00  0.00     0.054 A 
BRANCH  85  86
ATOM     86  S   UNL     1     -13.785 -10.930  -4.396  1.00  0.00     0.124 S 
ATOM     87  O   UNL     1     -12.573 -10.894  -5.211  1.00  0.00    -0.237 OA
ATOM     88  O   UNL     1     -14.408 -12.243  -4.253  1.00  0.00    -0.237 OA
ATOM     89  O   UNL     1     -14.713  -9.822  -4.604  1.00  0.00    -0.744 OA
ENDBRANCH  85  86
ENDBRANCH  57  80
BRANCH  69  90
ATOM     90  C   UNL     1     -13.368  -8.457   6.403  1.00  0.00    -0.014 A 
ATOM     91  C   UNL     1     -13.809  -7.192   6.832  1.00  0.00     0.010 A 
ATOM     92  C   UNL     1     -14.056  -9.607   6.829  1.00  0.00     0.010 A 
ATOM     93  C   UNL     1     -14.896  -7.079   7.702  1.00  0.00     0.020 A 
ATOM     94  C   UNL     1     -15.158  -9.496   7.680  1.00  0.00     0.020 A 
ATOM     95  C   UNL     1     -15.555  -8.235   8.131  1.00  0.00     0.054 A 
BRANCH  95  96
ATOM     96  S   UNL     1     -16.940  -8.074   9.290  1.00  0.00     0.124 S 
ATOM     97  O   UNL     1     -16.254  -7.864  10.561  1.00  0.00    -0.237 OA
ATOM     98  O   UNL     1     -17.666  -6.919   8.767  1.00  0.00    -0.237 OA
ATOM     99  O   UNL     1     -17.642  -9.349   9.162  1.00  0.00    -0.744 OA
ENDBRANCH  95  96
ENDBRANCH  69  90
ENDBRANCH  43  44
ENDBRANCH  35  38
ENDBRANCH  33  34
ENDBRANCH  32  33
ENDBRANCH   1  32
TORSDOF 19
