REMARK SMILES CCc1cc(=O)oc2c3c(cc(OCC(=O)NCC(=O)NCCCNC(=O)c4ccc(-c5c6nc(c(-c7ccc(S(=O)(=O)[O-])cc7)c7ccc([nH]7)c(-c7ccc(S(=O)(=O)[O-])cc7)c7nc(c(-c8ccc(S(=O)(=O)[O-])cc8)c8ccc5[nH]8)C=C7)C=C6)cc4)c12)OC(C)(C)CC3
REMARK SMILES IDX 22 1 21 2 19 3 20 4 18 6 17 7 15 8 16 9 14 11 13 12 12 13
REMARK SMILES IDX 3 14 4 15 88 16 5 17 8 18 6 19 7 20 9 21 11 22 10 23 94 24
REMARK SMILES IDX 89 25 93 26 90 27 91 28 92 29 2 30 1 31 23 32 24 33 25 34
REMARK SMILES IDX 26 35 27 37 28 38 29 39 87 40 30 41 86 42 31 43 32 44 33 45
REMARK SMILES IDX 80 46 34 47 85 48 79 49 81 50 35 51 84 52 78 53 77 54 36 56
REMARK SMILES IDX 66 57 47 58 65 59 48 60 51 61 64 62 82 63 49 64 50 65 63 67
REMARK SMILES IDX 83 68 52 69 37 70 38 71 46 72 39 73 45 74 40 75 41 76 42 77
REMARK SMILES IDX 43 78 44 79 67 80 68 81 76 82 69 83 75 84 70 85 71 86 72 87
REMARK SMILES IDX 73 88 74 89 53 90 54 91 62 92 55 93 61 94 56 95 57 96 58 97
REMARK SMILES IDX 59 98 60 99
REMARK H PARENT 21 5 17 10 25 36 81 55 51 66
REMARK Flexibility Score: inf
ROOT
ATOM      1  C   UNL     1       3.277   3.177  -1.329  1.00  0.00     0.117 C 
ENDROOT
BRANCH   1   2
ATOM      2  N   UNL     1       4.114   3.194  -0.149  1.00  0.00    -0.355 N 
ATOM      3  C   UNL     1       3.767   3.588   1.114  1.00  0.00     0.239 C 
ATOM      4  O   UNL     1       4.536   3.329   2.042  1.00  0.00    -0.273 OA
ATOM      5  H   UNL     1       5.042   2.886  -0.270  1.00  0.00     0.163 HD
BRANCH   3   6
ATOM      6  C   UNL     1       2.401   4.241   1.374  1.00  0.00     0.216 C 
BRANCH   6   7
ATOM      7  N   UNL     1       2.209   5.465   0.618  1.00  0.00    -0.344 N 
ATOM      8  C   UNL     1       1.055   5.996   0.125  1.00  0.00     0.258 C 
ATOM      9  O   UNL     1       1.092   7.144  -0.320  1.00  0.00    -0.271 OA
ATOM     10  H   UNL     1       3.026   5.984   0.435  1.00  0.00     0.164 HD
BRANCH   8  11
ATOM     11  C   UNL     1      -0.260   5.190   0.153  1.00  0.00     0.329 C 
BRANCH  11  12
ATOM     12  O   UNL     1      -0.361   4.004  -0.626  1.00  0.00    -0.483 OA
BRANCH  12  13
ATOM     13  C   UNL     1      -0.165   4.069  -1.984  1.00  0.00     0.135 A 
ATOM     14  C   UNL     1       0.222   1.497  -2.085  1.00  0.00    -0.026 A 
ATOM     15  C   UNL     1       0.473   0.464  -2.907  1.00  0.00     0.098 A 
ATOM     16  C   UNL     1       0.108   2.864  -2.685  1.00  0.00     0.063 A 
ATOM     17  C   UNL     1       0.634   0.573  -4.359  1.00  0.00     0.336 A 
ATOM     18  C   UNL     1       0.395   2.985  -4.059  1.00  0.00     0.149 A 
ATOM     19  O   UNL     1       0.742  -0.433  -5.050  1.00  0.00    -0.246 OA
ATOM     20  O   UNL     1       0.660   1.851  -4.864  1.00  0.00    -0.422 OA
ATOM     21  C   UNL     1       0.484   4.221  -4.724  1.00  0.00     0.038 A 
ATOM     22  C   UNL     1      -0.169   5.294  -2.670  1.00  0.00     0.094 A 
ATOM     23  C   UNL     1       0.217   5.374  -4.003  1.00  0.00     0.130 A 
ATOM     24  C   UNL     1       0.986   4.309  -6.133  1.00  0.00     0.047 C 
ATOM     25  O   UNL     1       0.347   6.638  -4.506  1.00  0.00    -0.487 OA
ATOM     26  C   UNL     1       0.862   5.712  -6.706  1.00  0.00     0.053 C 
ATOM     27  C   UNL     1       1.201   6.781  -5.658  1.00  0.00     0.104 C 
ATOM     28  C   UNL     1       0.890   8.166  -6.241  1.00  0.00     0.056 C 
ATOM     29  C   UNL     1       2.674   6.761  -5.210  1.00  0.00     0.056 C 
BRANCH  14  30
ATOM     30  C   UNL     1       0.108   1.294  -0.587  1.00  0.00     0.033 C 
ATOM     31  C   UNL     1       0.603  -0.032  -0.008  1.00  0.00     0.009 C 
ENDBRANCH  14  30
ENDBRANCH  12  13
ENDBRANCH  11  12
ENDBRANCH   8  11
ENDBRANCH   6   7
ENDBRANCH   3   6
ENDBRANCH   1   2
BRANCH   1  32
ATOM     32  C   UNL     1       3.753   4.112  -2.427  1.00  0.00     0.042 C 
BRANCH  32  33
ATOM     33  C   UNL     1       4.823   3.519  -3.335  1.00  0.00     0.118 C 
BRANCH  33  34
ATOM     34  N   UNL     1       4.342   2.428  -4.181  1.00  0.00    -0.352 N 
ATOM     35  C   UNL     1       4.279   2.282  -5.549  1.00  0.00     0.251 C 
ATOM     36  H   UNL     1       3.999   1.654  -3.679  1.00  0.00     0.163 HD
ATOM     37  O   UNL     1       3.755   1.269  -6.009  1.00  0.00    -0.269 OA
BRANCH  35  38
ATOM     38  C   UNL     1       4.776   3.327  -6.477  1.00  0.00     0.039 A 
ATOM     39  C   UNL     1       4.069   3.581  -7.665  1.00  0.00     0.014 A 
ATOM     40  C   UNL     1       5.931   4.051  -6.203  1.00  0.00     0.014 A 
ATOM     41  C   UNL     1       4.442   4.637  -8.505  1.00  0.00     0.010 A 
ATOM     42  C   UNL     1       6.270   5.137  -7.000  1.00  0.00     0.010 A 
ATOM     43  C   UNL     1       5.532   5.438  -8.158  1.00  0.00    -0.014 A 
BRANCH  43  44
ATOM     44  C   UNL     1       6.071   6.508  -9.030  1.00  0.00     0.031 A 
ATOM     45  C   UNL     1       7.407   6.264  -9.665  1.00  0.00     0.074 A 
ATOM     46  C   UNL     1       5.483   7.715  -9.106  1.00  0.00     0.049 A 
ATOM     47  N   UNL     1       8.249   7.118 -10.177  1.00  0.00    -0.248 NA
ATOM     48  C   UNL     1       7.866   4.863  -9.686  1.00  0.00     0.031 C 
ATOM     49  C   UNL     1       4.166   8.054  -8.578  1.00  0.00     0.029 A 
ATOM     50  N   UNL     1       5.952   8.902  -9.612  1.00  0.00    -0.354 N 
ATOM     51  C   UNL     1       9.350   6.363 -10.558  1.00  0.00     0.074 A 
ATOM     52  C   UNL     1       9.089   4.994 -10.174  1.00  0.00     0.031 C 
ATOM     53  C   UNL     1       3.959   9.375  -8.716  1.00  0.00     0.029 A 
ATOM     54  C   UNL     1       5.136   9.976  -9.332  1.00  0.00     0.049 A 
ATOM     55  H   UNL     1       6.790   8.978 -10.124  1.00  0.00     0.167 HD
ATOM     56  C   UNL     1      10.473   6.776 -11.188  1.00  0.00     0.031 A 
ATOM     57  C   UNL     1       5.333  11.294  -9.527  1.00  0.00     0.031 A 
ATOM     58  C   UNL     1      10.715   8.139 -11.566  1.00  0.00     0.049 A 
ATOM     59  C   UNL     1       6.613  11.744 -10.181  1.00  0.00     0.074 A 
ATOM     60  C   UNL     1      11.804   8.671 -12.229  1.00  0.00     0.029 A 
ATOM     61  N   UNL     1       9.841   9.187 -11.316  1.00  0.00    -0.354 N 
ATOM     62  N   UNL     1       7.641  11.021 -10.557  1.00  0.00    -0.248 NA
ATOM     63  C   UNL     1       6.750  13.180 -10.459  1.00  0.00     0.031 C 
ATOM     64  C   UNL     1      11.600  10.049 -12.359  1.00  0.00     0.029 A 
ATOM     65  C   UNL     1      10.364  10.365 -11.813  1.00  0.00     0.049 A 
ATOM     66  H   UNL     1       8.976   9.103 -10.854  1.00  0.00     0.167 HD
ATOM     67  C   UNL     1       8.521  11.905 -11.170  1.00  0.00     0.074 A 
ATOM     68  C   UNL     1       7.912  13.218 -11.098  1.00  0.00     0.031 C 
ATOM     69  C   UNL     1       9.716  11.651 -11.755  1.00  0.00     0.031 A 
BRANCH  56  70
ATOM     70  C   UNL     1      11.506   5.728 -11.488  1.00  0.00    -0.014 A 
ATOM     71  C   UNL     1      11.265   4.737 -12.459  1.00  0.00     0.010 A 
ATOM     72  C   UNL     1      12.717   5.709 -10.774  1.00  0.00     0.010 A 
ATOM     73  C   UNL     1      12.189   3.712 -12.668  1.00  0.00     0.020 A 
ATOM     74  C   UNL     1      13.657   4.700 -11.001  1.00  0.00     0.020 A 
ATOM     75  C   UNL     1      13.375   3.695 -11.930  1.00  0.00     0.054 A 
BRANCH  75  76
ATOM     76  S   UNL     1      14.554   2.346 -12.209  1.00  0.00     0.124 S 
ATOM     77  O   UNL     1      13.915   1.239 -11.502  1.00  0.00    -0.237 OA
ATOM     78  O   UNL     1      14.574   2.232 -13.665  1.00  0.00    -0.237 OA
ATOM     79  O   UNL     1      15.791   2.838 -11.608  1.00  0.00    -0.744 OA
ENDBRANCH  75  76
ENDBRANCH  56  70
BRANCH  57  80
ATOM     80  C   UNL     1       4.293  12.280  -9.124  1.00  0.00    -0.014 A 
ATOM     81  C   UNL     1       3.510  12.921 -10.101  1.00  0.00     0.010 A 
ATOM     82  C   UNL     1       4.080  12.590  -7.769  1.00  0.00     0.010 A 
ATOM     83  C   UNL     1       2.554  13.873  -9.734  1.00  0.00     0.020 A 
ATOM     84  C   UNL     1       3.109  13.527  -7.395  1.00  0.00     0.020 A 
ATOM     85  C   UNL     1       2.361  14.172  -8.382  1.00  0.00     0.054 A 
BRANCH  85  86
ATOM     86  S   UNL     1       1.094  15.392  -7.932  1.00  0.00     0.124 S 
ATOM     87  O   UNL     1       1.718  16.645  -8.344  1.00  0.00    -0.237 OA
ATOM     88  O   UNL     1      -0.052  14.964  -8.730  1.00  0.00    -0.237 OA
ATOM     89  O   UNL     1       0.942  15.211  -6.490  1.00  0.00    -0.744 OA
ENDBRANCH  85  86
ENDBRANCH  57  80
BRANCH  69  90
ATOM     90  C   UNL     1      10.411  12.793 -12.441  1.00  0.00    -0.014 A 
ATOM     91  C   UNL     1      11.106  13.771 -11.712  1.00  0.00     0.010 A 
ATOM     92  C   UNL     1      10.449  12.820 -13.848  1.00  0.00     0.010 A 
ATOM     93  C   UNL     1      11.825  14.764 -12.381  1.00  0.00     0.020 A 
ATOM     94  C   UNL     1      11.184  13.797 -14.518  1.00  0.00     0.020 A 
ATOM     95  C   UNL     1      11.864  14.767 -13.780  1.00  0.00     0.054 A 
BRANCH  95  96
ATOM     96  S   UNL     1      12.879  16.011 -14.624  1.00  0.00     0.124 S 
ATOM     97  O   UNL     1      12.050  17.208 -14.508  1.00  0.00    -0.237 OA
ATOM     98  O   UNL     1      14.107  16.017 -13.833  1.00  0.00    -0.237 OA
ATOM     99  O   UNL     1      13.021  15.480 -15.978  1.00  0.00    -0.744 OA
ENDBRANCH  95  96
ENDBRANCH  69  90
ENDBRANCH  43  44
ENDBRANCH  35  38
ENDBRANCH  33  34
ENDBRANCH  32  33
ENDBRANCH   1  32
TORSDOF 18
