REMARK SMILES CCOc1ncnc(N[C@@H]2C=C[C@H](C(=O)NCCCNC(=O)c3ccc(-c4c5nc(c(-c6ccc(S(=O)(=O)[O-])cc6)c6ccc([nH]6)c(-c6ccc(S(=O)(=O)[O-])cc6)c6nc(c(-c7ccc(S(=O)(=O)[O-])cc7)c7ccc4[nH]7)C=C6)C=C5)cc3)C2)c1C
REMARK SMILES IDX 17 1 16 2 14 3 15 4 13 6 10 7 11 8 83 9 12 10 9 11 8 13 4 14
REMARK SMILES IDX 5 15 84 16 6 17 85 18 7 19 3 20 2 21 1 22 18 23 19 24 20 25
REMARK SMILES IDX 21 26 22 28 23 29 24 30 82 31 25 32 81 33 26 34 27 35 28 36
REMARK SMILES IDX 75 37 29 38 80 39 74 40 76 41 30 42 79 43 73 44 72 45 31 47
REMARK SMILES IDX 61 48 42 49 60 50 43 51 46 52 59 53 77 54 44 55 45 56 58 58
REMARK SMILES IDX 78 59 47 60 32 61 33 62 41 63 34 64 40 65 35 66 36 67 37 68
REMARK SMILES IDX 38 69 39 70 62 71 63 72 71 73 64 74 70 75 65 76 66 77 67 78
REMARK SMILES IDX 68 79 69 80 48 81 49 82 57 83 50 84 56 85 51 86 52 87 53 88
REMARK SMILES IDX 54 89 55 90
REMARK H PARENT 16 5 9 12 20 27 76 46 46 57
REMARK Flexibility Score: inf
ROOT
ATOM      1  C   UNL     1      10.143   5.008  -0.755  1.00  0.00     0.117 C 
ENDROOT
BRANCH   1   2
ATOM      2  N   UNL     1      10.426   3.697  -0.213  1.00  0.00    -0.356 N 
ATOM      3  C   UNL     1       9.563   2.733   0.214  1.00  0.00     0.227 C 
ATOM      4  O   UNL     1      10.050   1.816   0.879  1.00  0.00    -0.274 OA
ATOM      5  H   UNL     1      11.381   3.468  -0.142  1.00  0.00     0.163 HD
BRANCH   3   6
ATOM      6  C   UNL     1       8.054   2.887  -0.032  1.00  0.00     0.103 C 
ATOM      7  C   UNL     1       6.752   1.043  -1.022  1.00  0.00     0.104 C 
ATOM      8  C   UNL     1       6.937   2.148  -1.991  1.00  0.00    -0.006 C 
ATOM      9  C   UNL     1       7.294   1.587   0.303  1.00  0.00     0.046 C 
ATOM     10  C   UNL     1       7.640   3.151  -1.459  1.00  0.00    -0.016 C 
BRANCH   7  11
ATOM     11  N   UNL     1       7.358  -0.186  -1.482  1.00  0.00    -0.363 N 
ATOM     12  H   UNL     1       6.747  -0.940  -1.645  1.00  0.00     0.162 HD
BRANCH  11  13
ATOM     13  C   UNL     1       8.702  -0.422  -1.721  1.00  0.00     0.136 A 
ATOM     14  C   UNL     1      10.500  -1.896  -2.053  1.00  0.00     0.221 A 
ATOM     15  N   UNL     1      11.374  -0.896  -2.222  1.00  0.00    -0.201 NA
ATOM     16  C   UNL     1       9.155  -1.734  -1.762  1.00  0.00     0.054 A 
ATOM     17  C   UNL     1      10.843   0.320  -2.097  1.00  0.00     0.228 A 
ATOM     18  C   UNL     1       8.240  -2.898  -1.562  1.00  0.00     0.054 C 
ATOM     19  N   UNL     1       9.547   0.604  -1.887  1.00  0.00    -0.219 NA
BRANCH  14  20
ATOM     20  O   UNL     1      11.027  -3.164  -2.084  1.00  0.00    -0.478 OA
BRANCH  20  21
ATOM     21  C   UNL     1      11.274  -3.582  -3.428  1.00  0.00     0.228 C 
ATOM     22  C   UNL     1      10.240  -4.632  -3.805  1.00  0.00     0.049 C 
ENDBRANCH  20  21
ENDBRANCH  14  20
ENDBRANCH  11  13
ENDBRANCH   7  11
ENDBRANCH   3   6
ENDBRANCH   1   2
BRANCH   1  23
ATOM     23  C   UNL     1      10.745   6.108   0.099  1.00  0.00     0.042 C 
BRANCH  23  24
ATOM     24  C   UNL     1      12.260   6.054   0.191  1.00  0.00     0.118 C 
BRANCH  24  25
ATOM     25  N   UNL     1      12.909   6.266  -1.096  1.00  0.00    -0.352 N 
ATOM     26  C   UNL     1      13.768   7.264  -1.485  1.00  0.00     0.251 C 
ATOM     27  H   UNL     1      12.703   5.596  -1.786  1.00  0.00     0.163 HD
ATOM     28  O   UNL     1      14.061   7.385  -2.673  1.00  0.00    -0.269 OA
BRANCH  26  29
ATOM     29  C   UNL     1      14.316   8.201  -0.482  1.00  0.00     0.039 A 
ATOM     30  C   UNL     1      14.411   9.557  -0.799  1.00  0.00     0.014 A 
ATOM     31  C   UNL     1      14.730   7.745   0.772  1.00  0.00     0.014 A 
ATOM     32  C   UNL     1      14.871  10.459   0.162  1.00  0.00     0.010 A 
ATOM     33  C   UNL     1      15.074   8.656   1.762  1.00  0.00     0.010 A 
ATOM     34  C   UNL     1      15.176  10.021   1.461  1.00  0.00    -0.014 A 
BRANCH  34  35
ATOM     35  C   UNL     1      15.640  10.968   2.506  1.00  0.00     0.031 A 
ATOM     36  C   UNL     1      16.999  10.793   3.132  1.00  0.00     0.074 A 
ATOM     37  C   UNL     1      14.821  11.948   2.934  1.00  0.00     0.049 A 
ATOM     38  N   UNL     1      17.570  11.497   4.075  1.00  0.00    -0.248 NA
ATOM     39  C   UNL     1      17.809   9.658   2.660  1.00  0.00     0.031 C 
ATOM     40  C   UNL     1      13.457  12.183   2.454  1.00  0.00     0.029 A 
ATOM     41  N   UNL     1      15.015  12.928   3.875  1.00  0.00    -0.354 N 
ATOM     42  C   UNL     1      18.792  10.881   4.319  1.00  0.00     0.074 A 
ATOM     43  C   UNL     1      18.847   9.706   3.479  1.00  0.00     0.031 C 
ATOM     44  C   UNL     1      12.949  13.254   3.083  1.00  0.00     0.029 A 
ATOM     45  C   UNL     1      13.932  13.758   4.037  1.00  0.00     0.049 A 
ATOM     46  H   UNL     1      15.852  13.027   4.385  1.00  0.00     0.167 HD
ATOM     47  C   UNL     1      19.793  11.270   5.145  1.00  0.00     0.031 A 
ATOM     48  C   UNL     1      13.745  14.803   4.866  1.00  0.00     0.031 A 
ATOM     49  C   UNL     1      19.732  12.439   5.981  1.00  0.00     0.049 A 
ATOM     50  C   UNL     1      14.867  15.228   5.772  1.00  0.00     0.074 A 
ATOM     51  C   UNL     1      20.708  12.955   6.813  1.00  0.00     0.029 A 
ATOM     52  N   UNL     1      18.626  13.269   6.097  1.00  0.00    -0.354 N 
ATOM     53  N   UNL     1      16.049  14.681   5.929  1.00  0.00    -0.248 NA
ATOM     54  C   UNL     1      14.638  16.422   6.594  1.00  0.00     0.031 C 
ATOM     55  C   UNL     1      20.171  14.062   7.480  1.00  0.00     0.029 A 
ATOM     56  C   UNL     1      18.885  14.280   7.008  1.00  0.00     0.049 A 
ATOM     57  H   UNL     1      17.781  13.157   5.605  1.00  0.00     0.167 HD
ATOM     58  C   UNL     1      16.716  15.479   6.853  1.00  0.00     0.074 A 
ATOM     59  C   UNL     1      15.809  16.554   7.204  1.00  0.00     0.031 C 
ATOM     60  C   UNL     1      17.967  15.336   7.360  1.00  0.00     0.031 A 
BRANCH  47  61
ATOM     61  C   UNL     1      21.027  10.401   5.187  1.00  0.00    -0.014 A 
ATOM     62  C   UNL     1      21.862  10.262   4.062  1.00  0.00     0.010 A 
ATOM     63  C   UNL     1      21.349   9.701   6.363  1.00  0.00     0.010 A 
ATOM     64  C   UNL     1      22.949   9.384   4.088  1.00  0.00     0.020 A 
ATOM     65  C   UNL     1      22.459   8.851   6.406  1.00  0.00     0.020 A 
ATOM     66  C   UNL     1      23.234   8.676   5.259  1.00  0.00     0.054 A 
BRANCH  66  67
ATOM     67  S   UNL     1      24.637   7.526   5.258  1.00  0.00     0.124 S 
ATOM     68  O   UNL     1      24.126   6.430   4.439  1.00  0.00    -0.237 OA
ATOM     69  O   UNL     1      25.702   8.320   4.651  1.00  0.00    -0.237 OA
ATOM     70  O   UNL     1      24.827   7.211   6.672  1.00  0.00    -0.744 OA
ENDBRANCH  66  67
ENDBRANCH  47  61
BRANCH  48  71
ATOM     71  C   UNL     1      12.441  15.521   4.850  1.00  0.00    -0.014 A 
ATOM     72  C   UNL     1      12.330  16.805   4.290  1.00  0.00     0.010 A 
ATOM     73  C   UNL     1      11.283  14.887   5.340  1.00  0.00     0.010 A 
ATOM     74  C   UNL     1      11.086  17.441   4.218  1.00  0.00     0.020 A 
ATOM     75  C   UNL     1      10.035  15.507   5.243  1.00  0.00     0.020 A 
ATOM     76  C   UNL     1       9.945  16.783   4.684  1.00  0.00     0.054 A 
BRANCH  76  77
ATOM     77  S   UNL     1       8.330  17.587   4.491  1.00  0.00     0.124 S 
ATOM     78  O   UNL     1       8.403  18.661   5.477  1.00  0.00    -0.237 OA
ATOM     79  O   UNL     1       8.354  18.008   3.093  1.00  0.00    -0.237 OA
ATOM     80  O   UNL     1       7.378  16.521   4.795  1.00  0.00    -0.744 OA
ENDBRANCH  76  77
ENDBRANCH  48  71
BRANCH  60  81
ATOM     81  C   UNL     1      18.445  16.386   8.330  1.00  0.00    -0.014 A 
ATOM     82  C   UNL     1      17.909  16.489   9.626  1.00  0.00     0.010 A 
ATOM     83  C   UNL     1      19.484  17.255   7.949  1.00  0.00     0.010 A 
ATOM     84  C   UNL     1      18.375  17.468  10.507  1.00  0.00     0.020 A 
ATOM     85  C   UNL     1      19.976  18.213   8.838  1.00  0.00     0.020 A 
ATOM     86  C   UNL     1      19.405  18.325  10.107  1.00  0.00     0.054 A 
BRANCH  86  87
ATOM     87  S   UNL     1      20.012  19.569  11.279  1.00  0.00     0.124 S 
ATOM     88  O   UNL     1      18.909  20.525  11.305  1.00  0.00    -0.237 OA
ATOM     89  O   UNL     1      20.199  18.791  12.502  1.00  0.00    -0.237 OA
ATOM     90  O   UNL     1      21.244  20.055  10.662  1.00  0.00    -0.744 OA
ENDBRANCH  86  87
ENDBRANCH  60  81
ENDBRANCH  34  35
ENDBRANCH  26  29
ENDBRANCH  24  25
ENDBRANCH  23  24
ENDBRANCH   1  23
TORSDOF 17
