REMARK SMILES C[C@](NC(=O)NCCC[NH3+])(C(=O)NCCCNC(=O)c1ccc(-c2c3nc(c(-c4ccc(S(=O)(=O)[O-])cc4)c4ccc([nH]4)c(-c4ccc(S(=O)(=O)[O-])cc4)c4nc(c(-c5ccc(S(=O)(=O)[O-])cc5)c5ccc2[nH]5)C=C4)C=C3)cc1)C(F)(F)F
REMARK SMILES IDX 14 1 13 2 11 3 12 4 2 6 1 7 80 8 81 9 82 10 83 11 3 12 4 13
REMARK SMILES IDX 5 15 6 16 7 18 8 19 9 20 10 21 15 25 16 26 17 27 18 28 19 30
REMARK SMILES IDX 20 31 21 32 79 33 22 34 78 35 23 36 24 37 25 38 72 39 26 40
REMARK SMILES IDX 77 41 71 42 73 43 27 44 76 45 70 46 69 47 28 49 58 50 39 51
REMARK SMILES IDX 57 52 40 53 43 54 56 55 74 56 41 57 42 58 55 60 75 61 44 62
REMARK SMILES IDX 29 63 30 64 38 65 31 66 37 67 32 68 33 69 34 70 35 71 36 72
REMARK SMILES IDX 59 73 60 74 68 75 61 76 67 77 62 78 63 79 64 80 65 81 66 82
REMARK SMILES IDX 45 83 46 84 54 85 47 86 53 87 48 88 49 89 50 90 51 91 52 92
REMARK H PARENT 13 5 3 14 6 17 10 22 10 23 10 24 17 29 73 48 43 59
REMARK Flexibility Score: inf
ROOT
ATOM      1  C   UNL     1      -1.190  -1.928  -0.816  1.00  0.00     0.117 C 
ENDROOT
BRANCH   1   2
ATOM      2  N   UNL     1      -1.712  -0.567  -0.762  1.00  0.00    -0.354 N 
ATOM      3  C   UNL     1      -1.105   0.629  -1.058  1.00  0.00     0.255 C 
ATOM      4  O   UNL     1      -1.820   1.631  -1.047  1.00  0.00    -0.272 OA
ATOM      5  H   UNL     1      -2.649  -0.494  -0.466  1.00  0.00     0.163 HD
BRANCH   3   6
ATOM      6  C   UNL     1       0.357   0.629  -1.545  1.00  0.00     0.213 C 
ATOM      7  C   UNL     1       0.281  -0.031  -2.939  1.00  0.00     0.056 C 
BRANCH   6   8
ATOM      8  C   UNL     1       0.800   2.099  -1.663  1.00  0.00     0.420 C 
ATOM      9  F   UNL     1       0.681   2.770  -0.495  1.00  0.00    -0.168 F 
ATOM     10  F   UNL     1       2.110   2.182  -2.015  1.00  0.00    -0.168 F 
ATOM     11  F   UNL     1       0.117   2.774  -2.615  1.00  0.00    -0.168 F 
ENDBRANCH   6   8
BRANCH   6  12
ATOM     12  N   UNL     1       1.109  -0.104  -0.466  1.00  0.00    -0.316 N 
ATOM     13  C   UNL     1       2.271  -0.711  -0.242  1.00  0.00     0.315 C 
ATOM     14  H   UNL     1       0.553  -0.151   0.345  1.00  0.00     0.166 HD
ATOM     15  O   UNL     1       2.490  -1.080   0.913  1.00  0.00    -0.249 OA
ATOM     16  N   UNL     1       3.188  -0.986  -1.169  1.00  0.00    -0.338 N 
ATOM     17  H   UNL     1       4.003  -1.413  -0.820  1.00  0.00     0.165 HD
BRANCH  16  18
ATOM     18  C   UNL     1       3.196  -0.768  -2.589  1.00  0.00     0.123 C 
BRANCH  18  19
ATOM     19  C   UNL     1       4.570  -0.706  -3.232  1.00  0.00     0.082 C 
BRANCH  19  20
ATOM     20  C   UNL     1       5.273  -2.045  -3.421  1.00  0.00     0.260 C 
BRANCH  20  21
ATOM     21  N   UNL     1       4.507  -2.966  -4.255  1.00  0.00    -0.358 N 
ATOM     22  H   UNL     1       3.612  -3.164  -3.808  1.00  0.00     0.344 HD
ATOM     23  H   UNL     1       5.029  -3.834  -4.371  1.00  0.00     0.344 HD
ATOM     24  H   UNL     1       4.344  -2.542  -5.168  1.00  0.00     0.344 HD
ENDBRANCH  20  21
ENDBRANCH  19  20
ENDBRANCH  18  19
ENDBRANCH  16  18
ENDBRANCH   6  12
ENDBRANCH   3   6
ENDBRANCH   1   2
BRANCH   1  25
ATOM     25  C   UNL     1      -1.366  -2.645   0.508  1.00  0.00     0.042 C 
BRANCH  25  26
ATOM     26  C   UNL     1      -2.819  -2.979   0.789  1.00  0.00     0.118 C 
BRANCH  26  27
ATOM     27  N   UNL     1      -3.366  -3.915  -0.185  1.00  0.00    -0.352 N 
ATOM     28  C   UNL     1      -3.997  -5.113   0.029  1.00  0.00     0.251 C 
ATOM     29  H   UNL     1      -3.269  -3.650  -1.129  1.00  0.00     0.163 HD
ATOM     30  O   UNL     1      -4.205  -5.873  -0.914  1.00  0.00    -0.269 OA
BRANCH  28  31
ATOM     31  C   UNL     1      -4.399  -5.482   1.399  1.00  0.00     0.039 A 
ATOM     32  C   UNL     1      -4.189  -6.787   1.842  1.00  0.00     0.014 A 
ATOM     33  C   UNL     1      -4.958  -4.524   2.251  1.00  0.00     0.014 A 
ATOM     34  C   UNL     1      -4.494  -7.117   3.162  1.00  0.00     0.010 A 
ATOM     35  C   UNL     1      -5.153  -4.825   3.590  1.00  0.00     0.010 A 
ATOM     36  C   UNL     1      -4.946  -6.130   4.055  1.00  0.00    -0.014 A 
BRANCH  36  37
ATOM     37  C   UNL     1      -5.237  -6.452   5.472  1.00  0.00     0.031 A 
ATOM     38  C   UNL     1      -6.632  -6.273   6.011  1.00  0.00     0.074 A 
ATOM     39  C   UNL     1      -4.239  -6.859   6.281  1.00  0.00     0.049 A 
ATOM     40  N   UNL     1      -7.079  -6.480   7.222  1.00  0.00    -0.248 NA
ATOM     41  C   UNL     1      -7.652  -5.766   5.076  1.00  0.00     0.031 C 
ATOM     42  C   UNL     1      -2.837  -7.019   5.885  1.00  0.00     0.029 A 
ATOM     43  N   UNL     1      -4.252  -7.216   7.604  1.00  0.00    -0.354 N 
ATOM     44  C   UNL     1      -8.420  -6.116   7.197  1.00  0.00     0.074 A 
ATOM     45  C   UNL     1      -8.699  -5.612   5.871  1.00  0.00     0.031 C 
ATOM     46  C   UNL     1      -2.135  -7.483   6.931  1.00  0.00     0.029 A 
ATOM     47  C   UNL     1      -3.024  -7.612   8.080  1.00  0.00     0.049 A 
ATOM     48  H   UNL     1      -5.063  -7.192   8.161  1.00  0.00     0.167 HD
ATOM     49  C   UNL     1      -9.345  -6.218   8.180  1.00  0.00     0.031 A 
ATOM     50  C   UNL     1      -2.656  -8.032   9.306  1.00  0.00     0.031 A 
ATOM     51  C   UNL     1      -9.063  -6.730   9.493  1.00  0.00     0.049 A 
ATOM     52  C   UNL     1      -3.702  -8.134  10.383  1.00  0.00     0.074 A 
ATOM     53  C   UNL     1      -9.938  -6.927  10.546  1.00  0.00     0.029 A 
ATOM     54  N   UNL     1      -7.809  -7.127   9.934  1.00  0.00    -0.354 N 
ATOM     55  N   UNL     1      -4.982  -7.852  10.319  1.00  0.00    -0.248 NA
ATOM     56  C   UNL     1      -3.256  -8.629  11.691  1.00  0.00     0.031 C 
ATOM     57  C   UNL     1      -9.203  -7.386  11.643  1.00  0.00     0.029 A 
ATOM     58  C   UNL     1      -7.883  -7.545  11.252  1.00  0.00     0.049 A 
ATOM     59  H   UNL     1      -6.988  -7.113   9.391  1.00  0.00     0.167 HD
ATOM     60  C   UNL     1      -5.501  -8.166  11.571  1.00  0.00     0.074 A 
ATOM     61  C   UNL     1      -4.399  -8.677  12.361  1.00  0.00     0.031 C 
ATOM     62  C   UNL     1      -6.773  -8.046  12.025  1.00  0.00     0.031 A 
BRANCH  49  63
ATOM     63  C   UNL     1     -10.748  -5.761   7.867  1.00  0.00    -0.014 A 
ATOM     64  C   UNL     1     -11.554  -6.458   6.947  1.00  0.00     0.010 A 
ATOM     65  C   UNL     1     -11.280  -4.638   8.526  1.00  0.00     0.010 A 
ATOM     66  C   UNL     1     -12.848  -6.016   6.662  1.00  0.00     0.020 A 
ATOM     67  C   UNL     1     -12.587  -4.213   8.268  1.00  0.00     0.020 A 
ATOM     68  C   UNL     1     -13.356  -4.895   7.324  1.00  0.00     0.054 A 
BRANCH  68  69
ATOM     69  S   UNL     1     -15.050  -4.363   6.954  1.00  0.00     0.124 S 
ATOM     70  O   UNL     1     -14.907  -3.821   5.605  1.00  0.00    -0.237 OA
ATOM     71  O   UNL     1     -15.805  -5.609   7.053  1.00  0.00    -0.237 OA
ATOM     72  O   UNL     1     -15.339  -3.377   7.992  1.00  0.00    -0.744 OA
ENDBRANCH  68  69
ENDBRANCH  49  63
BRANCH  50  73
ATOM     73  C   UNL     1      -1.240  -8.410   9.570  1.00  0.00    -0.014 A 
ATOM     74  C   UNL     1      -0.890  -9.751   9.811  1.00  0.00     0.010 A 
ATOM     75  C   UNL     1      -0.230  -7.431   9.574  1.00  0.00     0.010 A 
ATOM     76  C   UNL     1       0.438 -10.101  10.074  1.00  0.00     0.020 A 
ATOM     77  C   UNL     1       1.103  -7.781   9.804  1.00  0.00     0.020 A 
ATOM     78  C   UNL     1       1.427  -9.114  10.066  1.00  0.00     0.054 A 
BRANCH  78  79
ATOM     79  S   UNL     1       3.149  -9.599  10.366  1.00  0.00     0.124 S 
ATOM     80  O   UNL     1       3.132  -9.914  11.791  1.00  0.00    -0.237 OA
ATOM     81  O   UNL     1       3.315 -10.738   9.467  1.00  0.00    -0.237 OA
ATOM     82  O   UNL     1       3.909  -8.407   9.996  1.00  0.00    -0.744 OA
ENDBRANCH  78  79
ENDBRANCH  50  73
BRANCH  62  83
ATOM     83  C   UNL     1      -7.051  -8.516  13.429  1.00  0.00    -0.014 A 
ATOM     84  C   UNL     1      -6.553  -7.826  14.548  1.00  0.00     0.010 A 
ATOM     85  C   UNL     1      -7.855  -9.654  13.628  1.00  0.00     0.010 A 
ATOM     86  C   UNL     1      -6.811  -8.295  15.839  1.00  0.00     0.020 A 
ATOM     87  C   UNL     1      -8.145 -10.105  14.917  1.00  0.00     0.020 A 
ATOM     88  C   UNL     1      -7.603  -9.434  16.014  1.00  0.00     0.054 A 
BRANCH  88  89
ATOM     89  S   UNL     1      -7.937 -10.013  17.700  1.00  0.00     0.124 S 
ATOM     90  O   UNL     1      -6.646 -10.573  18.090  1.00  0.00    -0.237 OA
ATOM     91  O   UNL     1      -8.323  -8.784  18.389  1.00  0.00    -0.237 OA
ATOM     92  O   UNL     1      -9.012 -10.986  17.526  1.00  0.00    -0.744 OA
ENDBRANCH  88  89
ENDBRANCH  62  83
ENDBRANCH  36  37
ENDBRANCH  28  31
ENDBRANCH  26  27
ENDBRANCH  25  26
ENDBRANCH   1  25
TORSDOF 19
