REMARK SMILES C[C@H]1[C@H](C)CC[C@@]2(C(=O)NCCCNC(=O)c3ccc(-c4c5nc(c(-c6ccc(S(=O)(=O)[O-])cc6)c6ccc([nH]6)c(-c6ccc(S(=O)(=O)[O-])cc6)c6nc(c(-c7ccc(S(=O)(=O)[O-])cc7)c7ccc4[nH]7)C=C6)C=C5)cc3)CC[C@@]3(C)C(=CC[C@@H]4[C@@]5(C)CC[C@H](O)C(C)(C)[C@@H]5CC[C@]43C)[C@H]12
REMARK SMILES IDX 13 1 12 2 11 3 10 4 8 5 9 6 7 8 1 9 2 10 3 11 99 12 4 13
REMARK SMILES IDX 5 14 81 15 6 16 77 17 79 18 82 19 78 20 80 21 97 22 83 23
REMARK SMILES IDX 84 24 96 25 98 26 85 27 95 28 86 29 87 30 94 31 88 32 91 33
REMARK SMILES IDX 89 34 92 35 93 36 90 37 14 39 15 40 16 42 17 43 18 44 76 45
REMARK SMILES IDX 19 46 75 47 20 48 21 49 22 50 69 51 23 52 74 53 68 54 70 55
REMARK SMILES IDX 24 56 73 57 67 58 66 59 25 61 55 62 36 63 54 64 37 65 40 66
REMARK SMILES IDX 53 67 71 68 38 69 39 70 52 72 72 73 41 74 26 75 27 76 35 77
REMARK SMILES IDX 28 78 34 79 29 80 30 81 31 82 32 83 33 84 56 85 57 86 65 87
REMARK SMILES IDX 58 88 64 89 59 90 60 91 61 92 62 93 63 94 42 95 43 96 51 97
REMARK SMILES IDX 44 98 50 99 45 100 46 101 47 102 48 103 49 104
REMARK H PARENT 10 7 90 38 14 41 70 60 40 71
REMARK Flexibility Score: inf
ROOT
ATOM      1  C   UNL     1      -1.741  -0.081  -1.670  1.00  0.00     0.118 C 
ENDROOT
BRANCH   1   2
ATOM      2  C   UNL     1      -2.059  -1.557  -1.908  1.00  0.00     0.042 C 
BRANCH   2   3
ATOM      3  C   UNL     1      -1.374  -2.485  -0.906  1.00  0.00     0.117 C 
BRANCH   3   4
ATOM      4  N   UNL     1      -1.848  -2.333   0.457  1.00  0.00    -0.356 N 
ATOM      5  C   UNL     1      -1.363  -2.731   1.665  1.00  0.00     0.226 C 
ATOM      6  O   UNL     1      -2.244  -2.823   2.531  1.00  0.00    -0.274 OA
ATOM      7  H   UNL     1      -2.697  -1.840   0.522  1.00  0.00     0.163 HD
BRANCH   5   8
ATOM      8  C   UNL     1       0.147  -3.013   2.018  1.00  0.00     0.056 C 
ATOM      9  C   UNL     1       2.414  -0.029   0.728  1.00  0.00     0.008 C 
ATOM     10  C   UNL     1       1.484  -1.256   0.645  1.00  0.00    -0.003 C 
ATOM     11  C   UNL     1       2.206  -2.404  -0.127  1.00  0.00    -0.011 C 
ATOM     12  C   UNL     1       1.043  -1.739   2.048  1.00  0.00     0.034 C 
ATOM     13  C   UNL     1       2.488  -2.039  -1.595  1.00  0.00     0.008 C 
ATOM     14  C   UNL     1       1.509  -3.775  -0.104  1.00  0.00     0.005 C 
ATOM     15  C   UNL     1       0.330  -0.760   3.000  1.00  0.00    -0.063 C 
ATOM     16  C   UNL     1       0.725  -4.146   1.146  1.00  0.00     0.018 C 
ATOM     17  C   UNL     1       0.190  -3.573   3.499  1.00  0.00     0.018 C 
ATOM     18  C   UNL     1       0.380  -1.133   4.508  1.00  0.00    -0.006 C 
ATOM     19  C   UNL     1      -0.497   0.193   2.525  1.00  0.00    -0.027 C 
ATOM     20  C   UNL     1      -0.168  -2.594   4.636  1.00  0.00     0.013 C 
ATOM     21  C   UNL     1       1.852  -1.139   5.001  1.00  0.00     0.017 C 
ATOM     22  C   UNL     1      -0.492  -0.088   5.411  1.00  0.00    -0.020 C 
ATOM     23  C   UNL     1      -1.580   0.855   3.329  1.00  0.00     0.032 C 
ATOM     24  C   UNL     1      -1.861   0.110   4.658  1.00  0.00     0.006 C 
ATOM     25  C   UNL     1      -0.720  -0.606   6.856  1.00  0.00     0.008 C 
ATOM     26  C   UNL     1       0.274   1.264   5.561  1.00  0.00     0.012 C 
ATOM     27  C   UNL     1      -3.129   0.618   5.469  1.00  0.00    -0.025 C 
ATOM     28  C   UNL     1      -1.799   0.171   7.617  1.00  0.00     0.005 C 
ATOM     29  C   UNL     1      -3.194   2.158   5.448  1.00  0.00     0.012 C 
ATOM     30  C   UNL     1      -4.408   0.063   4.758  1.00  0.00     0.010 C 
ATOM     31  C   UNL     1      -3.148  -0.013   6.910  1.00  0.00     0.003 C 
ATOM     32  C   UNL     1      -5.710   0.327   5.514  1.00  0.00     0.033 C 
ATOM     33  C   UNL     1      -4.422   0.302   7.783  1.00  0.00    -0.006 C 
ATOM     34  C   UNL     1      -5.677  -0.143   6.971  1.00  0.00     0.120 C 
ATOM     35  C   UNL     1      -4.529   1.766   8.261  1.00  0.00     0.014 C 
ATOM     36  C   UNL     1      -4.399  -0.549   9.085  1.00  0.00     0.014 C 
BRANCH  34  37
ATOM     37  O   UNL     1      -6.882   0.266   7.621  1.00  0.00    -0.393 OA
ATOM     38  H   UNL     1      -6.928   1.235   7.637  1.00  0.00     0.210 HD
ENDBRANCH  34  37
ENDBRANCH   5   8
ENDBRANCH   3   4
ENDBRANCH   2   3
ENDBRANCH   1   2
BRANCH   1  39
ATOM     39  N   UNL     1      -0.520   0.399  -2.317  1.00  0.00    -0.352 N 
ATOM     40  C   UNL     1      -0.242   0.802  -3.604  1.00  0.00     0.251 C 
ATOM     41  H   UNL     1       0.256   0.443  -1.713  1.00  0.00     0.163 HD
ATOM     42  O   UNL     1       0.911   1.129  -3.886  1.00  0.00    -0.269 OA
BRANCH  40  43
ATOM     43  C   UNL     1      -1.273   0.776  -4.669  1.00  0.00     0.039 A 
ATOM     44  C   UNL     1      -0.910   0.362  -5.956  1.00  0.00     0.014 A 
ATOM     45  C   UNL     1      -2.592   1.138  -4.424  1.00  0.00     0.014 A 
ATOM     46  C   UNL     1      -1.889   0.189  -6.941  1.00  0.00     0.010 A 
ATOM     47  C   UNL     1      -3.580   0.839  -5.356  1.00  0.00     0.010 A 
ATOM     48  C   UNL     1      -3.247   0.347  -6.625  1.00  0.00    -0.014 A 
BRANCH  48  49
ATOM     49  C   UNL     1      -4.341  -0.008  -7.574  1.00  0.00     0.031 A 
ATOM     50  C   UNL     1      -5.417   0.998  -7.903  1.00  0.00     0.074 A 
ATOM     51  C   UNL     1      -4.446  -1.273  -8.035  1.00  0.00     0.049 A 
ATOM     52  N   UNL     1      -6.552   0.822  -8.531  1.00  0.00    -0.248 NA
ATOM     53  C   UNL     1      -5.216   2.372  -7.411  1.00  0.00     0.031 C 
ATOM     54  C   UNL     1      -3.514  -2.368  -7.745  1.00  0.00     0.029 A 
ATOM     55  N   UNL     1      -5.396  -1.859  -8.836  1.00  0.00    -0.354 N 
ATOM     56  C   UNL     1      -7.220   2.040  -8.456  1.00  0.00     0.074 A 
ATOM     57  C   UNL     1      -6.388   2.929  -7.678  1.00  0.00     0.031 C 
ATOM     58  C   UNL     1      -3.914  -3.474  -8.391  1.00  0.00     0.029 A 
ATOM     59  C   UNL     1      -5.159  -3.190  -9.094  1.00  0.00     0.049 A 
ATOM     60  H   UNL     1      -6.173  -1.372  -9.193  1.00  0.00     0.167 HD
ATOM     61  C   UNL     1      -8.407   2.397  -9.005  1.00  0.00     0.031 A 
ATOM     62  C   UNL     1      -5.867  -4.088  -9.807  1.00  0.00     0.031 A 
ATOM     63  C   UNL     1      -9.198   1.530  -9.837  1.00  0.00     0.049 A 
ATOM     64  C   UNL     1      -7.148  -3.652 -10.462  1.00  0.00     0.074 A 
ATOM     65  C   UNL     1     -10.370   1.820 -10.514  1.00  0.00     0.029 A 
ATOM     66  N   UNL     1      -8.885   0.210 -10.124  1.00  0.00    -0.354 N 
ATOM     67  N   UNL     1      -7.738  -2.482 -10.417  1.00  0.00    -0.248 NA
ATOM     68  C   UNL     1      -7.855  -4.655 -11.271  1.00  0.00     0.031 C 
ATOM     69  C   UNL     1     -10.781   0.664 -11.186  1.00  0.00     0.029 A 
ATOM     70  C   UNL     1      -9.842  -0.330 -10.965  1.00  0.00     0.049 A 
ATOM     71  H   UNL     1      -8.098  -0.272  -9.780  1.00  0.00     0.167 HD
ATOM     72  C   UNL     1      -8.871  -2.600 -11.213  1.00  0.00     0.074 A 
ATOM     73  C   UNL     1      -8.876  -3.950 -11.738  1.00  0.00     0.031 C 
ATOM     74  C   UNL     1      -9.822  -1.673 -11.486  1.00  0.00     0.031 A 
BRANCH  61  75
ATOM     75  C   UNL     1      -8.909   3.792  -8.734  1.00  0.00    -0.014 A 
ATOM     76  C   UNL     1      -8.255   4.917  -9.269  1.00  0.00     0.010 A 
ATOM     77  C   UNL     1     -10.063   3.983  -7.952  1.00  0.00     0.010 A 
ATOM     78  C   UNL     1      -8.707   6.206  -8.977  1.00  0.00     0.020 A 
ATOM     79  C   UNL     1     -10.539   5.271  -7.684  1.00  0.00     0.020 A 
ATOM     80  C   UNL     1      -9.843   6.375  -8.180  1.00  0.00     0.054 A 
BRANCH  80  81
ATOM     81  S   UNL     1     -10.410   8.060  -7.821  1.00  0.00     0.124 S 
ATOM     82  O   UNL     1      -9.428   8.503  -6.835  1.00  0.00    -0.237 OA
ATOM     83  O   UNL     1     -10.326   8.712  -9.126  1.00  0.00    -0.237 OA
ATOM     84  O   UNL     1     -11.765   7.869  -7.310  1.00  0.00    -0.744 OA
ENDBRANCH  80  81
ENDBRANCH  61  75
BRANCH  62  85
ATOM     85  C   UNL     1      -5.361  -5.479  -9.968  1.00  0.00    -0.014 A 
ATOM     86  C   UNL     1      -4.845  -5.904 -11.205  1.00  0.00     0.010 A 
ATOM     87  C   UNL     1      -5.370  -6.380  -8.887  1.00  0.00     0.010 A 
ATOM     88  C   UNL     1      -4.366  -7.207 -11.366  1.00  0.00     0.020 A 
ATOM     89  C   UNL     1      -4.866  -7.676  -9.036  1.00  0.00     0.020 A 
ATOM     90  C   UNL     1      -4.378  -8.085 -10.279  1.00  0.00     0.054 A 
BRANCH  90  91
ATOM     91  S   UNL     1      -3.700  -9.755 -10.495  1.00  0.00     0.124 S 
ATOM     92  O   UNL     1      -4.750 -10.411 -11.266  1.00  0.00    -0.237 OA
ATOM     93  O   UNL     1      -2.453  -9.499 -11.213  1.00  0.00    -0.237 OA
ATOM     94  O   UNL     1      -3.532 -10.235  -9.126  1.00  0.00    -0.744 OA
ENDBRANCH  90  91
ENDBRANCH  62  85
BRANCH  74  95
ATOM     95  C   UNL     1     -10.928  -2.070 -12.425  1.00  0.00    -0.014 A 
ATOM     96  C   UNL     1     -11.957  -2.933 -12.013  1.00  0.00     0.010 A 
ATOM     97  C   UNL     1     -10.969  -1.514 -13.716  1.00  0.00     0.010 A 
ATOM     98  C   UNL     1     -13.000  -3.252 -12.887  1.00  0.00     0.020 A 
ATOM     99  C   UNL     1     -12.023  -1.811 -14.584  1.00  0.00     0.020 A 
ATOM    100  C   UNL     1     -13.027  -2.688 -14.166  1.00  0.00     0.054 A 
BRANCH 100 101
ATOM    101  S   UNL     1     -14.421  -3.071 -15.261  1.00  0.00     0.124 S 
ATOM    102  O   UNL     1     -14.111  -4.435 -15.680  1.00  0.00    -0.237 OA
ATOM    103  O   UNL     1     -15.573  -2.932 -14.374  1.00  0.00    -0.237 OA
ATOM    104  O   UNL     1     -14.325  -2.059 -16.311  1.00  0.00    -0.744 OA
ENDBRANCH 100 101
ENDBRANCH  74  95
ENDBRANCH  48  49
ENDBRANCH  40  43
ENDBRANCH   1  39
TORSDOF 14
