REMARK SMILES C[N@@H+](Cc1ncccc1C(=O)NCCCNC(=O)c1ccc(-c2c3nc(c(-c4ccc(S(=O)(=O)[O-])cc4)c4ccc([nH]4)c(-c4ccc(S(=O)(=O)[O-])cc4)c4nc(c(-c5ccc(S(=O)(=O)[O-])cc5)c5ccc2[nH]5)C=C4)C=C3)cc1)C[C@@H]1CCN(c2ccccc2)C1
REMARK SMILES IDX 13 1 12 2 10 3 11 4 9 6 4 7 5 8 6 9 8 10 7 11 3 12 2 13 1 14
REMARK SMILES IDX 79 16 80 17 81 18 90 19 82 20 83 21 84 22 85 23 89 24 86 25
REMARK SMILES IDX 88 26 87 27 14 28 15 29 16 30 17 31 18 33 19 34 20 35 78 36
REMARK SMILES IDX 21 37 77 38 22 39 23 40 24 41 71 42 25 43 76 44 70 45 72 46
REMARK SMILES IDX 26 47 75 48 69 49 68 50 27 52 57 53 38 54 56 55 39 56 42 57
REMARK SMILES IDX 55 58 73 59 40 60 41 61 54 63 74 64 43 65 28 66 29 67 37 68
REMARK SMILES IDX 30 69 36 70 31 71 32 72 33 73 34 74 35 75 58 76 59 77 67 78
REMARK SMILES IDX 60 79 66 80 61 81 62 82 63 83 64 84 65 85 44 86 45 87 53 88
REMARK SMILES IDX 46 89 52 90 47 91 48 92 49 93 50 94 51 95
REMARK H PARENT 12 5 2 15 16 32 72 51 42 62
REMARK Flexibility Score: inf
ROOT
ATOM      1  C   UNL     1      -3.186   0.003  -3.826  1.00  0.00     0.118 C 
ENDROOT
BRANCH   1   2
ATOM      2  N   UNL     1      -2.863   0.651  -2.569  1.00  0.00    -0.352 N 
ATOM      3  C   UNL     1      -2.546   0.217  -1.306  1.00  0.00     0.253 C 
ATOM      4  O   UNL     1      -2.365   1.123  -0.493  1.00  0.00    -0.269 OA
ATOM      5  H   UNL     1      -2.874   1.633  -2.638  1.00  0.00     0.163 HD
BRANCH   3   6
ATOM      6  C   UNL     1      -2.462  -1.216  -0.869  1.00  0.00     0.067 A 
ATOM      7  C   UNL     1      -1.942  -1.575   0.389  1.00  0.00     0.107 A 
ATOM      8  N   UNL     1      -2.079  -2.847   0.873  1.00  0.00    -0.254 NA
ATOM      9  C   UNL     1      -2.589  -3.815   0.095  1.00  0.00     0.111 A 
ATOM     10  C   UNL     1      -2.980  -2.269  -1.642  1.00  0.00     0.017 A 
ATOM     11  C   UNL     1      -3.023  -3.580  -1.179  1.00  0.00     0.021 A 
BRANCH   7  12
ATOM     12  C   UNL     1      -1.117  -0.681   1.315  1.00  0.00     0.320 C 
BRANCH  12  13
ATOM     13  N   UNL     1       0.345  -0.614   1.100  1.00  0.00    -0.332 N 
ATOM     14  C   UNL     1       0.751  -0.242  -0.243  1.00  0.00     0.333 C 
ATOM     15  H   UNL     1       0.552   0.189   1.695  1.00  0.00     0.348 HD
BRANCH  13  16
ATOM     16  C   UNL     1       1.205  -1.627   1.724  1.00  0.00     0.267 C 
BRANCH  16  17
ATOM     17  C   UNL     1       0.904  -3.120   1.507  1.00  0.00     0.065 C 
ATOM     18  C   UNL     1       0.163  -3.764   2.702  1.00  0.00     0.032 C 
ATOM     19  C   UNL     1       2.168  -3.982   1.322  1.00  0.00     0.126 C 
ATOM     20  C   UNL     1       0.923  -5.029   3.067  1.00  0.00     0.117 C 
ATOM     21  N   UNL     1       1.809  -5.248   1.943  1.00  0.00    -0.371 N 
BRANCH  21  22
ATOM     22  C   UNL     1       1.994  -6.463   1.335  1.00  0.00     0.037 A 
ATOM     23  C   UNL     1       3.260  -6.846   0.878  1.00  0.00     0.026 A 
ATOM     24  C   UNL     1       0.944  -7.374   1.156  1.00  0.00     0.026 A 
ATOM     25  C   UNL     1       3.481  -8.106   0.308  1.00  0.00     0.002 A 
ATOM     26  C   UNL     1       1.150  -8.627   0.569  1.00  0.00     0.002 A 
ATOM     27  C   UNL     1       2.424  -8.998   0.156  1.00  0.00     0.000 A 
ENDBRANCH  21  22
ENDBRANCH  16  17
ENDBRANCH  13  16
ENDBRANCH  12  13
ENDBRANCH   7  12
ENDBRANCH   3   6
ENDBRANCH   1   2
BRANCH   1  28
ATOM     28  C   UNL     1      -4.673  -0.348  -3.931  1.00  0.00     0.042 C 
BRANCH  28  29
ATOM     29  C   UNL     1      -5.577   0.860  -4.149  1.00  0.00     0.118 C 
BRANCH  29  30
ATOM     30  N   UNL     1      -5.374   1.450  -5.463  1.00  0.00    -0.352 N 
ATOM     31  C   UNL     1      -6.220   1.505  -6.538  1.00  0.00     0.251 C 
ATOM     32  H   UNL     1      -4.495   1.873  -5.600  1.00  0.00     0.163 HD
ATOM     33  O   UNL     1      -5.756   1.770  -7.650  1.00  0.00    -0.269 OA
BRANCH  31  34
ATOM     34  C   UNL     1      -7.671   1.264  -6.382  1.00  0.00     0.039 A 
ATOM     35  C   UNL     1      -8.358   0.590  -7.397  1.00  0.00     0.014 A 
ATOM     36  C   UNL     1      -8.372   1.768  -5.282  1.00  0.00     0.014 A 
ATOM     37  C   UNL     1      -9.738   0.397  -7.295  1.00  0.00     0.010 A 
ATOM     38  C   UNL     1      -9.736   1.517  -5.149  1.00  0.00     0.010 A 
ATOM     39  C   UNL     1     -10.435   0.846  -6.163  1.00  0.00    -0.014 A 
BRANCH  39  40
ATOM     40  C   UNL     1     -11.901   0.651  -6.031  1.00  0.00     0.031 A 
ATOM     41  C   UNL     1     -12.821   1.842  -6.016  1.00  0.00     0.074 A 
ATOM     42  C   UNL     1     -12.394  -0.591  -5.861  1.00  0.00     0.049 A 
ATOM     43  N   UNL     1     -14.117   1.881  -5.837  1.00  0.00    -0.248 NA
ATOM     44  C   UNL     1     -12.201   3.165  -6.199  1.00  0.00     0.031 C 
ATOM     45  C   UNL     1     -11.597  -1.819  -5.818  1.00  0.00     0.029 A 
ATOM     46  N   UNL     1     -13.683  -1.024  -5.680  1.00  0.00    -0.354 N 
ATOM     47  C   UNL     1     -14.462   3.227  -5.858  1.00  0.00     0.074 A 
ATOM     48  C   UNL     1     -13.236   3.975  -6.030  1.00  0.00     0.031 C 
ATOM     49  C   UNL     1     -12.417  -2.868  -5.642  1.00  0.00     0.029 A 
ATOM     50  C   UNL     1     -13.790  -2.386  -5.525  1.00  0.00     0.049 A 
ATOM     51  H   UNL     1     -14.458  -0.417  -5.663  1.00  0.00     0.167 HD
ATOM     52  C   UNL     1     -15.690   3.790  -5.757  1.00  0.00     0.031 A 
ATOM     53  C   UNL     1     -14.870  -3.159  -5.308  1.00  0.00     0.031 A 
ATOM     54  C   UNL     1     -16.909   3.039  -5.610  1.00  0.00     0.049 A 
ATOM     55  C   UNL     1     -16.226  -2.516  -5.224  1.00  0.00     0.074 A 
ATOM     56  C   UNL     1     -18.210   3.508  -5.564  1.00  0.00     0.029 A 
ATOM     57  N   UNL     1     -16.976   1.659  -5.488  1.00  0.00    -0.354 N 
ATOM     58  N   UNL     1     -16.538  -1.245  -5.304  1.00  0.00    -0.248 NA
ATOM     59  C   UNL     1     -17.375  -3.411  -5.033  1.00  0.00     0.031 C 
ATOM     60  C   UNL     1     -19.061   2.415  -5.373  1.00  0.00     0.029 A 
ATOM     61  C   UNL     1     -18.295   1.260  -5.350  1.00  0.00     0.049 A 
ATOM     62  H   UNL     1     -16.201   1.052  -5.498  1.00  0.00     0.167 HD
ATOM     63  C   UNL     1     -17.923  -1.188  -5.196  1.00  0.00     0.074 A 
ATOM     64  C   UNL     1     -18.387  -2.554  -5.058  1.00  0.00     0.031 C 
ATOM     65  C   UNL     1     -18.736  -0.104  -5.210  1.00  0.00     0.031 A 
BRANCH  52  66
ATOM     66  C   UNL     1     -15.774   5.293  -5.796  1.00  0.00    -0.014 A 
ATOM     67  C   UNL     1     -15.535   6.004  -6.986  1.00  0.00     0.010 A 
ATOM     68  C   UNL     1     -16.130   6.004  -4.636  1.00  0.00     0.010 A 
ATOM     69  C   UNL     1     -15.607   7.400  -7.004  1.00  0.00     0.020 A 
ATOM     70  C   UNL     1     -16.229   7.399  -4.656  1.00  0.00     0.020 A 
ATOM     71  C   UNL     1     -15.948   8.089  -5.837  1.00  0.00     0.054 A 
BRANCH  71  72
ATOM     72  S   UNL     1     -16.051   9.899  -5.892  1.00  0.00     0.124 S 
ATOM     73  O   UNL     1     -14.640  10.279  -5.915  1.00  0.00    -0.237 OA
ATOM     74  O   UNL     1     -16.786  10.143  -7.130  1.00  0.00    -0.237 OA
ATOM     75  O   UNL     1     -16.769  10.243  -4.667  1.00  0.00    -0.744 OA
ENDBRANCH  71  72
ENDBRANCH  52  66
BRANCH  53  76
ATOM     76  C   UNL     1     -14.707  -4.632  -5.180  1.00  0.00    -0.014 A 
ATOM     77  C   UNL     1     -15.109  -5.485  -6.223  1.00  0.00     0.010 A 
ATOM     78  C   UNL     1     -14.113  -5.186  -4.032  1.00  0.00     0.010 A 
ATOM     79  C   UNL     1     -14.925  -6.867  -6.118  1.00  0.00     0.020 A 
ATOM     80  C   UNL     1     -13.906  -6.566  -3.933  1.00  0.00     0.020 A 
ATOM     81  C   UNL     1     -14.321  -7.398  -4.975  1.00  0.00     0.054 A 
BRANCH  81  82
ATOM     82  S   UNL     1     -14.023  -9.186  -4.892  1.00  0.00     0.124 S 
ATOM     83  O   UNL     1     -15.358  -9.703  -4.608  1.00  0.00    -0.237 OA
ATOM     84  O   UNL     1     -13.499  -9.482  -6.223  1.00  0.00    -0.237 OA
ATOM     85  O   UNL     1     -13.053  -9.319  -3.807  1.00  0.00    -0.744 OA
ENDBRANCH  81  82
ENDBRANCH  53  76
BRANCH  65  86
ATOM     86  C   UNL     1     -20.215  -0.351  -5.100  1.00  0.00    -0.014 A 
ATOM     87  C   UNL     1     -20.801  -0.715  -3.875  1.00  0.00     0.010 A 
ATOM     88  C   UNL     1     -21.036  -0.160  -6.226  1.00  0.00     0.010 A 
ATOM     89  C   UNL     1     -22.181  -0.911  -3.785  1.00  0.00     0.020 A 
ATOM     90  C   UNL     1     -22.419  -0.333  -6.135  1.00  0.00     0.020 A 
ATOM     91  C   UNL     1     -22.981  -0.721  -4.917  1.00  0.00     0.054 A 
BRANCH  91  92
ATOM     92  S   UNL     1     -24.776  -0.938  -4.766  1.00  0.00     0.124 S 
ATOM     93  O   UNL     1     -24.904  -2.392  -4.737  1.00  0.00    -0.237 OA
ATOM     94  O   UNL     1     -25.079  -0.255  -3.510  1.00  0.00    -0.237 OA
ATOM     95  O   UNL     1     -25.305  -0.288  -5.963  1.00  0.00    -0.744 OA
ENDBRANCH  91  92
ENDBRANCH  65  86
ENDBRANCH  39  40
ENDBRANCH  31  34
ENDBRANCH  29  30
ENDBRANCH  28  29
ENDBRANCH   1  28
TORSDOF 18
