REMARK SMILES CN(C)C(=O)[C@@H]1CC=CC[C@H]1C(=O)N(c1ccccc1)c1ccccc1C(=O)NCCCNC(=O)c1ccc(-c2c3nc(c(-c4ccc(S(=O)(=O)[O-])cc4)c4ccc([nH]4)c(-c4ccc(S(=O)(=O)[O-])cc4)c4nc(c(-c5ccc(S(=O)(=O)[O-])cc5)c5ccc2[nH]5)C=C4)C=C3)cc1
REMARK SMILES IDX 30 1 29 2 27 3 28 4 26 6 21 7 22 8 23 9 25 10 24 11 14 12
REMARK SMILES IDX 12 13 13 14 11 15 6 16 7 17 8 18 10 19 9 20 4 21 1 22 2 23
REMARK SMILES IDX 3 24 5 25 15 26 16 27 20 28 17 29 19 30 18 31 31 32 32 33
REMARK SMILES IDX 33 34 34 35 35 37 36 38 37 39 95 40 38 41 94 42 39 43 40 44
REMARK SMILES IDX 41 45 88 46 42 47 93 48 87 49 89 50 43 51 92 52 86 53 85 54
REMARK SMILES IDX 44 56 74 57 55 58 73 59 56 60 59 61 72 62 90 63 57 64 58 65
REMARK SMILES IDX 71 67 91 68 60 69 45 70 46 71 54 72 47 73 53 74 48 75 49 76
REMARK SMILES IDX 50 77 51 78 52 79 75 80 76 81 84 82 77 83 83 84 78 85 79 86
REMARK SMILES IDX 80 87 81 88 82 89 61 90 62 91 70 92 63 93 69 94 64 95 65 96
REMARK SMILES IDX 66 97 67 98 68 99
REMARK H PARENT 29 5 33 36 89 55 59 66
REMARK Flexibility Score: inf
ROOT
ATOM      1  C   UNL     1      -0.239   1.356   5.617  1.00  0.00     0.118 C 
ENDROOT
BRANCH   1   2
ATOM      2  N   UNL     1       0.230   1.805   6.889  1.00  0.00    -0.352 N 
ATOM      3  C   UNL     1       1.475   2.234   7.272  1.00  0.00     0.253 C 
ATOM      4  O   UNL     1       1.486   2.825   8.361  1.00  0.00    -0.269 OA
ATOM      5  H   UNL     1      -0.448   1.808   7.603  1.00  0.00     0.163 HD
BRANCH   3   6
ATOM      6  C   UNL     1       2.804   1.944   6.607  1.00  0.00     0.063 A 
ATOM      7  C   UNL     1       3.220   1.765   5.260  1.00  0.00     0.062 A 
ATOM      8  C   UNL     1       4.612   1.552   5.014  1.00  0.00     0.027 A 
ATOM      9  C   UNL     1       5.565   1.454   6.025  1.00  0.00     0.002 A 
ATOM     10  C   UNL     1       3.813   1.807   7.612  1.00  0.00     0.016 A 
ATOM     11  C   UNL     1       5.159   1.563   7.336  1.00  0.00     0.001 A 
BRANCH   7  12
ATOM     12  N   UNL     1       2.413   1.799   4.050  1.00  0.00    -0.280 N 
BRANCH  12  13
ATOM     13  C   UNL     1       1.654   2.937   3.757  1.00  0.00     0.235 C 
ATOM     14  O   UNL     1       1.821   3.971   4.421  1.00  0.00    -0.274 OA
BRANCH  13  15
ATOM     15  C   UNL     1       0.522   2.958   2.668  1.00  0.00     0.096 C 
ATOM     16  C   UNL     1       0.857   3.733   1.369  1.00  0.00     0.095 C 
ATOM     17  C   UNL     1      -0.426   3.958   0.550  1.00  0.00     0.041 C 
ATOM     18  C   UNL     1      -1.052   2.638   0.215  1.00  0.00    -0.030 C 
ATOM     19  C   UNL     1      -0.255   1.652   2.367  1.00  0.00     0.041 C 
ATOM     20  C   UNL     1      -0.930   1.581   1.029  1.00  0.00    -0.030 C 
BRANCH  16  21
ATOM     21  C   UNL     1       1.529   5.067   1.659  1.00  0.00     0.226 C 
ATOM     22  C   UNL     1       3.579   6.247   2.149  1.00  0.00     0.146 C 
ATOM     23  N   UNL     1       2.902   5.163   1.462  1.00  0.00    -0.349 N 
ATOM     24  C   UNL     1       3.734   4.276   0.667  1.00  0.00     0.146 C 
ATOM     25  O   UNL     1       0.874   6.007   2.114  1.00  0.00    -0.275 OA
ENDBRANCH  16  21
ENDBRANCH  13  15
ENDBRANCH  12  13
BRANCH  12  26
ATOM     26  C   UNL     1       2.632   0.677   3.171  1.00  0.00     0.049 A 
ATOM     27  C   UNL     1       2.704  -0.632   3.684  1.00  0.00     0.027 A 
ATOM     28  C   UNL     1       2.764   0.835   1.790  1.00  0.00     0.027 A 
ATOM     29  C   UNL     1       2.811  -1.735   2.830  1.00  0.00     0.002 A 
ATOM     30  C   UNL     1       2.843  -0.263   0.930  1.00  0.00     0.002 A 
ATOM     31  C   UNL     1       2.853  -1.551   1.451  1.00  0.00     0.000 A 
ENDBRANCH  12  26
ENDBRANCH   7  12
ENDBRANCH   3   6
ENDBRANCH   1   2
BRANCH   1  32
ATOM     32  C   UNL     1      -1.395   0.375   5.621  1.00  0.00     0.042 C 
BRANCH  32  33
ATOM     33  C   UNL     1      -2.805   0.964   5.636  1.00  0.00     0.118 C 
BRANCH  33  34
ATOM     34  N   UNL     1      -3.077   2.067   4.713  1.00  0.00    -0.352 N 
ATOM     35  C   UNL     1      -3.699   2.194   3.484  1.00  0.00     0.251 C 
ATOM     36  H   UNL     1      -2.734   2.927   5.048  1.00  0.00     0.163 HD
ATOM     37  O   UNL     1      -3.754   3.304   2.976  1.00  0.00    -0.269 OA
BRANCH  35  38
ATOM     38  C   UNL     1      -4.236   1.029   2.733  1.00  0.00     0.039 A 
ATOM     39  C   UNL     1      -4.221   1.046   1.326  1.00  0.00     0.014 A 
ATOM     40  C   UNL     1      -4.774  -0.072   3.377  1.00  0.00     0.014 A 
ATOM     41  C   UNL     1      -4.617  -0.079   0.588  1.00  0.00     0.010 A 
ATOM     42  C   UNL     1      -5.064  -1.225   2.663  1.00  0.00     0.010 A 
ATOM     43  C   UNL     1      -5.008  -1.239   1.260  1.00  0.00    -0.014 A 
BRANCH  43  44
ATOM     44  C   UNL     1      -5.529  -2.458   0.593  1.00  0.00     0.031 A 
ATOM     45  C   UNL     1      -6.941  -2.870   0.918  1.00  0.00     0.074 A 
ATOM     46  C   UNL     1      -4.727  -3.268  -0.121  1.00  0.00     0.049 A 
ATOM     47  N   UNL     1      -7.513  -4.038   0.808  1.00  0.00    -0.248 NA
ATOM     48  C   UNL     1      -7.791  -1.833   1.532  1.00  0.00     0.031 C 
ATOM     49  C   UNL     1      -3.343  -2.988  -0.503  1.00  0.00     0.029 A 
ATOM     50  N   UNL     1      -4.962  -4.527  -0.617  1.00  0.00    -0.354 N 
ATOM     51  C   UNL     1      -8.759  -3.895   1.407  1.00  0.00     0.074 A 
ATOM     52  C   UNL     1      -8.837  -2.545   1.919  1.00  0.00     0.031 C 
ATOM     53  C   UNL     1      -2.850  -4.048  -1.169  1.00  0.00     0.029 A 
ATOM     54  C   UNL     1      -3.863  -5.100  -1.212  1.00  0.00     0.049 A 
ATOM     55  H   UNL     1      -5.835  -4.978  -0.552  1.00  0.00     0.167 HD
ATOM     56  C   UNL     1      -9.755  -4.805   1.513  1.00  0.00     0.031 A 
ATOM     57  C   UNL     1      -3.690  -6.342  -1.708  1.00  0.00     0.031 A 
ATOM     58  C   UNL     1      -9.685  -6.123   0.946  1.00  0.00     0.049 A 
ATOM     59  C   UNL     1      -4.826  -7.329  -1.622  1.00  0.00     0.074 A 
ATOM     60  C   UNL     1     -10.657  -7.106   0.926  1.00  0.00     0.029 A 
ATOM     61  N   UNL     1      -8.582  -6.630   0.275  1.00  0.00    -0.354 N 
ATOM     62  N   UNL     1      -6.006  -7.183  -1.066  1.00  0.00    -0.248 NA
ATOM     63  C   UNL     1      -4.610  -8.648  -2.235  1.00  0.00     0.031 C 
ATOM     64  C   UNL     1     -10.130  -8.221   0.266  1.00  0.00     0.029 A 
ATOM     65  C   UNL     1      -8.850  -7.912  -0.167  1.00  0.00     0.049 A 
ATOM     66  H   UNL     1      -7.735  -6.149   0.135  1.00  0.00     0.167 HD
ATOM     67  C   UNL     1      -6.686  -8.374  -1.299  1.00  0.00     0.074 A 
ATOM     68  C   UNL     1      -5.787  -9.229  -2.046  1.00  0.00     0.031 C 
ATOM     69  C   UNL     1      -7.943  -8.730  -0.932  1.00  0.00     0.031 A 
BRANCH  56  70
ATOM     70  C   UNL     1     -10.993  -4.393   2.264  1.00  0.00    -0.014 A 
ATOM     71  C   UNL     1     -11.849  -3.394   1.766  1.00  0.00     0.010 A 
ATOM     72  C   UNL     1     -11.304  -5.010   3.490  1.00  0.00     0.010 A 
ATOM     73  C   UNL     1     -12.957  -2.976   2.506  1.00  0.00     0.020 A 
ATOM     74  C   UNL     1     -12.432  -4.620   4.217  1.00  0.00     0.020 A 
ATOM     75  C   UNL     1     -13.238  -3.588   3.731  1.00  0.00     0.054 A 
BRANCH  75  76
ATOM     76  S   UNL     1     -14.687  -3.031   4.667  1.00  0.00     0.124 S 
ATOM     77  O   UNL     1     -14.226  -1.752   5.201  1.00  0.00    -0.237 OA
ATOM     78  O   UNL     1     -15.720  -2.946   3.638  1.00  0.00    -0.237 OA
ATOM     79  O   UNL     1     -14.885  -4.085   5.658  1.00  0.00    -0.744 OA
ENDBRANCH  75  76
ENDBRANCH  56  70
BRANCH  57  80
ATOM     80  C   UNL     1      -2.400  -6.720  -2.350  1.00  0.00    -0.014 A 
ATOM     81  C   UNL     1      -2.331  -6.885  -3.745  1.00  0.00     0.010 A 
ATOM     82  C   UNL     1      -1.237  -6.911  -1.583  1.00  0.00     0.010 A 
ATOM     83  C   UNL     1      -1.130  -7.250  -4.361  1.00  0.00     0.020 A 
ATOM     84  C   UNL     1      -0.026  -7.250  -2.197  1.00  0.00     0.020 A 
ATOM     85  C   UNL     1       0.017  -7.427  -3.582  1.00  0.00     0.054 A 
BRANCH  85  86
ATOM     86  S   UNL     1       1.579  -7.841  -4.409  1.00  0.00     0.124 S 
ATOM     87  O   UNL     1       1.370  -9.239  -4.772  1.00  0.00    -0.237 OA
ATOM     88  O   UNL     1       1.606  -6.895  -5.522  1.00  0.00    -0.237 OA
ATOM     89  O   UNL     1       2.584  -7.603  -3.376  1.00  0.00    -0.744 OA
ENDBRANCH  85  86
ENDBRANCH  57  80
BRANCH  69  90
ATOM     90  C   UNL     1      -8.451 -10.070  -1.388  1.00  0.00    -0.014 A 
ATOM     91  C   UNL     1      -8.013 -11.263  -0.788  1.00  0.00     0.010 A 
ATOM     92  C   UNL     1      -9.453 -10.123  -2.375  1.00  0.00     0.010 A 
ATOM     93  C   UNL     1      -8.557 -12.489  -1.182  1.00  0.00     0.020 A 
ATOM     94  C   UNL     1     -10.017 -11.342  -2.752  1.00  0.00     0.020 A 
ATOM     95  C   UNL     1      -9.557 -12.520  -2.160  1.00  0.00     0.054 A 
BRANCH  95  96
ATOM     96  S   UNL     1     -10.293 -14.116  -2.606  1.00  0.00     0.124 S 
ATOM     97  O   UNL     1      -9.234 -14.725  -3.407  1.00  0.00    -0.237 OA
ATOM     98  O   UNL     1     -10.532 -14.735  -1.304  1.00  0.00    -0.237 OA
ATOM     99  O   UNL     1     -11.499 -13.748  -3.345  1.00  0.00    -0.744 OA
ENDBRANCH  95  96
ENDBRANCH  69  90
ENDBRANCH  43  44
ENDBRANCH  35  38
ENDBRANCH  33  34
ENDBRANCH  32  33
ENDBRANCH   1  32
TORSDOF 18
