REMARK SMILES O=C(CCCS(=O)(=O)Nc1ccc(Cl)cc1F)NCCCNC(=O)c1ccc(-c2c3nc(c(-c4ccc(S(=O)(=O)[O-])cc4)c4ccc([nH]4)c(-c4ccc(S(=O)(=O)[O-])cc4)c4nc(c(-c5ccc(S(=O)(=O)[O-])cc5)c5ccc2[nH]5)C=C4)C=C3)cc1
REMARK SMILES IDX 19 1 18 2 1 3 2 4 3 6 4 7 5 8 6 9 7 10 8 11 9 12 10 14 11 15
REMARK SMILES IDX 16 16 12 17 15 18 17 19 13 20 14 21 20 22 21 23 22 24 23 25
REMARK SMILES IDX 24 27 25 28 26 29 84 30 27 31 83 32 28 33 29 34 30 35 77 36
REMARK SMILES IDX 31 37 82 38 76 39 78 40 32 41 81 42 75 43 74 44 33 46 63 47
REMARK SMILES IDX 44 48 62 49 45 50 48 51 61 52 79 53 46 54 47 55 60 57 80 58
REMARK SMILES IDX 49 59 34 60 35 61 43 62 36 63 42 64 37 65 38 66 39 67 40 68
REMARK SMILES IDX 41 69 64 70 65 71 73 72 66 73 72 74 67 75 68 76 69 77 70 78
REMARK SMILES IDX 71 79 50 80 51 81 59 82 52 83 58 84 53 85 54 86 55 87 56 88
REMARK SMILES IDX 57 89
REMARK H PARENT 18 5 9 13 22 26 78 45 48 56
REMARK Flexibility Score: inf
ROOT
ATOM      1  C   UNL     1       1.944   1.121  -2.554  1.00  0.00     0.117 C 
ENDROOT
BRANCH   1   2
ATOM      2  N   UNL     1       2.458   0.325  -1.456  1.00  0.00    -0.356 N 
ATOM      3  O   UNL     1       1.233  -1.533  -1.992  1.00  0.00    -0.275 OA
ATOM      4  C   UNL     1       2.061  -0.980  -1.276  1.00  0.00     0.220 C 
ATOM      5  H   UNL     1       3.102   0.725  -0.829  1.00  0.00     0.163 HD
BRANCH   4   6
ATOM      6  C   UNL     1       2.697  -1.690  -0.097  1.00  0.00     0.101 C 
BRANCH   6   7
ATOM      7  C   UNL     1       4.155  -2.094  -0.266  1.00  0.00     0.028 C 
BRANCH   7   8
ATOM      8  C   UNL     1       5.201  -0.990  -0.409  1.00  0.00     0.160 C 
BRANCH   8   9
ATOM      9  S   UNL     1       5.717  -0.140   1.094  1.00  0.00     0.232 S 
ATOM     10  O   UNL     1       5.516  -0.988   2.238  1.00  0.00    -0.207 OA
ATOM     11  O   UNL     1       7.043   0.376   0.801  1.00  0.00    -0.207 OA
BRANCH   9  12
ATOM     12  N   UNL     1       4.799   1.251   1.171  1.00  0.00    -0.281 N 
ATOM     13  H   UNL     1       5.244   2.068   0.851  1.00  0.00     0.180 HD
BRANCH  12  14
ATOM     14  C   UNL     1       3.460   1.427   1.637  1.00  0.00     0.084 A 
ATOM     15  C   UNL     1       2.789   2.537   1.105  1.00  0.00     0.031 A 
ATOM     16  C   UNL     1       2.736   0.567   2.466  1.00  0.00     0.148 A 
ATOM     17  C   UNL     1       1.399   2.657   1.222  1.00  0.00     0.023 A 
ATOM     18  C   UNL     1       1.349   0.676   2.584  1.00  0.00     0.062 A 
ATOM     19  F   UNL     1       3.311  -0.464   3.091  1.00  0.00    -0.205 F 
ATOM     20  C   UNL     1       0.680   1.692   1.918  1.00  0.00     0.044 A 
ATOM     21  Cl  UNL     1      -1.037   1.731   1.914  1.00  0.00    -0.084 Cl
ENDBRANCH  12  14
ENDBRANCH   9  12
ENDBRANCH   8   9
ENDBRANCH   7   8
ENDBRANCH   6   7
ENDBRANCH   4   6
ENDBRANCH   1   2
BRANCH   1  22
ATOM     22  C   UNL     1       2.340   2.594  -2.499  1.00  0.00     0.042 C 
BRANCH  22  23
ATOM     23  C   UNL     1       3.840   2.872  -2.485  1.00  0.00     0.118 C 
BRANCH  23  24
ATOM     24  N   UNL     1       4.492   2.501  -3.725  1.00  0.00    -0.352 N 
ATOM     25  C   UNL     1       5.153   3.281  -4.643  1.00  0.00     0.251 C 
ATOM     26  H   UNL     1       4.455   1.542  -3.943  1.00  0.00     0.163 HD
ATOM     27  O   UNL     1       5.457   2.793  -5.729  1.00  0.00    -0.269 OA
BRANCH  25  28
ATOM     28  C   UNL     1       5.487   4.696  -4.351  1.00  0.00     0.039 A 
ATOM     29  C   UNL     1       5.335   5.641  -5.370  1.00  0.00     0.014 A 
ATOM     30  C   UNL     1       6.003   5.092  -3.113  1.00  0.00     0.014 A 
ATOM     31  C   UNL     1       5.660   6.981  -5.137  1.00  0.00     0.010 A 
ATOM     32  C   UNL     1       6.256   6.442  -2.859  1.00  0.00     0.010 A 
ATOM     33  C   UNL     1       6.102   7.401  -3.872  1.00  0.00    -0.014 A 
BRANCH  33  34
ATOM     34  C   UNL     1       6.432   8.831  -3.611  1.00  0.00     0.031 A 
ATOM     35  C   UNL     1       7.840   9.236  -3.252  1.00  0.00     0.074 A 
ATOM     36  C   UNL     1       5.462   9.767  -3.666  1.00  0.00     0.049 A 
ATOM     37  N   UNL     1       8.309  10.424  -2.966  1.00  0.00    -0.248 NA
ATOM     38  C   UNL     1       8.847   8.164  -3.186  1.00  0.00     0.031 C 
ATOM     39  C   UNL     1       4.054   9.510  -3.977  1.00  0.00     0.029 A 
ATOM     40  N   UNL     1       5.513  11.124  -3.463  1.00  0.00    -0.354 N 
ATOM     41  C   UNL     1       9.656  10.242  -2.673  1.00  0.00     0.074 A 
ATOM     42  C   UNL     1       9.916   8.822  -2.762  1.00  0.00     0.031 C 
ATOM     43  C   UNL     1       3.383  10.674  -3.974  1.00  0.00     0.029 A 
ATOM     44  C   UNL     1       4.299  11.754  -3.619  1.00  0.00     0.049 A 
ATOM     45  H   UNL     1       6.341  11.603  -3.228  1.00  0.00     0.167 HD
ATOM     46  C   UNL     1      10.599  11.170  -2.378  1.00  0.00     0.031 A 
ATOM     47  C   UNL     1       3.956  13.051  -3.486  1.00  0.00     0.031 A 
ATOM     48  C   UNL     1      10.343  12.585  -2.297  1.00  0.00     0.049 A 
ATOM     49  C   UNL     1       5.014  14.061  -3.132  1.00  0.00     0.074 A 
ATOM     50  C   UNL     1      11.242  13.608  -2.051  1.00  0.00     0.029 A 
ATOM     51  N   UNL     1       9.099  13.177  -2.455  1.00  0.00    -0.354 N 
ATOM     52  N   UNL     1       6.295  13.872  -2.918  1.00  0.00    -0.248 NA
ATOM     53  C   UNL     1       4.583  15.461  -3.014  1.00  0.00     0.031 C 
ATOM     54  C   UNL     1      10.533  14.812  -1.998  1.00  0.00     0.029 A 
ATOM     55  C   UNL     1       9.203  14.548  -2.284  1.00  0.00     0.049 A 
ATOM     56  H   UNL     1       8.265  12.695  -2.659  1.00  0.00     0.167 HD
ATOM     57  C   UNL     1       6.828  15.134  -2.675  1.00  0.00     0.074 A 
ATOM     58  C   UNL     1       5.734  16.078  -2.781  1.00  0.00     0.031 C 
ATOM     59  C   UNL     1       8.108  15.480  -2.392  1.00  0.00     0.031 A 
BRANCH  46  60
ATOM     60  C   UNL     1      12.001  10.682  -2.108  1.00  0.00    -0.014 A 
ATOM     61  C   UNL     1      12.792  10.132  -3.133  1.00  0.00     0.010 A 
ATOM     62  C   UNL     1      12.552  10.818  -0.820  1.00  0.00     0.010 A 
ATOM     63  C   UNL     1      14.089   9.684  -2.865  1.00  0.00     0.020 A 
ATOM     64  C   UNL     1      13.860  10.402  -0.556  1.00  0.00     0.020 A 
ATOM     65  C   UNL     1      14.614   9.820  -1.577  1.00  0.00     0.054 A 
BRANCH  65  66
ATOM     66  S   UNL     1      16.307   9.249  -1.265  1.00  0.00     0.124 S 
ATOM     67  O   UNL     1      16.151   7.798  -1.333  1.00  0.00    -0.237 OA
ATOM     68  O   UNL     1      17.055   9.853  -2.365  1.00  0.00    -0.237 OA
ATOM     69  O   UNL     1      16.614   9.780   0.061  1.00  0.00    -0.744 OA
ENDBRANCH  65  66
ENDBRANCH  46  60
BRANCH  47  70
ATOM     70  C   UNL     1       2.543  13.473  -3.700  1.00  0.00    -0.014 A 
ATOM     71  C   UNL     1       2.189  14.264  -4.808  1.00  0.00     0.010 A 
ATOM     72  C   UNL     1       1.539  13.081  -2.795  1.00  0.00     0.010 A 
ATOM     73  C   UNL     1       0.865  14.673  -4.994  1.00  0.00     0.020 A 
ATOM     74  C   UNL     1       0.209  13.460  -2.995  1.00  0.00     0.020 A 
ATOM     75  C   UNL     1      -0.117  14.265  -4.088  1.00  0.00     0.054 A 
BRANCH  75  76
ATOM     76  S   UNL     1      -1.837  14.766  -4.377  1.00  0.00     0.124 S 
ATOM     77  O   UNL     1      -1.795  16.191  -4.066  1.00  0.00    -0.237 OA
ATOM     78  O   UNL     1      -2.029  14.430  -5.786  1.00  0.00    -0.237 OA
ATOM     79  O   UNL     1      -2.595  13.941  -3.439  1.00  0.00    -0.744 OA
ENDBRANCH  75  76
ENDBRANCH  47  70
BRANCH  59  80
ATOM     80  C   UNL     1       8.415  16.946  -2.221  1.00  0.00    -0.014 A 
ATOM     81  C   UNL     1       7.962  17.667  -1.101  1.00  0.00     0.010 A 
ATOM     82  C   UNL     1       9.218  17.599  -3.175  1.00  0.00     0.010 A 
ATOM     83  C   UNL     1       8.277  19.021  -0.958  1.00  0.00     0.020 A 
ATOM     84  C   UNL     1       9.563  18.944  -3.018  1.00  0.00     0.020 A 
ATOM     85  C   UNL     1       9.077  19.651  -1.917  1.00  0.00     0.054 A 
BRANCH  85  86
ATOM     86  S   UNL     1       9.506  21.398  -1.685  1.00  0.00     0.124 S 
ATOM     87  O   UNL     1       8.235  22.062  -1.958  1.00  0.00    -0.237 OA
ATOM     88  O   UNL     1       9.948  21.436  -0.293  1.00  0.00    -0.237 OA
ATOM     89  O   UNL     1      10.556  21.632  -2.673  1.00  0.00    -0.744 OA
ENDBRANCH  85  86
ENDBRANCH  59  80
ENDBRANCH  33  34
ENDBRANCH  25  28
ENDBRANCH  23  24
ENDBRANCH  22  23
ENDBRANCH   1  22
TORSDOF 18
