REMARK SMILES C[NH2+][C@@]1(C(=O)NCCCNC(=O)c2ccc(-c3c4nc(c(-c5ccc(S(=O)(=O)[O-])cc5)c5ccc([nH]5)c(-c5ccc(S(=O)(=O)[O-])cc5)c5nc(c(-c6ccc(S(=O)(=O)[O-])cc6)c6ccc3[nH]6)C=C5)C=C4)cc2)CCC[C@H]([N@H+](C)C2CC[NH+](C)CC2)C1
REMARK SMILES IDX 8 1 7 2 6 3 4 4 5 5 3 7 73 8 86 9 74 10 76 11 75 12 2 13
REMARK SMILES IDX 1 14 77 17 78 18 79 20 80 21 85 22 81 23 84 24 82 25 83 26
REMARK SMILES IDX 9 28 10 29 11 30 12 32 13 33 14 34 72 35 15 36 71 37 16 38
REMARK SMILES IDX 17 39 18 40 65 41 19 42 70 43 64 44 66 45 20 46 69 47 63 48
REMARK SMILES IDX 62 49 21 51 51 52 32 53 50 54 33 55 36 56 49 57 67 58 34 59
REMARK SMILES IDX 35 60 48 62 68 63 37 64 22 65 23 66 31 67 24 68 30 69 25 70
REMARK SMILES IDX 26 71 27 72 28 73 29 74 52 75 53 76 61 77 54 78 60 79 55 80
REMARK SMILES IDX 56 81 57 82 58 83 59 84 38 85 39 86 47 87 40 88 46 89 41 90
REMARK SMILES IDX 42 91 43 92 44 93 45 94
REMARK H PARENT 6 6 2 15 2 16 77 19 82 27 10 31 66 50 36 61
REMARK Flexibility Score: inf
ROOT
ATOM      1  C   UNL     1      -4.092   3.430  -2.192  1.00  0.00     0.042 C 
ENDROOT
BRANCH   1   2
ATOM      2  C   UNL     1      -3.169   2.213  -2.219  1.00  0.00     0.118 C 
BRANCH   2   3
ATOM      3  N   UNL     1      -2.068   2.265  -1.262  1.00  0.00    -0.351 N 
ATOM      4  C   UNL     1      -1.536   1.088  -0.734  1.00  0.00     0.281 C 
ATOM      5  O   UNL     1      -1.593   0.029  -1.362  1.00  0.00    -0.268 OA
ATOM      6  H   UNL     1      -1.698   3.135  -0.988  1.00  0.00     0.163 HD
BRANCH   4   7
ATOM      7  C   UNL     1      -0.788   1.192   0.658  1.00  0.00     0.181 C 
ATOM      8  C   UNL     1      -0.623  -0.176   1.392  1.00  0.00     0.079 C 
ATOM      9  C   UNL     1      -1.513   2.185   1.600  1.00  0.00     0.144 C 
ATOM     10  C   UNL     1      -1.723  -0.658   2.330  1.00  0.00     0.013 C 
ATOM     11  C   UNL     1      -2.851   1.644   2.206  1.00  0.00     0.190 C 
ATOM     12  C   UNL     1      -2.481   0.431   3.057  1.00  0.00     0.065 C 
BRANCH   7  13
ATOM     13  N   UNL     1       0.595   1.730   0.369  1.00  0.00    -0.336 N 
ATOM     14  C   UNL     1       1.484   0.751  -0.273  1.00  0.00     0.331 C 
ATOM     15  H   UNL     1       0.504   2.538  -0.248  1.00  0.00     0.346 HD
ATOM     16  H   UNL     1       1.014   1.974   1.267  1.00  0.00     0.346 HD
ENDBRANCH   7  13
BRANCH  11  17
ATOM     17  N   UNL     1      -3.959   1.631   1.195  1.00  0.00    -0.332 N 
ATOM     18  C   UNL     1      -4.521   3.019   1.259  1.00  0.00     0.333 C 
ATOM     19  H   UNL     1      -3.509   1.303   0.340  1.00  0.00     0.348 HD
BRANCH  17  20
ATOM     20  C   UNL     1      -5.112   0.659   1.258  1.00  0.00     0.195 C 
ATOM     21  C   UNL     1      -4.898  -0.850   1.445  1.00  0.00     0.126 C 
ATOM     22  C   UNL     1      -6.035   0.694  -0.009  1.00  0.00     0.126 C 
ATOM     23  C   UNL     1      -4.203  -1.489   0.248  1.00  0.00     0.268 C 
ATOM     24  C   UNL     1      -5.727  -0.284  -1.173  1.00  0.00     0.268 C 
ATOM     25  N   UNL     1      -5.083  -1.566  -0.905  1.00  0.00    -0.337 N 
ATOM     26  C   UNL     1      -4.308  -1.990  -2.087  1.00  0.00     0.332 C 
ATOM     27  H   UNL     1      -5.814  -2.249  -0.704  1.00  0.00     0.347 HD
ENDBRANCH  17  20
ENDBRANCH  11  17
ENDBRANCH   4   7
ENDBRANCH   2   3
ENDBRANCH   1   2
BRANCH   1  28
ATOM     28  C   UNL     1      -5.374   3.420  -3.051  1.00  0.00     0.118 C 
BRANCH  28  29
ATOM     29  N   UNL     1      -6.250   2.245  -3.029  1.00  0.00    -0.352 N 
ATOM     30  C   UNL     1      -7.604   2.095  -2.764  1.00  0.00     0.251 C 
ATOM     31  H   UNL     1      -5.791   1.401  -3.243  1.00  0.00     0.163 HD
ATOM     32  O   UNL     1      -8.125   0.980  -2.801  1.00  0.00    -0.269 OA
BRANCH  30  33
ATOM     33  C   UNL     1      -8.463   3.250  -2.453  1.00  0.00     0.039 A 
ATOM     34  C   UNL     1      -9.502   3.168  -1.510  1.00  0.00     0.014 A 
ATOM     35  C   UNL     1      -8.276   4.419  -3.175  1.00  0.00     0.014 A 
ATOM     36  C   UNL     1     -10.299   4.292  -1.252  1.00  0.00     0.010 A 
ATOM     37  C   UNL     1      -8.960   5.560  -2.818  1.00  0.00     0.010 A 
ATOM     38  C   UNL     1     -10.009   5.506  -1.888  1.00  0.00    -0.014 A 
BRANCH  38  39
ATOM     39  C   UNL     1     -10.791   6.756  -1.731  1.00  0.00     0.031 A 
ATOM     40  C   UNL     1     -11.326   7.404  -2.985  1.00  0.00     0.074 A 
ATOM     41  C   UNL     1     -10.820   7.397  -0.549  1.00  0.00     0.049 A 
ATOM     42  N   UNL     1     -11.658   8.647  -3.201  1.00  0.00    -0.248 NA
ATOM     43  C   UNL     1     -11.384   6.549  -4.188  1.00  0.00     0.031 C 
ATOM     44  C   UNL     1     -10.289   6.887   0.717  1.00  0.00     0.029 A 
ATOM     45  N   UNL     1     -11.285   8.647  -0.233  1.00  0.00    -0.354 N 
ATOM     46  C   UNL     1     -11.870   8.741  -4.574  1.00  0.00     0.074 A 
ATOM     47  C   UNL     1     -11.567   7.448  -5.143  1.00  0.00     0.031 C 
ATOM     48  C   UNL     1     -10.473   7.810   1.676  1.00  0.00     0.029 A 
ATOM     49  C   UNL     1     -11.083   8.994   1.082  1.00  0.00     0.049 A 
ATOM     50  H   UNL     1     -11.723   9.241  -0.886  1.00  0.00     0.167 HD
ATOM     51  C   UNL     1     -12.300   9.806  -5.290  1.00  0.00     0.031 A 
ATOM     52  C   UNL     1     -11.350  10.147   1.724  1.00  0.00     0.031 A 
ATOM     53  C   UNL     1     -12.689  11.046  -4.677  1.00  0.00     0.049 A 
ATOM     54  C   UNL     1     -11.949  11.280   0.933  1.00  0.00     0.074 A 
ATOM     55  C   UNL     1     -13.253  12.163  -5.264  1.00  0.00     0.029 A 
ATOM     56  N   UNL     1     -12.590  11.310  -3.317  1.00  0.00    -0.354 N 
ATOM     57  N   UNL     1     -12.178  11.350  -0.358  1.00  0.00    -0.248 NA
ATOM     58  C   UNL     1     -12.339  12.479   1.684  1.00  0.00     0.031 C 
ATOM     59  C   UNL     1     -13.477  13.111  -4.259  1.00  0.00     0.029 A 
ATOM     60  C   UNL     1     -13.093  12.566  -3.042  1.00  0.00     0.049 A 
ATOM     61  H   UNL     1     -12.216  10.692  -2.648  1.00  0.00     0.167 HD
ATOM     62  C   UNL     1     -12.770  12.589  -0.571  1.00  0.00     0.074 A 
ATOM     63  C   UNL     1     -12.874  13.227   0.728  1.00  0.00     0.031 C 
ATOM     64  C   UNL     1     -13.190  13.154  -1.730  1.00  0.00     0.031 A 
BRANCH  51  65
ATOM     65  C   UNL     1     -12.401   9.658  -6.788  1.00  0.00    -0.014 A 
ATOM     66  C   UNL     1     -13.311   8.757  -7.374  1.00  0.00     0.010 A 
ATOM     67  C   UNL     1     -11.585  10.438  -7.630  1.00  0.00     0.010 A 
ATOM     68  C   UNL     1     -13.359   8.591  -8.760  1.00  0.00     0.020 A 
ATOM     69  C   UNL     1     -11.657  10.303  -9.022  1.00  0.00     0.020 A 
ATOM     70  C   UNL     1     -12.528   9.363  -9.576  1.00  0.00     0.054 A 
BRANCH  70  71
ATOM     71  S   UNL     1     -12.629   9.140 -11.374  1.00  0.00     0.124 S 
ATOM     72  O   UNL     1     -11.950   7.859 -11.556  1.00  0.00    -0.237 OA
ATOM     73  O   UNL     1     -14.069   9.127 -11.615  1.00  0.00    -0.237 OA
ATOM     74  O   UNL     1     -11.921  10.301 -11.908  1.00  0.00    -0.744 OA
ENDBRANCH  70  71
ENDBRANCH  51  65
BRANCH  52  75
ATOM     75  C   UNL     1     -11.111  10.259   3.189  1.00  0.00    -0.014 A 
ATOM     76  C   UNL     1     -12.203  10.263   4.077  1.00  0.00     0.010 A 
ATOM     77  C   UNL     1      -9.807  10.316   3.714  1.00  0.00     0.010 A 
ATOM     78  C   UNL     1     -11.998  10.340   5.457  1.00  0.00     0.020 A 
ATOM     79  C   UNL     1      -9.597  10.367   5.097  1.00  0.00     0.020 A 
ATOM     80  C   UNL     1     -10.695  10.389   5.960  1.00  0.00     0.054 A 
BRANCH  80  81
ATOM     81  S   UNL     1     -10.455  10.429   7.758  1.00  0.00     0.124 S 
ATOM     82  O   UNL     1     -10.851  11.794   8.087  1.00  0.00    -0.237 OA
ATOM     83  O   UNL     1     -11.358   9.378   8.221  1.00  0.00    -0.237 OA
ATOM     84  O   UNL     1      -9.033  10.132   7.920  1.00  0.00    -0.744 OA
ENDBRANCH  80  81
ENDBRANCH  52  75
BRANCH  64  85
ATOM     85  C   UNL     1     -13.841  14.505  -1.636  1.00  0.00    -0.014 A 
ATOM     86  C   UNL     1     -13.079  15.662  -1.405  1.00  0.00     0.010 A 
ATOM     87  C   UNL     1     -15.225  14.619  -1.857  1.00  0.00     0.010 A 
ATOM     88  C   UNL     1     -13.698  16.913  -1.369  1.00  0.00     0.020 A 
ATOM     89  C   UNL     1     -15.842  15.870  -1.849  1.00  0.00     0.020 A 
ATOM     90  C   UNL     1     -15.075  17.008  -1.593  1.00  0.00     0.054 A 
BRANCH  90  91
ATOM     91  S   UNL     1     -15.845  18.649  -1.595  1.00  0.00     0.124 S 
ATOM     92  O   UNL     1     -15.867  18.975  -0.172  1.00  0.00    -0.237 OA
ATOM     93  O   UNL     1     -14.919  19.436  -2.406  1.00  0.00    -0.237 OA
ATOM     94  O   UNL     1     -17.153  18.417  -2.203  1.00  0.00    -0.744 OA
ENDBRANCH  90  91
ENDBRANCH  64  85
ENDBRANCH  38  39
ENDBRANCH  30  33
ENDBRANCH  28  29
ENDBRANCH   1  28
TORSDOF 16
