REMARK SMILES Cc1cc(Nc2ccccc2C(=O)NCCCNC(=O)c2ccc(-c3c4nc(c(-c5ccc(S(=O)(=O)[O-])cc5)c5ccc([nH]5)c(-c5ccc(S(=O)(=O)[O-])cc5)c5nc(c(-c6ccc(S(=O)(=O)[O-])cc6)c6ccc3[nH]6)C=C5)C=C4)cc2)nc(N2CCCCC2)n1
REMARK SMILES IDX 16 1 15 2 14 3 12 4 13 5 11 7 6 8 7 9 8 10 10 11 9 12 5 13
REMARK SMILES IDX 4 15 1 16 2 17 3 18 89 19 82 20 81 21 83 22 84 23 88 24
REMARK SMILES IDX 85 25 87 26 86 27 17 28 18 29 19 30 20 32 21 33 22 34 80 35
REMARK SMILES IDX 23 36 79 37 24 38 25 39 26 40 73 41 27 42 78 43 72 44 74 45
REMARK SMILES IDX 28 46 77 47 71 48 70 49 29 51 59 52 40 53 58 54 41 55 44 56
REMARK SMILES IDX 57 57 75 58 42 59 43 60 56 62 76 63 45 64 30 65 31 66 39 67
REMARK SMILES IDX 32 68 38 69 33 70 34 71 35 72 36 73 37 74 60 75 61 76 69 77
REMARK SMILES IDX 62 78 68 79 63 80 64 81 65 82 66 83 67 84 46 85 47 86 55 87
REMARK SMILES IDX 48 88 54 89 49 90 50 91 51 92 52 93 53 94
REMARK H PARENT 14 6 5 14 18 31 74 50 44 61
REMARK Flexibility Score: inf
ROOT
ATOM      1  C   UNL     1       0.131  -2.749   2.360  1.00  0.00     0.042 C 
ENDROOT
BRANCH   1   2
ATOM      2  C   UNL     1       1.110  -1.920   1.574  1.00  0.00     0.118 C 
BRANCH   2   3
ATOM      3  N   UNL     1       2.129  -1.209   2.287  1.00  0.00    -0.352 N 
ATOM      4  C   UNL     1       3.329  -0.764   1.767  1.00  0.00     0.253 C 
ATOM      5  O   UNL     1       3.895   0.144   2.384  1.00  0.00    -0.269 OA
ATOM      6  H   UNL     1       1.958  -1.020   3.238  1.00  0.00     0.163 HD
BRANCH   4   7
ATOM      7  C   UNL     1       4.069  -1.470   0.658  1.00  0.00     0.063 A 
ATOM      8  C   UNL     1       3.605  -2.009  -0.569  1.00  0.00     0.052 A 
ATOM      9  C   UNL     1       4.515  -2.777  -1.339  1.00  0.00     0.027 A 
ATOM     10  C   UNL     1       5.844  -2.967  -0.962  1.00  0.00     0.002 A 
ATOM     11  C   UNL     1       5.433  -1.658   1.003  1.00  0.00     0.016 A 
ATOM     12  C   UNL     1       6.311  -2.387   0.203  1.00  0.00     0.001 A 
BRANCH   8  13
ATOM     13  N   UNL     1       2.351  -1.805  -1.196  1.00  0.00    -0.339 N 
ATOM     14  H   UNL     1       2.001  -2.579  -1.693  1.00  0.00     0.168 HD
BRANCH  13  15
ATOM     15  C   UNL     1       1.534  -0.665  -1.213  1.00  0.00     0.136 A 
ATOM     16  C   UNL     1      -2.113   0.203  -1.328  1.00  0.00     0.067 C 
ATOM     17  C   UNL     1      -0.628   0.259  -1.151  1.00  0.00     0.045 A 
ATOM     18  C   UNL     1       0.177  -0.818  -1.453  1.00  0.00     0.070 A 
ATOM     19  N   UNL     1      -0.119   1.407  -0.678  1.00  0.00    -0.218 NA
ATOM     20  C   UNL     1       1.212   1.498  -0.563  1.00  0.00     0.227 A 
ATOM     21  N   UNL     1       2.055   0.502  -0.830  1.00  0.00    -0.195 NA
BRANCH  20  22
ATOM     22  N   UNL     1       1.731   2.693  -0.181  1.00  0.00    -0.341 N 
ATOM     23  C   UNL     1       1.515   3.174   1.161  1.00  0.00     0.119 C 
ATOM     24  C   UNL     1       2.675   3.360  -1.038  1.00  0.00     0.119 C 
ATOM     25  C   UNL     1       1.067   4.631   1.081  1.00  0.00     0.022 C 
ATOM     26  C   UNL     1       2.191   4.802  -1.191  1.00  0.00     0.022 C 
ATOM     27  C   UNL     1       1.988   5.461   0.178  1.00  0.00     0.004 C 
ENDBRANCH  20  22
ENDBRANCH  13  15
ENDBRANCH   8  13
ENDBRANCH   4   7
ENDBRANCH   2   3
ENDBRANCH   1   2
BRANCH   1  28
ATOM     28  C   UNL     1      -0.922  -1.957   3.110  1.00  0.00     0.118 C 
BRANCH  28  29
ATOM     29  N   UNL     1      -1.743  -1.061   2.289  1.00  0.00    -0.352 N 
ATOM     30  C   UNL     1      -3.094  -1.067   2.027  1.00  0.00     0.251 C 
ATOM     31  H   UNL     1      -1.244  -0.333   1.853  1.00  0.00     0.163 HD
ATOM     32  O   UNL     1      -3.598  -0.205   1.306  1.00  0.00    -0.269 OA
BRANCH  30  33
ATOM     33  C   UNL     1      -3.958  -2.125   2.574  1.00  0.00     0.039 A 
ATOM     34  C   UNL     1      -4.947  -2.702   1.770  1.00  0.00     0.014 A 
ATOM     35  C   UNL     1      -3.791  -2.541   3.890  1.00  0.00     0.014 A 
ATOM     36  C   UNL     1      -5.729  -3.737   2.281  1.00  0.00     0.010 A 
ATOM     37  C   UNL     1      -4.442  -3.672   4.336  1.00  0.00     0.010 A 
ATOM     38  C   UNL     1      -5.463  -4.238   3.563  1.00  0.00    -0.014 A 
BRANCH  38  39
ATOM     39  C   UNL     1      -6.315  -5.253   4.215  1.00  0.00     0.031 A 
ATOM     40  C   UNL     1      -7.026  -4.870   5.488  1.00  0.00     0.074 A 
ATOM     41  C   UNL     1      -6.360  -6.508   3.735  1.00  0.00     0.049 A 
ATOM     42  N   UNL     1      -7.681  -5.621   6.330  1.00  0.00    -0.248 NA
ATOM     43  C   UNL     1      -6.926  -3.456   5.900  1.00  0.00     0.031 C 
ATOM     44  C   UNL     1      -5.683  -6.982   2.526  1.00  0.00     0.029 A 
ATOM     45  N   UNL     1      -7.004  -7.616   4.214  1.00  0.00    -0.354 N 
ATOM     46  C   UNL     1      -8.014  -4.784   7.391  1.00  0.00     0.074 A 
ATOM     47  C   UNL     1      -7.423  -3.495   7.124  1.00  0.00     0.031 C 
ATOM     48  C   UNL     1      -5.987  -8.276   2.333  1.00  0.00     0.029 A 
ATOM     49  C   UNL     1      -6.836  -8.730   3.430  1.00  0.00     0.049 A 
ATOM     50  H   UNL     1      -7.537  -7.614   5.042  1.00  0.00     0.167 HD
ATOM     51  C   UNL     1      -8.774  -5.058   8.477  1.00  0.00     0.031 A 
ATOM     52  C   UNL     1      -7.324  -9.975   3.585  1.00  0.00     0.031 A 
ATOM     53  C   UNL     1      -9.388  -6.338   8.692  1.00  0.00     0.049 A 
ATOM     54  C   UNL     1      -8.192 -10.255   4.780  1.00  0.00     0.074 A 
ATOM     55  C   UNL     1     -10.238  -6.730   9.708  1.00  0.00     0.029 A 
ATOM     56  N   UNL     1      -9.220  -7.435   7.857  1.00  0.00    -0.354 N 
ATOM     57  N   UNL     1      -8.538  -9.447   5.756  1.00  0.00    -0.248 NA
ATOM     58  C   UNL     1      -8.750 -11.608   4.885  1.00  0.00     0.031 C 
ATOM     59  C   UNL     1     -10.543  -8.082   9.515  1.00  0.00     0.029 A 
ATOM     60  C   UNL     1      -9.939  -8.512   8.341  1.00  0.00     0.049 A 
ATOM     61  H   UNL     1      -8.670  -7.445   7.041  1.00  0.00     0.167 HD
ATOM     62  C   UNL     1      -9.390 -10.182   6.573  1.00  0.00     0.074 A 
ATOM     63  C   UNL     1      -9.507 -11.496   5.969  1.00  0.00     0.031 C 
ATOM     64  C   UNL     1     -10.027  -9.806   7.711  1.00  0.00     0.031 A 
BRANCH  51  65
ATOM     65  C   UNL     1      -8.949  -3.959   9.496  1.00  0.00    -0.014 A 
ATOM     66  C   UNL     1      -9.611  -2.756   9.181  1.00  0.00     0.010 A 
ATOM     67  C   UNL     1      -8.408  -4.115  10.785  1.00  0.00     0.010 A 
ATOM     68  C   UNL     1      -9.656  -1.705  10.101  1.00  0.00     0.020 A 
ATOM     69  C   UNL     1      -8.487  -3.081  11.724  1.00  0.00     0.020 A 
ATOM     70  C   UNL     1      -9.084  -1.871  11.365  1.00  0.00     0.054 A 
BRANCH  70  71
ATOM     71  S   UNL     1      -9.138  -0.486  12.534  1.00  0.00     0.124 S 
ATOM     72  O   UNL     1      -8.146   0.424  11.966  1.00  0.00    -0.237 OA
ATOM     73  O   UNL     1     -10.525  -0.040  12.440  1.00  0.00    -0.237 OA
ATOM     74  O   UNL     1      -8.767  -1.094  13.809  1.00  0.00    -0.744 OA
ENDBRANCH  70  71
ENDBRANCH  51  65
BRANCH  52  75
ATOM     75  C   UNL     1      -7.064 -11.005   2.543  1.00  0.00    -0.014 A 
ATOM     76  C   UNL     1      -8.099 -11.406   1.680  1.00  0.00     0.010 A 
ATOM     77  C   UNL     1      -5.777 -11.543   2.361  1.00  0.00     0.010 A 
ATOM     78  C   UNL     1      -7.855 -12.327   0.657  1.00  0.00     0.020 A 
ATOM     79  C   UNL     1      -5.523 -12.445   1.323  1.00  0.00     0.020 A 
ATOM     80  C   UNL     1      -6.566 -12.835   0.479  1.00  0.00     0.054 A 
BRANCH  80  81
ATOM     81  S   UNL     1      -6.260 -13.965  -0.907  1.00  0.00     0.124 S 
ATOM     82  O   UNL     1      -6.959 -15.171  -0.477  1.00  0.00    -0.237 OA
ATOM     83  O   UNL     1      -6.859 -13.251  -2.031  1.00  0.00    -0.237 OA
ATOM     84  O   UNL     1      -4.803 -14.067  -0.950  1.00  0.00    -0.744 OA
ENDBRANCH  80  81
ENDBRANCH  52  75
BRANCH  64  85
ATOM     85  C   UNL     1     -10.949 -10.814   8.341  1.00  0.00    -0.014 A 
ATOM     86  C   UNL     1     -10.454 -11.959   8.989  1.00  0.00     0.010 A 
ATOM     87  C   UNL     1     -12.336 -10.579   8.319  1.00  0.00     0.010 A 
ATOM     88  C   UNL     1     -11.337 -12.875   9.565  1.00  0.00     0.020 A 
ATOM     89  C   UNL     1     -13.218 -11.474   8.924  1.00  0.00     0.020 A 
ATOM     90  C   UNL     1     -12.713 -12.627   9.526  1.00  0.00     0.054 A 
BRANCH  90  91
ATOM     91  S   UNL     1     -13.835 -13.818  10.304  1.00  0.00     0.124 S 
ATOM     92  O   UNL     1     -13.794 -14.933   9.362  1.00  0.00    -0.237 OA
ATOM     93  O   UNL     1     -13.198 -14.062  11.596  1.00  0.00    -0.237 OA
ATOM     94  O   UNL     1     -15.108 -13.104  10.369  1.00  0.00    -0.744 OA
ENDBRANCH  90  91
ENDBRANCH  64  85
ENDBRANCH  38  39
ENDBRANCH  30  33
ENDBRANCH  28  29
ENDBRANCH   1  28
TORSDOF 16
