REMARK SMILES C[NH2+][C@@]1(C(=O)NCCCNC(=O)c2ccc(-c3c4nc(c(-c5ccc(S(=O)(=O)[O-])cc5)c5ccc([nH]5)c(-c5ccc(S(=O)(=O)[O-])cc5)c5nc(c(-c6ccc(S(=O)(=O)[O-])cc6)c6ccc3[nH]6)C=C5)C=C4)cc2)CCC[C@H](Oc2cccc(OC)c2)C1
REMARK SMILES IDX 8 1 7 2 6 3 4 4 5 5 3 7 73 8 86 9 74 10 76 11 75 12 2 13
REMARK SMILES IDX 1 14 77 17 78 18 79 19 85 20 80 21 82 22 81 23 83 24 84 25
REMARK SMILES IDX 9 26 10 27 11 28 12 30 13 31 14 32 72 33 15 34 71 35 16 36
REMARK SMILES IDX 17 37 18 38 65 39 19 40 70 41 64 42 66 43 20 44 69 45 63 46
REMARK SMILES IDX 62 47 21 49 51 50 32 51 50 52 33 53 36 54 49 55 67 56 34 57
REMARK SMILES IDX 35 58 48 60 68 61 37 62 22 63 23 64 31 65 24 66 30 67 25 68
REMARK SMILES IDX 26 69 27 70 28 71 29 72 52 73 53 74 61 75 54 76 60 77 55 78
REMARK SMILES IDX 56 79 57 80 58 81 59 82 38 83 39 84 47 85 40 86 46 87 41 88
REMARK SMILES IDX 42 89 43 90 44 91 45 92
REMARK H PARENT 6 6 2 15 2 16 10 29 66 48 36 59
REMARK Flexibility Score: inf
ROOT
ATOM      1  C   UNL     1      -5.166  -1.470  -2.322  1.00  0.00     0.042 C 
ENDROOT
BRANCH   1   2
ATOM      2  C   UNL     1      -3.866  -2.288  -2.073  1.00  0.00     0.118 C 
BRANCH   2   3
ATOM      3  N   UNL     1      -2.630  -1.567  -2.434  1.00  0.00    -0.351 N 
ATOM      4  C   UNL     1      -1.482  -1.123  -1.847  1.00  0.00     0.281 C 
ATOM      5  O   UNL     1      -0.720  -0.577  -2.671  1.00  0.00    -0.268 OA
ATOM      6  H   UNL     1      -2.636  -1.337  -3.391  1.00  0.00     0.163 HD
BRANCH   4   7
ATOM      7  C   UNL     1      -0.957  -1.279  -0.328  1.00  0.00     0.178 C 
ATOM      8  C   UNL     1      -1.347  -2.600   0.344  1.00  0.00     0.079 C 
ATOM      9  C   UNL     1      -1.261  -0.110   0.632  1.00  0.00     0.124 C 
ATOM     10  C   UNL     1      -2.594  -2.591   1.221  1.00  0.00     0.011 C 
ATOM     11  C   UNL     1      -2.721   0.036   1.004  1.00  0.00     0.180 C 
ATOM     12  C   UNL     1      -3.386  -1.295   1.372  1.00  0.00     0.046 C 
BRANCH   7  13
ATOM     13  N   UNL     1       0.566  -1.419  -0.448  1.00  0.00    -0.336 N 
ATOM     14  C   UNL     1       1.336  -0.177  -0.352  1.00  0.00     0.331 C 
ATOM     15  H   UNL     1       0.881  -2.040   0.297  1.00  0.00     0.346 HD
ATOM     16  H   UNL     1       0.735  -1.775  -1.389  1.00  0.00     0.346 HD
ENDBRANCH   7  13
BRANCH  11  17
ATOM     17  O   UNL     1      -3.249   0.697  -0.135  1.00  0.00    -0.490 OA
BRANCH  17  18
ATOM     18  C   UNL     1      -4.530   1.128  -0.194  1.00  0.00     0.123 A 
ATOM     19  C   UNL     1      -5.538   0.866   0.725  1.00  0.00     0.047 A 
ATOM     20  C   UNL     1      -4.813   1.714  -1.427  1.00  0.00     0.092 A 
ATOM     21  C   UNL     1      -6.859   1.005   0.325  1.00  0.00     0.008 A 
ATOM     22  C   UNL     1      -6.121   1.813  -1.850  1.00  0.00     0.122 A 
ATOM     23  C   UNL     1      -7.140   1.452  -0.966  1.00  0.00     0.046 A 
BRANCH  22  24
ATOM     24  O   UNL     1      -6.483   2.167  -3.113  1.00  0.00    -0.497 OA
ATOM     25  C   UNL     1      -5.502   2.100  -4.144  1.00  0.00     0.278 C 
ENDBRANCH  22  24
ENDBRANCH  17  18
ENDBRANCH  11  17
ENDBRANCH   4   7
ENDBRANCH   2   3
ENDBRANCH   1   2
BRANCH   1  26
ATOM     26  C   UNL     1      -6.044  -1.697  -3.578  1.00  0.00     0.118 C 
BRANCH  26  27
ATOM     27  N   UNL     1      -7.408  -2.186  -3.310  1.00  0.00    -0.352 N 
ATOM     28  C   UNL     1      -8.698  -1.691  -3.231  1.00  0.00     0.251 C 
ATOM     29  H   UNL     1      -7.399  -3.155  -3.134  1.00  0.00     0.163 HD
ATOM     30  O   UNL     1      -9.573  -2.546  -3.038  1.00  0.00    -0.269 OA
BRANCH  28  31
ATOM     31  C   UNL     1      -9.163  -0.265  -3.288  1.00  0.00     0.039 A 
ATOM     32  C   UNL     1     -10.232   0.108  -2.442  1.00  0.00     0.014 A 
ATOM     33  C   UNL     1      -8.696   0.711  -4.154  1.00  0.00     0.014 A 
ATOM     34  C   UNL     1     -10.725   1.439  -2.370  1.00  0.00     0.010 A 
ATOM     35  C   UNL     1      -9.158   2.059  -4.042  1.00  0.00     0.010 A 
ATOM     36  C   UNL     1     -10.158   2.469  -3.131  1.00  0.00    -0.014 A 
BRANCH  36  37
ATOM     37  C   UNL     1     -10.621   3.919  -3.014  1.00  0.00     0.031 A 
ATOM     38  C   UNL     1     -11.054   4.688  -4.255  1.00  0.00     0.074 A 
ATOM     39  C   UNL     1     -10.639   4.607  -1.841  1.00  0.00     0.049 A 
ATOM     40  N   UNL     1     -11.441   5.939  -4.377  1.00  0.00    -0.248 NA
ATOM     41  C   UNL     1     -11.011   3.963  -5.533  1.00  0.00     0.031 C 
ATOM     42  C   UNL     1     -10.206   4.098  -0.538  1.00  0.00     0.029 A 
ATOM     43  N   UNL     1     -11.037   5.905  -1.550  1.00  0.00    -0.354 N 
ATOM     44  C   UNL     1     -11.643   6.150  -5.740  1.00  0.00     0.074 A 
ATOM     45  C   UNL     1     -11.257   4.926  -6.406  1.00  0.00     0.031 C 
ATOM     46  C   UNL     1     -10.386   5.046   0.402  1.00  0.00     0.029 A 
ATOM     47  C   UNL     1     -10.928   6.256  -0.216  1.00  0.00     0.049 A 
ATOM     48  H   UNL     1     -11.369   6.526  -2.238  1.00  0.00     0.167 HD
ATOM     49  C   UNL     1     -12.147   7.227  -6.396  1.00  0.00     0.031 A 
ATOM     50  C   UNL     1     -11.227   7.399   0.448  1.00  0.00     0.031 A 
ATOM     51  C   UNL     1     -12.598   8.440  -5.768  1.00  0.00     0.049 A 
ATOM     52  C   UNL     1     -11.810   8.585  -0.293  1.00  0.00     0.074 A 
ATOM     53  C   UNL     1     -13.204   9.538  -6.358  1.00  0.00     0.029 A 
ATOM     54  N   UNL     1     -12.503   8.719  -4.415  1.00  0.00    -0.354 N 
ATOM     55  N   UNL     1     -12.079   8.712  -1.569  1.00  0.00    -0.248 NA
ATOM     56  C   UNL     1     -12.149   9.779   0.505  1.00  0.00     0.031 C 
ATOM     57  C   UNL     1     -13.431  10.501  -5.370  1.00  0.00     0.029 A 
ATOM     58  C   UNL     1     -13.025   9.976  -4.155  1.00  0.00     0.049 A 
ATOM     59  H   UNL     1     -12.122   8.113  -3.739  1.00  0.00     0.167 HD
ATOM     60  C   UNL     1     -12.653   9.974  -1.717  1.00  0.00     0.074 A 
ATOM     61  C   UNL     1     -12.704  10.572  -0.403  1.00  0.00     0.031 C 
ATOM     62  C   UNL     1     -13.101  10.575  -2.847  1.00  0.00     0.031 A 
BRANCH  49  63
ATOM     63  C   UNL     1     -12.269   7.128  -7.899  1.00  0.00    -0.014 A 
ATOM     64  C   UNL     1     -13.175   6.229  -8.494  1.00  0.00     0.010 A 
ATOM     65  C   UNL     1     -11.495   7.962  -8.727  1.00  0.00     0.010 A 
ATOM     66  C   UNL     1     -13.254   6.117  -9.883  1.00  0.00     0.020 A 
ATOM     67  C   UNL     1     -11.601   7.881 -10.119  1.00  0.00     0.020 A 
ATOM     68  C   UNL     1     -12.464   6.941 -10.688  1.00  0.00     0.054 A 
BRANCH  68  69
ATOM     69  S   UNL     1     -12.595   6.780 -12.489  1.00  0.00     0.124 S 
ATOM     70  O   UNL     1     -11.930   5.498 -12.724  1.00  0.00    -0.237 OA
ATOM     71  O   UNL     1     -14.044   6.778 -12.703  1.00  0.00    -0.237 OA
ATOM     72  O   UNL     1     -11.894   7.949 -12.998  1.00  0.00    -0.744 OA
ENDBRANCH  68  69
ENDBRANCH  49  63
BRANCH  50  73
ATOM     73  C   UNL     1     -11.023   7.501   1.932  1.00  0.00    -0.014 A 
ATOM     74  C   UNL     1     -12.127   7.578   2.805  1.00  0.00     0.010 A 
ATOM     75  C   UNL     1      -9.729   7.571   2.481  1.00  0.00     0.010 A 
ATOM     76  C   UNL     1     -11.944   7.736   4.185  1.00  0.00     0.020 A 
ATOM     77  C   UNL     1      -9.540   7.698   3.864  1.00  0.00     0.020 A 
ATOM     78  C   UNL     1     -10.649   7.788   4.708  1.00  0.00     0.054 A 
BRANCH  78  79
ATOM     79  S   UNL     1     -10.435   7.925   6.508  1.00  0.00     0.124 S 
ATOM     80  O   UNL     1     -10.850   9.300   6.764  1.00  0.00    -0.237 OA
ATOM     81  O   UNL     1     -11.335   6.889   7.011  1.00  0.00    -0.237 OA
ATOM     82  O   UNL     1      -9.014   7.653   6.706  1.00  0.00    -0.744 OA
ENDBRANCH  78  79
ENDBRANCH  50  73
BRANCH  62  83
ATOM     83  C   UNL     1     -13.749  11.934  -2.734  1.00  0.00    -0.014 A 
ATOM     84  C   UNL     1     -13.000  13.090  -2.451  1.00  0.00     0.010 A 
ATOM     85  C   UNL     1     -15.126  12.066  -3.002  1.00  0.00     0.010 A 
ATOM     86  C   UNL     1     -13.619  14.346  -2.415  1.00  0.00     0.020 A 
ATOM     87  C   UNL     1     -15.743  13.322  -2.995  1.00  0.00     0.020 A 
ATOM     88  C   UNL     1     -14.986  14.454  -2.689  1.00  0.00     0.054 A 
BRANCH  88  89
ATOM     89  S   UNL     1     -15.753  16.099  -2.690  1.00  0.00     0.124 S 
ATOM     90  O   UNL     1     -15.776  16.425  -1.266  1.00  0.00    -0.237 OA
ATOM     91  O   UNL     1     -14.825  16.885  -3.499  1.00  0.00    -0.237 OA
ATOM     92  O   UNL     1     -17.062  15.873  -3.297  1.00  0.00    -0.744 OA
ENDBRANCH  88  89
ENDBRANCH  62  83
ENDBRANCH  36  37
ENDBRANCH  28  31
ENDBRANCH  26  27
ENDBRANCH   1  26
TORSDOF 17
