REMARK SMILES Cc1cc(C)cc(S(=O)(=O)N2CSC[C@H]2C(=O)NCCCNC(=O)c2ccc(-c3c4nc(c(-c5ccc(S(=O)(=O)[O-])cc5)c5ccc([nH]5)c(-c5ccc(S(=O)(=O)[O-])cc5)c5nc(c(-c6ccc(S(=O)(=O)[O-])cc6)c6ccc3[nH]6)C=C5)C=C4)cc2)c1
REMARK SMILES IDX 20 1 19 2 18 3 16 4 17 5 15 7 11 8 12 9 13 10 14 11 8 12
REMARK SMILES IDX 9 13 10 14 7 15 1 16 2 17 3 18 85 19 4 20 5 21 6 22 21 23
REMARK SMILES IDX 22 24 23 25 24 27 25 28 26 29 84 30 27 31 83 32 28 33 29 34
REMARK SMILES IDX 30 35 77 36 31 37 82 38 76 39 78 40 32 41 81 42 75 43 74 44
REMARK SMILES IDX 33 46 63 47 44 48 62 49 45 50 48 51 61 52 79 53 46 54 47 55
REMARK SMILES IDX 60 57 80 58 49 59 34 60 35 61 43 62 36 63 42 64 37 65 38 66
REMARK SMILES IDX 39 67 40 68 41 69 64 70 65 71 73 72 66 73 72 74 67 75 68 76
REMARK SMILES IDX 69 77 70 78 71 79 50 80 51 81 59 82 52 83 58 84 53 85 54 86
REMARK SMILES IDX 55 87 56 88 57 89
REMARK H PARENT 18 6 22 26 78 45 48 56
REMARK Flexibility Score: inf
ROOT
ATOM      1  C   UNL     1       4.127  -6.715   0.792  1.00  0.00     0.042 C 
ENDROOT
BRANCH   1   2
ATOM      2  C   UNL     1       4.510  -5.852  -0.395  1.00  0.00     0.117 C 
BRANCH   2   3
ATOM      3  N   UNL     1       3.532  -5.880  -1.460  1.00  0.00    -0.355 N 
ATOM      4  C   UNL     1       2.699  -4.917  -1.942  1.00  0.00     0.239 C 
ATOM      5  O   UNL     1       2.080  -5.199  -2.973  1.00  0.00    -0.273 OA
ATOM      6  H   UNL     1       3.454  -6.749  -1.916  1.00  0.00     0.163 HD
BRANCH   4   7
ATOM      7  C   UNL     1       2.520  -3.543  -1.282  1.00  0.00     0.173 C 
ATOM      8  N   UNL     1       1.736  -3.621  -0.028  1.00  0.00    -0.175 NA
ATOM      9  C   UNL     1       2.474  -3.327   1.192  1.00  0.00     0.172 C 
ATOM     10  S   UNL     1       4.011  -2.484   0.732  1.00  0.00    -0.143 SA
ATOM     11  C   UNL     1       3.814  -2.765  -1.058  1.00  0.00     0.101 C 
BRANCH   8  12
ATOM     12  S   UNL     1       0.084  -3.283  -0.067  1.00  0.00     0.244 S 
ATOM     13  O   UNL     1      -0.460  -3.710   1.210  1.00  0.00    -0.207 OA
ATOM     14  O   UNL     1      -0.449  -3.765  -1.315  1.00  0.00    -0.207 OA
BRANCH  12  15
ATOM     15  C   UNL     1      -0.086  -1.503  -0.102  1.00  0.00     0.083 A 
ATOM     16  C   UNL     1       2.103   1.603  -0.142  1.00  0.00     0.044 C 
ATOM     17  C   UNL     1       0.883   0.730  -0.122  1.00  0.00    -0.050 A 
ATOM     18  C   UNL     1      -0.397   1.274  -0.027  1.00  0.00     0.007 A 
ATOM     19  C   UNL     1       1.016  -0.656  -0.186  1.00  0.00     0.025 A 
ATOM     20  C   UNL     1      -1.528   0.442   0.021  1.00  0.00    -0.050 A 
ATOM     21  C   UNL     1      -2.890   1.065   0.101  1.00  0.00     0.044 C 
ATOM     22  C   UNL     1      -1.367  -0.952  -0.003  1.00  0.00     0.025 A 
ENDBRANCH  12  15
ENDBRANCH   8  12
ENDBRANCH   4   7
ENDBRANCH   2   3
ENDBRANCH   1   2
BRANCH   1  23
ATOM     23  C   UNL     1       4.561  -8.159   0.618  1.00  0.00     0.118 C 
BRANCH  23  24
ATOM     24  N   UNL     1       6.013  -8.282   0.541  1.00  0.00    -0.352 N 
ATOM     25  C   UNL     1       6.886  -9.005   1.311  1.00  0.00     0.251 C 
ATOM     26  H   UNL     1       6.434  -7.762  -0.181  1.00  0.00     0.163 HD
ATOM     27  O   UNL     1       8.090  -8.780   1.218  1.00  0.00    -0.269 OA
BRANCH  25  28
ATOM     28  C   UNL     1       6.389 -10.042   2.237  1.00  0.00     0.039 A 
ATOM     29  C   UNL     1       7.075 -10.263   3.434  1.00  0.00     0.014 A 
ATOM     30  C   UNL     1       5.290 -10.838   1.904  1.00  0.00     0.014 A 
ATOM     31  C   UNL     1       6.646 -11.268   4.300  1.00  0.00     0.010 A 
ATOM     32  C   UNL     1       4.800 -11.765   2.814  1.00  0.00     0.010 A 
ATOM     33  C   UNL     1       5.499 -12.019   4.000  1.00  0.00    -0.014 A 
BRANCH  33  34
ATOM     34  C   UNL     1       5.066 -13.140   4.865  1.00  0.00     0.031 A 
ATOM     35  C   UNL     1       5.076 -14.544   4.317  1.00  0.00     0.074 A 
ATOM     36  C   UNL     1       4.637 -12.892   6.117  1.00  0.00     0.049 A 
ATOM     37  N   UNL     1       4.686 -15.654   4.886  1.00  0.00    -0.248 NA
ATOM     38  C   UNL     1       5.559 -14.720   2.935  1.00  0.00     0.031 C 
ATOM     39  C   UNL     1       4.536 -11.568   6.736  1.00  0.00     0.029 A 
ATOM     40  N   UNL     1       4.202 -13.749   7.094  1.00  0.00    -0.354 N 
ATOM     41  C   UNL     1       4.861 -16.649   3.931  1.00  0.00     0.074 A 
ATOM     42  C   UNL     1       5.327 -16.006   2.724  1.00  0.00     0.031 C 
ATOM     43  C   UNL     1       4.096 -11.705   7.998  1.00  0.00     0.029 A 
ATOM     44  C   UNL     1       3.856 -13.119   8.265  1.00  0.00     0.049 A 
ATOM     45  H   UNL     1       4.143 -14.724   6.969  1.00  0.00     0.167 HD
ATOM     46  C   UNL     1       4.685 -17.986   4.055  1.00  0.00     0.031 A 
ATOM     47  C   UNL     1       3.398 -13.629   9.424  1.00  0.00     0.031 A 
ATOM     48  C   UNL     1       4.250 -18.624   5.267  1.00  0.00     0.049 A 
ATOM     49  C   UNL     1       3.243 -15.121   9.546  1.00  0.00     0.074 A 
ATOM     50  C   UNL     1       4.065 -19.972   5.514  1.00  0.00     0.029 A 
ATOM     51  N   UNL     1       3.954 -17.955   6.445  1.00  0.00    -0.354 N 
ATOM     52  N   UNL     1       3.449 -16.049   8.642  1.00  0.00    -0.248 NA
ATOM     53  C   UNL     1       2.818 -15.635  10.854  1.00  0.00     0.031 C 
ATOM     54  C   UNL     1       3.631 -20.116   6.837  1.00  0.00     0.029 A 
ATOM     55  C   UNL     1       3.594 -18.862   7.425  1.00  0.00     0.049 A 
ATOM     56  H   UNL     1       3.995 -16.978   6.566  1.00  0.00     0.167 HD
ATOM     57  C   UNL     1       3.208 -17.260   9.282  1.00  0.00     0.074 A 
ATOM     58  C   UNL     1       2.864 -16.944  10.653  1.00  0.00     0.031 C 
ATOM     59  C   UNL     1       3.263 -18.520   8.784  1.00  0.00     0.031 A 
BRANCH  46  60
ATOM     60  C   UNL     1       4.992 -18.842   2.855  1.00  0.00    -0.014 A 
ATOM     61  C   UNL     1       6.318 -19.023   2.422  1.00  0.00     0.010 A 
ATOM     62  C   UNL     1       3.954 -19.504   2.175  1.00  0.00     0.010 A 
ATOM     63  C   UNL     1       6.599 -19.823   1.312  1.00  0.00     0.020 A 
ATOM     64  C   UNL     1       4.234 -20.328   1.080  1.00  0.00     0.020 A 
ATOM     65  C   UNL     1       5.555 -20.471   0.648  1.00  0.00     0.054 A 
BRANCH  65  66
ATOM     66  S   UNL     1       5.955 -21.537  -0.765  1.00  0.00     0.124 S 
ATOM     67  O   UNL     1       6.284 -20.557  -1.797  1.00  0.00    -0.237 OA
ATOM     68  O   UNL     1       7.079 -22.323  -0.264  1.00  0.00    -0.237 OA
ATOM     69  O   UNL     1       4.723 -22.290  -0.990  1.00  0.00    -0.744 OA
ENDBRANCH  65  66
ENDBRANCH  46  60
BRANCH  47  70
ATOM     70  C   UNL     1       3.078 -12.731  10.566  1.00  0.00    -0.014 A 
ATOM     71  C   UNL     1       3.878 -12.726  11.722  1.00  0.00     0.010 A 
ATOM     72  C   UNL     1       1.955 -11.885  10.509  1.00  0.00     0.010 A 
ATOM     73  C   UNL     1       3.537 -11.928  12.817  1.00  0.00     0.020 A 
ATOM     74  C   UNL     1       1.627 -11.063  11.591  1.00  0.00     0.020 A 
ATOM     75  C   UNL     1       2.409 -11.105  12.747  1.00  0.00     0.054 A 
BRANCH  75  76
ATOM     76  S   UNL     1       1.989 -10.067  14.174  1.00  0.00     0.124 S 
ATOM     77  O   UNL     1       1.405 -11.039  15.093  1.00  0.00    -0.237 OA
ATOM     78  O   UNL     1       3.287  -9.524  14.566  1.00  0.00    -0.237 OA
ATOM     79  O   UNL     1       1.056  -9.089  13.619  1.00  0.00    -0.744 OA
ENDBRANCH  75  76
ENDBRANCH  47  70
BRANCH  59  80
ATOM     80  C   UNL     1       2.992 -19.645   9.744  1.00  0.00    -0.014 A 
ATOM     81  C   UNL     1       1.697 -19.892  10.233  1.00  0.00     0.010 A 
ATOM     82  C   UNL     1       4.051 -20.478  10.147  1.00  0.00     0.010 A 
ATOM     83  C   UNL     1       1.477 -20.919  11.153  1.00  0.00     0.020 A 
ATOM     84  C   UNL     1       3.830 -21.524  11.044  1.00  0.00     0.020 A 
ATOM     85  C   UNL     1       2.547 -21.723  11.560  1.00  0.00     0.054 A 
BRANCH  85  86
ATOM     86  S   UNL     1       2.239 -23.053  12.752  1.00  0.00     0.124 S 
ATOM     87  O   UNL     1       2.133 -22.315  14.008  1.00  0.00    -0.237 OA
ATOM     88  O   UNL     1       0.995 -23.644  12.263  1.00  0.00    -0.237 OA
ATOM     89  O   UNL     1       3.417 -23.908  12.628  1.00  0.00    -0.744 OA
ENDBRANCH  85  86
ENDBRANCH  59  80
ENDBRANCH  33  34
ENDBRANCH  25  28
ENDBRANCH  23  24
ENDBRANCH   1  23
TORSDOF 15
