REMARK SMILES CCCc1cc(OCC(=O)NCCCNC(=O)c2ccc(-c3c4nc(c(-c5ccc(S(=O)(=O)[O-])cc5)c5ccc([nH]5)c(-c5ccc(S(=O)(=O)[O-])cc5)c5nc(c(-c6ccc(S(=O)(=O)[O-])cc6)c6ccc3[nH]6)C=C5)C=C4)cc2)nc(Nc2ccc(C#N)cc2)n1
REMARK SMILES IDX 12 1 11 2 9 3 10 4 8 6 7 7 6 8 4 9 5 10 89 11 79 12 78 13
REMARK SMILES IDX 3 14 2 15 1 16 80 17 81 19 82 20 88 21 83 22 87 23 84 24
REMARK SMILES IDX 85 25 86 26 13 27 14 28 15 29 16 30 17 32 18 33 19 34 77 35
REMARK SMILES IDX 20 36 76 37 21 38 22 39 23 40 70 41 24 42 75 43 69 44 71 45
REMARK SMILES IDX 25 46 74 47 68 48 67 49 26 51 56 52 37 53 55 54 38 55 41 56
REMARK SMILES IDX 54 57 72 58 39 59 40 60 53 62 73 63 42 64 27 65 28 66 36 67
REMARK SMILES IDX 29 68 35 69 30 70 31 71 32 72 33 73 34 74 57 75 58 76 66 77
REMARK SMILES IDX 59 78 65 79 60 80 61 81 62 82 63 83 64 84 43 85 44 86 52 87
REMARK SMILES IDX 45 88 51 89 46 90 47 91 48 92 49 93 50 94
REMARK H PARENT 11 5 80 18 15 31 71 50 41 61
REMARK Flexibility Score: inf
ROOT
ATOM      1  C   UNL     1      -3.961  -1.794   6.043  1.00  0.00     0.117 C 
ENDROOT
BRANCH   1   2
ATOM      2  N   UNL     1      -3.502  -2.821   5.127  1.00  0.00    -0.353 N 
ATOM      3  C   UNL     1      -2.259  -3.373   5.035  1.00  0.00     0.258 C 
ATOM      4  O   UNL     1      -2.064  -4.273   4.214  1.00  0.00    -0.271 OA
ATOM      5  H   UNL     1      -4.173  -3.163   4.492  1.00  0.00     0.163 HD
BRANCH   3   6
ATOM      6  C   UNL     1      -1.139  -2.882   5.960  1.00  0.00     0.331 C 
BRANCH   6   7
ATOM      7  O   UNL     1      -0.797  -1.510   5.868  1.00  0.00    -0.467 OA
BRANCH   7   8
ATOM      8  C   UNL     1      -0.240  -1.060   4.703  1.00  0.00     0.218 A 
ATOM      9  C   UNL     1       0.585  -1.219   2.519  1.00  0.00     0.050 A 
ATOM     10  C   UNL     1       0.101  -1.859   3.634  1.00  0.00     0.092 A 
ATOM     11  N   UNL     1       0.760   0.109   2.501  1.00  0.00    -0.218 NA
ATOM     12  C   UNL     1       0.436   0.826   3.589  1.00  0.00     0.230 A 
ATOM     13  N   UNL     1      -0.055   0.274   4.704  1.00  0.00    -0.177 NA
BRANCH   9  14
ATOM     14  C   UNL     1       1.025  -2.002   1.307  1.00  0.00     0.056 C 
BRANCH  14  15
ATOM     15  C   UNL     1       0.429  -1.535  -0.026  1.00  0.00     0.003 C 
ATOM     16  C   UNL     1       0.943  -0.184  -0.501  1.00  0.00     0.004 C 
ENDBRANCH  14  15
ENDBRANCH   9  14
BRANCH  12  17
ATOM     17  N   UNL     1       0.681   2.200   3.583  1.00  0.00    -0.324 N 
ATOM     18  H   UNL     1       0.549   2.679   4.433  1.00  0.00     0.170 HD
BRANCH  17  19
ATOM     19  C   UNL     1       1.096   2.961   2.486  1.00  0.00     0.041 A 
ATOM     20  C   UNL     1       2.342   3.595   2.485  1.00  0.00     0.027 A 
ATOM     21  C   UNL     1       0.333   2.984   1.310  1.00  0.00     0.027 A 
ATOM     22  C   UNL     1       2.845   4.171   1.310  1.00  0.00     0.021 A 
ATOM     23  C   UNL     1       0.822   3.570   0.139  1.00  0.00     0.021 A 
ATOM     24  C   UNL     1       2.095   4.139   0.129  1.00  0.00     0.052 A 
BRANCH  24  25
ATOM     25  C   UNL     1       2.649   4.633  -1.096  1.00  0.00     0.099 C 
ATOM     26  N   UNL     1       3.117   4.997  -2.096  1.00  0.00    -0.192 NA
ENDBRANCH  24  25
ENDBRANCH  17  19
ENDBRANCH  12  17
ENDBRANCH   7   8
ENDBRANCH   6   7
ENDBRANCH   3   6
ENDBRANCH   1   2
BRANCH   1  27
ATOM     27  C   UNL     1      -4.223  -0.463   5.349  1.00  0.00     0.042 C 
BRANCH  27  28
ATOM     28  C   UNL     1      -5.316  -0.512   4.285  1.00  0.00     0.118 C 
BRANCH  28  29
ATOM     29  N   UNL     1      -6.608  -0.931   4.814  1.00  0.00    -0.352 N 
ATOM     30  C   UNL     1      -7.811  -0.271   4.856  1.00  0.00     0.251 C 
ATOM     31  H   UNL     1      -6.619  -1.835   5.206  1.00  0.00     0.163 HD
ATOM     32  O   UNL     1      -8.732  -0.744   5.518  1.00  0.00    -0.269 OA
BRANCH  30  33
ATOM     33  C   UNL     1      -8.001   1.006   4.133  1.00  0.00     0.039 A 
ATOM     34  C   UNL     1      -8.707   2.035   4.760  1.00  0.00     0.014 A 
ATOM     35  C   UNL     1      -7.507   1.188   2.839  1.00  0.00     0.014 A 
ATOM     36  C   UNL     1      -8.851   3.269   4.120  1.00  0.00     0.010 A 
ATOM     37  C   UNL     1      -7.579   2.443   2.238  1.00  0.00     0.010 A 
ATOM     38  C   UNL     1      -8.248   3.499   2.872  1.00  0.00    -0.014 A 
BRANCH  38  39
ATOM     39  C   UNL     1      -8.287   4.842   2.234  1.00  0.00     0.031 A 
ATOM     40  C   UNL     1      -8.955   5.034   0.898  1.00  0.00     0.074 A 
ATOM     41  C   UNL     1      -7.663   5.879   2.832  1.00  0.00     0.049 A 
ATOM     42  N   UNL     1      -9.032   6.116   0.166  1.00  0.00    -0.248 NA
ATOM     43  C   UNL     1      -9.605   3.858   0.297  1.00  0.00     0.031 C 
ATOM     44  C   UNL     1      -6.951   5.815   4.111  1.00  0.00     0.029 A 
ATOM     45  N   UNL     1      -7.519   7.188   2.441  1.00  0.00    -0.354 N 
ATOM     46  C   UNL     1      -9.722   5.749  -0.984  1.00  0.00     0.074 A 
ATOM     47  C   UNL     1     -10.005   4.335  -0.873  1.00  0.00     0.031 C 
ATOM     48  C   UNL     1      -6.469   7.032   4.410  1.00  0.00     0.029 A 
ATOM     49  C   UNL     1      -6.785   7.951   3.321  1.00  0.00     0.049 A 
ATOM     50  H   UNL     1      -7.905   7.547   1.610  1.00  0.00     0.167 HD
ATOM     51  C   UNL     1     -10.096   6.523  -2.031  1.00  0.00     0.031 A 
ATOM     52  C   UNL     1      -6.390   9.237   3.253  1.00  0.00     0.031 A 
ATOM     53  C   UNL     1      -9.814   7.931  -2.135  1.00  0.00     0.049 A 
ATOM     54  C   UNL     1      -6.790  10.063   2.059  1.00  0.00     0.074 A 
ATOM     55  C   UNL     1     -10.204   8.811  -3.131  1.00  0.00     0.029 A 
ATOM     56  N   UNL     1      -9.068   8.664  -1.225  1.00  0.00    -0.354 N 
ATOM     57  N   UNL     1      -7.511   9.714   1.020  1.00  0.00    -0.248 NA
ATOM     58  C   UNL     1      -6.334  11.460   2.034  1.00  0.00     0.031 C 
ATOM     59  C   UNL     1      -9.627  10.055  -2.864  1.00  0.00     0.029 A 
ATOM     60  C   UNL     1      -8.952   9.975  -1.657  1.00  0.00     0.049 A 
ATOM     61  H   UNL     1      -8.679   8.306  -0.395  1.00  0.00     0.167 HD
ATOM     62  C   UNL     1      -7.620  10.858   0.235  1.00  0.00     0.074 A 
ATOM     63  C   UNL     1      -6.913  11.912   0.931  1.00  0.00     0.031 C 
ATOM     64  C   UNL     1      -8.249  11.019  -0.955  1.00  0.00     0.031 A 
BRANCH  51  65
ATOM     65  C   UNL     1     -10.841   5.869  -3.167  1.00  0.00    -0.014 A 
ATOM     66  C   UNL     1     -12.161   5.410  -3.009  1.00  0.00     0.010 A 
ATOM     67  C   UNL     1     -10.241   5.797  -4.439  1.00  0.00     0.010 A 
ATOM     68  C   UNL     1     -12.858   4.873  -4.095  1.00  0.00     0.020 A 
ATOM     69  C   UNL     1     -10.946   5.292  -5.535  1.00  0.00     0.020 A 
ATOM     70  C   UNL     1     -12.249   4.825  -5.353  1.00  0.00     0.054 A 
BRANCH  70  71
ATOM     71  S   UNL     1     -13.204   4.182  -6.755  1.00  0.00     0.124 S 
ATOM     72  O   UNL     1     -13.322   2.766  -6.416  1.00  0.00    -0.237 OA
ATOM     73  O   UNL     1     -14.442   4.952  -6.675  1.00  0.00    -0.237 OA
ATOM     74  O   UNL     1     -12.363   4.475  -7.913  1.00  0.00    -0.744 OA
ENDBRANCH  70  71
ENDBRANCH  51  65
BRANCH  52  75
ATOM     75  C   UNL     1      -5.545   9.824   4.334  1.00  0.00    -0.014 A 
ATOM     76  C   UNL     1      -6.028  10.868   5.144  1.00  0.00     0.010 A 
ATOM     77  C   UNL     1      -4.235   9.354   4.540  1.00  0.00     0.010 A 
ATOM     78  C   UNL     1      -5.205  11.455   6.110  1.00  0.00     0.020 A 
ATOM     79  C   UNL     1      -3.423   9.911   5.532  1.00  0.00     0.020 A 
ATOM     80  C   UNL     1      -3.907  10.972   6.298  1.00  0.00     0.054 A 
BRANCH  80  81
ATOM     81  S   UNL     1      -2.865  11.735   7.571  1.00  0.00     0.124 S 
ATOM     82  O   UNL     1      -2.590  13.046   6.994  1.00  0.00    -0.237 OA
ATOM     83  O   UNL     1      -3.741  11.727   8.740  1.00  0.00    -0.237 OA
ATOM     84  O   UNL     1      -1.716  10.835   7.657  1.00  0.00    -0.744 OA
ENDBRANCH  80  81
ENDBRANCH  52  75
BRANCH  64  85
ATOM     85  C   UNL     1      -8.245  12.398  -1.565  1.00  0.00    -0.014 A 
ATOM     86  C   UNL     1      -7.067  12.979  -2.068  1.00  0.00     0.010 A 
ATOM     87  C   UNL     1      -9.458  13.103  -1.684  1.00  0.00     0.010 A 
ATOM     88  C   UNL     1      -7.097  14.253  -2.643  1.00  0.00     0.020 A 
ATOM     89  C   UNL     1      -9.498  14.359  -2.293  1.00  0.00     0.020 A 
ATOM     90  C   UNL     1      -8.313  14.933  -2.755  1.00  0.00     0.054 A 
BRANCH  90  91
ATOM     91  S   UNL     1      -8.329  16.565  -3.545  1.00  0.00     0.124 S 
ATOM     92  O   UNL     1      -7.635  17.388  -2.558  1.00  0.00    -0.237 OA
ATOM     93  O   UNL     1      -7.600  16.324  -4.788  1.00  0.00    -0.237 OA
ATOM     94  O   UNL     1      -9.751  16.858  -3.710  1.00  0.00    -0.744 OA
ENDBRANCH  90  91
ENDBRANCH  64  85
ENDBRANCH  38  39
ENDBRANCH  30  33
ENDBRANCH  28  29
ENDBRANCH  27  28
ENDBRANCH   1  27
TORSDOF 20
