REMARK SMILES Cc1n[nH]c(CCC(=O)NCCCNC(=O)c2ccc(-c3c4nc(c(-c5ccc(S(=O)(=O)[O-])cc5)c5ccc([nH]5)c(-c5ccc(S(=O)(=O)[O-])cc5)c5nc(c(-c6ccc(S(=O)(=O)[O-])cc6)c6ccc3[nH]6)C=C5)C=C4)cc2)c1C
REMARK SMILES IDX 12 1 11 2 10 3 8 4 9 5 7 7 6 8 5 9 1 10 2 11 3 12 77 13 4 14
REMARK SMILES IDX 78 15 13 17 14 18 15 19 16 21 17 22 18 23 76 24 19 25 75 26
REMARK SMILES IDX 20 27 21 28 22 29 69 30 23 31 74 32 68 33 70 34 24 35 73 36
REMARK SMILES IDX 67 37 66 38 25 40 55 41 36 42 54 43 37 44 40 45 53 46 71 47
REMARK SMILES IDX 38 48 39 49 52 51 72 52 41 53 26 54 27 55 35 56 28 57 34 58
REMARK SMILES IDX 29 59 30 60 31 61 32 62 33 63 56 64 57 65 65 66 58 67 64 68
REMARK SMILES IDX 59 69 60 70 61 71 62 72 63 73 42 74 43 75 51 76 44 77 50 78
REMARK SMILES IDX 45 79 46 80 47 81 48 82 49 83
REMARK H PARENT 10 6 4 16 14 20 70 39 40 50
REMARK Flexibility Score: inf
ROOT
ATOM      1  C   UNL     1       1.189  -0.396   2.191  1.00  0.00     0.042 C 
ENDROOT
BRANCH   1   2
ATOM      2  C   UNL     1       0.910  -0.971   3.571  1.00  0.00     0.117 C 
BRANCH   2   3
ATOM      3  N   UNL     1      -0.495  -0.916   3.951  1.00  0.00    -0.356 N 
ATOM      4  C   UNL     1      -1.438  -1.894   4.037  1.00  0.00     0.220 C 
ATOM      5  O   UNL     1      -2.569  -1.576   4.413  1.00  0.00    -0.275 OA
ATOM      6  H   UNL     1      -0.818  -0.016   4.186  1.00  0.00     0.163 HD
BRANCH   4   7
ATOM      7  C   UNL     1      -1.117  -3.337   3.708  1.00  0.00     0.106 C 
BRANCH   7   8
ATOM      8  C   UNL     1      -1.788  -3.809   2.415  1.00  0.00     0.066 C 
BRANCH   8   9
ATOM      9  C   UNL     1      -1.070  -3.339   1.195  1.00  0.00     0.039 A 
ATOM     10  C   UNL     1       0.367  -1.173  -1.393  1.00  0.00     0.069 C 
ATOM     11  C   UNL     1      -0.114  -2.249  -0.484  1.00  0.00     0.062 A 
ATOM     12  N   UNL     1       0.631  -3.346  -0.301  1.00  0.00    -0.181 NA
ATOM     13  C   UNL     1      -1.246  -2.228   0.387  1.00  0.00    -0.007 A 
ATOM     14  N   UNL     1       0.004  -4.009   0.678  1.00  0.00    -0.282 N 
ATOM     15  C   UNL     1      -2.291  -1.178   0.505  1.00  0.00     0.048 C 
ATOM     16  H   UNL     1       0.288  -4.896   0.996  1.00  0.00     0.190 HD
ENDBRANCH   8   9
ENDBRANCH   7   8
ENDBRANCH   4   7
ENDBRANCH   2   3
ENDBRANCH   1   2
BRANCH   1  17
ATOM     17  C   UNL     1       0.807   1.060   2.013  1.00  0.00     0.118 C 
BRANCH  17  18
ATOM     18  N   UNL     1       1.914   1.878   1.548  1.00  0.00    -0.352 N 
ATOM     19  C   UNL     1       1.944   2.949   0.680  1.00  0.00     0.251 C 
ATOM     20  H   UNL     1       2.791   1.625   1.916  1.00  0.00     0.163 HD
ATOM     21  O   UNL     1       3.035   3.334   0.279  1.00  0.00    -0.269 OA
BRANCH  19  22
ATOM     22  C   UNL     1       0.702   3.645   0.245  1.00  0.00     0.039 A 
ATOM     23  C   UNL     1       0.768   4.559  -0.818  1.00  0.00     0.014 A 
ATOM     24  C   UNL     1      -0.514   3.467   0.906  1.00  0.00     0.014 A 
ATOM     25  C   UNL     1      -0.366   5.292  -1.168  1.00  0.00     0.010 A 
ATOM     26  C   UNL     1      -1.663   4.073   0.468  1.00  0.00     0.010 A 
ATOM     27  C   UNL     1      -1.574   5.056  -0.498  1.00  0.00    -0.014 A 
BRANCH  27  28
ATOM     28  C   UNL     1      -2.815   5.714  -0.880  1.00  0.00     0.031 A 
ATOM     29  C   UNL     1      -3.192   5.413  -2.278  1.00  0.00     0.074 A 
ATOM     30  C   UNL     1      -3.645   6.326  -0.004  1.00  0.00     0.049 A 
ATOM     31  N   UNL     1      -3.009   6.170  -3.307  1.00  0.00    -0.248 NA
ATOM     32  C   UNL     1      -3.583   4.032  -2.616  1.00  0.00     0.031 C 
ATOM     33  C   UNL     1      -3.519   6.395   1.459  1.00  0.00     0.029 A 
ATOM     34  N   UNL     1      -4.845   6.933  -0.221  1.00  0.00    -0.354 N 
ATOM     35  C   UNL     1      -3.564   5.473  -4.370  1.00  0.00     0.074 A 
ATOM     36  C   UNL     1      -3.627   4.098  -3.949  1.00  0.00     0.031 C 
ATOM     37  C   UNL     1      -4.691   6.801   2.001  1.00  0.00     0.029 A 
ATOM     38  C   UNL     1      -5.597   7.177   0.930  1.00  0.00     0.049 A 
ATOM     39  H   UNL     1      -5.158   7.181  -1.121  1.00  0.00     0.167 HD
ATOM     40  C   UNL     1      -4.259   6.136  -5.336  1.00  0.00     0.031 A 
ATOM     41  C   UNL     1      -6.873   7.644   0.994  1.00  0.00     0.031 A 
ATOM     42  C   UNL     1      -4.057   7.563  -5.223  1.00  0.00     0.049 A 
ATOM     43  C   UNL     1      -7.140   8.314  -0.299  1.00  0.00     0.074 A 
ATOM     44  C   UNL     1      -2.973   8.414  -5.271  1.00  0.00     0.029 A 
ATOM     45  N   UNL     1      -5.068   8.243  -4.585  1.00  0.00    -0.354 N 
ATOM     46  N   UNL     1      -6.535   9.404  -0.678  1.00  0.00    -0.248 NA
ATOM     47  C   UNL     1      -7.764   7.544  -1.362  1.00  0.00     0.031 C 
ATOM     48  C   UNL     1      -3.257   9.439  -4.322  1.00  0.00     0.029 A 
ATOM     49  C   UNL     1      -4.535   9.227  -3.800  1.00  0.00     0.049 A 
ATOM     50  H   UNL     1      -6.029   8.051  -4.679  1.00  0.00     0.167 HD
ATOM     51  C   UNL     1      -6.299   9.217  -2.031  1.00  0.00     0.074 A 
ATOM     52  C   UNL     1      -7.194   8.127  -2.419  1.00  0.00     0.031 C 
ATOM     53  C   UNL     1      -5.194   9.759  -2.622  1.00  0.00     0.031 A 
BRANCH  40  54
ATOM     54  C   UNL     1      -5.493   5.576  -6.016  1.00  0.00    -0.014 A 
ATOM     55  C   UNL     1      -6.165   6.395  -6.948  1.00  0.00     0.010 A 
ATOM     56  C   UNL     1      -6.174   4.420  -5.584  1.00  0.00     0.010 A 
ATOM     57  C   UNL     1      -7.475   6.115  -7.356  1.00  0.00     0.020 A 
ATOM     58  C   UNL     1      -7.464   4.108  -6.017  1.00  0.00     0.020 A 
ATOM     59  C   UNL     1      -8.118   4.975  -6.879  1.00  0.00     0.054 A 
BRANCH  59  60
ATOM     60  S   UNL     1      -9.828   4.653  -7.366  1.00  0.00     0.124 S 
ATOM     61  O   UNL     1     -10.534   5.763  -6.735  1.00  0.00    -0.237 OA
ATOM     62  O   UNL     1      -9.744   4.698  -8.823  1.00  0.00    -0.237 OA
ATOM     63  O   UNL     1     -10.100   3.332  -6.803  1.00  0.00    -0.744 OA
ENDBRANCH  59  60
ENDBRANCH  40  54
BRANCH  41  64
ATOM     64  C   UNL     1      -7.967   7.361   1.963  1.00  0.00    -0.014 A 
ATOM     65  C   UNL     1      -9.157   8.122   1.958  1.00  0.00     0.010 A 
ATOM     66  C   UNL     1      -7.981   6.147   2.676  1.00  0.00     0.010 A 
ATOM     67  C   UNL     1     -10.334   7.646   2.566  1.00  0.00     0.020 A 
ATOM     68  C   UNL     1      -9.150   5.669   3.290  1.00  0.00     0.020 A 
ATOM     69  C   UNL     1     -10.329   6.407   3.207  1.00  0.00     0.054 A 
BRANCH  69  70
ATOM     70  S   UNL     1     -11.896   5.701   3.811  1.00  0.00     0.124 S 
ATOM     71  O   UNL     1     -12.200   6.549   4.960  1.00  0.00    -0.237 OA
ATOM     72  O   UNL     1     -12.782   5.855   2.660  1.00  0.00    -0.237 OA
ATOM     73  O   UNL     1     -11.547   4.319   4.137  1.00  0.00    -0.744 OA
ENDBRANCH  69  70
ENDBRANCH  41  64
BRANCH  53  74
ATOM     74  C   UNL     1      -4.497  10.903  -1.924  1.00  0.00    -0.014 A 
ATOM     75  C   UNL     1      -3.881  10.826  -0.660  1.00  0.00     0.010 A 
ATOM     76  C   UNL     1      -4.363  12.091  -2.664  1.00  0.00     0.010 A 
ATOM     77  C   UNL     1      -3.170  11.924  -0.146  1.00  0.00     0.020 A 
ATOM     78  C   UNL     1      -3.640  13.175  -2.170  1.00  0.00     0.020 A 
ATOM     79  C   UNL     1      -3.056  13.093  -0.907  1.00  0.00     0.054 A 
BRANCH  79  80
ATOM     80  S   UNL     1      -2.114  14.503  -0.262  1.00  0.00     0.124 S 
ATOM     81  O   UNL     1      -2.943  14.957   0.850  1.00  0.00    -0.237 OA
ATOM     82  O   UNL     1      -0.837  13.899   0.110  1.00  0.00    -0.237 OA
ATOM     83  O   UNL     1      -2.045  15.425  -1.396  1.00  0.00    -0.744 OA
ENDBRANCH  79  80
ENDBRANCH  53  74
ENDBRANCH  27  28
ENDBRANCH  19  22
ENDBRANCH  17  18
ENDBRANCH   1  17
TORSDOF 15
