REMARK SMILES CC(=O)c1nnn(-c2ccc(C(=O)NCCCNC(=O)c3ccc(-c4c5nc(c(-c6ccc(S(=O)(=O)[O-])cc6)c6ccc([nH]6)c(-c6ccc(S(=O)(=O)[O-])cc6)c6nc(c(-c7ccc(S(=O)(=O)[O-])cc7)c7ccc4[nH]7)C=C6)C=C5)cc3)cc2)c1C
REMARK SMILES IDX 16 1 15 2 14 3 12 4 13 5 11 7 8 8 9 9 82 10 10 11 81 12 7 13
REMARK SMILES IDX 4 14 5 15 83 16 6 17 84 18 2 19 1 20 3 21 17 22 18 23 19 24
REMARK SMILES IDX 20 26 21 27 22 28 80 29 23 30 79 31 24 32 25 33 26 34 73 35
REMARK SMILES IDX 27 36 78 37 72 38 74 39 28 40 77 41 71 42 70 43 29 45 59 46
REMARK SMILES IDX 40 47 58 48 41 49 44 50 57 51 75 52 42 53 43 54 56 56 76 57
REMARK SMILES IDX 45 58 30 59 31 60 39 61 32 62 38 63 33 64 34 65 35 66 36 67
REMARK SMILES IDX 37 68 60 69 61 70 69 71 62 72 68 73 63 74 64 75 65 76 66 77
REMARK SMILES IDX 67 78 46 79 47 80 55 81 48 82 54 83 49 84 50 85 51 86 52 87
REMARK SMILES IDX 53 88
REMARK H PARENT 14 6 18 25 74 44 44 55
REMARK Flexibility Score: inf
ROOT
ATOM      1  C   UNL     1       8.208  -2.640   6.218  1.00  0.00     0.042 C 
ENDROOT
BRANCH   1   2
ATOM      2  C   UNL     1       8.279  -3.139   4.767  1.00  0.00     0.118 C 
BRANCH   2   3
ATOM      3  N   UNL     1       8.039  -4.572   4.666  1.00  0.00    -0.352 N 
ATOM      4  C   UNL     1       6.907  -5.304   4.392  1.00  0.00     0.251 C 
ATOM      5  O   UNL     1       7.027  -6.519   4.246  1.00  0.00    -0.269 OA
ATOM      6  H   UNL     1       8.840  -5.122   4.824  1.00  0.00     0.163 HD
BRANCH   4   7
ATOM      7  C   UNL     1       5.567  -4.683   4.191  1.00  0.00     0.039 A 
ATOM      8  C   UNL     1       3.159  -3.473   3.471  1.00  0.00     0.067 A 
ATOM      9  C   UNL     1       3.404  -4.784   3.063  1.00  0.00     0.029 A 
ATOM     10  C   UNL     1       4.028  -2.821   4.343  1.00  0.00     0.029 A 
ATOM     11  C   UNL     1       4.627  -5.373   3.402  1.00  0.00     0.016 A 
ATOM     12  C   UNL     1       5.203  -3.451   4.733  1.00  0.00     0.016 A 
BRANCH   8  13
ATOM     13  N   UNL     1       2.079  -2.753   2.938  1.00  0.00    -0.217 N 
ATOM     14  C   UNL     1       0.802  -1.232   2.056  1.00  0.00     0.151 A 
ATOM     15  N   UNL     1       0.018  -2.247   2.539  1.00  0.00    -0.126 NA
ATOM     16  C   UNL     1       2.134  -1.543   2.265  1.00  0.00     0.073 A 
ATOM     17  N   UNL     1       0.815  -3.213   2.978  1.00  0.00    -0.061 NA
ATOM     18  C   UNL     1       3.397  -0.894   1.831  1.00  0.00     0.069 C 
BRANCH  14  19
ATOM     19  C   UNL     1       0.240  -0.087   1.360  1.00  0.00     0.181 C 
ATOM     20  C   UNL     1       0.611   0.081  -0.092  1.00  0.00     0.095 C 
ATOM     21  O   UNL     1      -0.525   0.702   1.912  1.00  0.00    -0.293 OA
ENDBRANCH  14  19
ENDBRANCH   8  13
ENDBRANCH   4   7
ENDBRANCH   2   3
ENDBRANCH   1   2
BRANCH   1  22
ATOM     22  C   UNL     1       9.527  -2.810   6.944  1.00  0.00     0.118 C 
BRANCH  22  23
ATOM     23  N   UNL     1      10.545  -1.864   6.476  1.00  0.00    -0.352 N 
ATOM     24  C   UNL     1      11.852  -1.717   6.913  1.00  0.00     0.251 C 
ATOM     25  H   UNL     1      10.263  -1.253   5.757  1.00  0.00     0.163 HD
ATOM     26  O   UNL     1      12.468  -0.687   6.701  1.00  0.00    -0.269 OA
BRANCH  24  27
ATOM     27  C   UNL     1      12.478  -2.844   7.629  1.00  0.00     0.039 A 
ATOM     28  C   UNL     1      13.348  -2.660   8.709  1.00  0.00     0.014 A 
ATOM     29  C   UNL     1      12.137  -4.121   7.202  1.00  0.00     0.014 A 
ATOM     30  C   UNL     1      13.811  -3.784   9.393  1.00  0.00     0.010 A 
ATOM     31  C   UNL     1      12.398  -5.189   8.005  1.00  0.00     0.010 A 
ATOM     32  C   UNL     1      13.317  -5.045   9.035  1.00  0.00    -0.014 A 
BRANCH  32  33
ATOM     33  C   UNL     1      13.634  -6.262   9.768  1.00  0.00     0.031 A 
ATOM     34  C   UNL     1      13.173  -6.244  11.181  1.00  0.00     0.074 A 
ATOM     35  C   UNL     1      14.005  -7.386   9.111  1.00  0.00     0.049 A 
ATOM     36  N   UNL     1      13.901  -6.228  12.247  1.00  0.00    -0.248 NA
ATOM     37  C   UNL     1      11.736  -6.029  11.444  1.00  0.00     0.031 C 
ATOM     38  C   UNL     1      14.164  -7.572   7.658  1.00  0.00     0.029 A 
ATOM     39  N   UNL     1      14.160  -8.652   9.576  1.00  0.00    -0.354 N 
ATOM     40  C   UNL     1      13.005  -6.279  13.311  1.00  0.00     0.074 A 
ATOM     41  C   UNL     1      11.727  -5.895  12.772  1.00  0.00     0.031 C 
ATOM     42  C   UNL     1      14.122  -8.889   7.359  1.00  0.00     0.029 A 
ATOM     43  C   UNL     1      14.103  -9.645   8.597  1.00  0.00     0.049 A 
ATOM     44  H   UNL     1      14.302  -8.854  10.529  1.00  0.00     0.167 HD
ATOM     45  C   UNL     1      13.316  -6.939  14.464  1.00  0.00     0.031 A 
ATOM     46  C   UNL     1      14.005 -10.987   8.793  1.00  0.00     0.031 A 
ATOM     47  C   UNL     1      14.721  -7.264  14.513  1.00  0.00     0.049 A 
ATOM     48  C   UNL     1      14.427 -11.241  10.194  1.00  0.00     0.074 A 
ATOM     49  C   UNL     1      15.890  -6.531  14.453  1.00  0.00     0.029 A 
ATOM     50  N   UNL     1      15.065  -8.560  14.197  1.00  0.00    -0.354 N 
ATOM     51  N   UNL     1      15.642 -11.027  10.618  1.00  0.00    -0.248 NA
ATOM     52  C   UNL     1      13.399 -11.241  11.224  1.00  0.00     0.031 C 
ATOM     53  C   UNL     1      16.767  -7.311  13.643  1.00  0.00     0.029 A 
ATOM     54  C   UNL     1      16.132  -8.517  13.338  1.00  0.00     0.049 A 
ATOM     55  H   UNL     1      14.622  -9.374  14.529  1.00  0.00     0.167 HD
ATOM     56  C   UNL     1      15.480 -10.416  11.855  1.00  0.00     0.074 A 
ATOM     57  C   UNL     1      14.085 -10.669  12.220  1.00  0.00     0.031 C 
ATOM     58  C   UNL     1      16.394  -9.512  12.319  1.00  0.00     0.031 A 
BRANCH  45  59
ATOM     59  C   UNL     1      12.305  -7.687  15.307  1.00  0.00    -0.014 A 
ATOM     60  C   UNL     1      12.762  -8.357  16.461  1.00  0.00     0.010 A 
ATOM     61  C   UNL     1      11.001  -7.998  14.868  1.00  0.00     0.010 A 
ATOM     62  C   UNL     1      11.997  -9.357  17.074  1.00  0.00     0.020 A 
ATOM     63  C   UNL     1      10.212  -8.961  15.499  1.00  0.00     0.020 A 
ATOM     64  C   UNL     1      10.733  -9.665  16.574  1.00  0.00     0.054 A 
BRANCH  64  65
ATOM     65  S   UNL     1       9.805 -11.040  17.292  1.00  0.00     0.124 S 
ATOM     66  O   UNL     1      10.640 -12.182  16.935  1.00  0.00    -0.237 OA
ATOM     67  O   UNL     1       9.781 -10.687  18.709  1.00  0.00    -0.237 OA
ATOM     68  O   UNL     1       8.512 -10.969  16.614  1.00  0.00    -0.744 OA
ENDBRANCH  64  65
ENDBRANCH  45  59
BRANCH  46  69
ATOM     69  C   UNL     1      13.309 -12.010   7.964  1.00  0.00    -0.014 A 
ATOM     70  C   UNL     1      13.508 -13.389   8.177  1.00  0.00     0.010 A 
ATOM     71  C   UNL     1      12.227 -11.634   7.142  1.00  0.00     0.010 A 
ATOM     72  C   UNL     1      12.621 -14.347   7.645  1.00  0.00     0.020 A 
ATOM     73  C   UNL     1      11.342 -12.581   6.605  1.00  0.00     0.020 A 
ATOM     74  C   UNL     1      11.527 -13.933   6.881  1.00  0.00     0.054 A 
BRANCH  74  75
ATOM     75  S   UNL     1      10.277 -15.151   6.361  1.00  0.00     0.124 S 
ATOM     76  O   UNL     1      10.990 -15.917   5.343  1.00  0.00    -0.237 OA
ATOM     77  O   UNL     1       9.989 -15.864   7.602  1.00  0.00    -0.237 OA
ATOM     78  O   UNL     1       9.180 -14.325   5.858  1.00  0.00    -0.744 OA
ENDBRANCH  74  75
ENDBRANCH  46  69
BRANCH  58  79
ATOM     79  C   UNL     1      17.712  -9.378  11.584  1.00  0.00    -0.014 A 
ATOM     80  C   UNL     1      17.831  -8.956  10.243  1.00  0.00     0.010 A 
ATOM     81  C   UNL     1      18.885  -9.531  12.341  1.00  0.00     0.010 A 
ATOM     82  C   UNL     1      19.094  -8.724   9.673  1.00  0.00     0.020 A 
ATOM     83  C   UNL     1      20.142  -9.283  11.786  1.00  0.00     0.020 A 
ATOM     84  C   UNL     1      20.243  -8.892  10.451  1.00  0.00     0.054 A 
BRANCH  84  85
ATOM     85  S   UNL     1      21.874  -8.563   9.726  1.00  0.00     0.124 S 
ATOM     86  O   UNL     1      22.018  -9.651   8.763  1.00  0.00    -0.237 OA
ATOM     87  O   UNL     1      21.713  -7.230   9.151  1.00  0.00    -0.237 OA
ATOM     88  O   UNL     1      22.783  -8.628  10.871  1.00  0.00    -0.744 OA
ENDBRANCH  84  85
ENDBRANCH  58  79
ENDBRANCH  32  33
ENDBRANCH  24  27
ENDBRANCH  22  23
ENDBRANCH   1  22
TORSDOF 15
