REMARK SMILES O=C(CSC(=S)N1CCCCC1)NCCCNC(=O)c1ccc(-c2c3nc(c(-c4ccc(S(=O)(=O)[O-])cc4)c4ccc([nH]4)c(-c4ccc(S(=O)(=O)[O-])cc4)c4nc(c(-c5ccc(S(=O)(=O)[O-])cc5)c5ccc2[nH]5)C=C4)C=C3)cc1
REMARK SMILES IDX 15 1 14 2 13 3 1 4 2 5 3 7 4 8 5 9 6 10 7 11 8 12 12 13 9 14
REMARK SMILES IDX 11 15 10 16 16 17 17 18 18 19 19 21 20 22 21 23 79 24 22 25
REMARK SMILES IDX 78 26 23 27 24 28 25 29 72 30 26 31 77 32 71 33 73 34 27 35
REMARK SMILES IDX 76 36 70 37 69 38 28 40 58 41 39 42 57 43 40 44 43 45 56 46
REMARK SMILES IDX 74 47 41 48 42 49 55 51 75 52 44 53 29 54 30 55 38 56 31 57
REMARK SMILES IDX 37 58 32 59 33 60 34 61 35 62 36 63 59 64 60 65 68 66 61 67
REMARK SMILES IDX 67 68 62 69 63 70 64 71 65 72 66 73 45 74 46 75 54 76 47 77
REMARK SMILES IDX 53 78 48 79 49 80 50 81 51 82 52 83
REMARK H PARENT 13 6 17 20 73 39 43 50
REMARK Flexibility Score: inf
ROOT
ATOM      1  C   UNL     1       2.583  -3.067  -1.375  1.00  0.00     0.042 C 
ENDROOT
BRANCH   1   2
ATOM      2  C   UNL     1       2.261  -2.463  -0.013  1.00  0.00     0.117 C 
BRANCH   2   3
ATOM      3  N   UNL     1       2.907  -1.185   0.217  1.00  0.00    -0.355 N 
ATOM      4  O   UNL     1       1.124   0.090  -0.446  1.00  0.00    -0.274 OA
ATOM      5  C   UNL     1       2.245   0.013   0.053  1.00  0.00     0.230 C 
ATOM      6  H   UNL     1       3.849  -1.173   0.501  1.00  0.00     0.163 HD
BRANCH   5   7
ATOM      7  C   UNL     1       3.026   1.261   0.436  1.00  0.00     0.177 C 
BRANCH   7   8
ATOM      8  S   UNL     1       4.085   1.065   1.895  1.00  0.00    -0.087 SA
BRANCH   8   9
ATOM      9  C   UNL     1       2.986   0.885   3.270  1.00  0.00     0.136 C 
ATOM     10  S   UNL     1       1.311   0.869   3.197  1.00  0.00    -0.053 S 
BRANCH   9  11
ATOM     11  N   UNL     1       3.684   0.704   4.466  1.00  0.00    -0.358 N 
ATOM     12  C   UNL     1       3.259  -0.257   5.488  1.00  0.00     0.118 C 
ATOM     13  C   UNL     1       4.747   1.619   4.899  1.00  0.00     0.118 C 
ATOM     14  C   UNL     1       2.782   0.454   6.750  1.00  0.00     0.021 C 
ATOM     15  C   UNL     1       4.300   2.381   6.152  1.00  0.00     0.021 C 
ATOM     16  C   UNL     1       3.843   1.430   7.259  1.00  0.00     0.004 C 
ENDBRANCH   9  11
ENDBRANCH   8   9
ENDBRANCH   7   8
ENDBRANCH   5   7
ENDBRANCH   2   3
ENDBRANCH   1   2
BRANCH   1  17
ATOM     17  C   UNL     1       4.059  -3.382  -1.600  1.00  0.00     0.118 C 
BRANCH  17  18
ATOM     18  N   UNL     1       4.590  -4.365  -0.662  1.00  0.00    -0.352 N 
ATOM     19  C   UNL     1       5.204  -5.574  -0.887  1.00  0.00     0.251 C 
ATOM     20  H   UNL     1       4.494  -4.122   0.287  1.00  0.00     0.163 HD
ATOM     21  O   UNL     1       5.460  -6.304   0.069  1.00  0.00    -0.269 OA
BRANCH  19  22
ATOM     22  C   UNL     1       5.531  -6.018  -2.260  1.00  0.00     0.039 A 
ATOM     23  C   UNL     1       5.261  -7.341  -2.622  1.00  0.00     0.014 A 
ATOM     24  C   UNL     1       6.110  -5.149  -3.188  1.00  0.00     0.014 A 
ATOM     25  C   UNL     1       5.486  -7.766  -3.935  1.00  0.00     0.010 A 
ATOM     26  C   UNL     1       6.269  -5.553  -4.513  1.00  0.00     0.010 A 
ATOM     27  C   UNL     1       5.945  -6.861  -4.905  1.00  0.00    -0.014 A 
BRANCH  27  28
ATOM     28  C   UNL     1       6.054  -7.246  -6.338  1.00  0.00     0.031 A 
ATOM     29  C   UNL     1       7.388  -7.238  -7.033  1.00  0.00     0.074 A 
ATOM     30  C   UNL     1       4.934  -7.523  -7.037  1.00  0.00     0.049 A 
ATOM     31  N   UNL     1       7.660  -7.448  -8.296  1.00  0.00    -0.248 NA
ATOM     32  C   UNL     1       8.567  -6.935  -6.207  1.00  0.00     0.031 C 
ATOM     33  C   UNL     1       3.575  -7.537  -6.490  1.00  0.00     0.029 A 
ATOM     34  N   UNL     1       4.758  -7.832  -8.364  1.00  0.00    -0.354 N 
ATOM     35  C   UNL     1       9.035  -7.286  -8.420  1.00  0.00     0.074 A 
ATOM     36  C   UNL     1       9.535  -6.919  -7.112  1.00  0.00     0.031 C 
ATOM     37  C   UNL     1       2.710  -7.856  -7.466  1.00  0.00     0.029 A 
ATOM     38  C   UNL     1       3.441  -8.020  -8.718  1.00  0.00     0.049 A 
ATOM     39  H   UNL     1       5.503  -7.912  -9.001  1.00  0.00     0.167 HD
ATOM     40  C   UNL     1       9.813  -7.441  -9.519  1.00  0.00     0.031 A 
ATOM     41  C   UNL     1       2.880  -8.274  -9.916  1.00  0.00     0.031 A 
ATOM     42  C   UNL     1       9.313  -7.808 -10.819  1.00  0.00     0.049 A 
ATOM     43  C   UNL     1       3.760  -8.406 -11.128  1.00  0.00     0.074 A 
ATOM     44  C   UNL     1      10.030  -8.040 -11.980  1.00  0.00     0.029 A 
ATOM     45  N   UNL     1       7.975  -7.987 -11.133  1.00  0.00    -0.354 N 
ATOM     46  N   UNL     1       5.066  -8.312 -11.211  1.00  0.00    -0.248 NA
ATOM     47  C   UNL     1       3.093  -8.683 -12.408  1.00  0.00     0.031 C 
ATOM     48  C   UNL     1       9.121  -8.301 -13.010  1.00  0.00     0.029 A 
ATOM     49  C   UNL     1       7.842  -8.296 -12.477  1.00  0.00     0.049 A 
ATOM     50  H   UNL     1       7.229  -7.907 -10.496  1.00  0.00     0.167 HD
ATOM     51  C   UNL     1       5.378  -8.544 -12.547  1.00  0.00     0.074 A 
ATOM     52  C   UNL     1       4.127  -8.798 -13.231  1.00  0.00     0.031 C 
ATOM     53  C   UNL     1       6.592  -8.547 -13.150  1.00  0.00     0.031 A 
BRANCH  40  54
ATOM     54  C   UNL     1      11.293  -7.201  -9.367  1.00  0.00    -0.014 A 
ATOM     55  C   UNL     1      12.102  -8.085  -8.630  1.00  0.00     0.010 A 
ATOM     56  C   UNL     1      11.893  -6.103 -10.011  1.00  0.00     0.010 A 
ATOM     57  C   UNL     1      13.475  -7.851  -8.504  1.00  0.00     0.020 A 
ATOM     58  C   UNL     1      13.270  -5.882  -9.912  1.00  0.00     0.020 A 
ATOM     59  C   UNL     1      14.049  -6.749  -9.144  1.00  0.00     0.054 A 
BRANCH  59  60
ATOM     60  S   UNL     1      15.836  -6.483  -8.978  1.00  0.00     0.124 S 
ATOM     61  O   UNL     1      15.947  -6.047  -7.588  1.00  0.00    -0.237 OA
ATOM     62  O   UNL     1      16.385  -7.805  -9.267  1.00  0.00    -0.237 OA
ATOM     63  O   UNL     1      16.129  -5.458  -9.976  1.00  0.00    -0.744 OA
ENDBRANCH  59  60
ENDBRANCH  40  54
BRANCH  41  64
ATOM     64  C   UNL     1       1.401  -8.421 -10.028  1.00  0.00    -0.014 A 
ATOM     65  C   UNL     1       0.827  -9.673 -10.307  1.00  0.00     0.010 A 
ATOM     66  C   UNL     1       0.558  -7.309  -9.845  1.00  0.00     0.010 A 
ATOM     67  C   UNL     1      -0.560  -9.809 -10.418  1.00  0.00     0.020 A 
ATOM     68  C   UNL     1      -0.830  -7.446  -9.926  1.00  0.00     0.020 A 
ATOM     69  C   UNL     1      -1.380  -8.694 -10.224  1.00  0.00     0.054 A 
BRANCH  69  70
ATOM     70  S   UNL     1      -3.179  -8.905 -10.325  1.00  0.00     0.124 S 
ATOM     71  O   UNL     1      -3.384  -9.088 -11.758  1.00  0.00    -0.237 OA
ATOM     72  O   UNL     1      -3.404 -10.087  -9.497  1.00  0.00    -0.237 OA
ATOM     73  O   UNL     1      -3.702  -7.657  -9.772  1.00  0.00    -0.744 OA
ENDBRANCH  69  70
ENDBRANCH  41  64
BRANCH  53  74
ATOM     74  C   UNL     1       6.639  -8.865 -14.621  1.00  0.00    -0.014 A 
ATOM     75  C   UNL     1       6.186  -7.944 -15.582  1.00  0.00     0.010 A 
ATOM     76  C   UNL     1       7.213 -10.076 -15.051  1.00  0.00     0.010 A 
ATOM     77  C   UNL     1       6.285  -8.239 -16.945  1.00  0.00     0.020 A 
ATOM     78  C   UNL     1       7.341 -10.362 -16.413  1.00  0.00     0.020 A 
ATOM     79  C   UNL     1       6.867  -9.444 -17.352  1.00  0.00     0.054 A 
BRANCH  79  80
ATOM     80  S   UNL     1       7.041  -9.773 -19.127  1.00  0.00     0.124 S 
ATOM     81  O   UNL     1       5.661 -10.039 -19.525  1.00  0.00    -0.237 OA
ATOM     82  O   UNL     1       7.611  -8.525 -19.629  1.00  0.00    -0.237 OA
ATOM     83  O   UNL     1       7.937 -10.926 -19.180  1.00  0.00    -0.744 OA
ENDBRANCH  79  80
ENDBRANCH  53  74
ENDBRANCH  27  28
ENDBRANCH  19  22
ENDBRANCH  17  18
ENDBRANCH   1  17
TORSDOF 16
