REMARK SMILES CC(=O)O[C@@H]1CC[C@@]23C(=O)O[C@]4(CC[C@]2(O)C1)[C@H]3CC[C@]1(C)[C@H](C(=O)NCCCNC(=O)c2ccc(-c3c5nc(c(-c6ccc(S(=O)(=O)[O-])cc6)c6ccc([nH]6)c(-c6ccc(S(=O)(=O)[O-])cc6)c6nc(c(-c7ccc(S(=O)(=O)[O-])cc7)c7ccc3[nH]7)C=C6)C=C5)cc2)CC[C@@H]14
REMARK SMILES IDX 28 1 27 2 26 3 24 4 25 5 23 7 5 8 6 9 17 10 7 11 15 12 8 13
REMARK SMILES IDX 14 14 9 15 18 16 13 17 10 18 11 19 12 20 19 21 95 22 20 23
REMARK SMILES IDX 21 24 94 25 22 26 93 27 4 28 2 29 1 30 3 31 16 32 29 34
REMARK SMILES IDX 30 35 31 36 32 38 33 39 34 40 92 41 35 42 91 43 36 44 37 45
REMARK SMILES IDX 38 46 85 47 39 48 90 49 84 50 86 51 40 52 89 53 83 54 82 55
REMARK SMILES IDX 41 57 71 58 52 59 70 60 53 61 56 62 69 63 87 64 54 65 55 66
REMARK SMILES IDX 68 68 88 69 57 70 42 71 43 72 51 73 44 74 50 75 45 76 46 77
REMARK SMILES IDX 47 78 48 79 49 80 72 81 73 82 81 83 74 84 80 85 75 86 76 87
REMARK SMILES IDX 77 88 78 89 79 90 58 91 59 92 67 93 60 94 66 95 61 96 62 97
REMARK SMILES IDX 63 98 64 99 65 100
REMARK H PARENT 26 6 16 33 30 37 86 56 56 67
REMARK Flexibility Score: inf
ROOT
ATOM      1  C   UNL     1      -5.082   8.772  -3.388  1.00  0.00     0.042 C 
ENDROOT
BRANCH   1   2
ATOM      2  C   UNL     1      -3.775   9.271  -2.755  1.00  0.00     0.117 C 
BRANCH   2   3
ATOM      3  N   UNL     1      -4.050  10.100  -1.589  1.00  0.00    -0.356 N 
ATOM      4  C   UNL     1      -4.123   9.900  -0.254  1.00  0.00     0.223 C 
ATOM      5  O   UNL     1      -4.575  10.868   0.379  1.00  0.00    -0.275 OA
ATOM      6  H   UNL     1      -4.226  11.037  -1.833  1.00  0.00     0.163 HD
BRANCH   4   7
ATOM      7  C   UNL     1      -3.644   8.681   0.551  1.00  0.00     0.085 C 
ATOM      8  C   UNL     1      -0.261   1.985  -2.637  1.00  0.00     0.179 C 
ATOM      9  C   UNL     1      -0.029   3.476  -2.765  1.00  0.00     0.047 C 
ATOM     10  C   UNL     1      -1.765   1.714  -2.659  1.00  0.00     0.081 C 
ATOM     11  C   UNL     1      -0.816   4.196  -1.679  1.00  0.00     0.026 C 
ATOM     12  C   UNL     1      -2.662   2.582  -1.740  1.00  0.00     0.085 C 
ATOM     13  C   UNL     1      -2.525   4.053  -1.880  1.00  0.00     0.103 C 
ATOM     14  C   UNL     1      -2.385   2.444  -0.155  1.00  0.00     0.041 C 
ATOM     15  C   UNL     1      -2.542   5.431  -2.321  1.00  0.00     0.316 C 
ATOM     16  C   UNL     1      -3.808   4.533  -0.801  1.00  0.00     0.054 C 
ATOM     17  C   UNL     1      -2.229   3.897   0.707  1.00  0.00     0.052 C 
ATOM     18  O   UNL     1      -2.491   5.951  -3.420  1.00  0.00    -0.251 OA
ATOM     19  O   UNL     1      -2.292   6.039  -1.072  1.00  0.00    -0.458 OA
ATOM     20  C   UNL     1      -2.857   5.236   0.042  1.00  0.00     0.120 C 
ATOM     21  C   UNL     1      -5.038   5.381  -1.183  1.00  0.00     0.009 C 
ATOM     22  C   UNL     1      -3.263   6.280   1.072  1.00  0.00     0.040 C 
ATOM     23  C   UNL     1      -4.993   6.857  -0.759  1.00  0.00     0.008 C 
ATOM     24  C   UNL     1      -4.364   7.278   0.582  1.00  0.00    -0.014 C 
ATOM     25  C   UNL     1      -2.022   7.166   1.372  1.00  0.00     0.009 C 
ATOM     26  C   UNL     1      -5.474   7.356   1.654  1.00  0.00     0.012 C 
ATOM     27  C   UNL     1      -2.154   8.393   0.466  1.00  0.00     0.014 C 
BRANCH   8  28
ATOM     28  O   UNL     1       0.327   1.561  -1.388  1.00  0.00    -0.462 OA
BRANCH  28  29
ATOM     29  C   UNL     1       0.629   0.242  -1.261  1.00  0.00     0.302 C 
ATOM     30  C   UNL     1       1.129  -0.040   0.125  1.00  0.00     0.139 C 
ATOM     31  O   UNL     1       0.525  -0.597  -2.142  1.00  0.00    -0.253 OA
ENDBRANCH  28  29
ENDBRANCH   8  28
BRANCH  12  32
ATOM     32  O   UNL     1      -4.007   2.188  -2.031  1.00  0.00    -0.389 OA
ATOM     33  H   UNL     1      -4.620   2.701  -1.481  1.00  0.00     0.211 HD
ENDBRANCH  12  32
ENDBRANCH   4   7
ENDBRANCH   2   3
ENDBRANCH   1   2
BRANCH   1  34
ATOM     34  C   UNL     1      -5.859   9.829  -4.158  1.00  0.00     0.118 C 
BRANCH  34  35
ATOM     35  N   UNL     1      -5.375   9.986  -5.516  1.00  0.00    -0.352 N 
ATOM     36  C   UNL     1      -5.995   9.705  -6.710  1.00  0.00     0.251 C 
ATOM     37  H   UNL     1      -4.464  10.350  -5.595  1.00  0.00     0.163 HD
ATOM     38  O   UNL     1      -5.330   9.715  -7.743  1.00  0.00    -0.269 OA
BRANCH  36  39
ATOM     39  C   UNL     1      -7.442   9.375  -6.772  1.00  0.00     0.039 A 
ATOM     40  C   UNL     1      -7.869   8.403  -7.683  1.00  0.00     0.014 A 
ATOM     41  C   UNL     1      -8.388  10.044  -5.990  1.00  0.00     0.014 A 
ATOM     42  C   UNL     1      -9.227   8.077  -7.779  1.00  0.00     0.010 A 
ATOM     43  C   UNL     1      -9.728   9.656  -6.023  1.00  0.00     0.010 A 
ATOM     44  C   UNL     1     -10.168   8.684  -6.932  1.00  0.00    -0.014 A 
BRANCH  44  45
ATOM     45  C   UNL     1     -11.616   8.349  -7.017  1.00  0.00     0.031 A 
ATOM     46  C   UNL     1     -12.614   9.413  -7.402  1.00  0.00     0.074 A 
ATOM     47  C   UNL     1     -12.043   7.107  -6.710  1.00  0.00     0.049 A 
ATOM     48  N   UNL     1     -13.919   9.337  -7.468  1.00  0.00    -0.248 NA
ATOM     49  C   UNL     1     -12.076  10.743  -7.734  1.00  0.00     0.031 C 
ATOM     50  C   UNL     1     -11.188   5.995  -6.291  1.00  0.00     0.029 A 
ATOM     51  N   UNL     1     -13.308   6.573  -6.700  1.00  0.00    -0.354 N 
ATOM     52  C   UNL     1     -14.356  10.607  -7.831  1.00  0.00     0.074 A 
ATOM     53  C   UNL     1     -13.182  11.448  -7.916  1.00  0.00     0.031 C 
ATOM     54  C   UNL     1     -11.948   4.905  -6.091  1.00  0.00     0.029 A 
ATOM     55  C   UNL     1     -13.347   5.249  -6.326  1.00  0.00     0.049 A 
ATOM     56  H   UNL     1     -14.112   7.088  -6.937  1.00  0.00     0.167 HD
ATOM     57  C   UNL     1     -15.614  11.033  -8.097  1.00  0.00     0.031 A 
ATOM     58  C   UNL     1     -14.389   4.408  -6.183  1.00  0.00     0.031 A 
ATOM     59  C   UNL     1     -16.780  10.193  -8.031  1.00  0.00     0.049 A 
ATOM     60  C   UNL     1     -15.780   4.906  -6.473  1.00  0.00     0.074 A 
ATOM     61  C   UNL     1     -18.095  10.521  -8.315  1.00  0.00     0.029 A 
ATOM     62  N   UNL     1     -16.771   8.857  -7.662  1.00  0.00    -0.354 N 
ATOM     63  N   UNL     1     -16.164   6.100  -6.857  1.00  0.00    -0.248 NA
ATOM     64  C   UNL     1     -16.877   3.939  -6.323  1.00  0.00     0.031 C 
ATOM     65  C   UNL     1     -18.886   9.391  -8.080  1.00  0.00     0.029 A 
ATOM     66  C   UNL     1     -18.058   8.348  -7.701  1.00  0.00     0.049 A 
ATOM     67  H   UNL     1     -15.968   8.346  -7.410  1.00  0.00     0.167 HD
ATOM     68  C   UNL     1     -17.543   6.019  -7.021  1.00  0.00     0.074 A 
ATOM     69  C   UNL     1     -17.922   4.657  -6.710  1.00  0.00     0.031 C 
ATOM     70  C   UNL     1     -18.417   6.986  -7.394  1.00  0.00     0.031 A 
BRANCH  57  71
ATOM     71  C   UNL     1     -15.790  12.476  -8.496  1.00  0.00    -0.014 A 
ATOM     72  C   UNL     1     -15.334  12.940  -9.743  1.00  0.00     0.010 A 
ATOM     73  C   UNL     1     -16.448  13.370  -7.633  1.00  0.00     0.010 A 
ATOM     74  C   UNL     1     -15.493  14.281 -10.102  1.00  0.00     0.020 A 
ATOM     75  C   UNL     1     -16.635  14.707  -8.001  1.00  0.00     0.020 A 
ATOM     76  C   UNL     1     -16.140  15.158  -9.226  1.00  0.00     0.054 A 
BRANCH  76  77
ATOM     77  S   UNL     1     -16.351  16.888  -9.727  1.00  0.00     0.124 S 
ATOM     78  O   UNL     1     -14.994  17.411  -9.580  1.00  0.00    -0.237 OA
ATOM     79  O   UNL     1     -16.831  16.768 -11.101  1.00  0.00    -0.237 OA
ATOM     80  O   UNL     1     -17.326  17.410  -8.773  1.00  0.00    -0.744 OA
ENDBRANCH  76  77
ENDBRANCH  57  71
BRANCH  58  81
ATOM     81  C   UNL     1     -14.162   3.001  -5.749  1.00  0.00    -0.014 A 
ATOM     82  C   UNL     1     -14.356   1.935  -6.645  1.00  0.00     0.010 A 
ATOM     83  C   UNL     1     -13.756   2.720  -4.431  1.00  0.00     0.010 A 
ATOM     84  C   UNL     1     -14.177   0.613  -6.225  1.00  0.00     0.020 A 
ATOM     85  C   UNL     1     -13.548   1.401  -4.016  1.00  0.00     0.020 A 
ATOM     86  C   UNL     1     -13.776   0.355  -4.911  1.00  0.00     0.054 A 
BRANCH  86  87
ATOM     87  S   UNL     1     -13.516  -1.365  -4.394  1.00  0.00     0.124 S 
ATOM     88  O   UNL     1     -14.885  -1.846  -4.242  1.00  0.00    -0.237 OA
ATOM     89  O   UNL     1     -12.769  -1.926  -5.517  1.00  0.00    -0.237 OA
ATOM     90  O   UNL     1     -12.755  -1.237  -3.153  1.00  0.00    -0.744 OA
ENDBRANCH  86  87
ENDBRANCH  58  81
BRANCH  70  91
ATOM     91  C   UNL     1     -19.864   6.598  -7.527  1.00  0.00    -0.014 A 
ATOM     92  C   UNL     1     -20.661   6.357  -6.393  1.00  0.00     0.010 A 
ATOM     93  C   UNL     1     -20.448   6.526  -8.805  1.00  0.00     0.010 A 
ATOM     94  C   UNL     1     -22.009   6.020  -6.538  1.00  0.00     0.020 A 
ATOM     95  C   UNL     1     -21.802   6.216  -8.952  1.00  0.00     0.020 A 
ATOM     96  C   UNL     1     -22.571   5.951  -7.817  1.00  0.00     0.054 A 
BRANCH  96  97
ATOM     97  S   UNL     1     -24.334   5.556  -7.976  1.00  0.00     0.124 S 
ATOM     98  O   UNL     1     -24.351   4.123  -7.698  1.00  0.00    -0.237 OA
ATOM     99  O   UNL     1     -24.947   6.402  -6.955  1.00  0.00    -0.237 OA
ATOM    100  O   UNL     1     -24.649   5.927  -9.354  1.00  0.00    -0.744 OA
ENDBRANCH  96  97
ENDBRANCH  70  91
ENDBRANCH  44  45
ENDBRANCH  36  39
ENDBRANCH  34  35
ENDBRANCH   1  34
TORSDOF 16
