REMARK SMILES O=C(NCCCNC(=O)[C@H]1Cc2ccc(Cl)cc2C[N@@H+]1Cc1ccc(Cl)cc1)c1ccc(-c2c3nc(c(-c4ccc(S(=O)(=O)[O-])cc4)c4ccc([nH]4)c(-c4ccc(S(=O)(=O)[O-])cc4)c4nc(c(-c5ccc(S(=O)(=O)[O-])cc5)c5ccc2[nH]5)C=C4)C=C3)cc1
REMARK SMILES IDX 4 1 3 2 1 3 2 4 29 6 30 7 88 8 31 9 87 10 32 11 33 12 34 13
REMARK SMILES IDX 81 14 35 15 86 16 80 17 82 18 36 19 85 20 79 21 78 22 37 24
REMARK SMILES IDX 67 25 48 26 66 27 49 28 52 29 65 30 83 31 50 32 51 33 64 35
REMARK SMILES IDX 84 36 53 37 38 38 39 39 47 40 40 41 46 42 41 43 42 44 43 45
REMARK SMILES IDX 44 46 45 47 68 48 69 49 77 50 70 51 76 52 71 53 72 54 73 55
REMARK SMILES IDX 74 56 75 57 54 58 55 59 63 60 56 61 62 62 57 63 58 64 59 65
REMARK SMILES IDX 60 66 61 67 5 68 6 69 7 70 8 71 9 73 10 74 11 75 20 76 12 77
REMARK SMILES IDX 19 78 13 80 18 81 14 82 17 83 15 84 16 85 21 86 22 87 23 88
REMARK SMILES IDX 28 89 24 90 27 91 25 92 26 93
REMARK H PARENT 3 5 82 23 52 34 7 72 20 79
REMARK Flexibility Score: inf
ROOT
ATOM      1  C   UNL     1       4.426  -1.001  -0.911  1.00  0.00     0.118 C 
ENDROOT
BRANCH   1   2
ATOM      2  N   UNL     1       3.045  -0.552  -1.020  1.00  0.00    -0.352 N 
ATOM      3  O   UNL     1       1.088   0.199  -0.246  1.00  0.00    -0.269 OA
ATOM      4  C   UNL     1       2.313   0.287  -0.220  1.00  0.00     0.251 C 
ATOM      5  H   UNL     1       2.557  -0.910  -1.796  1.00  0.00     0.163 HD
BRANCH   4   6
ATOM      6  C   UNL     1       2.962   1.312   0.630  1.00  0.00     0.039 A 
ATOM      7  C   UNL     1       2.291   1.760   1.774  1.00  0.00     0.014 A 
ATOM      8  C   UNL     1       4.142   1.947   0.232  1.00  0.00     0.014 A 
ATOM      9  C   UNL     1       2.786   2.851   2.494  1.00  0.00     0.010 A 
ATOM     10  C   UNL     1       4.686   2.969   1.004  1.00  0.00     0.010 A 
ATOM     11  C   UNL     1       3.981   3.472   2.104  1.00  0.00    -0.014 A 
BRANCH  11  12
ATOM     12  C   UNL     1       4.437   4.738   2.731  1.00  0.00     0.031 A 
ATOM     13  C   UNL     1       4.473   5.996   1.897  1.00  0.00     0.074 A 
ATOM     14  C   UNL     1       4.829   4.763   4.019  1.00  0.00     0.049 A 
ATOM     15  N   UNL     1       4.920   7.183   2.214  1.00  0.00    -0.248 NA
ATOM     16  C   UNL     1       3.966   5.902   0.515  1.00  0.00     0.031 C 
ATOM     17  C   UNL     1       4.837   3.611   4.923  1.00  0.00     0.029 A 
ATOM     18  N   UNL     1       5.284   5.799   4.794  1.00  0.00    -0.354 N 
ATOM     19  C   UNL     1       4.777   7.959   1.069  1.00  0.00     0.074 A 
ATOM     20  C   UNL     1       4.250   7.102   0.033  1.00  0.00     0.031 C 
ATOM     21  C   UNL     1       5.232   4.015   6.142  1.00  0.00     0.029 A 
ATOM     22  C   UNL     1       5.543   5.442   6.096  1.00  0.00     0.049 A 
ATOM     23  H   UNL     1       5.412   6.713   4.450  1.00  0.00     0.167 HD
ATOM     24  C   UNL     1       5.029   9.277   0.904  1.00  0.00     0.031 A 
ATOM     25  C   UNL     1       5.971   6.183   7.138  1.00  0.00     0.031 A 
ATOM     26  C   UNL     1       5.487  10.140   1.958  1.00  0.00     0.049 A 
ATOM     27  C   UNL     1       6.219   7.654   6.937  1.00  0.00     0.074 A 
ATOM     28  C   UNL     1       5.743  11.498   1.903  1.00  0.00     0.029 A 
ATOM     29  N   UNL     1       5.721   9.737   3.263  1.00  0.00    -0.354 N 
ATOM     30  N   UNL     1       6.083   8.367   5.845  1.00  0.00    -0.248 NA
ATOM     31  C   UNL     1       6.662   8.425   8.108  1.00  0.00     0.031 C 
ATOM     32  C   UNL     1       6.161  11.912   3.168  1.00  0.00     0.029 A 
ATOM     33  C   UNL     1       6.112  10.822   4.024  1.00  0.00     0.049 A 
ATOM     34  H   UNL     1       5.623   8.816   3.598  1.00  0.00     0.167 HD
ATOM     35  C   UNL     1       6.389   9.675   6.205  1.00  0.00     0.074 A 
ATOM     36  C   UNL     1       6.714   9.656   7.616  1.00  0.00     0.031 C 
ATOM     37  C   UNL     1       6.399  10.789   5.435  1.00  0.00     0.031 A 
BRANCH  24  38
ATOM     38  C   UNL     1       4.781   9.893  -0.448  1.00  0.00    -0.014 A 
ATOM     39  C   UNL     1       5.863  10.374  -1.208  1.00  0.00     0.010 A 
ATOM     40  C   UNL     1       3.471  10.102  -0.913  1.00  0.00     0.010 A 
ATOM     41  C   UNL     1       5.639  11.085  -2.390  1.00  0.00     0.020 A 
ATOM     42  C   UNL     1       3.243  10.788  -2.110  1.00  0.00     0.020 A 
ATOM     43  C   UNL     1       4.329  11.297  -2.826  1.00  0.00     0.054 A 
BRANCH  43  44
ATOM     44  S   UNL     1       4.052  12.253  -4.343  1.00  0.00     0.124 S 
ATOM     45  O   UNL     1       4.269  13.622  -3.888  1.00  0.00    -0.237 OA
ATOM     46  O   UNL     1       5.068  11.719  -5.248  1.00  0.00    -0.237 OA
ATOM     47  O   UNL     1       2.676  11.923  -4.707  1.00  0.00    -0.744 OA
ENDBRANCH  43  44
ENDBRANCH  24  38
BRANCH  25  48
ATOM     48  C   UNL     1       6.120   5.551   8.477  1.00  0.00    -0.014 A 
ATOM     49  C   UNL     1       7.142   4.616   8.724  1.00  0.00     0.010 A 
ATOM     50  C   UNL     1       5.197   5.840   9.498  1.00  0.00     0.010 A 
ATOM     51  C   UNL     1       7.217   3.956   9.954  1.00  0.00     0.020 A 
ATOM     52  C   UNL     1       5.285   5.201  10.739  1.00  0.00     0.020 A 
ATOM     53  C   UNL     1       6.280   4.245  10.950  1.00  0.00     0.054 A 
BRANCH  53  54
ATOM     54  S   UNL     1       6.380   3.362  12.532  1.00  0.00     0.124 S 
ATOM     55  O   UNL     1       5.772   2.078  12.195  1.00  0.00    -0.237 OA
ATOM     56  O   UNL     1       7.818   3.329  12.791  1.00  0.00    -0.237 OA
ATOM     57  O   UNL     1       5.607   4.203  13.441  1.00  0.00    -0.744 OA
ENDBRANCH  53  54
ENDBRANCH  25  48
BRANCH  37  58
ATOM     58  C   UNL     1       6.727  12.106   6.084  1.00  0.00    -0.014 A 
ATOM     59  C   UNL     1       5.717  13.077   6.216  1.00  0.00     0.010 A 
ATOM     60  C   UNL     1       8.052  12.439   6.410  1.00  0.00     0.010 A 
ATOM     61  C   UNL     1       6.032  14.373   6.630  1.00  0.00     0.020 A 
ATOM     62  C   UNL     1       8.366  13.728   6.848  1.00  0.00     0.020 A 
ATOM     63  C   UNL     1       7.358  14.694   6.929  1.00  0.00     0.054 A 
BRANCH  63  64
ATOM     64  S   UNL     1       7.759  16.393   7.420  1.00  0.00     0.124 S 
ATOM     65  O   UNL     1       7.793  17.084   6.135  1.00  0.00    -0.237 OA
ATOM     66  O   UNL     1       6.647  16.748   8.298  1.00  0.00    -0.237 OA
ATOM     67  O   UNL     1       9.051  16.257   8.090  1.00  0.00    -0.744 OA
ENDBRANCH  63  64
ENDBRANCH  37  58
ENDBRANCH  11  12
ENDBRANCH   4   6
ENDBRANCH   1   2
BRANCH   1  68
ATOM     68  C   UNL     1       4.516  -2.336  -0.178  1.00  0.00     0.042 C 
BRANCH  68  69
ATOM     69  C   UNL     1       3.797  -3.457  -0.921  1.00  0.00     0.118 C 
BRANCH  69  70
ATOM     70  N   UNL     1       4.560  -3.914  -2.073  1.00  0.00    -0.351 N 
ATOM     71  C   UNL     1       5.487  -4.866  -2.342  1.00  0.00     0.278 C 
ATOM     72  H   UNL     1       4.344  -3.388  -2.876  1.00  0.00     0.163 HD
ATOM     73  O   UNL     1       5.998  -4.700  -3.460  1.00  0.00    -0.268 OA
BRANCH  71  74
ATOM     74  C   UNL     1       5.930  -6.064  -1.429  1.00  0.00     0.279 C 
ATOM     75  C   UNL     1       5.290  -5.976  -0.040  1.00  0.00     0.111 C 
ATOM     76  N   UNL     1       5.610  -7.392  -2.051  1.00  0.00    -0.317 N 
ATOM     77  C   UNL     1       5.467  -7.156   0.865  1.00  0.00    -0.033 A 
ATOM     78  C   UNL     1       5.968  -8.531  -1.180  1.00  0.00     0.300 C 
ATOM     79  H   UNL     1       4.596  -7.346  -2.155  1.00  0.00     0.349 HD
ATOM     80  C   UNL     1       5.280  -7.029   2.248  1.00  0.00     0.006 A 
ATOM     81  C   UNL     1       5.626  -8.412   0.283  1.00  0.00     0.011 A 
ATOM     82  C   UNL     1       5.251  -8.164   3.055  1.00  0.00     0.021 A 
ATOM     83  C   UNL     1       5.590  -9.551   1.101  1.00  0.00     0.030 A 
ATOM     84  C   UNL     1       5.392  -9.422   2.476  1.00  0.00     0.041 A 
ATOM     85  Cl  UNL     1       5.324 -10.830   3.463  1.00  0.00    -0.084 Cl
BRANCH  76  86
ATOM     86  C   UNL     1       6.146  -7.616  -3.423  1.00  0.00     0.299 C 
BRANCH  86  87
ATOM     87  C   UNL     1       7.660  -7.631  -3.607  1.00  0.00     0.006 A 
ATOM     88  C   UNL     1       8.424  -8.765  -3.282  1.00  0.00     0.011 A 
ATOM     89  C   UNL     1       8.338  -6.515  -4.121  1.00  0.00     0.011 A 
ATOM     90  C   UNL     1       9.820  -8.743  -3.362  1.00  0.00     0.021 A 
ATOM     91  C   UNL     1       9.732  -6.494  -4.219  1.00  0.00     0.021 A 
ATOM     92  C   UNL     1      10.469  -7.601  -3.817  1.00  0.00     0.041 A 
ATOM     93  Cl  UNL     1      12.187  -7.563  -3.893  1.00  0.00    -0.084 Cl
ENDBRANCH  86  87
ENDBRANCH  76  86
ENDBRANCH  71  74
ENDBRANCH  69  70
ENDBRANCH  68  69
ENDBRANCH   1  68
TORSDOF 15
