REMARK SMILES CN(CC(=O)NCCCNC(=O)c1ccc(-c2c3nc(c(-c4ccc(S(=O)(=O)[O-])cc4)c4ccc([nH]4)c(-c4ccc(S(=O)(=O)[O-])cc4)c4nc(c(-c5ccc(S(=O)(=O)[O-])cc5)c5ccc2[nH]5)C=C4)C=C3)cc1)C(=O)N[C@@H]1C[C@H]1c1ccccc1
REMARK SMILES IDX 7 1 6 2 4 3 5 4 3 6 2 7 1 8 73 9 74 10 75 11 76 13 77 14
REMARK SMILES IDX 78 15 79 16 80 17 84 18 81 19 83 20 82 21 8 22 9 23 10 24
REMARK SMILES IDX 11 25 12 27 13 28 14 29 72 30 15 31 71 32 16 33 17 34 18 35
REMARK SMILES IDX 65 36 19 37 70 38 64 39 66 40 20 41 69 42 63 43 62 44 21 46
REMARK SMILES IDX 51 47 32 48 50 49 33 50 36 51 49 52 67 53 34 54 35 55 48 57
REMARK SMILES IDX 68 58 37 59 22 60 23 61 31 62 24 63 30 64 25 65 26 66 27 67
REMARK SMILES IDX 28 68 29 69 52 70 53 71 61 72 54 73 60 74 55 75 56 76 57 77
REMARK SMILES IDX 58 78 59 79 38 80 39 81 47 82 40 83 46 84 41 85 42 86 43 87
REMARK SMILES IDX 44 88 45 89
REMARK H PARENT 6 5 75 12 10 26 66 45 36 56
REMARK Flexibility Score: inf
ROOT
ATOM      1  C   UNL     1      -2.193  -0.466   0.143  1.00  0.00     0.117 C 
ENDROOT
BRANCH   1   2
ATOM      2  N   UNL     1      -2.540   0.907  -0.153  1.00  0.00    -0.354 N 
ATOM      3  C   UNL     1      -1.794   1.853  -0.791  1.00  0.00     0.239 C 
ATOM      4  O   UNL     1      -2.396   2.815  -1.277  1.00  0.00    -0.273 OA
ATOM      5  H   UNL     1      -3.432   1.196   0.145  1.00  0.00     0.163 HD
BRANCH   3   6
ATOM      6  C   UNL     1      -0.297   1.643  -1.047  1.00  0.00     0.220 C 
BRANCH   6   7
ATOM      7  N   UNL     1       0.533   1.344   0.123  1.00  0.00    -0.319 N 
ATOM      8  C   UNL     1       1.237   0.066   0.123  1.00  0.00     0.149 C 
BRANCH   7   9
ATOM      9  C   UNL     1       0.869   2.188   1.151  1.00  0.00     0.317 C 
ATOM     10  O   UNL     1       1.569   1.795   2.092  1.00  0.00    -0.249 OA
ATOM     11  N   UNL     1       0.484   3.483   1.217  1.00  0.00    -0.335 N 
ATOM     12  H   UNL     1       0.760   3.918   2.056  1.00  0.00     0.165 HD
BRANCH  11  13
ATOM     13  C   UNL     1      -0.229   4.362   0.354  1.00  0.00     0.092 C 
ATOM     14  C   UNL     1       0.359   4.848  -0.937  1.00  0.00     0.036 C 
ATOM     15  C   UNL     1       0.224   5.812   0.207  1.00  0.00     0.044 C 
BRANCH  15  16
ATOM     16  C   UNL     1      -0.782   6.939   0.117  1.00  0.00    -0.043 A 
ATOM     17  C   UNL     1      -1.014   7.628  -1.088  1.00  0.00     0.004 A 
ATOM     18  C   UNL     1      -1.493   7.370   1.248  1.00  0.00     0.004 A 
ATOM     19  C   UNL     1      -1.922   8.686  -1.167  1.00  0.00     0.000 A 
ATOM     20  C   UNL     1      -2.397   8.436   1.179  1.00  0.00     0.000 A 
ATOM     21  C   UNL     1      -2.613   9.092  -0.030  1.00  0.00     0.000 A 
ENDBRANCH  15  16
ENDBRANCH  11  13
ENDBRANCH   7   9
ENDBRANCH   6   7
ENDBRANCH   3   6
ENDBRANCH   1   2
BRANCH   1  22
ATOM     22  C   UNL     1      -2.039  -0.740   1.632  1.00  0.00     0.042 C 
BRANCH  22  23
ATOM     23  C   UNL     1      -3.307  -0.511   2.449  1.00  0.00     0.118 C 
BRANCH  23  24
ATOM     24  N   UNL     1      -4.440  -1.292   1.968  1.00  0.00    -0.352 N 
ATOM     25  C   UNL     1      -5.162  -2.290   2.569  1.00  0.00     0.251 C 
ATOM     26  H   UNL     1      -4.737  -1.064   1.058  1.00  0.00     0.163 HD
ATOM     27  O   UNL     1      -5.949  -2.947   1.886  1.00  0.00    -0.269 OA
BRANCH  25  28
ATOM     28  C   UNL     1      -5.006  -2.592   4.008  1.00  0.00     0.039 A 
ATOM     29  C   UNL     1      -5.051  -3.927   4.423  1.00  0.00     0.014 A 
ATOM     30  C   UNL     1      -4.869  -1.575   4.955  1.00  0.00     0.014 A 
ATOM     31  C   UNL     1      -4.901  -4.240   5.777  1.00  0.00     0.010 A 
ATOM     32  C   UNL     1      -4.638  -1.892   6.292  1.00  0.00     0.010 A 
ATOM     33  C   UNL     1      -4.661  -3.227   6.719  1.00  0.00    -0.014 A 
BRANCH  33  34
ATOM     34  C   UNL     1      -4.439  -3.548   8.152  1.00  0.00     0.031 A 
ATOM     35  C   UNL     1      -5.404  -3.060   9.200  1.00  0.00     0.074 A 
ATOM     36  C   UNL     1      -3.338  -4.236   8.515  1.00  0.00     0.049 A 
ATOM     37  N   UNL     1      -5.356  -3.213  10.500  1.00  0.00    -0.248 NA
ATOM     38  C   UNL     1      -6.559  -2.278   8.732  1.00  0.00     0.031 C 
ATOM     39  C   UNL     1      -2.304  -4.726   7.600  1.00  0.00     0.029 A 
ATOM     40  N   UNL     1      -2.904  -4.643   9.752  1.00  0.00    -0.354 N 
ATOM     41  C   UNL     1      -6.461  -2.535  11.002  1.00  0.00     0.074 A 
ATOM     42  C   UNL     1      -7.131  -1.927   9.874  1.00  0.00     0.031 C 
ATOM     43  C   UNL     1      -1.375  -5.393   8.302  1.00  0.00     0.029 A 
ATOM     44  C   UNL     1      -1.724  -5.348   9.718  1.00  0.00     0.049 A 
ATOM     45  H   UNL     1      -3.391  -4.448  10.585  1.00  0.00     0.167 HD
ATOM     46  C   UNL     1      -6.891  -2.443  12.284  1.00  0.00     0.031 A 
ATOM     47  C   UNL     1      -1.002  -5.897  10.714  1.00  0.00     0.031 A 
ATOM     48  C   UNL     1      -6.228  -3.057  13.403  1.00  0.00     0.049 A 
ATOM     49  C   UNL     1      -1.503  -5.786  12.127  1.00  0.00     0.074 A 
ATOM     50  C   UNL     1      -6.611  -3.065  14.733  1.00  0.00     0.029 A 
ATOM     51  N   UNL     1      -5.043  -3.775  13.324  1.00  0.00    -0.354 N 
ATOM     52  N   UNL     1      -2.583  -5.191  12.575  1.00  0.00    -0.248 NA
ATOM     53  C   UNL     1      -0.695  -6.436  13.168  1.00  0.00     0.031 C 
ATOM     54  C   UNL     1      -5.634  -3.749  15.466  1.00  0.00     0.029 A 
ATOM     55  C   UNL     1      -4.672  -4.215  14.584  1.00  0.00     0.049 A 
ATOM     56  H   UNL     1      -4.540  -3.945  12.495  1.00  0.00     0.167 HD
ATOM     57  C   UNL     1      -2.599  -5.420  13.947  1.00  0.00     0.074 A 
ATOM     58  C   UNL     1      -1.430  -6.220  14.250  1.00  0.00     0.031 C 
ATOM     59  C   UNL     1      -3.503  -5.008  14.870  1.00  0.00     0.031 A 
BRANCH  46  60
ATOM     60  C   UNL     1      -8.142  -1.642  12.540  1.00  0.00    -0.014 A 
ATOM     61  C   UNL     1      -9.400  -2.102  12.110  1.00  0.00     0.010 A 
ATOM     62  C   UNL     1      -8.066  -0.428  13.247  1.00  0.00     0.010 A 
ATOM     63  C   UNL     1     -10.550  -1.342  12.339  1.00  0.00     0.020 A 
ATOM     64  C   UNL     1      -9.218   0.321  13.505  1.00  0.00     0.020 A 
ATOM     65  C   UNL     1     -10.451  -0.132  13.032  1.00  0.00     0.054 A 
BRANCH  65  66
ATOM     66  S   UNL     1     -11.962   0.827  13.329  1.00  0.00     0.124 S 
ATOM     67  O   UNL     1     -12.239   1.370  12.001  1.00  0.00    -0.237 OA
ATOM     68  O   UNL     1     -12.900  -0.189  13.799  1.00  0.00    -0.237 OA
ATOM     69  O   UNL     1     -11.558   1.810  14.331  1.00  0.00    -0.744 OA
ENDBRANCH  65  66
ENDBRANCH  46  60
BRANCH  47  70
ATOM     70  C   UNL     1       0.255  -6.629  10.402  1.00  0.00    -0.014 A 
ATOM     71  C   UNL     1       0.312  -8.029  10.520  1.00  0.00     0.010 A 
ATOM     72  C   UNL     1       1.399  -5.933   9.970  1.00  0.00     0.010 A 
ATOM     73  C   UNL     1       1.493  -8.718  10.229  1.00  0.00     0.020 A 
ATOM     74  C   UNL     1       2.573  -6.621   9.652  1.00  0.00     0.020 A 
ATOM     75  C   UNL     1       2.616  -8.009   9.794  1.00  0.00     0.054 A 
BRANCH  75  76
ATOM     76  S   UNL     1       4.122  -8.929   9.371  1.00  0.00     0.124 S 
ATOM     77  O   UNL     1       4.632  -9.298  10.687  1.00  0.00    -0.237 OA
ATOM     78  O   UNL     1       3.603 -10.029   8.562  1.00  0.00    -0.237 OA
ATOM     79  O   UNL     1       4.924  -7.952   8.638  1.00  0.00    -0.744 OA
ENDBRANCH  75  76
ENDBRANCH  47  70
BRANCH  59  80
ATOM     80  C   UNL     1      -3.282  -5.448  16.293  1.00  0.00    -0.014 A 
ATOM     81  C   UNL     1      -2.243  -4.910  17.073  1.00  0.00     0.010 A 
ATOM     82  C   UNL     1      -4.152  -6.394  16.867  1.00  0.00     0.010 A 
ATOM     83  C   UNL     1      -2.052  -5.342  18.388  1.00  0.00     0.020 A 
ATOM     84  C   UNL     1      -3.981  -6.806  18.191  1.00  0.00     0.020 A 
ATOM     85  C   UNL     1      -2.920  -6.291  18.937  1.00  0.00     0.054 A 
BRANCH  85  86
ATOM     86  S   UNL     1      -2.667  -6.819  20.654  1.00  0.00     0.124 S 
ATOM     87  O   UNL     1      -1.506  -7.696  20.534  1.00  0.00    -0.237 OA
ATOM     88  O   UNL     1      -2.431  -5.555  21.348  1.00  0.00    -0.237 OA
ATOM     89  O   UNL     1      -3.920  -7.486  20.999  1.00  0.00    -0.744 OA
ENDBRANCH  85  86
ENDBRANCH  59  80
ENDBRANCH  33  34
ENDBRANCH  25  28
ENDBRANCH  23  24
ENDBRANCH  22  23
ENDBRANCH   1  22
TORSDOF 17
