REMARK SMILES COc1cc(Cn2cc(C(=O)NCCCNC(=O)c3ccc(-c4c5nc(c(-c6ccc(S(=O)(=O)[O-])cc6)c6ccc([nH]6)c(-c6ccc(S(=O)(=O)[O-])cc6)c6nc(c(-c7ccc(S(=O)(=O)[O-])cc7)c7ccc4[nH]7)C=C6)C=C5)cc3)c(=O)[nH]c2=O)ccn1
REMARK SMILES IDX 14 1 13 2 12 3 10 4 11 5 9 7 7 8 8 9 82 10 81 11 83 12 79 13
REMARK SMILES IDX 80 15 6 16 5 17 3 18 4 19 86 20 85 21 84 22 2 23 1 24 15 25
REMARK SMILES IDX 16 26 17 27 18 29 19 30 20 31 78 32 21 33 77 34 22 35 23 36
REMARK SMILES IDX 24 37 71 38 25 39 76 40 70 41 72 42 26 43 75 44 69 45 68 46
REMARK SMILES IDX 27 48 57 49 38 50 56 51 39 52 42 53 55 54 73 55 40 56 41 57
REMARK SMILES IDX 54 59 74 60 43 61 28 62 29 63 37 64 30 65 36 66 31 67 32 68
REMARK SMILES IDX 33 69 34 70 35 71 58 72 59 73 67 74 60 75 66 76 61 77 62 78
REMARK SMILES IDX 63 79 64 80 65 81 44 82 45 83 53 84 46 85 52 86 47 87 48 88
REMARK SMILES IDX 49 89 50 90 51 91
REMARK H PARENT 12 6 81 14 16 28 72 47 42 58
REMARK Flexibility Score: inf
ROOT
ATOM      1  C   UNL     1       1.523  -1.706  -8.594  1.00  0.00     0.042 C 
ENDROOT
BRANCH   1   2
ATOM      2  C   UNL     1       1.469  -3.011  -7.799  1.00  0.00     0.118 C 
BRANCH   2   3
ATOM      3  N   UNL     1       2.506  -3.927  -8.249  1.00  0.00    -0.352 N 
ATOM      4  C   UNL     1       3.747  -4.236  -7.772  1.00  0.00     0.258 C 
ATOM      5  O   UNL     1       4.420  -5.020  -8.441  1.00  0.00    -0.269 OA
ATOM      6  H   UNL     1       2.263  -4.425  -9.063  1.00  0.00     0.163 HD
BRANCH   4   7
ATOM      7  C   UNL     1       4.274  -3.687  -6.493  1.00  0.00     0.121 A 
ATOM      8  N   UNL     1       4.536  -1.915  -4.895  1.00  0.00    -0.295 N 
ATOM      9  C   UNL     1       4.083  -2.418  -6.103  1.00  0.00     0.110 A 
ATOM     10  C   UNL     1       5.371  -2.650  -4.068  1.00  0.00     0.328 A 
ATOM     11  N   UNL     1       5.686  -3.900  -4.527  1.00  0.00    -0.273 N 
ATOM     12  O   UNL     1       5.793  -2.263  -2.982  1.00  0.00    -0.248 OA
ATOM     13  C   UNL     1       5.127  -4.527  -5.608  1.00  0.00     0.266 A 
ATOM     14  H   UNL     1       6.380  -4.394  -4.034  1.00  0.00     0.175 HD
ATOM     15  O   UNL     1       5.299  -5.730  -5.777  1.00  0.00    -0.268 OA
BRANCH   8  16
ATOM     16  C   UNL     1       4.045  -0.616  -4.427  1.00  0.00     0.162 C 
BRANCH  16  17
ATOM     17  C   UNL     1       2.672  -0.752  -3.804  1.00  0.00    -0.021 A 
ATOM     18  C   UNL     1       1.255  -1.196  -1.930  1.00  0.00     0.213 A 
ATOM     19  C   UNL     1       2.533  -1.054  -2.446  1.00  0.00     0.074 A 
ATOM     20  N   UNL     1       0.124  -1.118  -2.659  1.00  0.00    -0.222 NA
ATOM     21  C   UNL     1       0.278  -0.843  -3.969  1.00  0.00     0.115 A 
ATOM     22  C   UNL     1       1.510  -0.640  -4.575  1.00  0.00     0.026 A 
BRANCH  18  23
ATOM     23  O   UNL     1       1.095  -1.448  -0.592  1.00  0.00    -0.481 OA
ATOM     24  C   UNL     1       0.992  -0.201   0.092  1.00  0.00     0.280 C 
ENDBRANCH  18  23
ENDBRANCH  16  17
ENDBRANCH   8  16
ENDBRANCH   4   7
ENDBRANCH   2   3
ENDBRANCH   1   2
BRANCH   1  25
ATOM     25  C   UNL     1       0.873  -1.818  -9.971  1.00  0.00     0.118 C 
BRANCH  25  26
ATOM     26  N   UNL     1      -0.581  -1.752  -9.898  1.00  0.00    -0.352 N 
ATOM     27  C   UNL     1      -1.448  -0.931 -10.587  1.00  0.00     0.251 C 
ATOM     28  H   UNL     1      -1.003  -2.380  -9.269  1.00  0.00     0.163 HD
ATOM     29  O   UNL     1      -2.628  -0.882 -10.270  1.00  0.00    -0.269 OA
BRANCH  27  30
ATOM     30  C   UNL     1      -0.929  -0.080 -11.682  1.00  0.00     0.039 A 
ATOM     31  C   UNL     1      -0.076  -0.611 -12.652  1.00  0.00     0.014 A 
ATOM     32  C   UNL     1      -1.266   1.276 -11.707  1.00  0.00     0.014 A 
ATOM     33  C   UNL     1       0.578   0.242 -13.535  1.00  0.00     0.010 A 
ATOM     34  C   UNL     1      -0.663   2.120 -12.644  1.00  0.00     0.010 A 
ATOM     35  C   UNL     1       0.309   1.620 -13.525  1.00  0.00    -0.014 A 
BRANCH  35  36
ATOM     36  C   UNL     1       1.090   2.534 -14.398  1.00  0.00     0.031 A 
ATOM     37  C   UNL     1       2.025   3.546 -13.790  1.00  0.00     0.074 A 
ATOM     38  C   UNL     1       0.999   2.424 -15.737  1.00  0.00     0.049 A 
ATOM     39  N   UNL     1       2.775   4.437 -14.387  1.00  0.00    -0.248 NA
ATOM     40  C   UNL     1       2.135   3.562 -12.321  1.00  0.00     0.031 C 
ATOM     41  C   UNL     1       0.163   1.453 -16.443  1.00  0.00     0.029 A 
ATOM     42  N   UNL     1       1.630   3.116 -16.740  1.00  0.00    -0.354 N 
ATOM     43  C   UNL     1       3.420   5.135 -13.372  1.00  0.00     0.074 A 
ATOM     44  C   UNL     1       2.960   4.580 -12.118  1.00  0.00     0.031 C 
ATOM     45  C   UNL     1       0.369   1.578 -17.762  1.00  0.00     0.029 A 
ATOM     46  C   UNL     1       1.296   2.682 -18.001  1.00  0.00     0.049 A 
ATOM     47  H   UNL     1       2.261   3.853 -16.573  1.00  0.00     0.167 HD
ATOM     48  C   UNL     1       4.320   6.140 -13.477  1.00  0.00     0.031 A 
ATOM     49  C   UNL     1       1.674   3.126 -19.217  1.00  0.00     0.031 A 
ATOM     50  C   UNL     1       4.790   6.670 -14.729  1.00  0.00     0.049 A 
ATOM     51  C   UNL     1       2.633   4.277 -19.314  1.00  0.00     0.074 A 
ATOM     52  C   UNL     1       5.721   7.673 -14.935  1.00  0.00     0.029 A 
ATOM     53  N   UNL     1       4.373   6.245 -15.981  1.00  0.00    -0.354 N 
ATOM     54  N   UNL     1       3.227   4.928 -18.343  1.00  0.00    -0.248 NA
ATOM     55  C   UNL     1       2.969   4.761 -20.660  1.00  0.00     0.031 C 
ATOM     56  C   UNL     1       5.822   7.896 -16.309  1.00  0.00     0.029 A 
ATOM     57  C   UNL     1       5.005   6.986 -16.964  1.00  0.00     0.049 A 
ATOM     58  H   UNL     1       3.725   5.523 -16.146  1.00  0.00     0.167 HD
ATOM     59  C   UNL     1       4.013   5.894 -18.959  1.00  0.00     0.074 A 
ATOM     60  C   UNL     1       3.829   5.736 -20.387  1.00  0.00     0.031 C 
ATOM     61  C   UNL     1       4.813   6.825 -18.385  1.00  0.00     0.031 A 
BRANCH  48  62
ATOM     62  C   UNL     1       4.850   6.756 -12.209  1.00  0.00    -0.014 A 
ATOM     63  C   UNL     1       4.489   8.075 -11.875  1.00  0.00     0.010 A 
ATOM     64  C   UNL     1       5.767   6.071 -11.393  1.00  0.00     0.010 A 
ATOM     65  C   UNL     1       5.040   8.701 -10.755  1.00  0.00     0.020 A 
ATOM     66  C   UNL     1       6.301   6.685 -10.257  1.00  0.00     0.020 A 
ATOM     67  C   UNL     1       5.946   8.003  -9.954  1.00  0.00     0.054 A 
BRANCH  67  68
ATOM     68  S   UNL     1       6.634   8.817  -8.486  1.00  0.00     0.124 S 
ATOM     69  O   UNL     1       7.691   9.644  -9.058  1.00  0.00    -0.237 OA
ATOM     70  O   UNL     1       5.484   9.540  -7.949  1.00  0.00    -0.237 OA
ATOM     71  O   UNL     1       7.088   7.697  -7.662  1.00  0.00    -0.744 OA
ENDBRANCH  67  68
ENDBRANCH  48  62
BRANCH  49  72
ATOM     72  C   UNL     1       1.133   2.440 -20.421  1.00  0.00    -0.014 A 
ATOM     73  C   UNL     1      -0.235   2.546 -20.741  1.00  0.00     0.010 A 
ATOM     74  C   UNL     1       1.941   1.556 -21.155  1.00  0.00     0.010 A 
ATOM     75  C   UNL     1      -0.801   1.719 -21.713  1.00  0.00     0.020 A 
ATOM     76  C   UNL     1       1.382   0.745 -22.148  1.00  0.00     0.020 A 
ATOM     77  C   UNL     1       0.007   0.804 -22.391  1.00  0.00     0.054 A 
BRANCH  77  78
ATOM     78  S   UNL     1      -0.770  -0.343 -23.562  1.00  0.00     0.124 S 
ATOM     79  O   UNL     1      -1.394  -1.309 -22.661  1.00  0.00    -0.237 OA
ATOM     80  O   UNL     1      -1.691   0.521 -24.295  1.00  0.00    -0.237 OA
ATOM     81  O   UNL     1       0.357  -0.851 -24.341  1.00  0.00    -0.744 OA
ENDBRANCH  77  78
ENDBRANCH  49  72
BRANCH  61  82
ATOM     82  C   UNL     1       5.568   7.774 -19.275  1.00  0.00    -0.014 A 
ATOM     83  C   UNL     1       6.968   7.672 -19.369  1.00  0.00     0.010 A 
ATOM     84  C   UNL     1       4.917   8.875 -19.858  1.00  0.00     0.010 A 
ATOM     85  C   UNL     1       7.712   8.684 -19.979  1.00  0.00     0.020 A 
ATOM     86  C   UNL     1       5.657   9.878 -20.491  1.00  0.00     0.020 A 
ATOM     87  C   UNL     1       7.052   9.792 -20.517  1.00  0.00     0.054 A 
BRANCH  87  88
ATOM     88  S   UNL     1       8.040  11.139 -21.224  1.00  0.00     0.124 S 
ATOM     89  O   UNL     1       8.538  11.813 -20.030  1.00  0.00    -0.237 OA
ATOM     90  O   UNL     1       9.043  10.423 -22.009  1.00  0.00    -0.237 OA
ATOM     91  O   UNL     1       7.070  11.897 -22.012  1.00  0.00    -0.744 OA
ENDBRANCH  87  88
ENDBRANCH  61  82
ENDBRANCH  35  36
ENDBRANCH  27  30
ENDBRANCH  25  26
ENDBRANCH   1  25
TORSDOF 16
