REMARK SMILES [H]/N=C1\C=CC2=NC(C(=O)NCCCNC(=O)c3ccc(-c4c5nc(c(-c6ccc(S(=O)(=O)[O-])cc6)c6ccc([nH]6)c(-c6ccc(S(=O)(=O)[O-])cc6)c6nc(c(-c7ccc(S(=O)(=O)[O-])cc7)c7ccc4[nH]7)C=C6)C=C5)cc3)=C[C@@H]2C1
REMARK SMILES IDX 15 1 16 2 17 3 14 5 13 6 12 7 11 8 9 9 10 10 8 12 2 13 3 14
REMARK SMILES IDX 1 15 4 16 80 17 5 18 79 19 6 20 78 21 7 22 18 23 19 24 77 25
REMARK SMILES IDX 20 26 76 27 21 28 22 29 23 30 70 31 24 32 75 33 69 34 71 35
REMARK SMILES IDX 25 36 74 37 68 38 67 39 26 41 56 42 37 43 55 44 38 45 41 46
REMARK SMILES IDX 54 47 72 48 39 49 40 50 53 52 73 53 42 54 27 55 28 56 36 57
REMARK SMILES IDX 29 58 35 59 30 60 31 61 32 62 33 63 34 64 57 65 58 66 66 67
REMARK SMILES IDX 59 68 65 69 60 70 61 71 62 72 63 73 64 74 43 75 44 76 52 77
REMARK SMILES IDX 45 78 51 79 46 80 47 81 48 82 49 83 50 84
REMARK H PARENT 15 4 11 11 71 40 41 51
REMARK Flexibility Score: inf
ROOT
ATOM      1  N   UNL     1      -8.897  -2.981   4.064  1.00  0.00    -0.352 N 
ATOM      2  C   UNL     1     -10.063  -3.283   4.745  1.00  0.00     0.251 C 
ATOM      3  O   UNL     1     -11.009  -2.515   4.726  1.00  0.00    -0.269 OA
ATOM      4  H   UNL     1      -8.768  -2.033   3.831  1.00  0.00     0.163 HD
ENDROOT
BRANCH   1   5
ATOM      5  C   UNL     1      -7.830  -3.892   3.649  1.00  0.00     0.118 C 
BRANCH   5   6
ATOM      6  C   UNL     1      -6.697  -3.167   2.927  1.00  0.00     0.042 C 
BRANCH   6   7
ATOM      7  C   UNL     1      -5.834  -2.347   3.892  1.00  0.00     0.118 C 
BRANCH   7   8
ATOM      8  N   UNL     1      -4.937  -3.206   4.642  1.00  0.00    -0.351 N 
ATOM      9  C   UNL     1      -3.597  -3.434   4.623  1.00  0.00     0.269 C 
ATOM     10  O   UNL     1      -3.182  -4.297   5.402  1.00  0.00    -0.268 OA
ATOM     11  H   UNL     1      -5.405  -3.746   5.319  1.00  0.00     0.163 HD
BRANCH   9  12
ATOM     12  C   UNL     1      -2.626  -2.639   3.789  1.00  0.00     0.125 C 
ATOM     13  N   UNL     1       0.905  -0.225  -0.118  1.00  0.00    -0.305 NA
ATOM     14  C   UNL     1       0.430  -0.860   0.903  1.00  0.00     0.032 C 
ATOM     15  H   UNL     1       1.855   0.032  -0.140  1.00  0.00     0.187 HD
ATOM     16  C   UNL     1       1.291  -1.264   2.047  1.00  0.00     0.025 C 
ATOM     17  C   UNL     1      -1.042  -1.242   0.905  1.00  0.00     0.069 C 
ATOM     18  C   UNL     1       0.769  -1.787   3.161  1.00  0.00     0.026 C 
ATOM     19  C   UNL     1      -1.583  -1.188   2.313  1.00  0.00     0.069 C 
ATOM     20  C   UNL     1      -0.688  -1.924   3.269  1.00  0.00     0.049 C 
ATOM     21  C   UNL     1      -2.829  -1.937   2.662  1.00  0.00     0.017 C 
ATOM     22  N   UNL     1      -1.290  -2.646   4.155  1.00  0.00    -0.247 NA
ENDBRANCH   9  12
ENDBRANCH   7   8
ENDBRANCH   6   7
ENDBRANCH   5   6
ENDBRANCH   1   5
BRANCH   2  23
ATOM     23  C   UNL     1     -10.137  -4.558   5.484  1.00  0.00     0.039 A 
ATOM     24  C   UNL     1     -11.271  -5.371   5.400  1.00  0.00     0.014 A 
ATOM     25  C   UNL     1      -9.034  -4.947   6.239  1.00  0.00     0.014 A 
ATOM     26  C   UNL     1     -11.249  -6.627   6.007  1.00  0.00     0.010 A 
ATOM     27  C   UNL     1      -8.968  -6.228   6.734  1.00  0.00     0.010 A 
ATOM     28  C   UNL     1     -10.084  -7.061   6.654  1.00  0.00    -0.014 A 
BRANCH  28  29
ATOM     29  C   UNL     1      -9.968  -8.434   7.146  1.00  0.00     0.031 A 
ATOM     30  C   UNL     1     -10.139  -9.502   6.120  1.00  0.00     0.074 A 
ATOM     31  C   UNL     1      -9.460  -8.730   8.362  1.00  0.00     0.049 A 
ATOM     32  N   UNL     1     -11.061 -10.406   6.051  1.00  0.00    -0.248 NA
ATOM     33  C   UNL     1      -9.223  -9.501   4.966  1.00  0.00     0.031 C 
ATOM     34  C   UNL     1      -8.910  -7.802   9.357  1.00  0.00     0.029 A 
ATOM     35  N   UNL     1      -9.180  -9.948   8.902  1.00  0.00    -0.354 N 
ATOM     36  C   UNL     1     -10.722 -11.222   4.973  1.00  0.00     0.074 A 
ATOM     37  C   UNL     1      -9.702 -10.514   4.242  1.00  0.00     0.031 C 
ATOM     38  C   UNL     1      -8.139  -8.484  10.231  1.00  0.00     0.029 A 
ATOM     39  C   UNL     1      -8.289  -9.903   9.969  1.00  0.00     0.049 A 
ATOM     40  H   UNL     1      -9.573 -10.786   8.567  1.00  0.00     0.167 HD
ATOM     41  C   UNL     1     -11.124 -12.524   4.896  1.00  0.00     0.031 A 
ATOM     42  C   UNL     1      -7.681 -10.955  10.570  1.00  0.00     0.031 A 
ATOM     43  C   UNL     1     -12.146 -12.825   5.865  1.00  0.00     0.049 A 
ATOM     44  C   UNL     1      -8.473 -12.164  10.240  1.00  0.00     0.074 A 
ATOM     45  C   UNL     1     -13.408 -12.337   6.143  1.00  0.00     0.029 A 
ATOM     46  N   UNL     1     -11.753 -13.518   6.987  1.00  0.00    -0.354 N 
ATOM     47  N   UNL     1      -9.697 -12.355  10.649  1.00  0.00    -0.248 NA
ATOM     48  C   UNL     1      -8.065 -12.972   9.103  1.00  0.00     0.031 C 
ATOM     49  C   UNL     1     -13.496 -12.343   7.567  1.00  0.00     0.029 A 
ATOM     50  C   UNL     1     -12.317 -12.896   8.071  1.00  0.00     0.049 A 
ATOM     51  H   UNL     1     -11.174 -14.313   7.008  1.00  0.00     0.167 HD
ATOM     52  C   UNL     1     -10.338 -12.960   9.579  1.00  0.00     0.074 A 
ATOM     53  C   UNL     1      -9.259 -13.422   8.708  1.00  0.00     0.031 C 
ATOM     54  C   UNL     1     -11.676 -12.781   9.364  1.00  0.00     0.031 A 
BRANCH  41  55
ATOM     55  C   UNL     1     -10.320 -13.625   4.238  1.00  0.00    -0.014 A 
ATOM     56  C   UNL     1     -10.861 -14.929   4.191  1.00  0.00     0.010 A 
ATOM     57  C   UNL     1      -8.951 -13.495   3.926  1.00  0.00     0.010 A 
ATOM     58  C   UNL     1     -10.054 -16.046   3.933  1.00  0.00     0.020 A 
ATOM     59  C   UNL     1      -8.149 -14.597   3.620  1.00  0.00     0.020 A 
ATOM     60  C   UNL     1      -8.697 -15.871   3.666  1.00  0.00     0.054 A 
BRANCH  60  61
ATOM     61  S   UNL     1      -7.636 -17.322   3.456  1.00  0.00     0.124 S 
ATOM     62  O   UNL     1      -7.644 -17.894   4.799  1.00  0.00    -0.237 OA
ATOM     63  O   UNL     1      -8.353 -18.085   2.437  1.00  0.00    -0.237 OA
ATOM     64  O   UNL     1      -6.363 -16.754   3.021  1.00  0.00    -0.744 OA
ENDBRANCH  60  61
ENDBRANCH  41  55
BRANCH  42  65
ATOM     65  C   UNL     1      -6.330 -11.016  11.177  1.00  0.00    -0.014 A 
ATOM     66  C   UNL     1      -5.959 -12.090  12.007  1.00  0.00     0.010 A 
ATOM     67  C   UNL     1      -5.308 -10.159  10.717  1.00  0.00     0.010 A 
ATOM     68  C   UNL     1      -4.609 -12.338  12.308  1.00  0.00     0.020 A 
ATOM     69  C   UNL     1      -3.961 -10.395  11.020  1.00  0.00     0.020 A 
ATOM     70  C   UNL     1      -3.616 -11.501  11.793  1.00  0.00     0.054 A 
BRANCH  70  71
ATOM     71  S   UNL     1      -1.868 -11.942  12.027  1.00  0.00     0.124 S 
ATOM     72  O   UNL     1      -1.669 -11.683  13.450  1.00  0.00    -0.237 OA
ATOM     73  O   UNL     1      -1.839 -13.347  11.631  1.00  0.00    -0.237 OA
ATOM     74  O   UNL     1      -1.159 -11.034  11.127  1.00  0.00    -0.744 OA
ENDBRANCH  70  71
ENDBRANCH  42  65
BRANCH  54  75
ATOM     75  C   UNL     1     -12.513 -12.186  10.474  1.00  0.00    -0.014 A 
ATOM     76  C   UNL     1     -12.302 -10.902  11.016  1.00  0.00     0.010 A 
ATOM     77  C   UNL     1     -13.655 -12.901  10.876  1.00  0.00     0.010 A 
ATOM     78  C   UNL     1     -13.196 -10.364  11.955  1.00  0.00     0.020 A 
ATOM     79  C   UNL     1     -14.559 -12.364  11.795  1.00  0.00     0.020 A 
ATOM     80  C   UNL     1     -14.320 -11.101  12.338  1.00  0.00     0.054 A 
BRANCH  80  81
ATOM     81  S   UNL     1     -15.500 -10.385  13.517  1.00  0.00     0.124 S 
ATOM     82  O   UNL     1     -14.739 -10.376  14.763  1.00  0.00    -0.237 OA
ATOM     83  O   UNL     1     -15.780  -9.072  12.941  1.00  0.00    -0.237 OA
ATOM     84  O   UNL     1     -16.628 -11.316  13.490  1.00  0.00    -0.744 OA
ENDBRANCH  80  81
ENDBRANCH  54  75
ENDBRANCH  28  29
ENDBRANCH   2  23
TORSDOF 13
