REMARK SMILES Cc1ccc(Cl)c(Nc2ccccc2C(=O)N[C@@H](C)C(=O)NCCCNC(=O)c2ccc(-c3c4nc(c(-c5ccc(S(=O)(=O)[O-])cc5)c5ccc([nH]5)c(-c5ccc(S(=O)(=O)[O-])cc5)c5nc(c(-c6ccc(S(=O)(=O)[O-])cc6)c6ccc3[nH]6)C=C5)C=C4)cc2)c1Cl
REMARK SMILES IDX 23 1 22 2 20 3 21 4 18 6 19 7 17 8 15 9 16 10 14 12 9 13
REMARK SMILES IDX 10 14 11 15 13 16 12 17 8 18 7 20 1 21 2 22 3 23 89 24 4 25
REMARK SMILES IDX 90 26 5 27 6 28 24 29 25 30 26 31 27 32 28 34 29 35 30 36
REMARK SMILES IDX 88 37 31 38 87 39 32 40 33 41 34 42 81 43 35 44 86 45 80 46
REMARK SMILES IDX 82 47 36 48 85 49 79 50 78 51 37 53 67 54 48 55 66 56 49 57
REMARK SMILES IDX 52 58 65 59 83 60 50 61 51 62 64 64 84 65 53 66 38 67 39 68
REMARK SMILES IDX 47 69 40 70 46 71 41 72 42 73 43 74 44 75 45 76 68 77 69 78
REMARK SMILES IDX 77 79 70 80 76 81 71 82 72 83 73 84 74 85 75 86 54 87 55 88
REMARK SMILES IDX 63 89 56 90 62 91 57 92 58 93 59 94 60 95 61 96
REMARK H PARENT 22 5 17 11 8 19 26 33 82 52 52 63
REMARK Flexibility Score: inf
ROOT
ATOM      1  C   UNL     1      -1.876   1.724   3.300  1.00  0.00     0.117 C 
ENDROOT
BRANCH   1   2
ATOM      2  N   UNL     1      -1.815   1.088   1.991  1.00  0.00    -0.354 N 
ATOM      3  C   UNL     1      -0.791   0.211   1.747  1.00  0.00     0.242 C 
ATOM      4  O   UNL     1       0.304   0.682   1.441  1.00  0.00    -0.273 OA
ATOM      5  H   UNL     1      -2.491   1.283   1.302  1.00  0.00     0.163 HD
BRANCH   3   6
ATOM      6  C   UNL     1      -1.073  -1.310   1.814  1.00  0.00     0.168 C 
ATOM      7  C   UNL     1      -2.340  -1.691   2.562  1.00  0.00     0.041 C 
BRANCH   6   8
ATOM      8  N   UNL     1       0.117  -1.877   2.432  1.00  0.00    -0.340 N 
ATOM      9  C   UNL     1       1.296  -2.240   1.823  1.00  0.00     0.254 C 
ATOM     10  O   UNL     1       2.333  -1.959   2.432  1.00  0.00    -0.269 OA
ATOM     11  H   UNL     1       0.072  -2.018   3.406  1.00  0.00     0.164 HD
BRANCH   9  12
ATOM     12  C   UNL     1       1.381  -3.207   0.686  1.00  0.00     0.063 A 
ATOM     13  C   UNL     1       0.758  -3.190  -0.577  1.00  0.00     0.051 A 
ATOM     14  C   UNL     1       0.973  -4.298  -1.437  1.00  0.00     0.027 A 
ATOM     15  C   UNL     1       1.825  -5.352  -1.105  1.00  0.00     0.002 A 
ATOM     16  C   UNL     1       2.255  -4.282   0.994  1.00  0.00     0.016 A 
ATOM     17  C   UNL     1       2.486  -5.334   0.109  1.00  0.00     0.001 A 
BRANCH  13  18
ATOM     18  N   UNL     1       0.020  -2.146  -1.164  1.00  0.00    -0.352 N 
ATOM     19  H   UNL     1      -0.855  -2.442  -1.505  1.00  0.00     0.167 HD
BRANCH  18  20
ATOM     20  C   UNL     1       0.253  -0.762  -1.376  1.00  0.00     0.077 A 
ATOM     21  C   UNL     1       2.848   2.034  -0.925  1.00  0.00     0.046 C 
ATOM     22  C   UNL     1       1.570   1.310  -1.259  1.00  0.00    -0.030 A 
ATOM     23  C   UNL     1       0.421   2.066  -1.536  1.00  0.00     0.006 A 
ATOM     24  C   UNL     1       1.493  -0.104  -1.230  1.00  0.00     0.069 A 
ATOM     25  C   UNL     1      -0.795   1.436  -1.765  1.00  0.00     0.023 A 
ATOM     26  Cl  UNL     1       2.982  -0.995  -1.134  1.00  0.00    -0.082 Cl
ATOM     27  C   UNL     1      -0.876   0.047  -1.670  1.00  0.00     0.066 A 
ATOM     28  Cl  UNL     1      -2.444  -0.670  -1.892  1.00  0.00    -0.082 Cl
ENDBRANCH  18  20
ENDBRANCH  13  18
ENDBRANCH   9  12
ENDBRANCH   6   8
ENDBRANCH   3   6
ENDBRANCH   1   2
BRANCH   1  29
ATOM     29  C   UNL     1      -0.659   2.596   3.634  1.00  0.00     0.042 C 
BRANCH  29  30
ATOM     30  C   UNL     1      -0.367   3.691   2.611  1.00  0.00     0.118 C 
BRANCH  30  31
ATOM     31  N   UNL     1      -1.473   4.633   2.498  1.00  0.00    -0.352 N 
ATOM     32  C   UNL     1      -1.660   5.835   3.131  1.00  0.00     0.251 C 
ATOM     33  H   UNL     1      -2.189   4.369   1.877  1.00  0.00     0.163 HD
ATOM     34  O   UNL     1      -2.784   6.341   3.147  1.00  0.00    -0.269 OA
BRANCH  32  35
ATOM     35  C   UNL     1      -0.531   6.516   3.795  1.00  0.00     0.039 A 
ATOM     36  C   UNL     1      -0.722   7.091   5.054  1.00  0.00     0.014 A 
ATOM     37  C   UNL     1       0.705   6.633   3.153  1.00  0.00     0.014 A 
ATOM     38  C   UNL     1       0.341   7.737   5.691  1.00  0.00     0.010 A 
ATOM     39  C   UNL     1       1.782   7.211   3.819  1.00  0.00     0.010 A 
ATOM     40  C   UNL     1       1.609   7.782   5.089  1.00  0.00    -0.014 A 
BRANCH  40  41
ATOM     41  C   UNL     1       2.762   8.438   5.758  1.00  0.00     0.031 A 
ATOM     42  C   UNL     1       3.402   9.653   5.139  1.00  0.00     0.074 A 
ATOM     43  C   UNL     1       3.271   7.907   6.887  1.00  0.00     0.049 A 
ATOM     44  N   UNL     1       4.450  10.328   5.539  1.00  0.00    -0.248 NA
ATOM     45  C   UNL     1       2.803  10.161   3.894  1.00  0.00     0.031 C 
ATOM     46  C   UNL     1       2.767   6.710   7.564  1.00  0.00     0.029 A 
ATOM     47  N   UNL     1       4.333   8.302   7.662  1.00  0.00    -0.354 N 
ATOM     48  C   UNL     1       4.649  11.320   4.585  1.00  0.00     0.074 A 
ATOM     49  C   UNL     1       3.642  11.131   3.564  1.00  0.00     0.031 C 
ATOM     50  C   UNL     1       3.500   6.486   8.667  1.00  0.00     0.029 A 
ATOM     51  C   UNL     1       4.550   7.496   8.755  1.00  0.00     0.049 A 
ATOM     52  H   UNL     1       4.888   9.089   7.455  1.00  0.00     0.167 HD
ATOM     53  C   UNL     1       5.573  12.310   4.568  1.00  0.00     0.031 A 
ATOM     54  C   UNL     1       5.489   7.561   9.719  1.00  0.00     0.031 A 
ATOM     55  C   UNL     1       6.561  12.506   5.596  1.00  0.00     0.049 A 
ATOM     56  C   UNL     1       6.502   8.673   9.681  1.00  0.00     0.074 A 
ATOM     57  C   UNL     1       7.503  13.515   5.702  1.00  0.00     0.029 A 
ATOM     58  N   UNL     1       6.734  11.679   6.695  1.00  0.00    -0.354 N 
ATOM     59  N   UNL     1       6.632   9.640   8.805  1.00  0.00    -0.248 NA
ATOM     60  C   UNL     1       7.485   8.711  10.773  1.00  0.00     0.031 C 
ATOM     61  C   UNL     1       8.275  13.271   6.843  1.00  0.00     0.029 A 
ATOM     62  C   UNL     1       7.778  12.144   7.477  1.00  0.00     0.049 A 
ATOM     63  H   UNL     1       6.194  10.880   6.891  1.00  0.00     0.167 HD
ATOM     64  C   UNL     1       7.690  10.420   9.258  1.00  0.00     0.074 A 
ATOM     65  C   UNL     1       8.156   9.819  10.491  1.00  0.00     0.031 C 
ATOM     66  C   UNL     1       8.225  11.537   8.705  1.00  0.00     0.031 A 
BRANCH  53  67
ATOM     67  C   UNL     1       5.561  13.256   3.395  1.00  0.00    -0.014 A 
ATOM     68  C   UNL     1       4.519  14.184   3.219  1.00  0.00     0.010 A 
ATOM     69  C   UNL     1       6.626  13.242   2.475  1.00  0.00     0.010 A 
ATOM     70  C   UNL     1       4.518  15.049   2.121  1.00  0.00     0.020 A 
ATOM     71  C   UNL     1       6.644  14.126   1.392  1.00  0.00     0.020 A 
ATOM     72  C   UNL     1       5.579  15.012   1.212  1.00  0.00     0.054 A 
BRANCH  72  73
ATOM     73  S   UNL     1       5.561  16.159  -0.193  1.00  0.00     0.124 S 
ATOM     74  O   UNL     1       4.532  15.571  -1.047  1.00  0.00    -0.237 OA
ATOM     75  O   UNL     1       5.205  17.429   0.434  1.00  0.00    -0.237 OA
ATOM     76  O   UNL     1       6.922  16.087  -0.718  1.00  0.00    -0.744 OA
ENDBRANCH  72  73
ENDBRANCH  53  67
BRANCH  54  77
ATOM     77  C   UNL     1       5.498   6.558  10.820  1.00  0.00    -0.014 A 
ATOM     78  C   UNL     1       5.132   6.934  12.124  1.00  0.00     0.010 A 
ATOM     79  C   UNL     1       5.864   5.223  10.570  1.00  0.00     0.010 A 
ATOM     80  C   UNL     1       5.153   5.999  13.164  1.00  0.00     0.020 A 
ATOM     81  C   UNL     1       5.859   4.279  11.601  1.00  0.00     0.020 A 
ATOM     82  C   UNL     1       5.516   4.676  12.895  1.00  0.00     0.054 A 
BRANCH  82  83
ATOM     83  S   UNL     1       5.493   3.471  14.251  1.00  0.00     0.124 S 
ATOM     84  O   UNL     1       6.680   3.847  15.012  1.00  0.00    -0.237 OA
ATOM     85  O   UNL     1       4.212   3.748  14.898  1.00  0.00    -0.237 OA
ATOM     86  O   UNL     1       5.568   2.183  13.565  1.00  0.00    -0.744 OA
ENDBRANCH  82  83
ENDBRANCH  54  77
BRANCH  66  87
ATOM     87  C   UNL     1       9.343  12.214   9.453  1.00  0.00    -0.014 A 
ATOM     88  C   UNL     1      10.630  11.652   9.511  1.00  0.00     0.010 A 
ATOM     89  C   UNL     1       9.109  13.460  10.062  1.00  0.00     0.010 A 
ATOM     90  C   UNL     1      11.656  12.309  10.196  1.00  0.00     0.020 A 
ATOM     91  C   UNL     1      10.139  14.133  10.724  1.00  0.00     0.020 A 
ATOM     92  C   UNL     1      11.403  13.546  10.800  1.00  0.00     0.054 A 
BRANCH  92  93
ATOM     93  S   UNL     1      12.759  14.399  11.648  1.00  0.00     0.124 S 
ATOM     94  O   UNL     1      12.885  13.622  12.878  1.00  0.00    -0.237 OA
ATOM     95  O   UNL     1      13.866  14.264  10.704  1.00  0.00    -0.237 OA
ATOM     96  O   UNL     1      12.259  15.761  11.820  1.00  0.00    -0.744 OA
ENDBRANCH  92  93
ENDBRANCH  66  87
ENDBRANCH  40  41
ENDBRANCH  32  35
ENDBRANCH  30  31
ENDBRANCH  29  30
ENDBRANCH   1  29
TORSDOF 17
