REMARK SMILES C[C@@H]1C[N@@H+](C[C@]2(C(=O)NCCCNC(=O)c3ccc(-c4c5nc(c(-c6ccc(S(=O)(=O)[O-])cc6)c6ccc([nH]6)c(-c6ccc(S(=O)(=O)[O-])cc6)c6nc(c(-c7ccc(S(=O)(=O)[O-])cc7)c7ccc4[nH]7)C=C6)C=C5)cc3)CCOC2)C[C@@H]1C
REMARK SMILES IDX 11 1 10 2 9 3 7 4 8 5 6 7 76 8 79 9 77 10 78 11 5 12 4 13
REMARK SMILES IDX 1 14 2 15 3 16 81 17 80 18 82 19 12 21 13 22 14 23 15 25
REMARK SMILES IDX 16 26 17 27 75 28 18 29 74 30 19 31 20 32 21 33 68 34 22 35
REMARK SMILES IDX 73 36 67 37 69 38 23 39 72 40 66 41 65 42 24 44 54 45 35 46
REMARK SMILES IDX 53 47 36 48 39 49 52 50 70 51 37 52 38 53 51 55 71 56 40 57
REMARK SMILES IDX 25 58 26 59 34 60 27 61 33 62 28 63 29 64 30 65 31 66 32 67
REMARK SMILES IDX 55 68 56 69 64 70 57 71 63 72 58 73 59 74 60 75 61 76 62 77
REMARK SMILES IDX 41 78 42 79 50 80 43 81 49 82 44 83 45 84 46 85 47 86 48 87
REMARK H PARENT 9 6 4 20 13 24 69 43 39 54
REMARK Flexibility Score: inf
ROOT
ATOM      1  C   UNL     1      -0.537   5.903   4.012  1.00  0.00     0.042 C 
ENDROOT
BRANCH   1   2
ATOM      2  C   UNL     1      -0.198   4.718   3.114  1.00  0.00     0.117 C 
BRANCH   2   3
ATOM      3  N   UNL     1       0.593   3.722   3.816  1.00  0.00    -0.355 N 
ATOM      4  C   UNL     1       0.305   2.456   4.225  1.00  0.00     0.234 C 
ATOM      5  O   UNL     1       1.151   1.912   4.939  1.00  0.00    -0.274 OA
ATOM      6  H   UNL     1       1.506   4.017   4.037  1.00  0.00     0.163 HD
BRANCH   4   7
ATOM      7  C   UNL     1      -1.013   1.759   3.841  1.00  0.00     0.123 C 
ATOM      8  C   UNL     1      -1.165   1.738   2.323  1.00  0.00     0.054 C 
ATOM      9  C   UNL     1      -0.863   0.259   4.140  1.00  0.00     0.183 C 
ATOM     10  C   UNL     1      -1.716   0.376   1.979  1.00  0.00     0.161 C 
ATOM     11  O   UNL     1      -1.439  -0.498   3.066  1.00  0.00    -0.380 OA
BRANCH   7  12
ATOM     12  C   UNL     1      -2.143   2.436   4.675  1.00  0.00     0.281 C 
BRANCH  12  13
ATOM     13  N   UNL     1      -3.535   2.036   4.617  1.00  0.00    -0.333 N 
ATOM     14  C   UNL     1      -5.601  -1.017   4.881  1.00  0.00     0.014 C 
ATOM     15  C   UNL     1      -4.683   0.046   4.304  1.00  0.00     0.049 C 
ATOM     16  C   UNL     1      -4.010   0.896   5.370  1.00  0.00     0.265 C 
ATOM     17  C   UNL     1      -5.314   1.083   3.360  1.00  0.00     0.049 C 
ATOM     18  C   UNL     1      -4.356   2.285   3.450  1.00  0.00     0.265 C 
ATOM     19  C   UNL     1      -6.743   1.489   3.712  1.00  0.00     0.014 C 
ATOM     20  H   UNL     1      -3.690   2.855   5.206  1.00  0.00     0.348 HD
ENDBRANCH  12  13
ENDBRANCH   7  12
ENDBRANCH   4   7
ENDBRANCH   2   3
ENDBRANCH   1   2
BRANCH   1  21
ATOM     21  C   UNL     1       0.673   6.725   4.434  1.00  0.00     0.118 C 
BRANCH  21  22
ATOM     22  N   UNL     1       1.346   7.339   3.301  1.00  0.00    -0.352 N 
ATOM     23  C   UNL     1       1.730   8.641   3.107  1.00  0.00     0.251 C 
ATOM     24  H   UNL     1       1.559   6.726   2.561  1.00  0.00     0.163 HD
ATOM     25  O   UNL     1       2.109   8.989   1.992  1.00  0.00    -0.269 OA
BRANCH  23  26
ATOM     26  C   UNL     1       1.686   9.619   4.217  1.00  0.00     0.039 A 
ATOM     27  C   UNL     1       1.323  10.938   3.929  1.00  0.00     0.014 A 
ATOM     28  C   UNL     1       2.060   9.267   5.518  1.00  0.00     0.014 A 
ATOM     29  C   UNL     1       1.318  11.895   4.945  1.00  0.00     0.010 A 
ATOM     30  C   UNL     1       1.979  10.203   6.545  1.00  0.00     0.010 A 
ATOM     31  C   UNL     1       1.639  11.533   6.263  1.00  0.00    -0.014 A 
BRANCH  31  32
ATOM     32  C   UNL     1       1.686  12.551   7.341  1.00  0.00     0.031 A 
ATOM     33  C   UNL     1       3.001  12.899   7.989  1.00  0.00     0.074 A 
ATOM     34  C   UNL     1       0.551  13.145   7.754  1.00  0.00     0.049 A 
ATOM     35  N   UNL     1       3.252  13.768   8.934  1.00  0.00    -0.248 NA
ATOM     36  C   UNL     1       4.185  12.155   7.530  1.00  0.00     0.031 C 
ATOM     37  C   UNL     1      -0.788  12.871   7.228  1.00  0.00     0.029 A 
ATOM     38  N   UNL     1       0.344  14.112   8.704  1.00  0.00    -0.354 N 
ATOM     39  C   UNL     1       4.613  13.659   9.196  1.00  0.00     0.074 A 
ATOM     40  C   UNL     1       5.123  12.604   8.349  1.00  0.00     0.031 C 
ATOM     41  C   UNL     1      -1.670  13.686   7.830  1.00  0.00     0.029 A 
ATOM     42  C   UNL     1      -0.965  14.515   8.803  1.00  0.00     0.049 A 
ATOM     43  H   UNL     1       1.066  14.481   9.263  1.00  0.00     0.167 HD
ATOM     44  C   UNL     1       5.378  14.385  10.048  1.00  0.00     0.031 A 
ATOM     45  C   UNL     1      -1.531  15.461   9.577  1.00  0.00     0.031 A 
ATOM     46  C   UNL     1       4.872  15.444  10.878  1.00  0.00     0.049 A 
ATOM     47  C   UNL     1      -0.664  16.264  10.506  1.00  0.00     0.074 A 
ATOM     48  C   UNL     1       5.567  16.274  11.740  1.00  0.00     0.029 A 
ATOM     49  N   UNL     1       3.539  15.822  10.947  1.00  0.00    -0.354 N 
ATOM     50  N   UNL     1       0.631  16.184  10.701  1.00  0.00    -0.248 NA
ATOM     51  C   UNL     1      -1.335  17.298  11.305  1.00  0.00     0.031 C 
ATOM     52  C   UNL     1       4.648  17.131  12.357  1.00  0.00     0.029 A 
ATOM     53  C   UNL     1       3.388  16.865  11.844  1.00  0.00     0.049 A 
ATOM     54  H   UNL     1       2.808  15.409  10.434  1.00  0.00     0.167 HD
ATOM     55  C   UNL     1       0.936  17.182  11.620  1.00  0.00     0.074 A 
ATOM     56  C   UNL     1      -0.309  17.853  11.936  1.00  0.00     0.031 C 
ATOM     57  C   UNL     1       2.139  17.519  12.147  1.00  0.00     0.031 A 
BRANCH  44  58
ATOM     58  C   UNL     1       6.841  14.033  10.122  1.00  0.00    -0.014 A 
ATOM     59  C   UNL     1       7.707  14.293   9.043  1.00  0.00     0.010 A 
ATOM     60  C   UNL     1       7.353  13.413  11.275  1.00  0.00     0.010 A 
ATOM     61  C   UNL     1       9.040  13.876   9.088  1.00  0.00     0.020 A 
ATOM     62  C   UNL     1       8.694  13.020  11.335  1.00  0.00     0.020 A 
ATOM     63  C   UNL     1       9.521  13.229  10.229  1.00  0.00     0.054 A 
BRANCH  63  64
ATOM     64  S   UNL     1      11.246  12.668  10.255  1.00  0.00     0.124 S 
ATOM     65  O   UNL     1      11.178  11.457   9.439  1.00  0.00    -0.237 OA
ATOM     66  O   UNL     1      11.961  13.790   9.652  1.00  0.00    -0.237 OA
ATOM     67  O   UNL     1      11.517  12.450  11.673  1.00  0.00    -0.744 OA
ENDBRANCH  63  64
ENDBRANCH  44  58
BRANCH  45  68
ATOM     68  C   UNL     1      -2.985  15.743   9.450  1.00  0.00    -0.014 A 
ATOM     69  C   UNL     1      -3.421  16.910   8.797  1.00  0.00     0.010 A 
ATOM     70  C   UNL     1      -3.940  14.838   9.947  1.00  0.00     0.010 A 
ATOM     71  C   UNL     1      -4.785  17.172   8.649  1.00  0.00     0.020 A 
ATOM     72  C   UNL     1      -5.306  15.087   9.781  1.00  0.00     0.020 A 
ATOM     73  C   UNL     1      -5.720  16.256   9.139  1.00  0.00     0.054 A 
BRANCH  73  74
ATOM     74  S   UNL     1      -7.485  16.583   8.873  1.00  0.00     0.124 S 
ATOM     75  O   UNL     1      -7.750  17.633   9.851  1.00  0.00    -0.237 OA
ATOM     76  O   UNL     1      -7.523  16.996   7.473  1.00  0.00    -0.237 OA
ATOM     77  O   UNL     1      -8.115  15.294   9.150  1.00  0.00    -0.744 OA
ENDBRANCH  73  74
ENDBRANCH  45  68
BRANCH  57  78
ATOM     78  C   UNL     1       2.172  18.694  13.086  1.00  0.00    -0.014 A 
ATOM     79  C   UNL     1       1.660  18.601  14.392  1.00  0.00     0.010 A 
ATOM     80  C   UNL     1       2.753  19.902  12.659  1.00  0.00     0.010 A 
ATOM     81  C   UNL     1       1.692  19.711  15.241  1.00  0.00     0.020 A 
ATOM     82  C   UNL     1       2.808  21.005  13.514  1.00  0.00     0.020 A 
ATOM     83  C   UNL     1       2.260  20.908  14.794  1.00  0.00     0.054 A 
BRANCH  83  84
ATOM     84  S   UNL     1       2.313  22.329  15.920  1.00  0.00     0.124 S 
ATOM     85  O   UNL     1       0.938  22.817  15.856  1.00  0.00    -0.237 OA
ATOM     86  O   UNL     1       2.706  21.721  17.189  1.00  0.00    -0.237 OA
ATOM     87  O   UNL     1       3.316  23.206  15.321  1.00  0.00    -0.744 OA
ENDBRANCH  83  84
ENDBRANCH  57  78
ENDBRANCH  31  32
ENDBRANCH  23  26
ENDBRANCH  21  22
ENDBRANCH   1  21
TORSDOF 15
