REMARK SMILES CCOc1ccccc1[C@H](C(=O)NCCCNC(=O)c1ccc(-c2c3nc(c(-c4ccc(S(=O)(=O)[O-])cc4)c4ccc([nH]4)c(-c4ccc(S(=O)(=O)[O-])cc4)c4nc(c(-c5ccc(S(=O)(=O)[O-])cc5)c5ccc2[nH]5)C=C4)C=C3)cc1)[NH+]1CCC([NH+]2CCSCC2)CC1
REMARK SMILES IDX 15 1 14 2 13 3 11 4 12 5 10 7 9 8 4 9 5 10 6 11 8 12 7 13
REMARK SMILES IDX 3 14 2 15 1 16 80 17 81 18 91 19 82 21 90 22 83 23 84 24
REMARK SMILES IDX 85 25 89 26 86 28 88 29 87 30 16 31 17 32 18 33 19 35 20 36
REMARK SMILES IDX 21 37 79 38 22 39 78 40 23 41 24 42 25 43 72 44 26 45 77 46
REMARK SMILES IDX 71 47 73 48 27 49 76 50 70 51 69 52 28 54 58 55 39 56 57 57
REMARK SMILES IDX 40 58 43 59 56 60 74 61 41 62 42 63 55 65 75 66 44 67 29 68
REMARK SMILES IDX 30 69 38 70 31 71 37 72 32 73 33 74 34 75 35 76 36 77 59 78
REMARK SMILES IDX 60 79 68 80 61 81 67 82 62 83 63 84 64 85 65 86 66 87 45 88
REMARK SMILES IDX 46 89 54 90 47 91 53 92 48 93 49 94 50 95 51 96 52 97
REMARK H PARENT 13 6 80 20 84 27 17 34 73 53 43 64
REMARK Flexibility Score: inf
ROOT
ATOM      1  C   UNL     1      -0.453   0.678   3.631  1.00  0.00     0.042 C 
ENDROOT
BRANCH   1   2
ATOM      2  C   UNL     1       0.700   0.990   2.703  1.00  0.00     0.118 C 
BRANCH   2   3
ATOM      3  N   UNL     1       1.746  -0.019   2.710  1.00  0.00    -0.351 N 
ATOM      4  C   UNL     1       2.720  -0.212   1.759  1.00  0.00     0.283 C 
ATOM      5  O   UNL     1       3.674  -0.926   2.084  1.00  0.00    -0.268 OA
ATOM      6  H   UNL     1       1.757  -0.632   3.480  1.00  0.00     0.163 HD
BRANCH   4   7
ATOM      7  C   UNL     1       2.518   0.394   0.337  1.00  0.00     0.309 C 
BRANCH   7   8
ATOM      8  C   UNL     1       2.501   1.930   0.248  1.00  0.00     0.061 A 
ATOM      9  C   UNL     1       3.001   2.798   1.235  1.00  0.00     0.128 A 
ATOM     10  C   UNL     1       2.743   4.172   1.168  1.00  0.00     0.047 A 
ATOM     11  C   UNL     1       2.067   4.709   0.073  1.00  0.00     0.004 A 
ATOM     12  C   UNL     1       1.869   2.502  -0.876  1.00  0.00     0.014 A 
ATOM     13  C   UNL     1       1.655   3.878  -0.962  1.00  0.00     0.001 A 
BRANCH   9  14
ATOM     14  O   UNL     1       3.583   2.260   2.347  1.00  0.00    -0.493 OA
BRANCH  14  15
ATOM     15  C   UNL     1       4.828   2.826   2.749  1.00  0.00     0.226 C 
ATOM     16  C   UNL     1       5.883   1.741   2.647  1.00  0.00     0.049 C 
ENDBRANCH  14  15
ENDBRANCH   9  14
ENDBRANCH   7   8
BRANCH   7  17
ATOM     17  N   UNL     1       3.358  -0.232  -0.734  1.00  0.00    -0.320 N 
ATOM     18  C   UNL     1       4.780   0.093  -0.622  1.00  0.00     0.269 C 
ATOM     19  C   UNL     1       3.150  -1.685  -0.830  1.00  0.00     0.269 C 
ATOM     20  H   UNL     1       3.033   0.186  -1.606  1.00  0.00     0.349 HD
ATOM     21  C   UNL     1       5.542  -0.401  -1.855  1.00  0.00     0.126 C 
ATOM     22  C   UNL     1       3.867  -2.260  -2.055  1.00  0.00     0.126 C 
ATOM     23  C   UNL     1       5.370  -1.919  -2.035  1.00  0.00     0.195 C 
BRANCH  23  24
ATOM     24  N   UNL     1       6.117  -2.521  -3.175  1.00  0.00    -0.331 N 
ATOM     25  C   UNL     1       7.575  -2.315  -3.028  1.00  0.00     0.273 C 
ATOM     26  C   UNL     1       5.653  -2.080  -4.504  1.00  0.00     0.273 C 
ATOM     27  H   UNL     1       5.915  -3.520  -3.131  1.00  0.00     0.348 HD
ATOM     28  C   UNL     1       8.431  -3.116  -4.018  1.00  0.00     0.131 C 
ATOM     29  C   UNL     1       6.287  -2.856  -5.669  1.00  0.00     0.131 C 
ATOM     30  S   UNL     1       8.091  -2.654  -5.742  1.00  0.00    -0.150 SA
ENDBRANCH  23  24
ENDBRANCH   7  17
ENDBRANCH   4   7
ENDBRANCH   2   3
ENDBRANCH   1   2
BRANCH   1  31
ATOM     31  C   UNL     1      -0.054   0.482   5.084  1.00  0.00     0.118 C 
BRANCH  31  32
ATOM     32  N   UNL     1       0.539   1.656   5.717  1.00  0.00    -0.352 N 
ATOM     33  C   UNL     1       0.178   2.280   6.896  1.00  0.00     0.251 C 
ATOM     34  H   UNL     1       1.300   2.058   5.238  1.00  0.00     0.163 HD
ATOM     35  O   UNL     1       0.740   3.300   7.262  1.00  0.00    -0.269 OA
BRANCH  33  36
ATOM     36  C   UNL     1      -0.945   1.714   7.677  1.00  0.00     0.039 A 
ATOM     37  C   UNL     1      -2.011   2.542   8.031  1.00  0.00     0.014 A 
ATOM     38  C   UNL     1      -0.994   0.345   7.941  1.00  0.00     0.014 A 
ATOM     39  C   UNL     1      -3.179   1.973   8.543  1.00  0.00     0.010 A 
ATOM     40  C   UNL     1      -2.196  -0.228   8.335  1.00  0.00     0.010 A 
ATOM     41  C   UNL     1      -3.306   0.576   8.638  1.00  0.00    -0.014 A 
BRANCH  41  42
ATOM     42  C   UNL     1      -4.582  -0.072   9.041  1.00  0.00     0.031 A 
ATOM     43  C   UNL     1      -4.610  -0.989  10.236  1.00  0.00     0.074 A 
ATOM     44  C   UNL     1      -5.688   0.081   8.282  1.00  0.00     0.049 A 
ATOM     45  N   UNL     1      -5.589  -1.732  10.683  1.00  0.00    -0.248 NA
ATOM     46  C   UNL     1      -3.359  -1.125  11.003  1.00  0.00     0.031 C 
ATOM     47  C   UNL     1      -5.781   0.880   7.056  1.00  0.00     0.029 A 
ATOM     48  N   UNL     1      -6.950  -0.442   8.425  1.00  0.00    -0.354 N 
ATOM     49  C   UNL     1      -5.059  -2.454  11.747  1.00  0.00     0.074 A 
ATOM     50  C   UNL     1      -3.663  -2.097  11.849  1.00  0.00     0.031 C 
ATOM     51  C   UNL     1      -7.037   0.823   6.583  1.00  0.00     0.029 A 
ATOM     52  C   UNL     1      -7.831  -0.047   7.444  1.00  0.00     0.049 A 
ATOM     53  H   UNL     1      -7.202  -1.044   9.162  1.00  0.00     0.167 HD
ATOM     54  C   UNL     1      -5.683  -3.317  12.583  1.00  0.00     0.031 A 
ATOM     55  C   UNL     1      -9.130  -0.352   7.257  1.00  0.00     0.031 A 
ATOM     56  C   UNL     1      -7.085  -3.621  12.521  1.00  0.00     0.049 A 
ATOM     57  C   UNL     1      -9.817  -1.263   8.238  1.00  0.00     0.074 A 
ATOM     58  C   UNL     1      -7.834  -4.401  13.385  1.00  0.00     0.029 A 
ATOM     59  N   UNL     1      -7.953  -3.151  11.549  1.00  0.00    -0.354 N 
ATOM     60  N   UNL     1      -9.316  -1.866   9.290  1.00  0.00    -0.248 NA
ATOM     61  C   UNL     1     -11.246  -1.523   8.015  1.00  0.00     0.031 C 
ATOM     62  C   UNL     1      -9.150  -4.431  12.914  1.00  0.00     0.029 A 
ATOM     63  C   UNL     1      -9.228  -3.635  11.783  1.00  0.00     0.049 A 
ATOM     64  H   UNL     1      -7.700  -2.560  10.803  1.00  0.00     0.167 HD
ATOM     65  C   UNL     1     -10.377  -2.553   9.870  1.00  0.00     0.074 A 
ATOM     66  C   UNL     1     -11.547  -2.280   9.061  1.00  0.00     0.031 C 
ATOM     67  C   UNL     1     -10.382  -3.340  10.974  1.00  0.00     0.031 A 
BRANCH  54  68
ATOM     68  C   UNL     1      -4.851  -3.983  13.646  1.00  0.00    -0.014 A 
ATOM     69  C   UNL     1      -4.352  -3.255  14.741  1.00  0.00     0.010 A 
ATOM     70  C   UNL     1      -4.598  -5.364  13.568  1.00  0.00     0.010 A 
ATOM     71  C   UNL     1      -3.579  -3.889  15.717  1.00  0.00     0.020 A 
ATOM     72  C   UNL     1      -3.850  -6.007  14.558  1.00  0.00     0.020 A 
ATOM     73  C   UNL     1      -3.331  -5.261  15.618  1.00  0.00     0.054 A 
BRANCH  73  74
ATOM     74  S   UNL     1      -2.353  -6.064  16.917  1.00  0.00     0.124 S 
ATOM     75  O   UNL     1      -1.000  -5.621  16.590  1.00  0.00    -0.237 OA
ATOM     76  O   UNL     1      -2.919  -5.501  18.140  1.00  0.00    -0.237 OA
ATOM     77  O   UNL     1      -2.610  -7.488  16.713  1.00  0.00    -0.744 OA
ENDBRANCH  73  74
ENDBRANCH  54  68
BRANCH  55  78
ATOM     78  C   UNL     1      -9.883   0.228   6.110  1.00  0.00    -0.014 A 
ATOM     79  C   UNL     1     -10.861   1.215   6.328  1.00  0.00     0.010 A 
ATOM     80  C   UNL     1      -9.638  -0.211   4.796  1.00  0.00     0.010 A 
ATOM     81  C   UNL     1     -11.602   1.729   5.260  1.00  0.00     0.020 A 
ATOM     82  C   UNL     1     -10.359   0.320   3.722  1.00  0.00     0.020 A 
ATOM     83  C   UNL     1     -11.349   1.275   3.963  1.00  0.00     0.054 A 
BRANCH  83  84
ATOM     84  S   UNL     1     -12.299   1.977   2.585  1.00  0.00     0.124 S 
ATOM     85  O   UNL     1     -13.579   1.288   2.719  1.00  0.00    -0.237 OA
ATOM     86  O   UNL     1     -12.312   3.403   2.901  1.00  0.00    -0.237 OA
ATOM     87  O   UNL     1     -11.511   1.615   1.410  1.00  0.00    -0.744 OA
ENDBRANCH  83  84
ENDBRANCH  55  78
BRANCH  67  88
ATOM     88  C   UNL     1     -11.699  -3.927  11.399  1.00  0.00    -0.014 A 
ATOM     89  C   UNL     1     -12.283  -4.992  10.692  1.00  0.00     0.010 A 
ATOM     90  C   UNL     1     -12.332  -3.439  12.557  1.00  0.00     0.010 A 
ATOM     91  C   UNL     1     -13.495  -5.540  11.120  1.00  0.00     0.020 A 
ATOM     92  C   UNL     1     -13.530  -4.001  13.002  1.00  0.00     0.020 A 
ATOM     93  C   UNL     1     -14.112  -5.039  12.271  1.00  0.00     0.054 A 
BRANCH  93  94
ATOM     94  S   UNL     1     -15.662  -5.795  12.833  1.00  0.00     0.124 S 
ATOM     95  O   UNL     1     -16.631  -5.227  11.900  1.00  0.00    -0.237 OA
ATOM     96  O   UNL     1     -15.401  -7.223  12.676  1.00  0.00    -0.237 OA
ATOM     97  O   UNL     1     -15.786  -5.340  14.216  1.00  0.00    -0.744 OA
ENDBRANCH  93  94
ENDBRANCH  67  88
ENDBRANCH  41  42
ENDBRANCH  33  36
ENDBRANCH  31  32
ENDBRANCH   1  31
TORSDOF 18
