REMARK SMILES O=C(N/N=C/c1ccccc1O)C(=O)Nc1cccc(C(=O)NCCCNC(=O)c2ccc(-c3c4nc(c(-c5ccc(S(=O)(=O)[O-])cc5)c5ccc([nH]5)c(-c5ccc(S(=O)(=O)[O-])cc5)c5nc(c(-c6ccc(S(=O)(=O)[O-])cc6)c6ccc3[nH]6)C=C5)C=C4)cc2)c1
REMARK SMILES IDX 24 1 23 2 21 3 22 4 20 6 16 7 17 8 90 9 18 10 19 11 15 12
REMARK SMILES IDX 13 13 14 14 2 16 1 17 3 18 4 20 5 21 6 22 7 23 11 24 8 25
REMARK SMILES IDX 10 26 9 27 12 28 25 30 26 31 27 32 28 33 29 35 30 36 31 37
REMARK SMILES IDX 89 38 32 39 88 40 33 41 34 42 35 43 82 44 36 45 87 46 81 47
REMARK SMILES IDX 83 48 37 49 86 50 80 51 79 52 38 54 68 55 49 56 67 57 50 58
REMARK SMILES IDX 53 59 66 60 84 61 51 62 52 63 65 65 85 66 54 67 39 68 40 69
REMARK SMILES IDX 48 70 41 71 47 72 42 73 43 74 44 75 45 76 46 77 69 78 70 79
REMARK SMILES IDX 78 80 71 81 77 82 72 83 73 84 74 85 75 86 76 87 55 88 56 89
REMARK SMILES IDX 64 90 57 91 63 92 58 93 59 94 60 95 61 96 62 97
REMARK H PARENT 23 5 15 15 3 19 12 29 27 34 83 53 53 64
REMARK Flexibility Score: inf
ROOT
ATOM      1  C   UNL     1       3.115  -3.451   0.166  1.00  0.00     0.118 C 
ENDROOT
BRANCH   1   2
ATOM      2  N   UNL     1       4.386  -3.963   0.654  1.00  0.00    -0.352 N 
ATOM      3  C   UNL     1       5.474  -3.305   1.167  1.00  0.00     0.251 C 
ATOM      4  O   UNL     1       6.349  -3.945   1.755  1.00  0.00    -0.269 OA
ATOM      5  H   UNL     1       4.480  -4.942   0.609  1.00  0.00     0.163 HD
BRANCH   3   6
ATOM      6  C   UNL     1       5.709  -1.848   1.005  1.00  0.00     0.041 A 
ATOM      7  C   UNL     1       5.286   0.919  -0.460  1.00  0.00     0.042 A 
ATOM      8  C   UNL     1       6.047   1.802   0.948  1.00  0.00     0.026 A 
ATOM      9  C   UNL     1       5.174  -0.895  -0.473  1.00  0.00     0.040 A 
ATOM     10  C   UNL     1       6.748   0.828   2.338  1.00  0.00     0.003 A 
ATOM     11  C   UNL     1       6.541  -0.976   2.372  1.00  0.00     0.014 A 
BRANCH   7  12
ATOM     12  N   UNL     1       4.288   1.643  -1.111  1.00  0.00    -0.318 N 
ATOM     13  C   UNL     1       2.964   1.729  -0.693  1.00  0.00     0.315 C 
ATOM     14  O   UNL     1       2.312   2.701  -1.086  1.00  0.00    -0.263 OA
ATOM     15  H   UNL     1       4.539   2.131  -1.928  1.00  0.00     0.170 HD
BRANCH  13  16
ATOM     16  C   UNL     1       2.239   0.736   0.250  1.00  0.00     0.329 C 
ATOM     17  O   UNL     1       1.063   0.456   0.017  1.00  0.00    -0.262 OA
ATOM     18  N   UNL     1       2.820   0.290   1.444  1.00  0.00    -0.239 N 
ATOM     19  H   UNL     1       2.470   0.564   2.322  1.00  0.00     0.194 HD
BRANCH  18  20
ATOM     20  N   UNL     1       3.900  -0.549   1.330  1.00  0.00    -0.180 NA
ATOM     21  C   UNL     1       5.125   0.068   1.347  1.00  0.00     0.145 C 
BRANCH  21  22
ATOM     22  C   UNL     1       7.022  -0.155   0.400  1.00  0.00     0.036 A 
ATOM     23  C   UNL     1       8.021   0.941   0.018  1.00  0.00     0.013 A 
ATOM     24  C   UNL     1       7.863  -1.353  -0.041  1.00  0.00     0.124 A 
ATOM     25  C   UNL     1       9.413   0.890  -0.291  1.00  0.00     0.001 A 
ATOM     26  C   UNL     1       9.280  -1.426  -0.287  1.00  0.00     0.047 A 
ATOM     27  C   UNL     1      10.066  -0.305  -0.349  1.00  0.00     0.004 A 
BRANCH  24  28
ATOM     28  O   UNL     1       7.356  -2.572  -0.504  1.00  0.00    -0.507 OA
ATOM     29  H   UNL     1       6.438  -2.751  -0.444  1.00  0.00     0.293 HD
ENDBRANCH  24  28
ENDBRANCH  21  22
ENDBRANCH  18  20
ENDBRANCH  13  16
ENDBRANCH   7  12
ENDBRANCH   3   6
ENDBRANCH   1   2
BRANCH   1  30
ATOM     30  C   UNL     1       2.857  -3.765  -1.302  1.00  0.00     0.042 C 
BRANCH  30  31
ATOM     31  C   UNL     1       2.406  -5.199  -1.556  1.00  0.00     0.118 C 
BRANCH  31  32
ATOM     32  N   UNL     1       1.074  -5.468  -1.025  1.00  0.00    -0.352 N 
ATOM     33  C   UNL     1      -0.094  -5.797  -1.669  1.00  0.00     0.251 C 
ATOM     34  H   UNL     1       1.001  -5.403  -0.045  1.00  0.00     0.163 HD
ATOM     35  O   UNL     1      -1.149  -5.797  -1.039  1.00  0.00    -0.269 OA
BRANCH  33  36
ATOM     36  C   UNL     1      -0.098  -6.144  -3.107  1.00  0.00     0.039 A 
ATOM     37  C   UNL     1      -1.128  -5.656  -3.919  1.00  0.00     0.014 A 
ATOM     38  C   UNL     1       0.876  -6.985  -3.649  1.00  0.00     0.014 A 
ATOM     39  C   UNL     1      -1.143  -5.957  -5.285  1.00  0.00     0.010 A 
ATOM     40  C   UNL     1       0.898  -7.231  -5.020  1.00  0.00     0.010 A 
ATOM     41  C   UNL     1      -0.112  -6.722  -5.851  1.00  0.00    -0.014 A 
BRANCH  41  42
ATOM     42  C   UNL     1      -0.065  -7.021  -7.305  1.00  0.00     0.031 A 
ATOM     43  C   UNL     1      -0.178  -8.443  -7.781  1.00  0.00     0.074 A 
ATOM     44  C   UNL     1       0.182  -6.033  -8.186  1.00  0.00     0.049 A 
ATOM     45  N   UNL     1       0.008  -8.929  -8.981  1.00  0.00    -0.248 NA
ATOM     46  C   UNL     1      -0.512  -9.454  -6.765  1.00  0.00     0.031 C 
ATOM     47  C   UNL     1       0.353  -4.617  -7.852  1.00  0.00     0.029 A 
ATOM     48  N   UNL     1       0.357  -6.077  -9.547  1.00  0.00    -0.354 N 
ATOM     49  C   UNL     1      -0.138 -10.306  -8.857  1.00  0.00     0.074 A 
ATOM     50  C   UNL     1      -0.413 -10.577  -7.462  1.00  0.00     0.031 C 
ATOM     51  C   UNL     1       0.603  -3.928  -8.977  1.00  0.00     0.029 A 
ATOM     52  C   UNL     1       0.644  -4.854 -10.105  1.00  0.00     0.049 A 
ATOM     53  H   UNL     1       0.284  -6.906 -10.073  1.00  0.00     0.167 HD
ATOM     54  C   UNL     1      -0.054 -11.258  -9.816  1.00  0.00     0.031 A 
ATOM     55  C   UNL     1       0.927  -4.517 -11.377  1.00  0.00     0.031 A 
ATOM     56  C   UNL     1       0.177 -10.988 -11.208  1.00  0.00     0.049 A 
ATOM     57  C   UNL     1       0.958  -5.582 -12.435  1.00  0.00     0.074 A 
ATOM     58  C   UNL     1       0.213 -11.880 -12.266  1.00  0.00     0.029 A 
ATOM     59  N   UNL     1       0.400  -9.727 -11.739  1.00  0.00    -0.354 N 
ATOM     60  N   UNL     1       0.785  -6.875 -12.304  1.00  0.00    -0.248 NA
ATOM     61  C   UNL     1       1.220  -5.142 -13.813  1.00  0.00     0.031 C 
ATOM     62  C   UNL     1       0.476 -11.158 -13.437  1.00  0.00     0.029 A 
ATOM     63  C   UNL     1       0.580  -9.815 -13.108  1.00  0.00     0.049 A 
ATOM     64  H   UNL     1       0.426  -8.892 -11.218  1.00  0.00     0.167 HD
ATOM     65  C   UNL     1       0.910  -7.403 -13.582  1.00  0.00     0.074 A 
ATOM     66  C   UNL     1       1.159  -6.290 -14.476  1.00  0.00     0.031 C 
ATOM     67  C   UNL     1       0.827  -8.696 -13.980  1.00  0.00     0.031 A 
BRANCH  54  68
ATOM     68  C   UNL     1      -0.203 -12.687  -9.372  1.00  0.00    -0.014 A 
ATOM     69  C   UNL     1      -1.461 -13.211  -9.026  1.00  0.00     0.010 A 
ATOM     70  C   UNL     1       0.933 -13.511  -9.288  1.00  0.00     0.010 A 
ATOM     71  C   UNL     1      -1.573 -14.519  -8.549  1.00  0.00     0.020 A 
ATOM     72  C   UNL     1       0.821 -14.827  -8.830  1.00  0.00     0.020 A 
ATOM     73  C   UNL     1      -0.429 -15.314  -8.439  1.00  0.00     0.054 A 
BRANCH  73  74
ATOM     74  S   UNL     1      -0.586 -17.005  -7.800  1.00  0.00     0.124 S 
ATOM     75  O   UNL     1      -0.574 -16.780  -6.357  1.00  0.00    -0.237 OA
ATOM     76  O   UNL     1      -1.863 -17.448  -8.355  1.00  0.00    -0.237 OA
ATOM     77  O   UNL     1       0.591 -17.684  -8.337  1.00  0.00    -0.744 OA
ENDBRANCH  73  74
ENDBRANCH  54  68
BRANCH  55  78
ATOM     78  C   UNL     1       1.198  -3.096 -11.715  1.00  0.00    -0.014 A 
ATOM     79  C   UNL     1       0.196  -2.307 -12.305  1.00  0.00     0.010 A 
ATOM     80  C   UNL     1       2.441  -2.516 -11.407  1.00  0.00     0.010 A 
ATOM     81  C   UNL     1       0.434  -0.959 -12.585  1.00  0.00     0.020 A 
ATOM     82  C   UNL     1       2.677  -1.165 -11.673  1.00  0.00     0.020 A 
ATOM     83  C   UNL     1       1.673  -0.396 -12.267  1.00  0.00     0.054 A 
BRANCH  83  84
ATOM     84  S   UNL     1       1.943   1.375 -12.566  1.00  0.00     0.124 S 
ATOM     85  O   UNL     1       2.303   1.392 -13.979  1.00  0.00    -0.237 OA
ATOM     86  O   UNL     1       0.645   1.959 -12.237  1.00  0.00    -0.237 OA
ATOM     87  O   UNL     1       3.020   1.712 -11.638  1.00  0.00    -0.744 OA
ENDBRANCH  83  84
ENDBRANCH  55  78
BRANCH  67  88
ATOM     88  C   UNL     1       0.994  -8.976 -15.445  1.00  0.00    -0.014 A 
ATOM     89  C   UNL     1       2.274  -9.034 -16.023  1.00  0.00     0.010 A 
ATOM     90  C   UNL     1      -0.136  -9.245 -16.238  1.00  0.00     0.010 A 
ATOM     91  C   UNL     1       2.421  -9.341 -17.378  1.00  0.00     0.020 A 
ATOM     92  C   UNL     1       0.009  -9.565 -17.590  1.00  0.00     0.020 A 
ATOM     93  C   UNL     1       1.287  -9.602 -18.154  1.00  0.00     0.054 A 
BRANCH  93  94
ATOM     94  S   UNL     1       1.498 -10.058 -19.897  1.00  0.00     0.124 S 
ATOM     95  O   UNL     1       1.665  -8.754 -20.533  1.00  0.00    -0.237 OA
ATOM     96  O   UNL     1       2.691 -10.902 -19.872  1.00  0.00    -0.237 OA
ATOM     97  O   UNL     1       0.257 -10.757 -20.221  1.00  0.00    -0.744 OA
ENDBRANCH  93  94
ENDBRANCH  67  88
ENDBRANCH  41  42
ENDBRANCH  33  36
ENDBRANCH  31  32
ENDBRANCH  30  31
ENDBRANCH   1  30
TORSDOF 18
