REMARK SMILES CCC(CC)(C[C@H](O)COC)C(=O)NCCCNC(=O)c1ccc(-c2c3nc(c(-c4ccc(S(=O)(=O)[O-])cc4)c4ccc([nH]4)c(-c4ccc(S(=O)(=O)[O-])cc4)c4nc(c(-c5ccc(S(=O)(=O)[O-])cc5)c5ccc2[nH]5)C=C4)C=C3)cc1
REMARK SMILES IDX 15 1 14 2 12 3 13 4 3 6 2 7 1 8 4 9 5 10 6 11 7 12 9 13
REMARK SMILES IDX 10 14 11 15 8 16 16 18 17 19 18 20 19 21 20 23 21 24 22 25
REMARK SMILES IDX 80 26 23 27 79 28 24 29 25 30 26 31 73 32 27 33 78 34 72 35
REMARK SMILES IDX 74 36 28 37 77 38 71 39 70 40 29 42 59 43 40 44 58 45 41 46
REMARK SMILES IDX 44 47 57 48 75 49 42 50 43 51 56 53 76 54 45 55 30 56 31 57
REMARK SMILES IDX 39 58 32 59 38 60 33 61 34 62 35 63 36 64 37 65 60 66 61 67
REMARK SMILES IDX 69 68 62 69 68 70 63 71 64 72 65 73 66 74 67 75 46 76 47 77
REMARK SMILES IDX 55 78 48 79 54 80 49 81 50 82 51 83 52 84 53 85
REMARK H PARENT 14 5 8 17 18 22 74 41 44 52
REMARK Flexibility Score: inf
ROOT
ATOM      1  C   UNL     1       3.886  -4.550   1.579  1.00  0.00     0.117 C 
ENDROOT
BRANCH   1   2
ATOM      2  N   UNL     1       3.124  -5.739   1.228  1.00  0.00    -0.356 N 
ATOM      3  C   UNL     1       2.781  -6.319   0.047  1.00  0.00     0.226 C 
ATOM      4  O   UNL     1       2.117  -7.358   0.140  1.00  0.00    -0.274 OA
ATOM      5  H   UNL     1       2.785  -6.228   2.012  1.00  0.00     0.163 HD
BRANCH   3   6
ATOM      6  C   UNL     1       3.178  -5.750  -1.339  1.00  0.00     0.051 C 
BRANCH   6   7
ATOM      7  C   UNL     1       2.712  -6.743  -2.474  1.00  0.00     0.013 C 
ATOM      8  C   UNL     1       3.450  -8.076  -2.586  1.00  0.00     0.005 C 
ENDBRANCH   6   7
BRANCH   6   9
ATOM      9  C   UNL     1       4.737  -5.622  -1.421  1.00  0.00     0.013 C 
ATOM     10  C   UNL     1       5.281  -4.939  -2.670  1.00  0.00     0.005 C 
ENDBRANCH   6   9
BRANCH   6  11
ATOM     11  C   UNL     1       2.474  -4.371  -1.596  1.00  0.00     0.051 C 
BRANCH  11  12
ATOM     12  C   UNL     1       0.988  -4.148  -1.217  1.00  0.00     0.141 C 
BRANCH  12  13
ATOM     13  C   UNL     1      -0.016  -5.225  -1.647  1.00  0.00     0.191 C 
BRANCH  13  14
ATOM     14  O   UNL     1      -1.380  -4.806  -1.488  1.00  0.00    -0.382 OA
ATOM     15  C   UNL     1      -1.874  -4.980  -0.164  1.00  0.00     0.195 C 
ENDBRANCH  13  14
ENDBRANCH  12  13
BRANCH  12  16
ATOM     16  O   UNL     1       0.914  -3.940   0.192  1.00  0.00    -0.391 OA
ATOM     17  H   UNL     1       1.204  -4.742   0.653  1.00  0.00     0.211 HD
ENDBRANCH  12  16
ENDBRANCH  11  12
ENDBRANCH   6  11
ENDBRANCH   3   6
ENDBRANCH   1   2
BRANCH   1  18
ATOM     18  C   UNL     1       3.150  -3.567   2.483  1.00  0.00     0.042 C 
BRANCH  18  19
ATOM     19  C   UNL     1       2.591  -4.156   3.768  1.00  0.00     0.118 C 
BRANCH  19  20
ATOM     20  N   UNL     1       3.635  -4.511   4.719  1.00  0.00    -0.352 N 
ATOM     21  C   UNL     1       4.005  -3.903   5.895  1.00  0.00     0.251 C 
ATOM     22  H   UNL     1       4.157  -5.312   4.482  1.00  0.00     0.163 HD
ATOM     23  O   UNL     1       5.051  -4.236   6.443  1.00  0.00    -0.269 OA
BRANCH  21  24
ATOM     24  C   UNL     1       3.169  -2.832   6.489  1.00  0.00     0.039 A 
ATOM     25  C   UNL     1       3.796  -1.697   7.013  1.00  0.00     0.014 A 
ATOM     26  C   UNL     1       1.778  -2.947   6.552  1.00  0.00     0.014 A 
ATOM     27  C   UNL     1       3.025  -0.646   7.519  1.00  0.00     0.010 A 
ATOM     28  C   UNL     1       1.009  -1.867   6.982  1.00  0.00     0.010 A 
ATOM     29  C   UNL     1       1.623  -0.702   7.466  1.00  0.00    -0.014 A 
BRANCH  29  30
ATOM     30  C   UNL     1       0.781   0.450   7.886  1.00  0.00     0.031 A 
ATOM     31  C   UNL     1      -0.181   0.312   9.036  1.00  0.00     0.074 A 
ATOM     32  C   UNL     1       0.824   1.598   7.180  1.00  0.00     0.049 A 
ATOM     33  N   UNL     1      -1.058   1.175   9.484  1.00  0.00    -0.248 NA
ATOM     34  C   UNL     1      -0.173  -0.968   9.761  1.00  0.00     0.031 C 
ATOM     35  C   UNL     1       1.685   1.849   6.021  1.00  0.00     0.029 A 
ATOM     36  N   UNL     1       0.117   2.766   7.324  1.00  0.00    -0.354 N 
ATOM     37  C   UNL     1      -1.717   0.537  10.529  1.00  0.00     0.074 A 
ATOM     38  C   UNL     1      -1.169  -0.799  10.620  1.00  0.00     0.031 C 
ATOM     39  C   UNL     1       1.471   3.097   5.575  1.00  0.00     0.029 A 
ATOM     40  C   UNL     1       0.426   3.719   6.382  1.00  0.00     0.049 A 
ATOM     41  H   UNL     1      -0.549   2.908   8.035  1.00  0.00     0.167 HD
ATOM     42  C   UNL     1      -2.680   1.023  11.350  1.00  0.00     0.031 A 
ATOM     43  C   UNL     1      -0.082   4.951   6.177  1.00  0.00     0.031 A 
ATOM     44  C   UNL     1      -3.218   2.355  11.264  1.00  0.00     0.049 A 
ATOM     45  C   UNL     1      -1.165   5.460   7.087  1.00  0.00     0.074 A 
ATOM     46  C   UNL     1      -4.153   2.959  12.088  1.00  0.00     0.029 A 
ATOM     47  N   UNL     1      -2.876   3.289  10.298  1.00  0.00    -0.354 N 
ATOM     48  N   UNL     1      -1.731   4.862   8.108  1.00  0.00    -0.248 NA
ATOM     49  C   UNL     1      -1.676   6.811   6.817  1.00  0.00     0.031 C 
ATOM     50  C   UNL     1      -4.416   4.239  11.587  1.00  0.00     0.029 A 
ATOM     51  C   UNL     1      -3.602   4.453  10.486  1.00  0.00     0.049 A 
ATOM     52  H   UNL     1      -2.213   3.145   9.584  1.00  0.00     0.167 HD
ATOM     53  C   UNL     1      -2.651   5.772   8.615  1.00  0.00     0.074 A 
ATOM     54  C   UNL     1      -2.553   6.966   7.801  1.00  0.00     0.031 C 
ATOM     55  C   UNL     1      -3.502   5.631   9.661  1.00  0.00     0.031 A 
BRANCH  42  56
ATOM     56  C   UNL     1      -3.221   0.101  12.411  1.00  0.00    -0.014 A 
ATOM     57  C   UNL     1      -2.438  -0.272  13.518  1.00  0.00     0.010 A 
ATOM     58  C   UNL     1      -4.546  -0.366  12.322  1.00  0.00     0.010 A 
ATOM     59  C   UNL     1      -2.954  -1.129  14.494  1.00  0.00     0.020 A 
ATOM     60  C   UNL     1      -5.075  -1.201  13.311  1.00  0.00     0.020 A 
ATOM     61  C   UNL     1      -4.269  -1.591  14.382  1.00  0.00     0.054 A 
BRANCH  61  62
ATOM     62  S   UNL     1      -4.918  -2.687  15.674  1.00  0.00     0.124 S 
ATOM     63  O   UNL     1      -4.223  -3.939  15.383  1.00  0.00    -0.237 OA
ATOM     64  O   UNL     1      -4.507  -2.013  16.902  1.00  0.00    -0.237 OA
ATOM     65  O   UNL     1      -6.357  -2.701  15.426  1.00  0.00    -0.744 OA
ENDBRANCH  61  62
ENDBRANCH  42  56
BRANCH  43  66
ATOM     66  C   UNL     1       0.432   5.788   5.059  1.00  0.00    -0.014 A 
ATOM     67  C   UNL     1       1.223   6.921   5.321  1.00  0.00     0.010 A 
ATOM     68  C   UNL     1       0.147   5.447   3.724  1.00  0.00     0.010 A 
ATOM     69  C   UNL     1       1.707   7.705   4.270  1.00  0.00     0.020 A 
ATOM     70  C   UNL     1       0.653   6.213   2.670  1.00  0.00     0.020 A 
ATOM     71  C   UNL     1       1.422   7.343   2.951  1.00  0.00     0.054 A 
BRANCH  71  72
ATOM     72  S   UNL     1       2.112   8.340   1.600  1.00  0.00     0.124 S 
ATOM     73  O   UNL     1       1.273   9.533   1.645  1.00  0.00    -0.237 OA
ATOM     74  O   UNL     1       3.499   8.524   2.020  1.00  0.00    -0.237 OA
ATOM     75  O   UNL     1       1.934   7.490   0.425  1.00  0.00    -0.744 OA
ENDBRANCH  71  72
ENDBRANCH  43  66
BRANCH  55  76
ATOM     76  C   UNL     1      -4.386   6.802   9.997  1.00  0.00    -0.014 A 
ATOM     77  C   UNL     1      -5.478   7.146   9.180  1.00  0.00     0.010 A 
ATOM     78  C   UNL     1      -4.151   7.538  11.173  1.00  0.00     0.010 A 
ATOM     79  C   UNL     1      -6.301   8.223   9.518  1.00  0.00     0.020 A 
ATOM     80  C   UNL     1      -4.988   8.598  11.529  1.00  0.00     0.020 A 
ATOM     81  C   UNL     1      -6.050   8.943  10.691  1.00  0.00     0.054 A 
BRANCH  81  82
ATOM     82  S   UNL     1      -7.160  10.309  11.131  1.00  0.00     0.124 S 
ATOM     83  O   UNL     1      -6.759  11.343  10.182  1.00  0.00    -0.237 OA
ATOM     84  O   UNL     1      -8.484   9.731  10.909  1.00  0.00    -0.237 OA
ATOM     85  O   UNL     1      -6.834  10.584  12.528  1.00  0.00    -0.744 OA
ENDBRANCH  81  82
ENDBRANCH  55  76
ENDBRANCH  29  30
ENDBRANCH  21  24
ENDBRANCH  19  20
ENDBRANCH  18  19
ENDBRANCH   1  18
TORSDOF 20
