REMARK SMILES CC[C@@H](COC)NC(=O)N1CC[C@H](C(=O)NCCCNC(=O)c2ccc(-c3c4nc(c(-c5ccc(S(=O)(=O)[O-])cc5)c5ccc([nH]5)c(-c5ccc(S(=O)(=O)[O-])cc5)c5nc(c(-c6ccc(S(=O)(=O)[O-])cc6)c6ccc3[nH]6)C=C5)C=C4)cc2)[C@@H]1C
REMARK SMILES IDX 17 1 16 2 14 3 15 4 13 6 10 7 11 8 83 9 12 10 84 11 8 12
REMARK SMILES IDX 7 13 9 15 3 16 2 17 1 18 4 19 5 20 6 21 18 22 19 23 20 24
REMARK SMILES IDX 21 25 22 27 23 28 24 29 82 30 25 31 81 32 26 33 27 34 28 35
REMARK SMILES IDX 75 36 29 37 80 38 74 39 76 40 30 41 79 42 73 43 72 44 31 46
REMARK SMILES IDX 61 47 42 48 60 49 43 50 46 51 59 52 77 53 44 54 45 55 58 57
REMARK SMILES IDX 78 58 47 59 32 60 33 61 41 62 34 63 40 64 35 65 36 66 37 67
REMARK SMILES IDX 38 68 39 69 62 70 63 71 71 72 64 73 70 74 65 75 66 76 67 77
REMARK SMILES IDX 68 78 69 79 48 80 49 81 57 82 50 83 56 84 51 85 52 86 53 87
REMARK SMILES IDX 54 88 55 89
REMARK H PARENT 16 5 7 14 20 26 76 45 46 56
REMARK Flexibility Score: inf
ROOT
ATOM      1  C   UNL     1       5.887   2.708   6.283  1.00  0.00     0.117 C 
ENDROOT
BRANCH   1   2
ATOM      2  N   UNL     1       6.543   3.053   5.039  1.00  0.00    -0.356 N 
ATOM      3  C   UNL     1       6.261   2.743   3.753  1.00  0.00     0.225 C 
ATOM      4  O   UNL     1       6.975   3.267   2.889  1.00  0.00    -0.275 OA
ATOM      5  H   UNL     1       7.343   3.617   5.150  1.00  0.00     0.163 HD
BRANCH   3   6
ATOM      6  C   UNL     1       5.114   1.847   3.320  1.00  0.00     0.102 C 
ATOM      7  N   UNL     1       2.895   1.443   4.076  1.00  0.00    -0.321 N 
ATOM      8  C   UNL     1       3.718   0.465   4.747  1.00  0.00     0.122 C 
ATOM      9  C   UNL     1       3.699   2.443   3.356  1.00  0.00     0.096 C 
ATOM     10  C   UNL     1       5.003   0.454   3.944  1.00  0.00     0.037 C 
ATOM     11  C   UNL     1       3.540   3.861   3.901  1.00  0.00     0.032 C 
BRANCH   7  12
ATOM     12  C   UNL     1       1.558   1.476   4.334  1.00  0.00     0.317 C 
ATOM     13  N   UNL     1       0.710   1.712   3.306  1.00  0.00    -0.333 N 
ATOM     14  H   UNL     1      -0.158   2.109   3.549  1.00  0.00     0.165 HD
ATOM     15  O   UNL     1       1.094   1.223   5.444  1.00  0.00    -0.249 OA
BRANCH  13  16
ATOM     16  C   UNL     1       0.917   1.454   1.881  1.00  0.00     0.109 C 
BRANCH  16  17
ATOM     17  C   UNL     1       0.584  -0.007   1.539  1.00  0.00     0.024 C 
ATOM     18  C   UNL     1       0.997  -0.379   0.120  1.00  0.00     0.006 C 
ENDBRANCH  16  17
BRANCH  16  19
ATOM     19  C   UNL     1       0.216   2.548   1.057  1.00  0.00     0.184 C 
BRANCH  19  20
ATOM     20  O   UNL     1      -1.182   2.679   1.317  1.00  0.00    -0.383 OA
ATOM     21  C   UNL     1      -2.003   1.794   0.573  1.00  0.00     0.194 C 
ENDBRANCH  19  20
ENDBRANCH  16  19
ENDBRANCH  13  16
ENDBRANCH   7  12
ENDBRANCH   3   6
ENDBRANCH   1   2
BRANCH   1  22
ATOM     22  C   UNL     1       6.555   1.543   6.997  1.00  0.00     0.042 C 
BRANCH  22  23
ATOM     23  C   UNL     1       7.931   1.885   7.548  1.00  0.00     0.118 C 
BRANCH  23  24
ATOM     24  N   UNL     1       7.856   2.817   8.663  1.00  0.00    -0.352 N 
ATOM     25  C   UNL     1       8.275   2.661   9.961  1.00  0.00     0.251 C 
ATOM     26  H   UNL     1       7.445   3.687   8.456  1.00  0.00     0.163 HD
ATOM     27  O   UNL     1       7.926   3.474  10.811  1.00  0.00    -0.269 OA
BRANCH  25  28
ATOM     28  C   UNL     1       9.125   1.510  10.335  1.00  0.00     0.039 A 
ATOM     29  C   UNL     1       8.865   0.840  11.533  1.00  0.00     0.014 A 
ATOM     30  C   UNL     1      10.184   1.100   9.519  1.00  0.00     0.014 A 
ATOM     31  C   UNL     1       9.627  -0.278  11.880  1.00  0.00     0.010 A 
ATOM     32  C   UNL     1      10.886  -0.062   9.825  1.00  0.00     0.010 A 
ATOM     33  C   UNL     1      10.620  -0.760  11.011  1.00  0.00    -0.014 A 
BRANCH  33  34
ATOM     34  C   UNL     1      11.385  -1.994  11.323  1.00  0.00     0.031 A 
ATOM     35  C   UNL     1      12.875  -1.931  11.525  1.00  0.00     0.074 A 
ATOM     36  C   UNL     1      10.744  -3.180  11.366  1.00  0.00     0.049 A 
ATOM     37  N   UNL     1      13.719  -2.907  11.744  1.00  0.00    -0.248 NA
ATOM     38  C   UNL     1      13.505  -0.602  11.450  1.00  0.00     0.031 C 
ATOM     39  C   UNL     1       9.308  -3.375  11.152  1.00  0.00     0.029 A 
ATOM     40  N   UNL     1      11.218  -4.447  11.599  1.00  0.00    -0.354 N 
ATOM     41  C   UNL     1      14.974  -2.314  11.819  1.00  0.00     0.074 A 
ATOM     42  C   UNL     1      14.790  -0.902  11.572  1.00  0.00     0.031 C 
ATOM     43  C   UNL     1       9.015  -4.678  11.291  1.00  0.00     0.029 A 
ATOM     44  C   UNL     1      10.245  -5.417  11.556  1.00  0.00     0.049 A 
ATOM     45  H   UNL     1      12.166  -4.642  11.780  1.00  0.00     0.167 HD
ATOM     46  C   UNL     1      16.169  -2.891  12.091  1.00  0.00     0.031 A 
ATOM     47  C   UNL     1      10.332  -6.754  11.700  1.00  0.00     0.031 A 
ATOM     48  C   UNL     1      16.345  -4.297  12.344  1.00  0.00     0.049 A 
ATOM     49  C   UNL     1      11.676  -7.373  11.972  1.00  0.00     0.074 A 
ATOM     50  C   UNL     1      17.507  -4.970  12.678  1.00  0.00     0.029 A 
ATOM     51  N   UNL     1      15.335  -5.245  12.290  1.00  0.00    -0.354 N 
ATOM     52  N   UNL     1      12.842  -6.786  12.104  1.00  0.00    -0.248 NA
ATOM     53  C   UNL     1      11.716  -8.834  12.122  1.00  0.00     0.031 C 
ATOM     54  C   UNL     1      17.211  -6.334  12.766  1.00  0.00     0.029 A 
ATOM     55  C   UNL     1      15.852  -6.502  12.554  1.00  0.00     0.049 A 
ATOM     56  H   UNL     1      14.390  -5.053  12.092  1.00  0.00     0.167 HD
ATOM     57  C   UNL     1      13.749  -7.803  12.380  1.00  0.00     0.074 A 
ATOM     58  C   UNL     1      12.993  -9.039  12.414  1.00  0.00     0.031 C 
ATOM     59  C   UNL     1      15.086  -7.723  12.585  1.00  0.00     0.031 A 
BRANCH  46  60
ATOM     60  C   UNL     1      17.385  -2.002  12.126  1.00  0.00    -0.014 A 
ATOM     61  C   UNL     1      17.569  -1.064  13.158  1.00  0.00     0.010 A 
ATOM     62  C   UNL     1      18.387  -2.147  11.149  1.00  0.00     0.010 A 
ATOM     63  C   UNL     1      18.715  -0.265  13.194  1.00  0.00     0.020 A 
ATOM     64  C   UNL     1      19.549  -1.371  11.198  1.00  0.00     0.020 A 
ATOM     65  C   UNL     1      19.699  -0.424  12.213  1.00  0.00     0.054 A 
BRANCH  65  66
ATOM     66  S   UNL     1      21.192   0.600  12.309  1.00  0.00     0.124 S 
ATOM     67  O   UNL     1      20.677   1.918  11.948  1.00  0.00    -0.237 OA
ATOM     68  O   UNL     1      21.597   0.445  13.703  1.00  0.00    -0.237 OA
ATOM     69  O   UNL     1      22.093  -0.005  11.330  1.00  0.00    -0.744 OA
ENDBRANCH  65  66
ENDBRANCH  46  60
BRANCH  47  70
ATOM     70  C   UNL     1       9.111  -7.600  11.590  1.00  0.00    -0.014 A 
ATOM     71  C   UNL     1       8.597  -8.268  12.715  1.00  0.00     0.010 A 
ATOM     72  C   UNL     1       8.455  -7.744  10.353  1.00  0.00     0.010 A 
ATOM     73  C   UNL     1       7.469  -9.085  12.601  1.00  0.00     0.020 A 
ATOM     74  C   UNL     1       7.308  -8.534  10.242  1.00  0.00     0.020 A 
ATOM     75  C   UNL     1       6.831  -9.213  11.364  1.00  0.00     0.054 A 
BRANCH  75  76
ATOM     76  S   UNL     1       5.349 -10.253  11.247  1.00  0.00     0.124 S 
ATOM     77  O   UNL     1       5.912 -11.595  11.350  1.00  0.00    -0.237 OA
ATOM     78  O   UNL     1       4.559  -9.806  12.391  1.00  0.00    -0.237 OA
ATOM     79  O   UNL     1       4.791  -9.907   9.941  1.00  0.00    -0.744 OA
ENDBRANCH  75  76
ENDBRANCH  47  70
BRANCH  59  80
ATOM     80  C   UNL     1      15.820  -9.001  12.898  1.00  0.00    -0.014 A 
ATOM     81  C   UNL     1      16.032  -9.979  11.911  1.00  0.00     0.010 A 
ATOM     82  C   UNL     1      16.356  -9.195  14.184  1.00  0.00     0.010 A 
ATOM     83  C   UNL     1      16.744 -11.143  12.214  1.00  0.00     0.020 A 
ATOM     84  C   UNL     1      17.095 -10.342  14.482  1.00  0.00     0.020 A 
ATOM     85  C   UNL     1      17.273 -11.316  13.497  1.00  0.00     0.054 A 
BRANCH  85  86
ATOM     86  S   UNL     1      18.237 -12.812  13.848  1.00  0.00     0.124 S 
ATOM     87  O   UNL     1      17.201 -13.840  13.882  1.00  0.00    -0.237 OA
ATOM     88  O   UNL     1      19.151 -12.877  12.709  1.00  0.00    -0.237 OA
ATOM     89  O   UNL     1      18.872 -12.523  15.132  1.00  0.00    -0.744 OA
ENDBRANCH  85  86
ENDBRANCH  59  80
ENDBRANCH  33  34
ENDBRANCH  25  28
ENDBRANCH  23  24
ENDBRANCH  22  23
ENDBRANCH   1  22
TORSDOF 18
