REMARK SMILES COc1ccc(C(=O)Nc2cccc(C(=O)NCCCNC(=O)c3ccc(-c4c5nc(c(-c6ccc(S(=O)(=O)[O-])cc6)c6ccc([nH]6)c(-c6ccc(S(=O)(=O)[O-])cc6)c6nc(c(-c7ccc(S(=O)(=O)[O-])cc7)c7ccc4[nH]7)C=C6)C=C5)cc3)c2)cc1
REMARK SMILES IDX 19 1 18 2 17 3 15 4 16 5 14 7 10 8 11 9 84 10 12 11 13 12
REMARK SMILES IDX 9 13 7 14 8 15 6 17 3 18 4 19 86 20 5 21 85 22 2 23 1 24
REMARK SMILES IDX 20 25 21 26 22 27 23 29 24 30 25 31 83 32 26 33 82 34 27 35
REMARK SMILES IDX 28 36 29 37 76 38 30 39 81 40 75 41 77 42 31 43 80 44 74 45
REMARK SMILES IDX 73 46 32 48 62 49 43 50 61 51 44 52 47 53 60 54 78 55 45 56
REMARK SMILES IDX 46 57 59 59 79 60 48 61 33 62 34 63 42 64 35 65 41 66 36 67
REMARK SMILES IDX 37 68 38 69 39 70 40 71 63 72 64 73 72 74 65 75 71 76 66 77
REMARK SMILES IDX 67 78 68 79 69 80 70 81 49 82 50 83 58 84 51 85 57 86 52 87
REMARK SMILES IDX 53 88 54 89 55 90 56 91
REMARK H PARENT 17 6 9 16 21 28 77 47 47 58
REMARK Flexibility Score: inf
ROOT
ATOM      1  C   UNL     1       3.978   5.435  -0.481  1.00  0.00     0.042 C 
ENDROOT
BRANCH   1   2
ATOM      2  C   UNL     1       3.889   3.950  -0.156  1.00  0.00     0.118 C 
BRANCH   2   3
ATOM      3  N   UNL     1       5.196   3.322  -0.179  1.00  0.00    -0.352 N 
ATOM      4  C   UNL     1       6.106   3.022   0.802  1.00  0.00     0.251 C 
ATOM      5  O   UNL     1       7.127   2.427   0.453  1.00  0.00    -0.269 OA
ATOM      6  H   UNL     1       5.489   3.058  -1.081  1.00  0.00     0.163 HD
BRANCH   4   7
ATOM      7  C   UNL     1       5.898   3.303   2.254  1.00  0.00     0.041 A 
ATOM      8  C   UNL     1       4.703   4.256   4.136  1.00  0.00     0.042 A 
ATOM      9  C   UNL     1       5.516   3.570   5.033  1.00  0.00     0.026 A 
ATOM     10  C   UNL     1       4.975   4.214   2.766  1.00  0.00     0.040 A 
ATOM     11  C   UNL     1       6.497   2.711   4.544  1.00  0.00     0.003 A 
ATOM     12  C   UNL     1       6.662   2.555   3.165  1.00  0.00     0.014 A 
BRANCH   8  13
ATOM     13  N   UNL     1       3.562   4.902   4.631  1.00  0.00    -0.322 N 
ATOM     14  C   UNL     1       2.273   4.914   4.125  1.00  0.00     0.255 C 
ATOM     15  O   UNL     1       1.466   5.726   4.578  1.00  0.00    -0.269 OA
ATOM     16  H   UNL     1       3.696   5.420   5.457  1.00  0.00     0.170 HD
BRANCH  14  17
ATOM     17  C   UNL     1       1.782   3.901   3.131  1.00  0.00     0.040 A 
ATOM     18  C   UNL     1       0.793   2.087   1.196  1.00  0.00     0.118 A 
ATOM     19  C   UNL     1       0.187   3.331   1.383  1.00  0.00     0.047 A 
ATOM     20  C   UNL     1       1.859   1.727   2.017  1.00  0.00     0.047 A 
ATOM     21  C   UNL     1       0.678   4.234   2.336  1.00  0.00     0.017 A 
ATOM     22  C   UNL     1       2.321   2.613   3.003  1.00  0.00     0.017 A 
BRANCH  18  23
ATOM     23  O   UNL     1       0.255   1.323   0.199  1.00  0.00    -0.497 OA
ATOM     24  C   UNL     1       0.883   0.076  -0.074  1.00  0.00     0.278 C 
ENDBRANCH  18  23
ENDBRANCH  14  17
ENDBRANCH   8  13
ENDBRANCH   4   7
ENDBRANCH   2   3
ENDBRANCH   1   2
BRANCH   1  25
ATOM     25  C   UNL     1       4.070   5.682  -1.979  1.00  0.00     0.118 C 
BRANCH  25  26
ATOM     26  N   UNL     1       2.820   5.351  -2.655  1.00  0.00    -0.352 N 
ATOM     27  C   UNL     1       2.014   6.140  -3.437  1.00  0.00     0.251 C 
ATOM     28  H   UNL     1       2.509   4.425  -2.531  1.00  0.00     0.163 HD
ATOM     29  O   UNL     1       0.889   5.756  -3.736  1.00  0.00    -0.269 OA
BRANCH  27  30
ATOM     30  C   UNL     1       2.506   7.453  -3.901  1.00  0.00     0.039 A 
ATOM     31  C   UNL     1       1.641   8.549  -3.883  1.00  0.00     0.014 A 
ATOM     32  C   UNL     1       3.819   7.596  -4.356  1.00  0.00     0.014 A 
ATOM     33  C   UNL     1       2.114   9.805  -4.270  1.00  0.00     0.010 A 
ATOM     34  C   UNL     1       4.312   8.860  -4.649  1.00  0.00     0.010 A 
ATOM     35  C   UNL     1       3.461   9.975  -4.626  1.00  0.00    -0.014 A 
BRANCH  35  36
ATOM     36  C   UNL     1       4.007  11.297  -5.018  1.00  0.00     0.031 A 
ATOM     37  C   UNL     1       4.575  11.480  -6.402  1.00  0.00     0.074 A 
ATOM     38  C   UNL     1       4.063  12.299  -4.118  1.00  0.00     0.049 A 
ATOM     39  N   UNL     1       5.220  12.502  -6.900  1.00  0.00    -0.248 NA
ATOM     40  C   UNL     1       4.424  10.352  -7.339  1.00  0.00     0.031 C 
ATOM     41  C   UNL     1       3.571  12.233  -2.740  1.00  0.00     0.029 A 
ATOM     42  N   UNL     1       4.575  13.568  -4.224  1.00  0.00    -0.354 N 
ATOM     43  C   UNL     1       5.566  12.134  -8.195  1.00  0.00     0.074 A 
ATOM     44  C   UNL     1       5.113  10.775  -8.388  1.00  0.00     0.031 C 
ATOM     45  C   UNL     1       3.789  13.413  -2.136  1.00  0.00     0.029 A 
ATOM     46  C   UNL     1       4.481  14.301  -3.064  1.00  0.00     0.049 A 
ATOM     47  H   UNL     1       4.973  13.920  -5.053  1.00  0.00     0.167 HD
ATOM     48  C   UNL     1       6.183  12.871  -9.148  1.00  0.00     0.031 A 
ATOM     49  C   UNL     1       4.920  15.542  -2.776  1.00  0.00     0.031 A 
ATOM     50  C   UNL     1       6.612  14.229  -8.956  1.00  0.00     0.049 A 
ATOM     51  C   UNL     1       5.627  16.331  -3.848  1.00  0.00     0.074 A 
ATOM     52  C   UNL     1       7.214  15.077  -9.868  1.00  0.00     0.029 A 
ATOM     53  N   UNL     1       6.475  14.942  -7.774  1.00  0.00    -0.354 N 
ATOM     54  N   UNL     1       5.908  15.980  -5.080  1.00  0.00    -0.248 NA
ATOM     55  C   UNL     1       6.066  17.689  -3.494  1.00  0.00     0.031 C 
ATOM     56  C   UNL     1       7.486  16.287  -9.225  1.00  0.00     0.029 A 
ATOM     57  C   UNL     1       6.991  16.216  -7.932  1.00  0.00     0.049 A 
ATOM     58  H   UNL     1       6.071  14.594  -6.947  1.00  0.00     0.167 HD
ATOM     59  C   UNL     1       6.514  17.090  -5.661  1.00  0.00     0.074 A 
ATOM     60  C   UNL     1       6.553  18.123  -4.648  1.00  0.00     0.031 C 
ATOM     61  C   UNL     1       6.993  17.241  -6.920  1.00  0.00     0.031 A 
BRANCH  48  62
ATOM     62  C   UNL     1       6.418  12.230 -10.490  1.00  0.00    -0.014 A 
ATOM     63  C   UNL     1       5.345  11.951 -11.355  1.00  0.00     0.010 A 
ATOM     64  C   UNL     1       7.732  11.970 -10.922  1.00  0.00     0.010 A 
ATOM     65  C   UNL     1       5.578  11.399 -12.617  1.00  0.00     0.020 A 
ATOM     66  C   UNL     1       7.971  11.447 -12.197  1.00  0.00     0.020 A 
ATOM     67  C   UNL     1       6.891  11.156 -13.032  1.00  0.00     0.054 A 
BRANCH  67  68
ATOM     68  S   UNL     1       7.162  10.495 -14.699  1.00  0.00     0.124 S 
ATOM     69  O   UNL     1       6.662   9.129 -14.567  1.00  0.00    -0.237 OA
ATOM     70  O   UNL     1       6.352  11.383 -15.529  1.00  0.00    -0.237 OA
ATOM     71  O   UNL     1       8.606  10.614 -14.889  1.00  0.00    -0.744 OA
ENDBRANCH  67  68
ENDBRANCH  48  62
BRANCH  49  72
ATOM     72  C   UNL     1       4.714  16.120  -1.418  1.00  0.00    -0.014 A 
ATOM     73  C   UNL     1       3.865  17.226  -1.230  1.00  0.00     0.010 A 
ATOM     74  C   UNL     1       5.393  15.587  -0.307  1.00  0.00     0.010 A 
ATOM     75  C   UNL     1       3.737  17.816   0.032  1.00  0.00     0.020 A 
ATOM     76  C   UNL     1       5.240  16.151   0.963  1.00  0.00     0.020 A 
ATOM     77  C   UNL     1       4.430  17.277   1.119  1.00  0.00     0.054 A 
BRANCH  77  78
ATOM     78  S   UNL     1       4.249  18.058   2.747  1.00  0.00     0.124 S 
ATOM     79  O   UNL     1       5.010  19.292   2.576  1.00  0.00    -0.237 OA
ATOM     80  O   UNL     1       2.802  18.218   2.861  1.00  0.00    -0.237 OA
ATOM     81  O   UNL     1       4.836  17.082   3.662  1.00  0.00    -0.744 OA
ENDBRANCH  77  78
ENDBRANCH  49  72
BRANCH  61  82
ATOM     82  C   UNL     1       7.534  18.591  -7.307  1.00  0.00    -0.014 A 
ATOM     83  C   UNL     1       8.761  19.063  -6.812  1.00  0.00     0.010 A 
ATOM     84  C   UNL     1       6.831  19.364  -8.251  1.00  0.00     0.010 A 
ATOM     85  C   UNL     1       9.265  20.295  -7.238  1.00  0.00     0.020 A 
ATOM     86  C   UNL     1       7.346  20.580  -8.702  1.00  0.00     0.020 A 
ATOM     87  C   UNL     1       8.556  21.043  -8.184  1.00  0.00     0.054 A 
BRANCH  87  88
ATOM     88  S   UNL     1       9.265  22.607  -8.768  1.00  0.00     0.124 S 
ATOM     89  O   UNL     1       9.092  23.473  -7.605  1.00  0.00    -0.237 OA
ATOM     90  O   UNL     1      10.644  22.237  -9.077  1.00  0.00    -0.237 OA
ATOM     91  O   UNL     1       8.443  22.950  -9.927  1.00  0.00    -0.744 OA
ENDBRANCH  87  88
ENDBRANCH  61  82
ENDBRANCH  35  36
ENDBRANCH  27  30
ENDBRANCH  25  26
ENDBRANCH   1  25
TORSDOF 16
