REMARK SMILES CCCCCCNC(=O)Oc1cccc(-c2ccc([C@H](C)C(=O)NCCCNC(=O)c3ccc(-c4c5nc(c(-c6ccc(S(=O)(=O)[O-])cc6)c6ccc([nH]6)c(-c6ccc(S(=O)(=O)[O-])cc6)c6nc(c(-c7ccc(S(=O)(=O)[O-])cc7)c7ccc4[nH]7)C=C6)C=C5)cc3)cc2F)c1
REMARK SMILES IDX 20 1 21 2 19 3 16 4 17 5 92 6 18 7 91 8 93 9 15 10 11 11
REMARK SMILES IDX 12 12 94 13 13 14 14 15 10 16 8 17 7 18 9 20 6 21 5 22 4 23
REMARK SMILES IDX 3 24 2 25 1 26 22 27 23 28 24 29 25 31 26 32 27 33 28 34
REMARK SMILES IDX 29 35 30 37 31 38 32 39 90 40 33 41 89 42 34 43 35 44 36 45
REMARK SMILES IDX 83 46 37 47 88 48 82 49 84 50 38 51 87 52 81 53 80 54 39 56
REMARK SMILES IDX 69 57 50 58 68 59 51 60 54 61 67 62 85 63 52 64 53 65 66 67
REMARK SMILES IDX 86 68 55 69 40 70 41 71 49 72 42 73 48 74 43 75 44 76 45 77
REMARK SMILES IDX 46 78 47 79 70 80 71 81 79 82 72 83 78 84 73 85 74 86 75 87
REMARK SMILES IDX 76 88 77 89 56 90 57 91 65 92 58 93 64 94 59 95 60 96 61 97
REMARK SMILES IDX 62 98 63 99
REMARK H PARENT 7 19 24 30 28 36 84 55 54 66
REMARK Flexibility Score: inf
ROOT
ATOM      1  C   UNL     1      -4.392  11.001  -7.739  1.00  0.00     0.105 C 
ATOM      2  C   UNL     1      -4.356  10.145  -6.470  1.00  0.00     0.023 C 
ENDROOT
BRANCH   1   3
ATOM      3  C   UNL     1      -5.733  11.631  -8.100  1.00  0.00    -0.033 A 
ATOM      4  C   UNL     1      -8.188  12.899  -8.777  1.00  0.00     0.018 A 
ATOM      5  C   UNL     1      -8.127  11.940  -7.756  1.00  0.00     0.012 A 
ATOM      6  C   UNL     1      -7.003  13.197  -9.459  1.00  0.00     0.131 A 
ATOM      7  C   UNL     1      -6.923  11.307  -7.430  1.00  0.00     0.005 A 
ATOM      8  C   UNL     1      -5.799  12.574  -9.138  1.00  0.00     0.044 A 
ATOM      9  F   UNL     1      -7.002  14.104 -10.450  1.00  0.00    -0.206 F 
BRANCH   4  10
ATOM     10  C   UNL     1      -9.469  13.507  -9.149  1.00  0.00    -0.012 A 
ATOM     11  C   UNL     1     -11.231  13.832 -10.782  1.00  0.00     0.133 A 
ATOM     12  C   UNL     1     -11.979  14.569  -9.868  1.00  0.00     0.047 A 
ATOM     13  C   UNL     1      -9.977  13.329 -10.443  1.00  0.00     0.056 A 
ATOM     14  C   UNL     1     -11.478  14.772  -8.584  1.00  0.00     0.004 A 
ATOM     15  C   UNL     1     -10.235  14.240  -8.225  1.00  0.00     0.009 A 
BRANCH  11  16
ATOM     16  O   UNL     1     -11.742  13.697 -12.081  1.00  0.00    -0.410 OA
BRANCH  16  17
ATOM     17  C   UNL     1     -11.768  12.424 -12.631  1.00  0.00     0.412 C 
ATOM     18  N   UNL     1     -12.164  12.410 -13.938  1.00  0.00    -0.321 N 
ATOM     19  H   UNL     1     -12.206  11.530 -14.377  1.00  0.00     0.167 HD
ATOM     20  O   UNL     1     -11.486  11.376 -12.057  1.00  0.00    -0.224 OA
BRANCH  18  21
ATOM     21  C   UNL     1     -12.529  13.556 -14.745  1.00  0.00     0.119 C 
BRANCH  21  22
ATOM     22  C   UNL     1     -11.627  13.702 -15.970  1.00  0.00     0.021 C 
BRANCH  22  23
ATOM     23  C   UNL     1     -11.712  12.546 -16.974  1.00  0.00     0.002 C 
BRANCH  23  24
ATOM     24  C   UNL     1     -13.107  12.266 -17.543  1.00  0.00    -0.000 C 
BRANCH  24  25
ATOM     25  C   UNL     1     -13.773  13.445 -18.257  1.00  0.00    -0.003 C 
ATOM     26  C   UNL     1     -13.010  13.912 -19.487  1.00  0.00     0.004 C 
ENDBRANCH  24  25
ENDBRANCH  23  24
ENDBRANCH  22  23
ENDBRANCH  21  22
ENDBRANCH  18  21
ENDBRANCH  16  17
ENDBRANCH  11  16
ENDBRANCH   4  10
ENDBRANCH   1   3
BRANCH   1  27
ATOM     27  C   UNL     1      -3.235  12.005  -7.701  1.00  0.00     0.227 C 
ATOM     28  O   UNL     1      -2.256  11.864  -8.440  1.00  0.00    -0.274 OA
ATOM     29  N   UNL     1      -3.235  13.068  -6.849  1.00  0.00    -0.356 N 
ATOM     30  H   UNL     1      -2.412  13.608  -6.863  1.00  0.00     0.163 HD
BRANCH  29  31
ATOM     31  C   UNL     1      -4.254  13.532  -5.924  1.00  0.00     0.117 C 
BRANCH  31  32
ATOM     32  C   UNL     1      -3.844  13.357  -4.469  1.00  0.00     0.042 C 
BRANCH  32  33
ATOM     33  C   UNL     1      -2.626  14.175  -4.062  1.00  0.00     0.118 C 
BRANCH  33  34
ATOM     34  N   UNL     1      -2.840  15.608  -4.197  1.00  0.00    -0.352 N 
ATOM     35  C   UNL     1      -2.791  16.608  -3.259  1.00  0.00     0.251 C 
ATOM     36  H   UNL     1      -3.055  15.908  -5.110  1.00  0.00     0.163 HD
ATOM     37  O   UNL     1      -3.193  17.730  -3.561  1.00  0.00    -0.269 OA
BRANCH  35  38
ATOM     38  C   UNL     1      -2.281  16.348  -1.894  1.00  0.00     0.039 A 
ATOM     39  C   UNL     1      -2.910  16.973  -0.814  1.00  0.00     0.014 A 
ATOM     40  C   UNL     1      -1.169  15.531  -1.671  1.00  0.00     0.014 A 
ATOM     41  C   UNL     1      -2.461  16.734   0.487  1.00  0.00     0.010 A 
ATOM     42  C   UNL     1      -0.777  15.225  -0.370  1.00  0.00     0.010 A 
ATOM     43  C   UNL     1      -1.411  15.832   0.723  1.00  0.00    -0.014 A 
BRANCH  43  44
ATOM     44  C   UNL     1      -0.961  15.523   2.105  1.00  0.00     0.031 A 
ATOM     45  C   UNL     1       0.437  15.869   2.547  1.00  0.00     0.074 A 
ATOM     46  C   UNL     1      -1.798  14.887   2.950  1.00  0.00     0.049 A 
ATOM     47  N   UNL     1       1.012  15.653   3.703  1.00  0.00    -0.248 NA
ATOM     48  C   UNL     1       1.310  16.518   1.556  1.00  0.00     0.031 C 
ATOM     49  C   UNL     1      -3.160  14.455   2.627  1.00  0.00     0.029 A 
ATOM     50  N   UNL     1      -1.625  14.490   4.252  1.00  0.00    -0.354 N 
ATOM     51  C   UNL     1       2.314  16.123   3.572  1.00  0.00     0.074 A 
ATOM     52  C   UNL     1       2.460  16.588   2.211  1.00  0.00     0.031 C 
ATOM     53  C   UNL     1      -3.709  13.885   3.712  1.00  0.00     0.029 A 
ATOM     54  C   UNL     1      -2.729  13.873   4.793  1.00  0.00     0.049 A 
ATOM     55  H   UNL     1      -0.790  14.634   4.753  1.00  0.00     0.167 HD
ATOM     56  C   UNL     1       3.294  16.183   4.506  1.00  0.00     0.031 A 
ATOM     57  C   UNL     1      -2.931  13.354   6.019  1.00  0.00     0.031 A 
ATOM     58  C   UNL     1       3.142  15.733   5.864  1.00  0.00     0.049 A 
ATOM     59  C   UNL     1      -1.830  13.436   7.040  1.00  0.00     0.074 A 
ATOM     60  C   UNL     1       4.055  15.804   6.902  1.00  0.00     0.029 A 
ATOM     61  N   UNL     1       2.004  15.125   6.374  1.00  0.00    -0.354 N 
ATOM     62  N   UNL     1      -0.629  13.949   6.916  1.00  0.00    -0.248 NA
ATOM     63  C   UNL     1      -2.118  12.884   8.370  1.00  0.00     0.031 C 
ATOM     64  C   UNL     1       3.488  15.194   8.025  1.00  0.00     0.029 A 
ATOM     65  C   UNL     1       2.200  14.796   7.705  1.00  0.00     0.049 A 
ATOM     66  H   UNL     1       1.179  14.954   5.865  1.00  0.00     0.167 HD
ATOM     67  C   UNL     1      -0.026  13.804   8.161  1.00  0.00     0.074 A 
ATOM     68  C   UNL     1      -1.002  13.172   9.026  1.00  0.00     0.031 C 
ATOM     69  C   UNL     1       1.221  14.163   8.553  1.00  0.00     0.031 A 
BRANCH  56  70
ATOM     70  C   UNL     1       4.623  16.756   4.086  1.00  0.00    -0.014 A 
ATOM     71  C   UNL     1       4.767  18.125   3.796  1.00  0.00     0.010 A 
ATOM     72  C   UNL     1       5.755  15.922   4.019  1.00  0.00     0.010 A 
ATOM     73  C   UNL     1       6.006  18.641   3.406  1.00  0.00     0.020 A 
ATOM     74  C   UNL     1       7.002  16.439   3.658  1.00  0.00     0.020 A 
ATOM     75  C   UNL     1       7.116  17.794   3.337  1.00  0.00     0.054 A 
BRANCH  75  76
ATOM     76  S   UNL     1       8.716  18.495   2.851  1.00  0.00     0.124 S 
ATOM     77  O   UNL     1       8.521  18.725   1.421  1.00  0.00    -0.237 OA
ATOM     78  O   UNL     1       8.802  19.699   3.674  1.00  0.00    -0.237 OA
ATOM     79  O   UNL     1       9.673  17.444   3.188  1.00  0.00    -0.744 OA
ENDBRANCH  75  76
ENDBRANCH  56  70
BRANCH  57  80
ATOM     80  C   UNL     1      -4.240  12.729   6.353  1.00  0.00    -0.014 A 
ATOM     81  C   UNL     1      -5.126  13.358   7.245  1.00  0.00     0.010 A 
ATOM     82  C   UNL     1      -4.614  11.505   5.768  1.00  0.00     0.010 A 
ATOM     83  C   UNL     1      -6.353  12.767   7.560  1.00  0.00     0.020 A 
ATOM     84  C   UNL     1      -5.852  10.925   6.058  1.00  0.00     0.020 A 
ATOM     85  C   UNL     1      -6.709  11.554   6.962  1.00  0.00     0.054 A 
BRANCH  85  86
ATOM     86  S   UNL     1      -8.329  10.832   7.345  1.00  0.00     0.124 S 
ATOM     87  O   UNL     1      -8.125  10.327   8.698  1.00  0.00    -0.237 OA
ATOM     88  O   UNL     1      -9.224  11.980   7.224  1.00  0.00    -0.237 OA
ATOM     89  O   UNL     1      -8.499   9.810   6.313  1.00  0.00    -0.744 OA
ENDBRANCH  85  86
ENDBRANCH  57  80
BRANCH  69  90
ATOM     90  C   UNL     1       1.593  13.911   9.990  1.00  0.00    -0.014 A 
ATOM     91  C   UNL     1       1.818  12.608  10.469  1.00  0.00     0.010 A 
ATOM     92  C   UNL     1       1.760  15.001  10.864  1.00  0.00     0.010 A 
ATOM     93  C   UNL     1       2.164  12.398  11.806  1.00  0.00     0.020 A 
ATOM     94  C   UNL     1       2.136  14.797  12.193  1.00  0.00     0.020 A 
ATOM     95  C   UNL     1       2.319  13.494  12.661  1.00  0.00     0.054 A 
BRANCH  95  96
ATOM     96  S   UNL     1       2.799  13.197  14.384  1.00  0.00     0.124 S 
ATOM     97  O   UNL     1       1.560  12.679  14.959  1.00  0.00    -0.237 OA
ATOM     98  O   UNL     1       3.885  12.229  14.253  1.00  0.00    -0.237 OA
ATOM     99  O   UNL     1       3.204  14.517  14.864  1.00  0.00    -0.744 OA
ENDBRANCH  95  96
ENDBRANCH  69  90
ENDBRANCH  43  44
ENDBRANCH  35  38
ENDBRANCH  33  34
ENDBRANCH  32  33
ENDBRANCH  31  32
ENDBRANCH  29  31
ENDBRANCH   1  27
TORSDOF 22
