REMARK SMILES O=C(NCCCNC(=O)[C@@H](Cc1c[nH]c2ccccc12)Nc1ncnc2ccccc12)c1ccc(-c2c3nc(c(-c4ccc(S(=O)(=O)[O-])cc4)c4ccc([nH]4)c(-c4ccc(S(=O)(=O)[O-])cc4)c4nc(c(-c5ccc(S(=O)(=O)[O-])cc5)c5ccc2[nH]5)C=C4)C=C3)cc1
REMARK SMILES IDX 4 1 3 2 1 3 2 4 32 6 33 7 91 8 34 9 90 10 35 11 36 12 37 13
REMARK SMILES IDX 84 14 38 15 89 16 83 17 85 18 39 19 88 20 82 21 81 22 40 24
REMARK SMILES IDX 70 25 51 26 69 27 52 28 55 29 68 30 86 31 53 32 54 33 67 35
REMARK SMILES IDX 87 36 56 37 41 38 42 39 50 40 43 41 49 42 44 43 45 44 46 45
REMARK SMILES IDX 47 46 48 47 71 48 72 49 80 50 73 51 79 52 74 53 75 54 76 55
REMARK SMILES IDX 77 56 78 57 57 58 58 59 66 60 59 61 65 62 60 63 61 64 62 65
REMARK SMILES IDX 63 66 64 67 5 68 6 69 7 70 8 71 9 73 10 74 11 75 12 76 13 77
REMARK SMILES IDX 20 78 14 79 15 80 19 81 16 83 18 84 17 85 21 86 22 88 23 89
REMARK SMILES IDX 31 90 24 91 26 92 30 93 25 94 27 95 29 96 28 97
REMARK H PARENT 3 5 85 23 55 34 7 72 14 82 21 87
REMARK Flexibility Score: inf
ROOT
ATOM      1  C   UNL     1       3.788  -1.238  -1.549  1.00  0.00     0.118 C 
ENDROOT
BRANCH   1   2
ATOM      2  N   UNL     1       2.472  -0.711  -1.232  1.00  0.00    -0.352 N 
ATOM      3  O   UNL     1       0.832   0.350  -0.168  1.00  0.00    -0.269 OA
ATOM      4  C   UNL     1       2.045   0.278  -0.377  1.00  0.00     0.251 C 
ATOM      5  H   UNL     1       1.742  -1.147  -1.728  1.00  0.00     0.163 HD
BRANCH   4   6
ATOM      6  C   UNL     1       2.950   1.242   0.316  1.00  0.00     0.039 A 
ATOM      7  C   UNL     1       4.132   1.734  -0.234  1.00  0.00     0.014 A 
ATOM      8  C   UNL     1       2.515   1.785   1.537  1.00  0.00     0.014 A 
ATOM      9  C   UNL     1       4.916   2.663   0.465  1.00  0.00     0.010 A 
ATOM     10  C   UNL     1       3.255   2.781   2.195  1.00  0.00     0.010 A 
ATOM     11  C   UNL     1       4.481   3.219   1.679  1.00  0.00    -0.014 A 
BRANCH  11  12
ATOM     12  C   UNL     1       5.280   4.291   2.350  1.00  0.00     0.031 A 
ATOM     13  C   UNL     1       5.835   4.106   3.742  1.00  0.00     0.074 A 
ATOM     14  C   UNL     1       5.515   5.453   1.703  1.00  0.00     0.049 A 
ATOM     15  N   UNL     1       6.578   4.924   4.449  1.00  0.00    -0.248 NA
ATOM     16  C   UNL     1       5.509   2.850   4.433  1.00  0.00     0.031 C 
ATOM     17  C   UNL     1       5.021   5.791   0.366  1.00  0.00     0.029 A 
ATOM     18  N   UNL     1       6.245   6.558   2.071  1.00  0.00    -0.354 N 
ATOM     19  C   UNL     1       6.782   4.297   5.674  1.00  0.00     0.074 A 
ATOM     20  C   UNL     1       6.067   3.039   5.621  1.00  0.00     0.031 C 
ATOM     21  C   UNL     1       5.512   6.985   0.002  1.00  0.00     0.029 A 
ATOM     22  C   UNL     1       6.306   7.530   1.099  1.00  0.00     0.049 A 
ATOM     23  H   UNL     1       6.683   6.646   2.949  1.00  0.00     0.167 HD
ATOM     24  C   UNL     1       7.498   4.721   6.746  1.00  0.00     0.031 A 
ATOM     25  C   UNL     1       6.924   8.727   1.080  1.00  0.00     0.031 A 
ATOM     26  C   UNL     1       8.218   5.968   6.808  1.00  0.00     0.049 A 
ATOM     27  C   UNL     1       7.712   9.176   2.278  1.00  0.00     0.074 A 
ATOM     28  C   UNL     1       9.009   6.454   7.836  1.00  0.00     0.029 A 
ATOM     29  N   UNL     1       8.233   6.928   5.808  1.00  0.00    -0.354 N 
ATOM     30  N   UNL     1       7.927   8.544   3.406  1.00  0.00    -0.248 NA
ATOM     31  C   UNL     1       8.344  10.501   2.197  1.00  0.00     0.031 C 
ATOM     32  C   UNL     1       9.464   7.728   7.478  1.00  0.00     0.029 A 
ATOM     33  C   UNL     1       9.002   8.012   6.203  1.00  0.00     0.049 A 
ATOM     34  H   UNL     1       7.766   6.852   4.945  1.00  0.00     0.167 HD
ATOM     35  C   UNL     1       8.743   9.382   4.158  1.00  0.00     0.074 A 
ATOM     36  C   UNL     1       8.990  10.561   3.354  1.00  0.00     0.031 C 
ATOM     37  C   UNL     1       9.244   9.186   5.402  1.00  0.00     0.031 A 
BRANCH  24  38
ATOM     38  C   UNL     1       7.512   3.835   7.967  1.00  0.00    -0.014 A 
ATOM     39  C   UNL     1       8.214   2.617   7.980  1.00  0.00     0.010 A 
ATOM     40  C   UNL     1       6.835   4.246   9.131  1.00  0.00     0.010 A 
ATOM     41  C   UNL     1       8.194   1.800   9.114  1.00  0.00     0.020 A 
ATOM     42  C   UNL     1       6.835   3.445  10.277  1.00  0.00     0.020 A 
ATOM     43  C   UNL     1       7.495   2.215  10.253  1.00  0.00     0.054 A 
BRANCH  43  44
ATOM     44  S   UNL     1       7.476   1.133  11.708  1.00  0.00     0.124 S 
ATOM     45  O   UNL     1       6.538   0.092  11.294  1.00  0.00    -0.237 OA
ATOM     46  O   UNL     1       8.870   0.713  11.818  1.00  0.00    -0.237 OA
ATOM     47  O   UNL     1       7.004   2.004  12.782  1.00  0.00    -0.744 OA
ENDBRANCH  43  44
ENDBRANCH  24  38
BRANCH  25  48
ATOM     48  C   UNL     1       6.839   9.582  -0.136  1.00  0.00    -0.014 A 
ATOM     49  C   UNL     1       7.964   9.755  -0.963  1.00  0.00     0.010 A 
ATOM     50  C   UNL     1       5.628  10.203  -0.490  1.00  0.00     0.010 A 
ATOM     51  C   UNL     1       7.880  10.537  -2.118  1.00  0.00     0.020 A 
ATOM     52  C   UNL     1       5.533  10.963  -1.659  1.00  0.00     0.020 A 
ATOM     53  C   UNL     1       6.663  11.132  -2.462  1.00  0.00     0.054 A 
BRANCH  53  54
ATOM     54  S   UNL     1       6.557  12.081  -4.005  1.00  0.00     0.124 S 
ATOM     55  O   UNL     1       7.245  13.317  -3.648  1.00  0.00    -0.237 OA
ATOM     56  O   UNL     1       7.255  11.218  -4.955  1.00  0.00    -0.237 OA
ATOM     57  O   UNL     1       5.119  12.205  -4.230  1.00  0.00    -0.744 OA
ENDBRANCH  53  54
ENDBRANCH  25  48
BRANCH  37  58
ATOM     58  C   UNL     1      10.152  10.251   5.959  1.00  0.00    -0.014 A 
ATOM     59  C   UNL     1       9.650  11.496   6.380  1.00  0.00     0.010 A 
ATOM     60  C   UNL     1      11.528   9.988   6.089  1.00  0.00     0.010 A 
ATOM     61  C   UNL     1      10.515  12.472   6.886  1.00  0.00     0.020 A 
ATOM     62  C   UNL     1      12.391  10.951   6.617  1.00  0.00     0.020 A 
ATOM     63  C   UNL     1      11.882  12.194   6.996  1.00  0.00     0.054 A 
BRANCH  63  64
ATOM     64  S   UNL     1      12.983  13.465   7.679  1.00  0.00     0.124 S 
ATOM     65  O   UNL     1      13.108  14.392   6.558  1.00  0.00    -0.237 OA
ATOM     66  O   UNL     1      12.228  13.963   8.826  1.00  0.00    -0.237 OA
ATOM     67  O   UNL     1      14.198  12.725   8.014  1.00  0.00    -0.744 OA
ENDBRANCH  63  64
ENDBRANCH  37  58
ENDBRANCH  11  12
ENDBRANCH   4   6
ENDBRANCH   1   2
BRANCH   1  68
ATOM     68  C   UNL     1       4.220  -2.338  -0.592  1.00  0.00     0.042 C 
BRANCH  68  69
ATOM     69  C   UNL     1       3.860  -3.763  -1.005  1.00  0.00     0.117 C 
BRANCH  69  70
ATOM     70  N   UNL     1       4.757  -4.263  -2.038  1.00  0.00    -0.354 N 
ATOM     71  C   UNL     1       5.841  -5.086  -2.018  1.00  0.00     0.242 C 
ATOM     72  H   UNL     1       4.532  -3.938  -2.939  1.00  0.00     0.163 HD
ATOM     73  O   UNL     1       6.495  -5.121  -3.071  1.00  0.00    -0.273 OA
BRANCH  71  74
ATOM     74  C   UNL     1       6.302  -5.951  -0.817  1.00  0.00     0.174 C 
BRANCH  74  75
ATOM     75  C   UNL     1       7.210  -5.212   0.180  1.00  0.00     0.072 C 
BRANCH  75  76
ATOM     76  C   UNL     1       6.625  -4.196   1.108  1.00  0.00    -0.020 A 
ATOM     77  C   UNL     1       5.684  -4.403   2.098  1.00  0.00     0.087 A 
ATOM     78  C   UNL     1       7.014  -2.817   1.194  1.00  0.00     0.003 A 
ATOM     79  N   UNL     1       5.451  -3.211   2.732  1.00  0.00    -0.361 N 
ATOM     80  C   UNL     1       6.221  -2.218   2.172  1.00  0.00     0.046 A 
ATOM     81  C   UNL     1       7.930  -2.011   0.484  1.00  0.00     0.010 A 
ATOM     82  H   UNL     1       4.824  -3.083   3.480  1.00  0.00     0.166 HD
ATOM     83  C   UNL     1       6.264  -0.846   2.445  1.00  0.00     0.026 A 
ATOM     84  C   UNL     1       7.987  -0.638   0.745  1.00  0.00     0.001 A 
ATOM     85  C   UNL     1       7.159  -0.066   1.706  1.00  0.00     0.002 A 
ENDBRANCH  75  76
ENDBRANCH  74  75
BRANCH  74  86
ATOM     86  N   UNL     1       5.220  -6.737  -0.198  1.00  0.00    -0.358 N 
ATOM     87  H   UNL     1       4.592  -6.290   0.415  1.00  0.00     0.162 HD
BRANCH  86  88
ATOM     88  C   UNL     1       5.062  -8.090  -0.457  1.00  0.00     0.137 A 
ATOM     89  N   UNL     1       3.825  -8.385  -0.891  1.00  0.00    -0.219 NA
ATOM     90  C   UNL     1       6.045  -9.087  -0.267  1.00  0.00     0.043 A 
ATOM     91  C   UNL     1       3.581  -9.666  -1.188  1.00  0.00     0.224 A 
ATOM     92  C   UNL     1       5.657 -10.389  -0.621  1.00  0.00     0.076 A 
ATOM     93  C   UNL     1       7.344  -8.905   0.277  1.00  0.00     0.014 A 
ATOM     94  N   UNL     1       4.441 -10.683  -1.087  1.00  0.00    -0.236 NA
ATOM     95  C   UNL     1       6.563 -11.434  -0.467  1.00  0.00     0.029 A 
ATOM     96  C   UNL     1       8.240  -9.962   0.418  1.00  0.00     0.001 A 
ATOM     97  C   UNL     1       7.849 -11.235   0.040  1.00  0.00     0.002 A 
ENDBRANCH  86  88
ENDBRANCH  74  86
ENDBRANCH  71  74
ENDBRANCH  69  70
ENDBRANCH  68  69
ENDBRANCH   1  68
TORSDOF 17
