REMARK SMILES CCC(CC)COc1cc2c(cc1Cl)C=C(C(=O)NCCCNC(=O)c1ccc(-c3c4nc(c(-c5ccc(S(=O)(=O)[O-])cc5)c5ccc([nH]5)c(-c5ccc(S(=O)(=O)[O-])cc5)c5nc(c(-c6ccc(S(=O)(=O)[O-])cc6)c6ccc3[nH]6)C=C5)C=C4)cc1)[C@@H](C(F)(F)F)O2
REMARK SMILES IDX 20 1 19 2 17 3 18 4 16 6 8 7 9 8 13 9 10 10 12 11 14 12
REMARK SMILES IDX 11 13 91 14 15 15 86 16 7 17 6 18 3 19 2 20 1 21 4 22 5 23
REMARK SMILES IDX 87 24 88 25 89 26 90 27 21 28 22 29 23 30 24 31 25 33 26 34
REMARK SMILES IDX 27 35 85 36 28 37 84 38 29 39 30 40 31 41 78 42 32 43 83 44
REMARK SMILES IDX 77 45 79 46 33 47 82 48 76 49 75 50 34 52 64 53 45 54 63 55
REMARK SMILES IDX 46 56 49 57 62 58 80 59 47 60 48 61 61 63 81 64 50 65 35 66
REMARK SMILES IDX 36 67 44 68 37 69 43 70 38 71 39 72 40 73 41 74 42 75 65 76
REMARK SMILES IDX 66 77 74 78 67 79 73 80 68 81 69 82 70 83 71 84 72 85 51 86
REMARK SMILES IDX 52 87 60 88 53 89 59 90 54 91 55 92 56 93 57 94 58 95
REMARK H PARENT 19 5 23 32 79 51 49 62
REMARK Flexibility Score: inf
ROOT
ATOM      1  C   UNL     1      -0.730  -8.965   4.983  1.00  0.00     0.118 C 
ENDROOT
BRANCH   1   2
ATOM      2  N   UNL     1      -0.792  -8.683   3.559  1.00  0.00    -0.352 N 
ATOM      3  C   UNL     1      -0.579  -7.615   2.760  1.00  0.00     0.251 C 
ATOM      4  O   UNL     1      -0.741  -7.816   1.553  1.00  0.00    -0.270 OA
ATOM      5  H   UNL     1      -1.058  -9.477   3.042  1.00  0.00     0.163 HD
BRANCH   3   6
ATOM      6  C   UNL     1      -0.165  -6.271   3.234  1.00  0.00     0.067 C 
ATOM      7  C   UNL     1       1.287  -1.500   3.484  1.00  0.00     0.141 A 
ATOM      8  C   UNL     1       0.416  -2.264   4.263  1.00  0.00     0.095 A 
ATOM      9  C   UNL     1       1.958  -2.083   2.398  1.00  0.00     0.083 A 
ATOM     10  C   UNL     1       0.166  -3.579   3.889  1.00  0.00     0.131 A 
ATOM     11  C   UNL     1       1.606  -3.359   1.963  1.00  0.00     0.036 A 
ATOM     12  Cl  UNL     1       3.215  -1.260   1.549  1.00  0.00    -0.080 Cl
ATOM     13  C   UNL     1       0.691  -4.102   2.700  1.00  0.00     0.019 A 
ATOM     14  O   UNL     1      -0.577  -4.365   4.736  1.00  0.00    -0.475 OA
ATOM     15  C   UNL     1       0.280  -5.434   2.280  1.00  0.00     0.025 C 
ATOM     16  C   UNL     1      -0.215  -5.783   4.657  1.00  0.00     0.314 C 
BRANCH   7  17
ATOM     17  O   UNL     1       1.515  -0.192   3.818  1.00  0.00    -0.492 OA
BRANCH  17  18
ATOM     18  C   UNL     1       0.426   0.676   3.425  1.00  0.00     0.233 C 
BRANCH  18  19
ATOM     19  C   UNL     1       0.613   1.182   1.973  1.00  0.00     0.026 C 
BRANCH  19  20
ATOM     20  C   UNL     1      -0.122   0.271   0.961  1.00  0.00     0.003 C 
ATOM     21  C   UNL     1       0.384   0.442  -0.464  1.00  0.00     0.004 C 
ENDBRANCH  19  20
BRANCH  19  22
ATOM     22  C   UNL     1       0.216   2.665   1.823  1.00  0.00     0.003 C 
ATOM     23  C   UNL     1      -1.270   2.964   1.954  1.00  0.00     0.004 C 
ENDBRANCH  19  22
ENDBRANCH  18  19
ENDBRANCH  17  18
ENDBRANCH   7  17
BRANCH  16  24
ATOM     24  C   UNL     1       1.110  -6.060   5.414  1.00  0.00     0.429 C 
ATOM     25  F   UNL     1       0.907  -6.049   6.753  1.00  0.00    -0.167 F 
ATOM     26  F   UNL     1       1.629  -7.276   5.110  1.00  0.00    -0.167 F 
ATOM     27  F   UNL     1       2.083  -5.160   5.147  1.00  0.00    -0.167 F 
ENDBRANCH  16  24
ENDBRANCH   3   6
ENDBRANCH   1   2
BRANCH   1  28
ATOM     28  C   UNL     1      -2.108  -9.255   5.551  1.00  0.00     0.042 C 
BRANCH  28  29
ATOM     29  C   UNL     1      -2.633 -10.620   5.129  1.00  0.00     0.118 C 
BRANCH  29  30
ATOM     30  N   UNL     1      -1.891 -11.710   5.756  1.00  0.00    -0.352 N 
ATOM     31  C   UNL     1      -2.274 -12.586   6.747  1.00  0.00     0.251 C 
ATOM     32  H   UNL     1      -0.976 -11.839   5.417  1.00  0.00     0.163 HD
ATOM     33  O   UNL     1      -1.436 -13.282   7.303  1.00  0.00    -0.269 OA
BRANCH  31  34
ATOM     34  C   UNL     1      -3.696 -12.658   7.147  1.00  0.00     0.039 A 
ATOM     35  C   UNL     1      -4.698 -12.634   6.178  1.00  0.00     0.014 A 
ATOM     36  C   UNL     1      -4.031 -12.735   8.502  1.00  0.00     0.014 A 
ATOM     37  C   UNL     1      -6.020 -12.475   6.564  1.00  0.00     0.010 A 
ATOM     38  C   UNL     1      -5.375 -12.695   8.885  1.00  0.00     0.010 A 
ATOM     39  C   UNL     1      -6.378 -12.510   7.921  1.00  0.00    -0.014 A 
BRANCH  39  40
ATOM     40  C   UNL     1      -7.811 -12.368   8.290  1.00  0.00     0.031 A 
ATOM     41  C   UNL     1      -8.288 -11.203   9.114  1.00  0.00     0.074 A 
ATOM     42  C   UNL     1      -8.696 -13.262   7.807  1.00  0.00     0.049 A 
ATOM     43  N   UNL     1      -9.510 -10.899   9.468  1.00  0.00    -0.248 NA
ATOM     44  C   UNL     1      -7.272 -10.259   9.609  1.00  0.00     0.031 C 
ATOM     45  C   UNL     1      -8.348 -14.420   6.979  1.00  0.00     0.029 A 
ATOM     46  N   UNL     1     -10.064 -13.315   7.891  1.00  0.00    -0.354 N 
ATOM     47  C   UNL     1      -9.408  -9.756  10.252  1.00  0.00     0.074 A 
ATOM     48  C   UNL     1      -8.003  -9.426  10.337  1.00  0.00     0.031 C 
ATOM     49  C   UNL     1      -9.473 -15.009   6.554  1.00  0.00     0.029 A 
ATOM     50  C   UNL     1     -10.620 -14.329   7.147  1.00  0.00     0.049 A 
ATOM     51  H   UNL     1     -10.596 -12.688   8.432  1.00  0.00     0.167 HD
ATOM     52  C   UNL     1     -10.399  -9.046  10.842  1.00  0.00     0.031 A 
ATOM     53  C   UNL     1     -11.906 -14.684   6.958  1.00  0.00     0.031 A 
ATOM     54  C   UNL     1     -11.798  -9.366  10.724  1.00  0.00     0.049 A 
ATOM     55  C   UNL     1     -12.984 -13.898   7.639  1.00  0.00     0.074 A 
ATOM     56  C   UNL     1     -12.878  -8.680  11.251  1.00  0.00     0.029 A 
ATOM     57  N   UNL     1     -12.312 -10.454  10.034  1.00  0.00    -0.354 N 
ATOM     58  N   UNL     1     -12.866 -12.820   8.376  1.00  0.00    -0.248 NA
ATOM     59  C   UNL     1     -14.362 -14.377   7.481  1.00  0.00     0.031 C 
ATOM     60  C   UNL     1     -14.040  -9.389  10.934  1.00  0.00     0.029 A 
ATOM     61  C   UNL     1     -13.691 -10.479  10.153  1.00  0.00     0.049 A 
ATOM     62  H   UNL     1     -11.775 -11.111   9.534  1.00  0.00     0.167 HD
ATOM     63  C   UNL     1     -14.154 -12.492   8.776  1.00  0.00     0.074 A 
ATOM     64  C   UNL     1     -15.040 -13.473   8.179  1.00  0.00     0.031 C 
ATOM     65  C   UNL     1     -14.560 -11.473   9.571  1.00  0.00     0.031 A 
BRANCH  52  66
ATOM     66  C   UNL     1     -10.021  -7.861  11.692  1.00  0.00    -0.014 A 
ATOM     67  C   UNL     1     -10.216  -7.921  13.085  1.00  0.00     0.010 A 
ATOM     68  C   UNL     1      -9.566  -6.661  11.117  1.00  0.00     0.010 A 
ATOM     69  C   UNL     1      -9.981  -6.801  13.886  1.00  0.00     0.020 A 
ATOM     70  C   UNL     1      -9.305  -5.545  11.919  1.00  0.00     0.020 A 
ATOM     71  C   UNL     1      -9.532  -5.617  13.296  1.00  0.00     0.054 A 
BRANCH  71  72
ATOM     72  S   UNL     1      -9.225  -4.171  14.350  1.00  0.00     0.124 S 
ATOM     73  O   UNL     1     -10.573  -3.655  14.565  1.00  0.00    -0.237 OA
ATOM     74  O   UNL     1      -8.577  -4.758  15.521  1.00  0.00    -0.237 OA
ATOM     75  O   UNL     1      -8.357  -3.332  13.527  1.00  0.00    -0.744 OA
ENDBRANCH  71  72
ENDBRANCH  52  66
BRANCH  53  76
ATOM     76  C   UNL     1     -12.202 -15.830   6.057  1.00  0.00    -0.014 A 
ATOM     77  C   UNL     1     -11.822 -17.136   6.421  1.00  0.00     0.010 A 
ATOM     78  C   UNL     1     -12.717 -15.600   4.770  1.00  0.00     0.010 A 
ATOM     79  C   UNL     1     -11.868 -18.173   5.486  1.00  0.00     0.020 A 
ATOM     80  C   UNL     1     -12.792 -16.642   3.841  1.00  0.00     0.020 A 
ATOM     81  C   UNL     1     -12.328 -17.912   4.193  1.00  0.00     0.054 A 
BRANCH  81  82
ATOM     82  S   UNL     1     -12.268 -19.244   2.962  1.00  0.00     0.124 S 
ATOM     83  O   UNL     1     -10.848 -19.270   2.622  1.00  0.00    -0.237 OA
ATOM     84  O   UNL     1     -12.757 -20.397   3.713  1.00  0.00    -0.237 OA
ATOM     85  O   UNL     1     -13.156 -18.770   1.904  1.00  0.00    -0.744 OA
ENDBRANCH  81  82
ENDBRANCH  53  76
BRANCH  65  86
ATOM     86  C   UNL     1     -16.029 -11.358   9.877  1.00  0.00    -0.014 A 
ATOM     87  C   UNL     1     -16.771 -10.287   9.347  1.00  0.00     0.010 A 
ATOM     88  C   UNL     1     -16.637 -12.229  10.798  1.00  0.00     0.010 A 
ATOM     89  C   UNL     1     -18.086 -10.064   9.762  1.00  0.00     0.020 A 
ATOM     90  C   UNL     1     -17.961 -12.023  11.196  1.00  0.00     0.020 A 
ATOM     91  C   UNL     1     -18.667 -10.926  10.696  1.00  0.00     0.054 A 
BRANCH  91  92
ATOM     92  S   UNL     1     -20.360 -10.597  11.256  1.00  0.00     0.124 S 
ATOM     93  O   UNL     1     -20.162  -9.509  12.209  1.00  0.00    -0.237 OA
ATOM     94  O   UNL     1     -21.045 -10.233  10.017  1.00  0.00    -0.237 OA
ATOM     95  O   UNL     1     -20.781 -11.870  11.838  1.00  0.00    -0.744 OA
ENDBRANCH  91  92
ENDBRANCH  65  86
ENDBRANCH  39  40
ENDBRANCH  31  34
ENDBRANCH  29  30
ENDBRANCH  28  29
ENDBRANCH   1  28
TORSDOF 19
