REMARK SMILES C#Cc1cc(Cl)c2c(c1)C=C(C(=O)NCCCNC(=O)c1ccc(-c3c4nc(c(-c5ccc(S(=O)(=O)[O-])cc5)c5ccc([nH]5)c(-c5ccc(S(=O)(=O)[O-])cc5)c5nc(c(-c6ccc(S(=O)(=O)[O-])cc6)c6ccc3[nH]6)C=C5)C=C4)cc1)[C@@H](C(F)(F)F)O2
REMARK SMILES IDX 17 1 16 2 15 3 14 4 12 5 13 6 11 8 3 9 4 10 9 11 5 12 8 13
REMARK SMILES IDX 6 14 7 15 10 16 86 17 81 18 2 19 1 20 82 21 83 22 84 23
REMARK SMILES IDX 85 24 18 25 19 26 20 28 21 29 22 30 80 31 23 32 79 33 24 34
REMARK SMILES IDX 25 35 26 36 73 37 27 38 78 39 72 40 74 41 28 42 77 43 71 44
REMARK SMILES IDX 70 45 29 47 59 48 40 49 58 50 41 51 44 52 57 53 75 54 42 55
REMARK SMILES IDX 43 56 56 58 76 59 45 60 30 61 31 62 39 63 32 64 38 65 33 66
REMARK SMILES IDX 34 67 35 68 36 69 37 70 60 71 61 72 69 73 62 74 68 75 63 76
REMARK SMILES IDX 64 77 65 78 66 79 67 80 46 81 47 82 55 83 48 84 54 85 49 86
REMARK SMILES IDX 50 87 51 88 52 89 53 90
REMARK H PARENT 14 7 18 27 74 46 44 57
REMARK Flexibility Score: inf
ROOT
ATOM      1  C   UNL     1     -10.909   3.729   1.475  1.00  0.00     0.118 C 
ENDROOT
BRANCH   1   2
ATOM      2  C   UNL     1      -9.963   2.553   1.298  1.00  0.00     0.042 C 
BRANCH   2   3
ATOM      3  C   UNL     1      -9.174   2.659   0.005  1.00  0.00     0.118 C 
BRANCH   3   4
ATOM      4  N   UNL     1      -8.057   3.587   0.120  1.00  0.00    -0.352 N 
ATOM      5  C   UNL     1      -6.705   3.511   0.137  1.00  0.00     0.251 C 
ATOM      6  O   UNL     1      -6.111   4.590   0.221  1.00  0.00    -0.270 OA
ATOM      7  H   UNL     1      -8.368   4.517   0.209  1.00  0.00     0.163 HD
BRANCH   5   8
ATOM      8  C   UNL     1      -5.926   2.242   0.059  1.00  0.00     0.067 C 
ATOM      9  C   UNL     1      -1.627   0.023   0.072  1.00  0.00     0.027 A 
ATOM     10  C   UNL     1      -2.260  -1.221   0.074  1.00  0.00     0.041 A 
ATOM     11  C   UNL     1      -2.383   1.200   0.100  1.00  0.00     0.029 A 
ATOM     12  C   UNL     1      -3.649  -1.288   0.107  1.00  0.00     0.084 A 
ATOM     13  C   UNL     1      -3.781   1.135   0.129  1.00  0.00     0.020 A 
ATOM     14  Cl  UNL     1      -4.401  -2.843   0.108  1.00  0.00    -0.080 Cl
ATOM     15  C   UNL     1      -4.409  -0.115   0.130  1.00  0.00     0.146 A 
ATOM     16  C   UNL     1      -4.592   2.346   0.204  1.00  0.00     0.025 C 
ATOM     17  O   UNL     1      -5.766  -0.239   0.205  1.00  0.00    -0.474 OA
ATOM     18  C   UNL     1      -6.555   0.904  -0.195  1.00  0.00     0.314 C 
BRANCH   9  19
ATOM     19  C   UNL     1      -0.199   0.079   0.058  1.00  0.00    -0.070 C 
ATOM     20  C   UNL     1       1.002   0.091   0.057  1.00  0.00     0.010 C 
ENDBRANCH   9  19
BRANCH  18  21
ATOM     21  C   UNL     1      -6.991   0.733  -1.664  1.00  0.00     0.429 C 
ATOM     22  F   UNL     1      -7.904  -0.262  -1.779  1.00  0.00    -0.167 F 
ATOM     23  F   UNL     1      -7.571   1.846  -2.173  1.00  0.00    -0.167 F 
ATOM     24  F   UNL     1      -5.955   0.432  -2.479  1.00  0.00    -0.167 F 
ENDBRANCH  18  21
ENDBRANCH   5   8
ENDBRANCH   3   4
ENDBRANCH   2   3
ENDBRANCH   1   2
BRANCH   1  25
ATOM     25  N   UNL     1     -11.906   3.787   0.407  1.00  0.00    -0.352 N 
ATOM     26  C   UNL     1     -13.246   3.494   0.432  1.00  0.00     0.251 C 
ATOM     27  H   UNL     1     -11.562   4.082  -0.466  1.00  0.00     0.163 HD
ATOM     28  O   UNL     1     -13.856   3.330  -0.620  1.00  0.00    -0.269 OA
BRANCH  26  29
ATOM     29  C   UNL     1     -13.938   3.375   1.728  1.00  0.00     0.039 A 
ATOM     30  C   UNL     1     -14.890   2.372   1.912  1.00  0.00     0.014 A 
ATOM     31  C   UNL     1     -13.634   4.263   2.762  1.00  0.00     0.014 A 
ATOM     32  C   UNL     1     -15.488   2.222   3.162  1.00  0.00     0.010 A 
ATOM     33  C   UNL     1     -14.137   4.036   4.032  1.00  0.00     0.010 A 
ATOM     34  C   UNL     1     -15.087   3.029   4.240  1.00  0.00    -0.014 A 
BRANCH  34  35
ATOM     35  C   UNL     1     -15.678   2.867   5.587  1.00  0.00     0.031 A 
ATOM     36  C   UNL     1     -16.452   4.002   6.200  1.00  0.00     0.074 A 
ATOM     37  C   UNL     1     -15.482   1.721   6.267  1.00  0.00     0.049 A 
ATOM     38  N   UNL     1     -17.019   4.068   7.375  1.00  0.00    -0.248 NA
ATOM     39  C   UNL     1     -16.588   5.233   5.399  1.00  0.00     0.031 C 
ATOM     40  C   UNL     1     -14.720   0.567   5.782  1.00  0.00     0.029 A 
ATOM     41  N   UNL     1     -15.914   1.334   7.509  1.00  0.00    -0.354 N 
ATOM     42  C   UNL     1     -17.573   5.340   7.454  1.00  0.00     0.074 A 
ATOM     43  C   UNL     1     -17.212   6.040   6.243  1.00  0.00     0.031 C 
ATOM     44  C   UNL     1     -14.784  -0.416   6.694  1.00  0.00     0.029 A 
ATOM     45  C   UNL     1     -15.543   0.054   7.848  1.00  0.00     0.049 A 
ATOM     46  H   UNL     1     -16.441   1.917   8.103  1.00  0.00     0.167 HD
ATOM     47  C   UNL     1     -18.344   5.867   8.432  1.00  0.00     0.031 A 
ATOM     48  C   UNL     1     -15.787  -0.660   8.964  1.00  0.00     0.031 A 
ATOM     49  C   UNL     1     -18.706   5.159   9.629  1.00  0.00     0.049 A 
ATOM     50  C   UNL     1     -16.606  -0.033  10.060  1.00  0.00     0.074 A 
ATOM     51  C   UNL     1     -19.512   5.588  10.668  1.00  0.00     0.029 A 
ATOM     52  N   UNL     1     -18.285   3.877   9.948  1.00  0.00    -0.354 N 
ATOM     53  N   UNL     1     -17.171   1.151  10.091  1.00  0.00    -0.248 NA
ATOM     54  C   UNL     1     -16.826  -0.840  11.268  1.00  0.00     0.031 C 
ATOM     55  C   UNL     1     -19.522   4.592  11.647  1.00  0.00     0.029 A 
ATOM     56  C   UNL     1     -18.786   3.511  11.185  1.00  0.00     0.049 A 
ATOM     57  H   UNL     1     -17.714   3.311   9.380  1.00  0.00     0.167 HD
ATOM     58  C   UNL     1     -17.834   1.222  11.311  1.00  0.00     0.074 A 
ATOM     59  C   UNL     1     -17.617  -0.046  11.978  1.00  0.00     0.031 C 
ATOM     60  C   UNL     1     -18.556   2.245  11.833  1.00  0.00     0.031 A 
BRANCH  47  61
ATOM     61  C   UNL     1     -18.855   7.271   8.244  1.00  0.00    -0.014 A 
ATOM     62  C   UNL     1     -19.811   7.567   7.256  1.00  0.00     0.010 A 
ATOM     63  C   UNL     1     -18.419   8.296   9.104  1.00  0.00     0.010 A 
ATOM     64  C   UNL     1     -20.301   8.867   7.112  1.00  0.00     0.020 A 
ATOM     65  C   UNL     1     -18.931   9.591   8.985  1.00  0.00     0.020 A 
ATOM     66  C   UNL     1     -19.862   9.870   7.981  1.00  0.00     0.054 A 
BRANCH  66  67
ATOM     67  S   UNL     1     -20.550  11.536   7.794  1.00  0.00     0.124 S 
ATOM     68  O   UNL     1     -20.010  11.943   6.499  1.00  0.00    -0.237 OA
ATOM     69  O   UNL     1     -21.989  11.290   7.826  1.00  0.00    -0.237 OA
ATOM     70  O   UNL     1     -20.018  12.264   8.944  1.00  0.00    -0.744 OA
ENDBRANCH  66  67
ENDBRANCH  47  61
BRANCH  48  71
ATOM     71  C   UNL     1     -15.271  -2.052   9.083  1.00  0.00    -0.014 A 
ATOM     72  C   UNL     1     -16.157  -3.144   9.085  1.00  0.00     0.010 A 
ATOM     73  C   UNL     1     -13.887  -2.297   9.167  1.00  0.00     0.010 A 
ATOM     74  C   UNL     1     -15.671  -4.451   9.180  1.00  0.00     0.020 A 
ATOM     75  C   UNL     1     -13.396  -3.604   9.229  1.00  0.00     0.020 A 
ATOM     76  C   UNL     1     -14.293  -4.673   9.243  1.00  0.00     0.054 A 
BRANCH  76  77
ATOM     77  S   UNL     1     -13.688  -6.382   9.311  1.00  0.00     0.124 S 
ATOM     78  O   UNL     1     -14.159  -6.821  10.621  1.00  0.00    -0.237 OA
ATOM     79  O   UNL     1     -14.352  -6.993   8.162  1.00  0.00    -0.237 OA
ATOM     80  O   UNL     1     -12.240  -6.239   9.183  1.00  0.00    -0.744 OA
ENDBRANCH  76  77
ENDBRANCH  48  71
BRANCH  60  81
ATOM     81  C   UNL     1     -19.182   2.040  13.188  1.00  0.00    -0.014 A 
ATOM     82  C   UNL     1     -18.394   1.992  14.351  1.00  0.00     0.010 A 
ATOM     83  C   UNL     1     -20.584   1.990  13.305  1.00  0.00     0.010 A 
ATOM     84  C   UNL     1     -18.997   1.875  15.605  1.00  0.00     0.020 A 
ATOM     85  C   UNL     1     -21.191   1.908  14.560  1.00  0.00     0.020 A 
ATOM     86  C   UNL     1     -20.392   1.841  15.702  1.00  0.00     0.054 A 
BRANCH  86  87
ATOM     87  S   UNL     1     -21.144   1.747  17.349  1.00  0.00     0.124 S 
ATOM     88  O   UNL     1     -20.752   0.410  17.787  1.00  0.00    -0.237 OA
ATOM     89  O   UNL     1     -20.501   2.853  18.054  1.00  0.00    -0.237 OA
ATOM     90  O   UNL     1     -22.571   1.923  17.091  1.00  0.00    -0.744 OA
ENDBRANCH  86  87
ENDBRANCH  60  81
ENDBRANCH  34  35
ENDBRANCH  26  29
ENDBRANCH   1  25
TORSDOF 15
