REMARK SMILES C[C@@H](Oc1ccc(-c2ccccc2)cc1)C(=O)N1CCC[C@H](C(=O)NCCCNC(=O)c2ccc(-c3c4nc(c(-c5ccc(S(=O)(=O)[O-])cc5)c5ccc([nH]5)c(-c5ccc(S(=O)(=O)[O-])cc5)c5nc(c(-c6ccc(S(=O)(=O)[O-])cc6)c6ccc3[nH]6)C=C5)C=C4)cc2)C1
REMARK SMILES IDX 26 1 25 2 23 3 24 4 22 6 18 7 19 8 92 9 20 10 21 11 16 12
REMARK SMILES IDX 17 13 2 14 1 15 3 16 4 17 5 18 15 19 6 20 14 21 7 22 8 23
REMARK SMILES IDX 9 24 13 25 10 26 12 27 11 28 27 29 28 30 29 31 30 32 31 34
REMARK SMILES IDX 32 35 33 36 91 37 34 38 90 39 35 40 36 41 37 42 84 43 38 44
REMARK SMILES IDX 89 45 83 46 85 47 39 48 88 49 82 50 81 51 40 53 70 54 51 55
REMARK SMILES IDX 69 56 52 57 55 58 68 59 86 60 53 61 54 62 67 64 87 65 56 66
REMARK SMILES IDX 41 67 42 68 50 69 43 70 49 71 44 72 45 73 46 74 47 75 48 76
REMARK SMILES IDX 71 77 72 78 80 79 73 80 79 81 74 82 75 83 76 84 77 85 78 86
REMARK SMILES IDX 57 87 58 88 66 89 59 90 65 91 60 92 61 93 62 94 63 95 64 96
REMARK H PARENT 25 5 29 33 85 52 55 63
REMARK Flexibility Score: inf
ROOT
ATOM      1  C   UNL     1      -3.473  -0.911   0.340  1.00  0.00     0.117 C 
ENDROOT
BRANCH   1   2
ATOM      2  N   UNL     1      -3.333  -0.683  -1.081  1.00  0.00    -0.356 N 
ATOM      3  C   UNL     1      -2.834   0.370  -1.776  1.00  0.00     0.224 C 
ATOM      4  O   UNL     1      -2.651   0.179  -2.986  1.00  0.00    -0.275 OA
ATOM      5  H   UNL     1      -3.659  -1.422  -1.643  1.00  0.00     0.163 HD
BRANCH   3   6
ATOM      6  C   UNL     1      -2.488   1.743  -1.180  1.00  0.00     0.098 C 
ATOM      7  N   UNL     1      -1.497   1.546   1.097  1.00  0.00    -0.339 N 
ATOM      8  C   UNL     1      -2.519   2.405   1.695  1.00  0.00     0.119 C 
ATOM      9  C   UNL     1      -1.228   1.786  -0.313  1.00  0.00     0.133 C 
ATOM     10  C   UNL     1      -3.829   2.445   0.913  1.00  0.00     0.022 C 
ATOM     11  C   UNL     1      -3.663   2.530  -0.600  1.00  0.00     0.017 C 
BRANCH   7  12
ATOM     12  C   UNL     1      -0.856   0.603   1.901  1.00  0.00     0.263 C 
ATOM     13  O   UNL     1      -1.425   0.131   2.893  1.00  0.00    -0.271 OA
BRANCH  12  14
ATOM     14  C   UNL     1       0.603   0.203   1.624  1.00  0.00     0.259 C 
ATOM     15  C   UNL     1       0.873  -0.585   0.347  1.00  0.00     0.064 C 
BRANCH  14  16
ATOM     16  O   UNL     1       1.302   1.455   1.633  1.00  0.00    -0.481 OA
BRANCH  16  17
ATOM     17  C   UNL     1       2.597   1.342   2.040  1.00  0.00     0.120 A 
ATOM     18  C   UNL     1       2.941   1.387   3.388  1.00  0.00     0.047 A 
ATOM     19  C   UNL     1       3.571   1.361   1.054  1.00  0.00     0.047 A 
ATOM     20  C   UNL     1       4.291   1.486   3.749  1.00  0.00     0.012 A 
ATOM     21  C   UNL     1       4.909   1.448   1.416  1.00  0.00     0.012 A 
ATOM     22  C   UNL     1       5.292   1.555   2.765  1.00  0.00    -0.018 A 
BRANCH  22  23
ATOM     23  C   UNL     1       6.701   1.821   3.091  1.00  0.00    -0.018 A 
ATOM     24  C   UNL     1       7.422   1.035   4.000  1.00  0.00     0.009 A 
ATOM     25  C   UNL     1       7.372   2.884   2.456  1.00  0.00     0.009 A 
ATOM     26  C   UNL     1       8.776   1.289   4.242  1.00  0.00     0.001 A 
ATOM     27  C   UNL     1       8.722   3.137   2.694  1.00  0.00     0.001 A 
ATOM     28  C   UNL     1       9.426   2.334   3.585  1.00  0.00     0.000 A 
ENDBRANCH  22  23
ENDBRANCH  16  17
ENDBRANCH  14  16
ENDBRANCH  12  14
ENDBRANCH   7  12
ENDBRANCH   3   6
ENDBRANCH   1   2
BRANCH   1  29
ATOM     29  C   UNL     1      -4.910  -1.004   0.818  1.00  0.00     0.042 C 
BRANCH  29  30
ATOM     30  C   UNL     1      -5.414  -2.431   0.922  1.00  0.00     0.118 C 
BRANCH  30  31
ATOM     31  N   UNL     1      -4.741  -3.193   1.972  1.00  0.00    -0.352 N 
ATOM     32  C   UNL     1      -5.240  -3.812   3.093  1.00  0.00     0.251 C 
ATOM     33  H   UNL     1      -3.767  -3.277   1.856  1.00  0.00     0.163 HD
ATOM     34  O   UNL     1      -4.462  -4.294   3.914  1.00  0.00    -0.269 OA
BRANCH  32  35
ATOM     35  C   UNL     1      -6.697  -3.876   3.332  1.00  0.00     0.039 A 
ATOM     36  C   UNL     1      -7.184  -3.703   4.631  1.00  0.00     0.014 A 
ATOM     37  C   UNL     1      -7.588  -4.097   2.281  1.00  0.00     0.014 A 
ATOM     38  C   UNL     1      -8.562  -3.673   4.857  1.00  0.00     0.010 A 
ATOM     39  C   UNL     1      -8.952  -3.943   2.486  1.00  0.00     0.010 A 
ATOM     40  C   UNL     1      -9.458  -3.748   3.779  1.00  0.00    -0.014 A 
BRANCH  40  41
ATOM     41  C   UNL     1     -10.928  -3.658   3.969  1.00  0.00     0.031 A 
ATOM     42  C   UNL     1     -11.807  -4.801   3.526  1.00  0.00     0.074 A 
ATOM     43  C   UNL     1     -11.477  -2.526   4.455  1.00  0.00     0.049 A 
ATOM     44  N   UNL     1     -13.112  -4.878   3.505  1.00  0.00    -0.248 NA
ATOM     45  C   UNL     1     -11.131  -6.000   2.999  1.00  0.00     0.031 C 
ATOM     46  C   UNL     1     -10.737  -1.331   4.871  1.00  0.00     0.029 A 
ATOM     47  N   UNL     1     -12.790  -2.193   4.677  1.00  0.00    -0.354 N 
ATOM     48  C   UNL     1     -13.409  -6.108   2.927  1.00  0.00     0.074 A 
ATOM     49  C   UNL     1     -12.152  -6.722   2.565  1.00  0.00     0.031 C 
ATOM     50  C   UNL     1     -11.603  -0.414   5.333  1.00  0.00     0.029 A 
ATOM     51  C   UNL     1     -12.960  -0.934   5.205  1.00  0.00     0.049 A 
ATOM     52  H   UNL     1     -13.540  -2.798   4.477  1.00  0.00     0.167 HD
ATOM     53  C   UNL     1     -14.618  -6.686   2.736  1.00  0.00     0.031 A 
ATOM     54  C   UNL     1     -14.083  -0.273   5.544  1.00  0.00     0.031 A 
ATOM     55  C   UNL     1     -15.860  -6.093   3.147  1.00  0.00     0.049 A 
ATOM     56  C   UNL     1     -15.413  -0.949   5.348  1.00  0.00     0.074 A 
ATOM     57  C   UNL     1     -17.132  -6.633   3.085  1.00  0.00     0.029 A 
ATOM     58  N   UNL     1     -15.985  -4.830   3.706  1.00  0.00    -0.354 N 
ATOM     59  N   UNL     1     -15.667  -2.144   4.868  1.00  0.00    -0.248 NA
ATOM     60  C   UNL     1     -16.607  -0.193   5.747  1.00  0.00     0.031 C 
ATOM     61  C   UNL     1     -18.034  -5.676   3.562  1.00  0.00     0.029 A 
ATOM     62  C   UNL     1     -17.316  -4.563   3.973  1.00  0.00     0.049 A 
ATOM     63  H   UNL     1     -15.238  -4.215   3.887  1.00  0.00     0.167 HD
ATOM     64  C   UNL     1     -17.047  -2.294   4.939  1.00  0.00     0.074 A 
ATOM     65  C   UNL     1     -17.571  -1.074   5.519  1.00  0.00     0.031 C 
ATOM     66  C   UNL     1     -17.814  -3.346   4.560  1.00  0.00     0.031 A 
BRANCH  53  67
ATOM     67  C   UNL     1     -14.655  -8.029   2.055  1.00  0.00    -0.014 A 
ATOM     68  C   UNL     1     -14.172  -9.185   2.694  1.00  0.00     0.010 A 
ATOM     69  C   UNL     1     -15.223  -8.143   0.773  1.00  0.00     0.010 A 
ATOM     70  C   UNL     1     -14.221 -10.424   2.048  1.00  0.00     0.020 A 
ATOM     71  C   UNL     1     -15.302  -9.385   0.136  1.00  0.00     0.020 A 
ATOM     72  C   UNL     1     -14.786 -10.515   0.772  1.00  0.00     0.054 A 
BRANCH  72  73
ATOM     73  S   UNL     1     -14.869 -12.142  -0.026  1.00  0.00     0.124 S 
ATOM     74  O   UNL     1     -13.474 -12.368  -0.395  1.00  0.00    -0.237 OA
ATOM     75  O   UNL     1     -15.383 -12.997   1.041  1.00  0.00    -0.237 OA
ATOM     76  O   UNL     1     -15.783 -11.932  -1.146  1.00  0.00    -0.744 OA
ENDBRANCH  72  73
ENDBRANCH  53  67
BRANCH  54  77
ATOM     77  C   UNL     1     -14.005   1.095   6.129  1.00  0.00    -0.014 A 
ATOM     78  C   UNL     1     -14.330   1.308   7.481  1.00  0.00     0.010 A 
ATOM     79  C   UNL     1     -13.613   2.192   5.341  1.00  0.00     0.010 A 
ATOM     80  C   UNL     1     -14.296   2.595   8.025  1.00  0.00     0.020 A 
ATOM     81  C   UNL     1     -13.550   3.477   5.889  1.00  0.00     0.020 A 
ATOM     82  C   UNL     1     -13.908   3.672   7.225  1.00  0.00     0.054 A 
BRANCH  82  83
ATOM     83  S   UNL     1     -13.843   5.330   7.960  1.00  0.00     0.124 S 
ATOM     84  O   UNL     1     -15.258   5.673   8.059  1.00  0.00    -0.237 OA
ATOM     85  O   UNL     1     -13.158   5.088   9.227  1.00  0.00    -0.237 OA
ATOM     86  O   UNL     1     -13.077   6.105   6.985  1.00  0.00    -0.744 OA
ENDBRANCH  82  83
ENDBRANCH  54  77
BRANCH  66  87
ATOM     87  C   UNL     1     -19.295  -3.245   4.799  1.00  0.00    -0.014 A 
ATOM     88  C   UNL     1     -20.105  -2.407   4.014  1.00  0.00     0.010 A 
ATOM     89  C   UNL     1     -19.891  -4.049   5.788  1.00  0.00     0.010 A 
ATOM     90  C   UNL     1     -21.483  -2.353   4.233  1.00  0.00     0.020 A 
ATOM     91  C   UNL     1     -21.272  -4.019   5.990  1.00  0.00     0.020 A 
ATOM     92  C   UNL     1     -22.058  -3.160   5.220  1.00  0.00     0.054 A 
BRANCH  92  93
ATOM     93  S   UNL     1     -23.855  -3.108   5.454  1.00  0.00     0.124 S 
ATOM     94  O   UNL     1     -24.036  -1.829   6.136  1.00  0.00    -0.237 OA
ATOM     95  O   UNL     1     -24.359  -3.166   4.083  1.00  0.00    -0.237 OA
ATOM     96  O   UNL     1     -24.134  -4.291   6.264  1.00  0.00    -0.744 OA
ENDBRANCH  92  93
ENDBRANCH  66  87
ENDBRANCH  40  41
ENDBRANCH  32  35
ENDBRANCH  30  31
ENDBRANCH  29  30
ENDBRANCH   1  29
TORSDOF 18
