REMARK SMILES [NH3+][C@H](CS[C@@H]1CC(=O)N(c2ccc3ccccc3c2)C1=O)C(=O)NCCCNC(=O)c1ccc(-c2c3nc(c(-c4ccc(S(=O)(=O)[O-])cc4)c4ccc([nH]4)c(-c4ccc(S(=O)(=O)[O-])cc4)c4nc(c(-c5ccc(S(=O)(=O)[O-])cc5)c5ccc2[nH]5)C=C4)C=C3)cc1
REMARK SMILES IDX 25 1 24 2 22 3 23 4 2 6 1 7 3 11 4 12 5 13 6 14 20 15 7 16
REMARK SMILES IDX 9 17 21 18 8 19 10 20 11 21 19 22 12 23 18 24 13 25 17 26
REMARK SMILES IDX 14 27 16 28 15 29 26 30 27 31 28 32 29 33 30 35 31 36 32 37
REMARK SMILES IDX 90 38 33 39 89 40 34 41 35 42 36 43 83 44 37 45 88 46 82 47
REMARK SMILES IDX 84 48 38 49 87 50 81 51 80 52 39 54 69 55 50 56 68 57 51 58
REMARK SMILES IDX 54 59 67 60 85 61 52 62 53 63 66 65 86 66 55 67 40 68 41 69
REMARK SMILES IDX 49 70 42 71 48 72 43 73 44 74 45 75 46 76 47 77 70 78 71 79
REMARK SMILES IDX 79 80 72 81 78 82 73 83 74 84 75 85 76 86 77 87 56 88 57 89
REMARK SMILES IDX 65 90 58 91 64 92 59 93 60 94 61 95 62 96 63 97
REMARK H PARENT 24 5 1 8 1 9 1 10 28 34 84 53 54 64
REMARK Flexibility Score: inf
ROOT
ATOM      1  C   UNL     1      -0.082   3.441  -0.163  1.00  0.00     0.118 C 
ENDROOT
BRANCH   1   2
ATOM      2  N   UNL     1      -0.669   2.403   0.671  1.00  0.00    -0.351 N 
ATOM      3  C   UNL     1       0.055   1.551   1.463  1.00  0.00     0.279 C 
ATOM      4  O   UNL     1      -0.069   1.686   2.686  1.00  0.00    -0.268 OA
ATOM      5  H   UNL     1      -1.649   2.308   0.666  1.00  0.00     0.163 HD
BRANCH   3   6
ATOM      6  C   UNL     1       1.050   0.515   0.888  1.00  0.00     0.280 C 
BRANCH   6   7
ATOM      7  N   UNL     1       2.343   1.165   0.577  1.00  0.00    -0.347 N 
ATOM      8  H   UNL     1       2.588   1.812   1.327  1.00  0.00     0.345 HD
ATOM      9  H   UNL     1       2.262   1.679  -0.301  1.00  0.00     0.345 HD
ATOM     10  H   UNL     1       3.069   0.455   0.489  1.00  0.00     0.345 HD
ENDBRANCH   6   7
BRANCH   6  11
ATOM     11  C   UNL     1       0.599  -0.488  -0.204  1.00  0.00     0.145 C 
BRANCH  11  12
ATOM     12  S   UNL     1      -0.679  -0.021  -1.423  1.00  0.00    -0.141 SA
BRANCH  12  13
ATOM     13  C   UNL     1      -2.167  -0.859  -0.763  1.00  0.00     0.146 C 
ATOM     14  C   UNL     1      -3.417  -0.422  -1.506  1.00  0.00     0.125 C 
ATOM     15  C   UNL     1      -2.458  -0.510   0.674  1.00  0.00     0.247 C 
ATOM     16  C   UNL     1      -4.224   0.328  -0.487  1.00  0.00     0.235 C 
ATOM     17  N   UNL     1      -3.634   0.203   0.745  1.00  0.00    -0.250 N 
ATOM     18  O   UNL     1      -1.748  -0.888   1.598  1.00  0.00    -0.273 OA
ATOM     19  O   UNL     1      -5.231   0.956  -0.788  1.00  0.00    -0.274 OA
BRANCH  17  20
ATOM     20  C   UNL     1      -4.181   0.712   1.958  1.00  0.00     0.052 A 
ATOM     21  C   UNL     1      -5.562   0.816   2.156  1.00  0.00     0.027 A 
ATOM     22  C   UNL     1      -3.345   1.112   3.008  1.00  0.00     0.035 A 
ATOM     23  C   UNL     1      -6.081   1.240   3.389  1.00  0.00     0.011 A 
ATOM     24  C   UNL     1      -3.842   1.612   4.222  1.00  0.00    -0.016 A 
ATOM     25  C   UNL     1      -5.232   1.639   4.434  1.00  0.00    -0.018 A 
ATOM     26  C   UNL     1      -2.975   2.078   5.223  1.00  0.00     0.009 A 
ATOM     27  C   UNL     1      -5.720   2.064   5.683  1.00  0.00     0.009 A 
ATOM     28  C   UNL     1      -3.474   2.526   6.445  1.00  0.00     0.001 A 
ATOM     29  C   UNL     1      -4.845   2.499   6.682  1.00  0.00     0.001 A 
ENDBRANCH  17  20
ENDBRANCH  12  13
ENDBRANCH  11  12
ENDBRANCH   6  11
ENDBRANCH   3   6
ENDBRANCH   1   2
BRANCH   1  30
ATOM     30  C   UNL     1      -0.507   3.462  -1.629  1.00  0.00     0.042 C 
BRANCH  30  31
ATOM     31  C   UNL     1      -2.002   3.338  -1.913  1.00  0.00     0.118 C 
BRANCH  31  32
ATOM     32  N   UNL     1      -2.773   4.513  -1.548  1.00  0.00    -0.352 N 
ATOM     33  C   UNL     1      -3.726   5.181  -2.284  1.00  0.00     0.251 C 
ATOM     34  H   UNL     1      -2.589   4.883  -0.654  1.00  0.00     0.163 HD
ATOM     35  O   UNL     1      -4.238   6.205  -1.834  1.00  0.00    -0.269 OA
BRANCH  33  36
ATOM     36  C   UNL     1      -4.094   4.708  -3.638  1.00  0.00     0.039 A 
ATOM     37  C   UNL     1      -3.975   5.600  -4.708  1.00  0.00     0.014 A 
ATOM     38  C   UNL     1      -4.549   3.405  -3.862  1.00  0.00     0.014 A 
ATOM     39  C   UNL     1      -4.242   5.168  -6.011  1.00  0.00     0.010 A 
ATOM     40  C   UNL     1      -4.780   2.964  -5.171  1.00  0.00     0.010 A 
ATOM     41  C   UNL     1      -4.613   3.836  -6.260  1.00  0.00    -0.014 A 
BRANCH  41  42
ATOM     42  C   UNL     1      -4.777   3.345  -7.657  1.00  0.00     0.031 A 
ATOM     43  C   UNL     1      -6.130   2.969  -8.195  1.00  0.00     0.074 A 
ATOM     44  C   UNL     1      -3.690   3.202  -8.444  1.00  0.00     0.049 A 
ATOM     45  N   UNL     1      -6.446   2.510  -9.381  1.00  0.00    -0.248 NA
ATOM     46  C   UNL     1      -7.274   3.119  -7.284  1.00  0.00     0.031 C 
ATOM     47  C   UNL     1      -2.314   3.509  -8.048  1.00  0.00     0.029 A 
ATOM     48  N   UNL     1      -3.570   2.757  -9.739  1.00  0.00    -0.354 N 
ATOM     49  C   UNL     1      -7.821   2.310  -9.359  1.00  0.00     0.074 A 
ATOM     50  C   UNL     1      -8.273   2.665  -8.029  1.00  0.00     0.031 C 
ATOM     51  C   UNL     1      -1.493   3.259  -9.082  1.00  0.00     0.029 A 
ATOM     52  C   UNL     1      -2.275   2.741 -10.201  1.00  0.00     0.049 A 
ATOM     53  H   UNL     1      -4.340   2.476 -10.284  1.00  0.00     0.167 HD
ATOM     54  C   UNL     1      -8.636   1.883 -10.355  1.00  0.00     0.031 A 
ATOM     55  C   UNL     1      -1.765   2.348 -11.386  1.00  0.00     0.031 A 
ATOM     56  C   UNL     1      -8.193   1.526 -11.678  1.00  0.00     0.049 A 
ATOM     57  C   UNL     1      -2.685   1.844 -12.465  1.00  0.00     0.074 A 
ATOM     58  C   UNL     1      -8.960   1.127 -12.761  1.00  0.00     0.029 A 
ATOM     59  N   UNL     1      -6.874   1.517 -12.101  1.00  0.00    -0.354 N 
ATOM     60  N   UNL     1      -3.990   1.723 -12.441  1.00  0.00    -0.248 NA
ATOM     61  C   UNL     1      -2.064   1.432 -13.733  1.00  0.00     0.031 C 
ATOM     62  C   UNL     1      -8.099   0.828 -13.822  1.00  0.00     0.029 A 
ATOM     63  C   UNL     1      -6.801   1.093 -13.418  1.00  0.00     0.049 A 
ATOM     64  H   UNL     1      -6.101   1.773 -11.546  1.00  0.00     0.167 HD
ATOM     65  C   UNL     1      -4.348   1.249 -13.699  1.00  0.00     0.074 A 
ATOM     66  C   UNL     1      -3.125   1.110 -14.461  1.00  0.00     0.031 C 
ATOM     67  C   UNL     1      -5.583   0.961 -14.177  1.00  0.00     0.031 A 
BRANCH  54  68
ATOM     68  C   UNL     1     -10.105   1.763 -10.047  1.00  0.00    -0.014 A 
ATOM     69  C   UNL     1     -10.909   2.907  -9.901  1.00  0.00     0.010 A 
ATOM     70  C   UNL     1     -10.699   0.491  -9.956  1.00  0.00     0.010 A 
ATOM     71  C   UNL     1     -12.274   2.782  -9.627  1.00  0.00     0.020 A 
ATOM     72  C   UNL     1     -12.068   0.361  -9.707  1.00  0.00     0.020 A 
ATOM     73  C   UNL     1     -12.843   1.509  -9.525  1.00  0.00     0.054 A 
BRANCH  73  74
ATOM     74  S   UNL     1     -14.620   1.373  -9.183  1.00  0.00     0.124 S 
ATOM     75  O   UNL     1     -14.678   1.715  -7.764  1.00  0.00    -0.237 OA
ATOM     76  O   UNL     1     -15.199   2.361 -10.091  1.00  0.00    -0.237 OA
ATOM     77  O   UNL     1     -14.929  -0.018  -9.502  1.00  0.00    -0.744 OA
ENDBRANCH  73  74
ENDBRANCH  54  68
BRANCH  55  78
ATOM     78  C   UNL     1      -0.297   2.420 -11.618  1.00  0.00    -0.014 A 
ATOM     79  C   UNL     1       0.243   3.388 -12.483  1.00  0.00     0.010 A 
ATOM     80  C   UNL     1       0.570   1.524 -10.966  1.00  0.00     0.010 A 
ATOM     81  C   UNL     1       1.622   3.452 -12.700  1.00  0.00     0.020 A 
ATOM     82  C   UNL     1       1.951   1.601 -11.162  1.00  0.00     0.020 A 
ATOM     83  C   UNL     1       2.468   2.558 -12.037  1.00  0.00     0.054 A 
BRANCH  83  84
ATOM     84  S   UNL     1       4.260   2.695 -12.287  1.00  0.00     0.124 S 
ATOM     85  O   UNL     1       4.427   2.102 -13.610  1.00  0.00    -0.237 OA
ATOM     86  O   UNL     1       4.482   4.137 -12.207  1.00  0.00    -0.237 OA
ATOM     87  O   UNL     1       4.818   1.925 -11.178  1.00  0.00    -0.744 OA
ENDBRANCH  83  84
ENDBRANCH  55  78
BRANCH  67  88
ATOM     88  C   UNL     1      -5.695   0.498 -15.605  1.00  0.00    -0.014 A 
ATOM     89  C   UNL     1      -5.323  -0.805 -15.979  1.00  0.00     0.010 A 
ATOM     90  C   UNL     1      -6.258   1.354 -16.570  1.00  0.00     0.010 A 
ATOM     91  C   UNL     1      -5.502  -1.240 -17.297  1.00  0.00     0.020 A 
ATOM     92  C   UNL     1      -6.458   0.916 -17.882  1.00  0.00     0.020 A 
ATOM     93  C   UNL     1      -6.072  -0.377 -18.239  1.00  0.00     0.054 A 
BRANCH  93  94
ATOM     94  S   UNL     1      -6.361  -0.989 -19.923  1.00  0.00     0.124 S 
ATOM     95  O   UNL     1      -5.013  -0.984 -20.485  1.00  0.00    -0.237 OA
ATOM     96  O   UNL     1      -6.941  -2.309 -19.691  1.00  0.00    -0.237 OA
ATOM     97  O   UNL     1      -7.278  -0.005 -20.496  1.00  0.00    -0.744 OA
ENDBRANCH  93  94
ENDBRANCH  67  88
ENDBRANCH  41  42
ENDBRANCH  33  36
ENDBRANCH  31  32
ENDBRANCH  30  31
ENDBRANCH   1  30
TORSDOF 18
