REMARK SMILES CCC(=O)Nc1ccc(NC(=O)[C@@H]2CC=CC[C@@H]2C(=O)NCCCNC(=O)c2ccc(-c3c4nc(c(-c5ccc(S(=O)(=O)[O-])cc5)c5ccc([nH]5)c(-c5ccc(S(=O)(=O)[O-])cc5)c5nc(c(-c6ccc(S(=O)(=O)[O-])cc6)c6ccc3[nH]6)C=C5)C=C4)cc2)cc1
REMARK SMILES IDX 22 1 21 2 19 3 20 4 18 6 13 7 14 8 15 9 17 10 16 11 11 12
REMARK SMILES IDX 10 13 12 15 9 16 6 17 7 18 89 19 8 20 88 21 5 22 3 23 4 24
REMARK SMILES IDX 2 26 1 27 23 28 24 29 25 30 26 31 27 33 28 34 29 35 87 36
REMARK SMILES IDX 30 37 86 38 31 39 32 40 33 41 80 42 34 43 85 44 79 45 81 46
REMARK SMILES IDX 35 47 84 48 78 49 77 50 36 52 66 53 47 54 65 55 48 56 51 57
REMARK SMILES IDX 64 58 82 59 49 60 50 61 63 63 83 64 52 65 37 66 38 67 46 68
REMARK SMILES IDX 39 69 45 70 40 71 41 72 42 73 43 74 44 75 67 76 68 77 76 78
REMARK SMILES IDX 69 79 75 80 70 81 71 82 72 83 73 84 74 85 53 86 54 87 62 88
REMARK SMILES IDX 55 89 61 90 56 91 57 92 58 93 59 94 60 95
REMARK H PARENT 21 5 10 14 5 25 25 32 81 51 51 62
REMARK Flexibility Score: inf
ROOT
ATOM      1  C   UNL     1      10.191  -0.622   6.374  1.00  0.00     0.117 C 
ENDROOT
BRANCH   1   2
ATOM      2  N   UNL     1       9.734   0.659   5.860  1.00  0.00    -0.356 N 
ATOM      3  C   UNL     1       8.856   0.945   4.854  1.00  0.00     0.224 C 
ATOM      4  O   UNL     1       8.655   2.130   4.601  1.00  0.00    -0.275 OA
ATOM      5  H   UNL     1      10.120   1.446   6.309  1.00  0.00     0.163 HD
BRANCH   3   6
ATOM      6  C   UNL     1       8.194  -0.208   4.101  1.00  0.00     0.095 C 
ATOM      7  C   UNL     1       7.429   0.198   2.821  1.00  0.00     0.095 C 
ATOM      8  C   UNL     1       6.251   1.136   3.134  1.00  0.00     0.041 C 
ATOM      9  C   UNL     1       5.419   0.604   4.269  1.00  0.00    -0.030 C 
ATOM     10  C   UNL     1       7.217  -0.967   5.028  1.00  0.00     0.041 C 
ATOM     11  C   UNL     1       5.843  -0.362   5.097  1.00  0.00    -0.030 C 
BRANCH   7  12
ATOM     12  C   UNL     1       8.315   0.737   1.718  1.00  0.00     0.228 C 
ATOM     13  N   UNL     1       9.065  -0.078   0.922  1.00  0.00    -0.326 N 
ATOM     14  H   UNL     1       9.560   0.433   0.241  1.00  0.00     0.169 HD
ATOM     15  O   UNL     1       8.351   1.942   1.449  1.00  0.00    -0.274 OA
BRANCH  13  16
ATOM     16  C   UNL     1       9.314  -1.458   0.819  1.00  0.00     0.041 A 
ATOM     17  C   UNL     1      10.166  -4.138   0.526  1.00  0.00     0.041 A 
ATOM     18  C   UNL     1       9.257  -3.793   1.517  1.00  0.00     0.028 A 
ATOM     19  C   UNL     1      10.543  -3.174  -0.398  1.00  0.00     0.028 A 
ATOM     20  C   UNL     1       8.838  -2.462   1.661  1.00  0.00     0.028 A 
ATOM     21  C   UNL     1      10.139  -1.845  -0.244  1.00  0.00     0.028 A 
BRANCH  17  22
ATOM     22  N   UNL     1      10.604  -5.463   0.453  1.00  0.00    -0.326 N 
ATOM     23  C   UNL     1      11.834  -5.959   0.113  1.00  0.00     0.224 C 
ATOM     24  O   UNL     1      11.932  -7.160  -0.145  1.00  0.00    -0.275 OA
ATOM     25  H   UNL     1       9.927  -6.141   0.679  1.00  0.00     0.169 HD
BRANCH  23  26
ATOM     26  C   UNL     1      13.067  -5.073   0.207  1.00  0.00     0.097 C 
ATOM     27  C   UNL     1      13.478  -4.409  -1.092  1.00  0.00     0.014 C 
ENDBRANCH  23  26
ENDBRANCH  17  22
ENDBRANCH  13  16
ENDBRANCH   7  12
ENDBRANCH   3   6
ENDBRANCH   1   2
BRANCH   1  28
ATOM     28  C   UNL     1      11.707  -0.748   6.376  1.00  0.00     0.042 C 
BRANCH  28  29
ATOM     29  C   UNL     1      12.434   0.312   7.193  1.00  0.00     0.118 C 
BRANCH  29  30
ATOM     30  N   UNL     1      12.068   0.305   8.603  1.00  0.00    -0.352 N 
ATOM     31  C   UNL     1      12.866   0.202   9.717  1.00  0.00     0.251 C 
ATOM     32  H   UNL     1      11.104   0.386   8.785  1.00  0.00     0.163 HD
ATOM     33  O   UNL     1      12.348   0.072  10.824  1.00  0.00    -0.269 OA
BRANCH  31  34
ATOM     34  C   UNL     1      14.339   0.211   9.583  1.00  0.00     0.039 A 
ATOM     35  C   UNL     1      15.090  -0.711  10.318  1.00  0.00     0.014 A 
ATOM     36  C   UNL     1      14.981   1.113   8.732  1.00  0.00     0.014 A 
ATOM     37  C   UNL     1      16.474  -0.780  10.135  1.00  0.00     0.010 A 
ATOM     38  C   UNL     1      16.345   0.984   8.486  1.00  0.00     0.010 A 
ATOM     39  C   UNL     1      17.107   0.035   9.184  1.00  0.00    -0.014 A 
BRANCH  39  40
ATOM     40  C   UNL     1      18.559  -0.096   8.894  1.00  0.00     0.031 A 
ATOM     41  C   UNL     1      19.489   1.062   9.139  1.00  0.00     0.074 A 
ATOM     42  C   UNL     1      19.030  -1.233   8.342  1.00  0.00     0.049 A 
ATOM     43  N   UNL     1      20.768   1.161   8.881  1.00  0.00    -0.248 NA
ATOM     44  C   UNL     1      18.901   2.277   9.728  1.00  0.00     0.031 C 
ATOM     45  C   UNL     1      18.227  -2.414   8.018  1.00  0.00     0.029 A 
ATOM     46  N   UNL     1      20.299  -1.579   7.947  1.00  0.00    -0.354 N 
ATOM     47  C   UNL     1      21.133   2.448   9.258  1.00  0.00     0.074 A 
ATOM     48  C   UNL     1      19.930   3.111   9.714  1.00  0.00     0.031 C 
ATOM     49  C   UNL     1      19.025  -3.362   7.501  1.00  0.00     0.029 A 
ATOM     50  C   UNL     1      20.386  -2.843   7.411  1.00  0.00     0.049 A 
ATOM     51  H   UNL     1      21.073  -0.979   8.039  1.00  0.00     0.167 HD
ATOM     52  C   UNL     1      22.360   3.022   9.245  1.00  0.00     0.031 A 
ATOM     53  C   UNL     1      21.438  -3.507   6.895  1.00  0.00     0.031 A 
ATOM     54  C   UNL     1      23.555   2.358   8.799  1.00  0.00     0.049 A 
ATOM     55  C   UNL     1      22.787  -2.842   6.871  1.00  0.00     0.074 A 
ATOM     56  C   UNL     1      24.855   2.836   8.799  1.00  0.00     0.029 A 
ATOM     57  N   UNL     1      23.601   1.077   8.268  1.00  0.00    -0.354 N 
ATOM     58  N   UNL     1      23.123  -1.647   7.295  1.00  0.00    -0.248 NA
ATOM     59  C   UNL     1      23.901  -3.618   6.309  1.00  0.00     0.031 C 
ATOM     60  C   UNL     1      25.676   1.867   8.214  1.00  0.00     0.029 A 
ATOM     61  C   UNL     1      24.901   0.759   7.912  1.00  0.00     0.049 A 
ATOM     62  H   UNL     1      22.824   0.482   8.162  1.00  0.00     0.167 HD
ATOM     63  C   UNL     1      24.492  -1.539   7.077  1.00  0.00     0.074 A 
ATOM     64  C   UNL     1      24.923  -2.795   6.498  1.00  0.00     0.031 C 
ATOM     65  C   UNL     1      25.317  -0.495   7.335  1.00  0.00     0.031 A 
BRANCH  52  66
ATOM     66  C   UNL     1      22.469   4.448   9.723  1.00  0.00    -0.014 A 
ATOM     67  C   UNL     1      22.282   4.778  11.077  1.00  0.00     0.010 A 
ATOM     68  C   UNL     1      22.806   5.466   8.812  1.00  0.00     0.010 A 
ATOM     69  C   UNL     1      22.387   6.104  11.504  1.00  0.00     0.020 A 
ATOM     70  C   UNL     1      22.943   6.790   9.241  1.00  0.00     0.020 A 
ATOM     71  C   UNL     1      22.715   7.102  10.582  1.00  0.00     0.054 A 
BRANCH  71  72
ATOM     72  S   UNL     1      22.867   8.811  11.170  1.00  0.00     0.124 S 
ATOM     73  O   UNL     1      21.474   9.165  11.430  1.00  0.00    -0.237 OA
ATOM     74  O   UNL     1      23.710   8.668  12.355  1.00  0.00    -0.237 OA
ATOM     75  O   UNL     1      23.488   9.511  10.048  1.00  0.00    -0.744 OA
ENDBRANCH  71  72
ENDBRANCH  52  66
BRANCH  53  76
ATOM     76  C   UNL     1      21.258  -4.887   6.364  1.00  0.00    -0.014 A 
ATOM     77  C   UNL     1      21.816  -5.990   7.035  1.00  0.00     0.010 A 
ATOM     78  C   UNL     1      20.517  -5.108   5.188  1.00  0.00     0.010 A 
ATOM     79  C   UNL     1      21.653  -7.284   6.531  1.00  0.00     0.020 A 
ATOM     80  C   UNL     1      20.326  -6.402   4.698  1.00  0.00     0.020 A 
ATOM     81  C   UNL     1      20.906  -7.482   5.367  1.00  0.00     0.054 A 
BRANCH  81  82
ATOM     82  S   UNL     1      20.664  -9.175   4.761  1.00  0.00     0.124 S 
ATOM     83  O   UNL     1      21.987  -9.502   4.239  1.00  0.00    -0.237 OA
ATOM     84  O   UNL     1      20.266  -9.888   5.972  1.00  0.00    -0.237 OA
ATOM     85  O   UNL     1      19.611  -9.030   3.758  1.00  0.00    -0.744 OA
ENDBRANCH  81  82
ENDBRANCH  53  76
BRANCH  65  86
ATOM     86  C   UNL     1      26.781  -0.672   7.029  1.00  0.00    -0.014 A 
ATOM     87  C   UNL     1      27.253  -0.705   5.705  1.00  0.00     0.010 A 
ATOM     88  C   UNL     1      27.706  -0.743   8.088  1.00  0.00     0.010 A 
ATOM     89  C   UNL     1      28.620  -0.835   5.445  1.00  0.00     0.020 A 
ATOM     90  C   UNL     1      29.076  -0.841   7.832  1.00  0.00     0.020 A 
ATOM     91  C   UNL     1      29.523  -0.899   6.511  1.00  0.00     0.054 A 
BRANCH  91  92
ATOM     92  S   UNL     1      31.296  -1.015   6.147  1.00  0.00     0.124 S 
ATOM     93  O   UNL     1      31.419  -2.387   5.663  1.00  0.00    -0.237 OA
ATOM     94  O   UNL     1      31.483   0.026   5.138  1.00  0.00    -0.237 OA
ATOM     95  O   UNL     1      31.934  -0.748   7.434  1.00  0.00    -0.744 OA
ENDBRANCH  91  92
ENDBRANCH  65  86
ENDBRANCH  39  40
ENDBRANCH  31  34
ENDBRANCH  29  30
ENDBRANCH  28  29
ENDBRANCH   1  28
TORSDOF 17
