REMARK SMILES O=C(NCCCNC(=O)c1ccc(-c2c3nc(c(-c4ccc(S(=O)(=O)[O-])cc4)c4ccc([nH]4)c(-c4ccc(S(=O)(=O)[O-])cc4)c4nc(c(-c5ccc(S(=O)(=O)[O-])cc5)c5ccc2[nH]5)C=C4)C=C3)cc1)c1ccc(/C=N/NC(=O)c2cccc3ccccc23)cc1
REMARK SMILES IDX 5 1 4 2 3 3 1 4 2 5 70 7 71 8 90 9 72 10 89 11 73 12 74 13
REMARK SMILES IDX 75 14 76 15 77 16 78 18 79 19 80 20 88 21 81 22 83 23 87 24
REMARK SMILES IDX 82 25 84 26 86 27 85 28 6 29 7 30 8 31 9 33 10 34 11 35
REMARK SMILES IDX 69 36 12 37 68 38 13 39 14 40 15 41 62 42 16 43 67 44 61 45
REMARK SMILES IDX 63 46 17 47 66 48 60 49 59 50 18 52 48 53 29 54 47 55 30 56
REMARK SMILES IDX 33 57 46 58 64 59 31 60 32 61 45 63 65 64 34 65 19 66 20 67
REMARK SMILES IDX 28 68 21 69 27 70 22 71 23 72 24 73 25 74 26 75 49 76 50 77
REMARK SMILES IDX 58 78 51 79 57 80 52 81 53 82 54 83 55 84 56 85 35 86 36 87
REMARK SMILES IDX 44 88 37 89 43 90 38 91 39 92 40 93 41 94 42 95
REMARK H PARENT 3 6 76 17 7 32 63 51 33 62
REMARK Flexibility Score: inf
ROOT
ATOM      1  C   UNL     1       4.893  -1.250   1.940  1.00  0.00     0.042 C 
ENDROOT
BRANCH   1   2
ATOM      2  C   UNL     1       4.461  -1.119   0.488  1.00  0.00     0.118 C 
BRANCH   2   3
ATOM      3  N   UNL     1       3.013  -1.100   0.332  1.00  0.00    -0.352 N 
ATOM      4  O   UNL     1       0.972  -0.228  -0.051  1.00  0.00    -0.269 OA
ATOM      5  C   UNL     1       2.193  -0.127  -0.172  1.00  0.00     0.251 C 
ATOM      6  H   UNL     1       2.552  -1.915   0.637  1.00  0.00     0.163 HD
BRANCH   5   7
ATOM      7  C   UNL     1       2.757   1.056  -0.851  1.00  0.00     0.039 A 
ATOM      8  C   UNL     1       3.785   0.931  -1.794  1.00  0.00     0.014 A 
ATOM      9  C   UNL     1       2.217   2.313  -0.553  1.00  0.00     0.014 A 
ATOM     10  C   UNL     1       4.349   2.072  -2.358  1.00  0.00     0.010 A 
ATOM     11  C   UNL     1       2.745   3.453  -1.155  1.00  0.00     0.010 A 
ATOM     12  C   UNL     1       3.823   3.323  -2.034  1.00  0.00    -0.005 A 
BRANCH  12  13
ATOM     13  C   UNL     1       4.463   4.548  -2.525  1.00  0.00     0.141 C 
ATOM     14  N   UNL     1       5.746   4.588  -2.656  1.00  0.00    -0.180 NA
BRANCH  14  15
ATOM     15  N   UNL     1       6.357   5.776  -2.891  1.00  0.00    -0.243 N 
ATOM     16  C   UNL     1       6.074   7.057  -2.461  1.00  0.00     0.271 C 
ATOM     17  H   UNL     1       7.146   5.713  -3.476  1.00  0.00     0.194 HD
ATOM     18  O   UNL     1       6.798   7.981  -2.848  1.00  0.00    -0.267 OA
BRANCH  16  19
ATOM     19  C   UNL     1       4.920   7.416  -1.597  1.00  0.00     0.049 A 
ATOM     20  C   UNL     1       4.124   8.452  -2.123  1.00  0.00     0.014 A 
ATOM     21  C   UNL     1       4.640   6.872  -0.309  1.00  0.00    -0.006 A 
ATOM     22  C   UNL     1       3.073   8.984  -1.390  1.00  0.00     0.001 A 
ATOM     23  C   UNL     1       3.572   7.450   0.431  1.00  0.00    -0.018 A 
ATOM     24  C   UNL     1       5.326   5.790   0.301  1.00  0.00     0.009 A 
ATOM     25  C   UNL     1       2.818   8.502  -0.111  1.00  0.00     0.009 A 
ATOM     26  C   UNL     1       3.248   6.971   1.710  1.00  0.00     0.009 A 
ATOM     27  C   UNL     1       4.934   5.270   1.539  1.00  0.00     0.001 A 
ATOM     28  C   UNL     1       3.906   5.872   2.251  1.00  0.00     0.001 A 
ENDBRANCH  16  19
ENDBRANCH  14  15
ENDBRANCH  12  13
ENDBRANCH   5   7
ENDBRANCH   2   3
ENDBRANCH   1   2
BRANCH   1  29
ATOM     29  C   UNL     1       4.392  -2.506   2.636  1.00  0.00     0.118 C 
BRANCH  29  30
ATOM     30  N   UNL     1       4.848  -3.732   1.996  1.00  0.00    -0.352 N 
ATOM     31  C   UNL     1       5.620  -4.754   2.491  1.00  0.00     0.251 C 
ATOM     32  H   UNL     1       4.557  -3.847   1.062  1.00  0.00     0.163 HD
ATOM     33  O   UNL     1       6.038  -5.621   1.726  1.00  0.00    -0.269 OA
BRANCH  31  34
ATOM     34  C   UNL     1       5.971  -4.799   3.927  1.00  0.00     0.039 A 
ATOM     35  C   UNL     1       7.270  -5.160   4.296  1.00  0.00     0.014 A 
ATOM     36  C   UNL     1       5.029  -4.487   4.910  1.00  0.00     0.014 A 
ATOM     37  C   UNL     1       7.639  -5.136   5.643  1.00  0.00     0.010 A 
ATOM     38  C   UNL     1       5.425  -4.366   6.238  1.00  0.00     0.010 A 
ATOM     39  C   UNL     1       6.732  -4.697   6.622  1.00  0.00    -0.014 A 
BRANCH  39  40
ATOM     40  C   UNL     1       7.130  -4.578   8.048  1.00  0.00     0.031 A 
ATOM     41  C   UNL     1       6.426  -5.391   9.102  1.00  0.00     0.074 A 
ATOM     42  C   UNL     1       8.080  -3.689   8.404  1.00  0.00     0.049 A 
ATOM     43  N   UNL     1       6.597  -5.383  10.399  1.00  0.00    -0.248 NA
ATOM     44  C   UNL     1       5.375  -6.314   8.643  1.00  0.00     0.031 C 
ATOM     45  C   UNL     1       8.803  -2.807   7.484  1.00  0.00     0.029 A 
ATOM     46  N   UNL     1       8.596  -3.374   9.637  1.00  0.00    -0.354 N 
ATOM     47  C   UNL     1       5.665  -6.280  10.910  1.00  0.00     0.074 A 
ATOM     48  C   UNL     1       4.895  -6.772   9.789  1.00  0.00     0.031 C 
ATOM     49  C   UNL     1       9.689  -2.076   8.180  1.00  0.00     0.029 A 
ATOM     50  C   UNL     1       9.566  -2.399   9.598  1.00  0.00     0.049 A 
ATOM     51  H   UNL     1       8.301  -3.807  10.470  1.00  0.00     0.167 HD
ATOM     52  C   UNL     1       5.479  -6.674  12.192  1.00  0.00     0.031 A 
ATOM     53  C   UNL     1      10.271  -1.822  10.590  1.00  0.00     0.031 A 
ATOM     54  C   UNL     1       6.254  -6.188  13.303  1.00  0.00     0.049 A 
ATOM     55  C   UNL     1      10.041  -2.269  12.007  1.00  0.00     0.074 A 
ATOM     56  C   UNL     1       6.186  -6.572  14.631  1.00  0.00     0.029 A 
ATOM     57  N   UNL     1       7.233  -5.210  13.219  1.00  0.00    -0.354 N 
ATOM     58  N   UNL     1       9.207  -3.175  12.460  1.00  0.00    -0.248 NA
ATOM     59  C   UNL     1      10.857  -1.626  13.047  1.00  0.00     0.031 C 
ATOM     60  C   UNL     1       7.078  -5.780  15.360  1.00  0.00     0.029 A 
ATOM     61  C   UNL     1       7.755  -4.954  14.476  1.00  0.00     0.049 A 
ATOM     62  H   UNL     1       7.516  -4.763  12.389  1.00  0.00     0.167 HD
ATOM     63  C   UNL     1       9.418  -3.231  13.834  1.00  0.00     0.074 A 
ATOM     64  C   UNL     1      10.469  -2.280  14.133  1.00  0.00     0.031 C 
ATOM     65  C   UNL     1       8.799  -4.002  14.762  1.00  0.00     0.031 A 
BRANCH  52  66
ATOM     66  C   UNL     1       4.384  -7.674  12.465  1.00  0.00    -0.014 A 
ATOM     67  C   UNL     1       4.479  -9.004  12.014  1.00  0.00     0.010 A 
ATOM     68  C   UNL     1       3.260  -7.289  13.219  1.00  0.00     0.010 A 
ATOM     69  C   UNL     1       3.452  -9.915  12.273  1.00  0.00     0.020 A 
ATOM     70  C   UNL     1       2.246  -8.207  13.509  1.00  0.00     0.020 A 
ATOM     71  C   UNL     1       2.341  -9.510  13.019  1.00  0.00     0.054 A 
BRANCH  71  72
ATOM     72  S   UNL     1       1.036 -10.722  13.359  1.00  0.00     0.124 S 
ATOM     73  O   UNL     1       0.420 -10.879  12.044  1.00  0.00    -0.237 OA
ATOM     74  O   UNL     1       1.790 -11.877  13.841  1.00  0.00    -0.237 OA
ATOM     75  O   UNL     1       0.202 -10.063  14.362  1.00  0.00    -0.744 OA
ENDBRANCH  71  72
ENDBRANCH  52  66
BRANCH  53  76
ATOM     76  C   UNL     1      11.268  -0.762  10.272  1.00  0.00    -0.014 A 
ATOM     77  C   UNL     1      12.645  -1.004  10.420  1.00  0.00     0.010 A 
ATOM     78  C   UNL     1      10.843   0.495   9.801  1.00  0.00     0.010 A 
ATOM     79  C   UNL     1      13.577  -0.006  10.121  1.00  0.00     0.020 A 
ATOM     80  C   UNL     1      11.773   1.484   9.471  1.00  0.00     0.020 A 
ATOM     81  C   UNL     1      13.135   1.231   9.644  1.00  0.00     0.054 A 
BRANCH  81  82
ATOM     82  S   UNL     1      14.365   2.492   9.210  1.00  0.00     0.124 S 
ATOM     83  O   UNL     1      14.854   2.904  10.522  1.00  0.00    -0.237 OA
ATOM     84  O   UNL     1      15.310   1.739   8.389  1.00  0.00    -0.237 OA
ATOM     85  O   UNL     1      13.586   3.496   8.488  1.00  0.00    -0.744 OA
ENDBRANCH  81  82
ENDBRANCH  53  76
BRANCH  65  86
ATOM     86  C   UNL     1       9.264  -3.879  16.190  1.00  0.00    -0.014 A 
ATOM     87  C   UNL     1       8.995  -2.729  16.952  1.00  0.00     0.010 A 
ATOM     88  C   UNL     1       9.933  -4.960  16.793  1.00  0.00     0.010 A 
ATOM     89  C   UNL     1       9.418  -2.649  18.282  1.00  0.00     0.020 A 
ATOM     90  C   UNL     1      10.329  -4.897  18.131  1.00  0.00     0.020 A 
ATOM     91  C   UNL     1      10.081  -3.734  18.863  1.00  0.00     0.054 A 
BRANCH  91  92
ATOM     92  S   UNL     1      10.581  -3.621  20.603  1.00  0.00     0.124 S 
ATOM     93  O   UNL     1      11.690  -2.673  20.540  1.00  0.00    -0.237 OA
ATOM     94  O   UNL     1       9.369  -3.128  21.252  1.00  0.00    -0.237 OA
ATOM     95  O   UNL     1      10.952  -4.991  20.948  1.00  0.00    -0.744 OA
ENDBRANCH  91  92
ENDBRANCH  65  86
ENDBRANCH  39  40
ENDBRANCH  31  34
ENDBRANCH  29  30
ENDBRANCH   1  29
TORSDOF 16
