REMARK SMILES Cc1cc(C)c(C(=O)N[C@H](C(=O)NCCCNC(=O)c2ccc(-c3c4nc(c(-c5ccc(S(=O)(=O)[O-])cc5)c5ccc([nH]5)c(-c5ccc(S(=O)(=O)[O-])cc5)c5nc(c(-c6ccc(S(=O)(=O)[O-])cc6)c6ccc3[nH]6)C=C5)C=C4)cc2)C(C)C)c(=O)[nH]1
REMARK SMILES IDX 15 1 14 2 13 3 11 4 12 5 10 7 9 8 7 9 8 10 6 12 1 13 2 14
REMARK SMILES IDX 3 15 85 16 4 17 83 18 5 20 84 21 80 22 81 23 82 24 16 25
REMARK SMILES IDX 17 26 18 27 19 29 20 30 21 31 79 32 22 33 78 34 23 35 24 36
REMARK SMILES IDX 25 37 72 38 26 39 77 40 71 41 73 42 27 43 76 44 70 45 69 46
REMARK SMILES IDX 28 48 58 49 39 50 57 51 40 52 43 53 56 54 74 55 41 56 42 57
REMARK SMILES IDX 55 59 75 60 44 61 29 62 30 63 38 64 31 65 37 66 32 67 33 68
REMARK SMILES IDX 34 69 35 70 36 71 59 72 60 73 68 74 61 75 67 76 62 77 63 78
REMARK SMILES IDX 64 79 65 80 66 81 45 82 46 83 54 84 47 85 53 86 48 87 49 88
REMARK SMILES IDX 50 89 51 90 52 91
REMARK H PARENT 13 6 9 11 85 19 17 28 73 47 43 58
REMARK Flexibility Score: inf
ROOT
ATOM      1  C   UNL     1      -4.240  -2.959  -7.090  1.00  0.00     0.042 C 
ENDROOT
BRANCH   1   2
ATOM      2  C   UNL     1      -3.436  -2.250  -6.008  1.00  0.00     0.117 C 
BRANCH   2   3
ATOM      3  N   UNL     1      -2.047  -2.106  -6.392  1.00  0.00    -0.354 N 
ATOM      4  C   UNL     1      -1.175  -1.077  -6.463  1.00  0.00     0.242 C 
ATOM      5  O   UNL     1      -0.111  -1.375  -7.029  1.00  0.00    -0.273 OA
ATOM      6  H   UNL     1      -1.642  -2.961  -6.666  1.00  0.00     0.163 HD
BRANCH   4   7
ATOM      7  C   UNL     1      -1.364   0.343  -5.831  1.00  0.00     0.174 C 
BRANCH   7   8
ATOM      8  N   UNL     1      -0.312   1.135  -6.507  1.00  0.00    -0.340 N 
ATOM      9  C   UNL     1       0.905   1.582  -6.088  1.00  0.00     0.257 C 
ATOM     10  O   UNL     1       1.767   1.753  -6.956  1.00  0.00    -0.269 OA
ATOM     11  H   UNL     1      -0.533   1.385  -7.433  1.00  0.00     0.164 HD
BRANCH   9  12
ATOM     12  C   UNL     1       1.153   2.029  -4.688  1.00  0.00     0.107 A 
ATOM     13  C   UNL     1       1.726   3.490  -0.647  1.00  0.00     0.064 C 
ATOM     14  C   UNL     1       1.557   3.019  -2.057  1.00  0.00     0.015 A 
ATOM     15  C   UNL     1       2.001   3.704  -3.118  1.00  0.00     0.025 A 
ATOM     16  N   UNL     1       0.983   1.792  -2.259  1.00  0.00    -0.326 N 
ATOM     17  C   UNL     1       1.769   3.223  -4.476  1.00  0.00    -0.031 A 
ATOM     18  C   UNL     1       0.872   1.183  -3.487  1.00  0.00     0.261 A 
ATOM     19  H   UNL     1       0.627   1.316  -1.475  1.00  0.00     0.169 HD
ATOM     20  C   UNL     1       2.251   4.185  -5.536  1.00  0.00     0.045 C 
ATOM     21  O   UNL     1       0.582  -0.008  -3.538  1.00  0.00    -0.269 OA
ENDBRANCH   9  12
ENDBRANCH   7   8
BRANCH   7  22
ATOM     22  C   UNL     1      -2.759   1.000  -5.922  1.00  0.00     0.015 C 
ATOM     23  C   UNL     1      -3.511   0.809  -4.587  1.00  0.00     0.010 C 
ATOM     24  C   UNL     1      -2.734   2.506  -6.208  1.00  0.00     0.010 C 
ENDBRANCH   7  22
ENDBRANCH   4   7
ENDBRANCH   2   3
ENDBRANCH   1   2
BRANCH   1  25
ATOM     25  C   UNL     1      -3.849  -4.415  -7.301  1.00  0.00     0.118 C 
BRANCH  25  26
ATOM     26  N   UNL     1      -4.192  -5.260  -6.165  1.00  0.00    -0.352 N 
ATOM     27  C   UNL     1      -5.095  -6.293  -6.085  1.00  0.00     0.251 C 
ATOM     28  H   UNL     1      -3.706  -5.061  -5.332  1.00  0.00     0.163 HD
ATOM     29  O   UNL     1      -5.388  -6.768  -4.990  1.00  0.00    -0.269 OA
BRANCH  27  30
ATOM     30  C   UNL     1      -5.730  -6.809  -7.316  1.00  0.00     0.039 A 
ATOM     31  C   UNL     1      -7.107  -7.043  -7.329  1.00  0.00     0.014 A 
ATOM     32  C   UNL     1      -4.967  -7.038  -8.463  1.00  0.00     0.014 A 
ATOM     33  C   UNL     1      -7.732  -7.420  -8.521  1.00  0.00     0.010 A 
ATOM     34  C   UNL     1      -5.601  -7.320  -9.666  1.00  0.00     0.010 A 
ATOM     35  C   UNL     1      -6.989  -7.516  -9.709  1.00  0.00    -0.014 A 
BRANCH  35  36
ATOM     36  C   UNL     1      -7.624  -7.831 -11.013  1.00  0.00     0.031 A 
ATOM     37  C   UNL     1      -7.221  -9.074 -11.756  1.00  0.00     0.074 A 
ATOM     38  C   UNL     1      -8.496  -6.965 -11.565  1.00  0.00     0.049 A 
ATOM     39  N   UNL     1      -7.545  -9.458 -12.964  1.00  0.00    -0.248 NA
ATOM     40  C   UNL     1      -6.309  -9.993 -11.056  1.00  0.00     0.031 C 
ATOM     41  C   UNL     1      -8.963  -5.720 -10.952  1.00  0.00     0.029 A 
ATOM     42  N   UNL     1      -9.146  -7.004 -12.773  1.00  0.00    -0.354 N 
ATOM     43  C   UNL     1      -6.862 -10.650 -13.174  1.00  0.00     0.074 A 
ATOM     44  C   UNL     1      -6.061 -10.893 -11.994  1.00  0.00     0.031 C 
ATOM     45  C   UNL     1      -9.857  -5.138 -11.767  1.00  0.00     0.029 A 
ATOM     46  C   UNL     1      -9.987  -5.937 -12.981  1.00  0.00     0.049 A 
ATOM     47  H   UNL     1      -9.021  -7.727 -13.429  1.00  0.00     0.167 HD
ATOM     48  C   UNL     1      -6.913 -11.482 -14.242  1.00  0.00     0.031 A 
ATOM     49  C   UNL     1     -10.774  -5.635 -14.031  1.00  0.00     0.031 A 
ATOM     50  C   UNL     1      -7.709 -11.238 -15.415  1.00  0.00     0.049 A 
ATOM     51  C   UNL     1     -10.792  -6.552 -15.220  1.00  0.00     0.074 A 
ATOM     52  C   UNL     1      -7.829 -12.013 -16.555  1.00  0.00     0.029 A 
ATOM     53  N   UNL     1      -8.534 -10.136 -15.591  1.00  0.00    -0.354 N 
ATOM     54  N   UNL     1     -10.120  -7.662 -15.414  1.00  0.00    -0.248 NA
ATOM     55  C   UNL     1     -11.677  -6.176 -16.330  1.00  0.00     0.031 C 
ATOM     56  C   UNL     1      -8.705 -11.363 -17.434  1.00  0.00     0.029 A 
ATOM     57  C   UNL     1      -9.168 -10.210 -16.820  1.00  0.00     0.049 A 
ATOM     58  H   UNL     1      -8.651  -9.409 -14.938  1.00  0.00     0.167 HD
ATOM     59  C   UNL     1     -10.523  -8.135 -16.658  1.00  0.00     0.074 A 
ATOM     60  C   UNL     1     -11.500  -7.191 -17.166  1.00  0.00     0.031 C 
ATOM     61  C   UNL     1     -10.127  -9.254 -17.315  1.00  0.00     0.031 A 
BRANCH  48  62
ATOM     62  C   UNL     1      -6.070 -12.728 -14.171  1.00  0.00    -0.014 A 
ATOM     63  C   UNL     1      -6.387 -13.761 -13.268  1.00  0.00     0.010 A 
ATOM     64  C   UNL     1      -4.934 -12.861 -14.989  1.00  0.00     0.010 A 
ATOM     65  C   UNL     1      -5.548 -14.870 -13.136  1.00  0.00     0.020 A 
ATOM     66  C   UNL     1      -4.108 -13.985 -14.882  1.00  0.00     0.020 A 
ATOM     67  C   UNL     1      -4.407 -14.969 -13.937  1.00  0.00     0.054 A 
BRANCH  67  68
ATOM     68  S   UNL     1      -3.321 -16.407 -13.728  1.00  0.00     0.124 S 
ATOM     69  O   UNL     1      -2.648 -16.093 -12.470  1.00  0.00    -0.237 OA
ATOM     70  O   UNL     1      -4.266 -17.519 -13.675  1.00  0.00    -0.237 OA
ATOM     71  O   UNL     1      -2.470 -16.373 -14.915  1.00  0.00    -0.744 OA
ENDBRANCH  67  68
ENDBRANCH  48  62
BRANCH  49  72
ATOM     72  C   UNL     1     -11.653  -4.438 -13.963  1.00  0.00    -0.014 A 
ATOM     73  C   UNL     1     -13.030  -4.597 -13.730  1.00  0.00     0.010 A 
ATOM     74  C   UNL     1     -11.119  -3.140 -14.055  1.00  0.00     0.010 A 
ATOM     75  C   UNL     1     -13.857  -3.482 -13.575  1.00  0.00     0.020 A 
ATOM     76  C   UNL     1     -11.939  -2.021 -13.880  1.00  0.00     0.020 A 
ATOM     77  C   UNL     1     -13.303  -2.200 -13.638  1.00  0.00     0.054 A 
BRANCH  77  78
ATOM     78  S   UNL     1     -14.379  -0.772 -13.323  1.00  0.00     0.124 S 
ATOM     79  O   UNL     1     -15.202  -0.738 -14.527  1.00  0.00    -0.237 OA
ATOM     80  O   UNL     1     -15.067  -1.164 -12.095  1.00  0.00    -0.237 OA
ATOM     81  O   UNL     1     -13.440   0.337 -13.172  1.00  0.00    -0.744 OA
ENDBRANCH  77  78
ENDBRANCH  49  72
BRANCH  61  82
ATOM     82  C   UNL     1     -10.778  -9.536 -18.641  1.00  0.00    -0.014 A 
ATOM     83  C   UNL     1     -10.453  -8.790 -19.788  1.00  0.00     0.010 A 
ATOM     84  C   UNL     1     -11.705 -10.588 -18.745  1.00  0.00     0.010 A 
ATOM     85  C   UNL     1     -11.075  -9.067 -21.008  1.00  0.00     0.020 A 
ATOM     86  C   UNL     1     -12.311 -10.884 -19.968  1.00  0.00     0.020 A 
ATOM     87  C   UNL     1     -12.004 -10.110 -21.089  1.00  0.00     0.054 A 
BRANCH  87  88
ATOM     88  S   UNL     1     -12.783 -10.464 -22.688  1.00  0.00     0.124 S 
ATOM     89  O   UNL     1     -13.726  -9.357 -22.817  1.00  0.00    -0.237 OA
ATOM     90  O   UNL     1     -11.650 -10.436 -23.610  1.00  0.00    -0.237 OA
ATOM     91  O   UNL     1     -13.388 -11.780 -22.495  1.00  0.00    -0.744 OA
ENDBRANCH  87  88
ENDBRANCH  61  82
ENDBRANCH  35  36
ENDBRANCH  27  30
ENDBRANCH  25  26
ENDBRANCH   1  25
TORSDOF 16
