REMARK SMILES C[C@H](Sc1ccnc(C(=O)NCCCNC(=O)c2ccc(-c3c4nc(c(-c5ccc(S(=O)(=O)[O-])cc5)c5ccc([nH]5)c(-c5ccc(S(=O)(=O)[O-])cc5)c5nc(c(-c6ccc(S(=O)(=O)[O-])cc6)c6ccc3[nH]6)C=C5)C=C4)cc2)c1)[C@@H](C)O
REMARK SMILES IDX 12 1 11 2 9 3 10 4 8 6 4 7 5 8 78 9 6 10 7 11 3 12 2 13 1 14
REMARK SMILES IDX 79 15 80 16 81 17 13 19 14 20 15 21 16 22 17 24 18 25 19 26
REMARK SMILES IDX 77 27 20 28 76 29 21 30 22 31 23 32 70 33 24 34 75 35 69 36
REMARK SMILES IDX 71 37 25 38 74 39 68 40 67 41 26 43 56 44 37 45 55 46 38 47
REMARK SMILES IDX 41 48 54 49 72 50 39 51 40 52 53 54 73 55 42 56 27 57 28 58
REMARK SMILES IDX 36 59 29 60 35 61 30 62 31 63 32 64 33 65 34 66 57 67 58 68
REMARK SMILES IDX 66 69 59 70 65 71 60 72 61 73 62 74 63 75 64 76 43 77 44 78
REMARK SMILES IDX 52 79 45 80 51 81 46 82 47 83 48 84 49 85 50 86
REMARK H PARENT 11 5 81 18 15 23 71 42 41 53
REMARK Flexibility Score: inf
ROOT
ATOM      1  C   UNL     1       3.057   3.308   3.324  1.00  0.00     0.118 C 
ENDROOT
BRANCH   1   2
ATOM      2  N   UNL     1       3.326   2.494   4.493  1.00  0.00    -0.351 N 
ATOM      3  C   UNL     1       3.280   1.140   4.736  1.00  0.00     0.269 C 
ATOM      4  O   UNL     1       3.557   0.789   5.886  1.00  0.00    -0.268 OA
ATOM      5  H   UNL     1       3.599   3.020   5.279  1.00  0.00     0.163 HD
BRANCH   3   6
ATOM      6  C   UNL     1       2.999   0.100   3.683  1.00  0.00     0.129 A 
ATOM      7  C   UNL     1       2.232  -0.672   1.533  1.00  0.00     0.011 A 
ATOM      8  C   UNL     1       2.923  -1.857   1.762  1.00  0.00     0.035 A 
ATOM      9  C   UNL     1       2.246   0.311   2.533  1.00  0.00     0.049 A 
ATOM     10  C   UNL     1       3.553  -2.036   2.979  1.00  0.00     0.113 A 
ATOM     11  N   UNL     1       3.617  -1.087   3.926  1.00  0.00    -0.251 NA
BRANCH   7  12
ATOM     12  S   UNL     1       1.638  -0.195  -0.089  1.00  0.00    -0.120 SA
BRANCH  12  13
ATOM     13  C   UNL     1       0.481  -1.500  -0.733  1.00  0.00     0.077 C 
ATOM     14  C   UNL     1       0.754  -2.935  -0.293  1.00  0.00     0.022 C 
BRANCH  13  15
ATOM     15  C   UNL     1      -1.016  -1.129  -0.573  1.00  0.00     0.124 C 
ATOM     16  C   UNL     1      -1.400   0.225  -1.170  1.00  0.00     0.039 C 
BRANCH  15  17
ATOM     17  O   UNL     1      -1.821  -2.122  -1.228  1.00  0.00    -0.392 OA
ATOM     18  H   UNL     1      -1.625  -2.123  -2.178  1.00  0.00     0.210 HD
ENDBRANCH  15  17
ENDBRANCH  13  15
ENDBRANCH  12  13
ENDBRANCH   7  12
ENDBRANCH   3   6
ENDBRANCH   1   2
BRANCH   1  19
ATOM     19  C   UNL     1       1.659   3.921   3.405  1.00  0.00     0.042 C 
BRANCH  19  20
ATOM     20  C   UNL     1       1.553   5.053   4.429  1.00  0.00     0.118 C 
BRANCH  20  21
ATOM     21  N   UNL     1       2.295   6.233   4.008  1.00  0.00    -0.352 N 
ATOM     22  C   UNL     1       1.881   7.529   3.851  1.00  0.00     0.251 C 
ATOM     23  H   UNL     1       3.244   6.074   3.804  1.00  0.00     0.163 HD
ATOM     24  O   UNL     1       2.622   8.318   3.258  1.00  0.00    -0.269 OA
BRANCH  22  25
ATOM     25  C   UNL     1       0.577   7.996   4.370  1.00  0.00     0.039 A 
ATOM     26  C   UNL     1      -0.138   8.938   3.623  1.00  0.00     0.014 A 
ATOM     27  C   UNL     1       0.088   7.583   5.614  1.00  0.00     0.014 A 
ATOM     28  C   UNL     1      -1.350   9.439   4.105  1.00  0.00     0.010 A 
ATOM     29  C   UNL     1      -1.153   8.037   6.065  1.00  0.00     0.010 A 
ATOM     30  C   UNL     1      -1.877   8.980   5.323  1.00  0.00    -0.014 A 
BRANCH  30  31
ATOM     31  C   UNL     1      -3.179   9.495   5.823  1.00  0.00     0.031 A 
ATOM     32  C   UNL     1      -3.244  10.329   7.076  1.00  0.00     0.074 A 
ATOM     33  C   UNL     1      -4.310   9.190   5.158  1.00  0.00     0.049 A 
ATOM     34  N   UNL     1      -4.286  10.877   7.647  1.00  0.00    -0.248 NA
ATOM     35  C   UNL     1      -1.978  10.559   7.791  1.00  0.00     0.031 C 
ATOM     36  C   UNL     1      -4.387   8.351   3.959  1.00  0.00     0.029 A 
ATOM     37  N   UNL     1      -5.612   9.554   5.392  1.00  0.00    -0.354 N 
ATOM     38  C   UNL     1      -3.807  11.504   8.793  1.00  0.00     0.074 A 
ATOM     39  C   UNL     1      -2.387  11.229   8.859  1.00  0.00     0.031 C 
ATOM     40  C   UNL     1      -5.663   8.294   3.544  1.00  0.00     0.029 A 
ATOM     41  C   UNL     1      -6.496   9.068   4.458  1.00  0.00     0.049 A 
ATOM     42  H   UNL     1      -5.887  10.111   6.155  1.00  0.00     0.167 HD
ATOM     43  C   UNL     1      -4.480  12.255   9.697  1.00  0.00     0.031 A 
ATOM     44  C   UNL     1      -7.828   9.233   4.343  1.00  0.00     0.031 A 
ATOM     45  C   UNL     1      -5.890  12.538   9.624  1.00  0.00     0.049 A 
ATOM     46  C   UNL     1      -8.548  10.097   5.341  1.00  0.00     0.074 A 
ATOM     47  C   UNL     1      -6.657  13.328  10.464  1.00  0.00     0.029 A 
ATOM     48  N   UNL     1      -6.746  12.043   8.652  1.00  0.00    -0.354 N 
ATOM     49  N   UNL     1      -8.065  10.729   6.383  1.00  0.00    -0.248 NA
ATOM     50  C   UNL     1      -9.989  10.285   5.131  1.00  0.00     0.031 C 
ATOM     51  C   UNL     1      -7.984  13.281  10.020  1.00  0.00     0.029 A 
ATOM     52  C   UNL     1      -8.034  12.501   8.876  1.00  0.00     0.049 A 
ATOM     53  H   UNL     1      -6.478  11.453   7.911  1.00  0.00     0.167 HD
ATOM     54  C   UNL     1      -9.140  11.410   6.942  1.00  0.00     0.074 A 
ATOM     55  C   UNL     1     -10.292  11.127   6.110  1.00  0.00     0.031 C 
ATOM     56  C   UNL     1      -9.172  12.200   8.045  1.00  0.00     0.031 A 
BRANCH  43  57
ATOM     57  C   UNL     1      -3.693  12.824  10.849  1.00  0.00    -0.014 A 
ATOM     58  C   UNL     1      -2.762  13.861  10.650  1.00  0.00     0.010 A 
ATOM     59  C   UNL     1      -3.904  12.338  12.152  1.00  0.00     0.010 A 
ATOM     60  C   UNL     1      -2.024  14.368  11.723  1.00  0.00     0.020 A 
ATOM     61  C   UNL     1      -3.187  12.861  13.233  1.00  0.00     0.020 A 
ATOM     62  C   UNL     1      -2.237  13.860  13.008  1.00  0.00     0.054 A 
BRANCH  62  63
ATOM     63  S   UNL     1      -1.275  14.544  14.386  1.00  0.00     0.124 S 
ATOM     64  O   UNL     1       0.034  13.931  14.172  1.00  0.00    -0.237 OA
ATOM     65  O   UNL     1      -1.342  15.983  14.143  1.00  0.00    -0.237 OA
ATOM     66  O   UNL     1      -1.993  14.083  15.572  1.00  0.00    -0.744 OA
ENDBRANCH  62  63
ENDBRANCH  43  57
BRANCH  44  67
ATOM     67  C   UNL     1      -8.558   8.597   3.214  1.00  0.00    -0.014 A 
ATOM     68  C   UNL     1      -9.037   9.376   2.147  1.00  0.00     0.010 A 
ATOM     69  C   UNL     1      -8.759   7.205   3.191  1.00  0.00     0.010 A 
ATOM     70  C   UNL     1      -9.718   8.778   1.083  1.00  0.00     0.020 A 
ATOM     71  C   UNL     1      -9.418   6.600   2.116  1.00  0.00     0.020 A 
ATOM     72  C   UNL     1      -9.903   7.393   1.074  1.00  0.00     0.054 A 
BRANCH  72  73
ATOM     73  S   UNL     1     -10.735   6.628  -0.346  1.00  0.00     0.124 S 
ATOM     74  O   UNL     1     -12.135   6.950  -0.086  1.00  0.00    -0.237 OA
ATOM     75  O   UNL     1     -10.126   7.318  -1.480  1.00  0.00    -0.237 OA
ATOM     76  O   UNL     1     -10.383   5.215  -0.225  1.00  0.00    -0.744 OA
ENDBRANCH  72  73
ENDBRANCH  44  67
BRANCH  56  77
ATOM     77  C   UNL     1     -10.492  12.833   8.392  1.00  0.00    -0.014 A 
ATOM     78  C   UNL     1     -11.553  12.068   8.910  1.00  0.00     0.010 A 
ATOM     79  C   UNL     1     -10.671  14.215   8.202  1.00  0.00     0.010 A 
ATOM     80  C   UNL     1     -12.786  12.666   9.182  1.00  0.00     0.020 A 
ATOM     81  C   UNL     1     -11.894  14.821   8.499  1.00  0.00     0.020 A 
ATOM     82  C   UNL     1     -12.952  14.037   8.965  1.00  0.00     0.054 A 
BRANCH  82  83
ATOM     83  S   UNL     1     -14.560  14.795   9.325  1.00  0.00     0.124 S 
ATOM     84  O   UNL     1     -15.349  14.397   8.163  1.00  0.00    -0.237 OA
ATOM     85  O   UNL     1     -14.939  14.165  10.588  1.00  0.00    -0.237 OA
ATOM     86  O   UNL     1     -14.256  16.221   9.415  1.00  0.00    -0.744 OA
ENDBRANCH  82  83
ENDBRANCH  56  77
ENDBRANCH  30  31
ENDBRANCH  22  25
ENDBRANCH  20  21
ENDBRANCH  19  20
ENDBRANCH   1  19
TORSDOF 17
