REMARK SMILES COc1ccccc1C(=O)N/C(=C/c1ccc2c(c1)OCO2)C(=O)Nc1ccc(C(=O)NCCCNC(=O)c2ccc(-c3c4nc(c(-c5ccc(S(=O)(=O)[O-])cc5)c5ccc([nH]5)c(-c5ccc(S(=O)(=O)[O-])cc5)c5nc(c(-c6ccc(S(=O)(=O)[O-])cc6)c6ccc3[nH]6)C=C5)C=C4)cc2)cc1
REMARK SMILES IDX 33 1 32 2 30 3 31 4 29 6 26 7 27 8 100 9 28 10 99 11 25 12
REMARK SMILES IDX 23 13 24 14 12 16 13 17 11 18 9 19 10 20 8 22 3 23 4 24 5 25
REMARK SMILES IDX 7 26 6 27 2 28 1 29 14 30 15 31 19 32 16 33 18 34 17 35
REMARK SMILES IDX 20 36 22 37 21 38 34 39 35 40 36 41 37 42 38 44 39 45 40 46
REMARK SMILES IDX 98 47 41 48 97 49 42 50 43 51 44 52 91 53 45 54 96 55 90 56
REMARK SMILES IDX 92 57 46 58 95 59 89 60 88 61 47 63 77 64 58 65 76 66 59 67
REMARK SMILES IDX 62 68 75 69 93 70 60 71 61 72 74 74 94 75 63 76 48 77 49 78
REMARK SMILES IDX 57 79 50 80 56 81 51 82 52 83 53 84 54 85 55 86 78 87 79 88
REMARK SMILES IDX 87 89 80 90 86 91 81 92 82 93 83 94 84 95 85 96 64 97 65 98
REMARK SMILES IDX 73 99 66 100 72 101 67 102 68 103 69 104 70 105 71 106
REMARK H PARENT 32 5 25 15 11 21 36 43 92 62 62 73
REMARK Flexibility Score: inf
ROOT
ATOM      1  C   UNL     1      -1.165   0.940  -5.811  1.00  0.00     0.118 C 
ENDROOT
BRANCH   1   2
ATOM      2  N   UNL     1      -2.030   2.097  -5.718  1.00  0.00    -0.352 N 
ATOM      3  C   UNL     1      -2.685   2.613  -4.638  1.00  0.00     0.251 C 
ATOM      4  O   UNL     1      -3.359   3.631  -4.748  1.00  0.00    -0.269 OA
ATOM      5  H   UNL     1      -2.167   2.586  -6.561  1.00  0.00     0.163 HD
BRANCH   3   6
ATOM      6  C   UNL     1      -2.501   2.022  -3.313  1.00  0.00     0.039 A 
ATOM      7  C   UNL     1      -1.873   0.633   0.082  1.00  0.00     0.041 A 
ATOM      8  C   UNL     1      -1.722   2.378  -0.161  1.00  0.00     0.027 A 
ATOM      9  C   UNL     1      -2.394  -0.361  -1.272  1.00  0.00     0.027 A 
ATOM     10  C   UNL     1      -1.997   3.148  -2.006  1.00  0.00     0.016 A 
ATOM     11  C   UNL     1      -2.703   0.310  -2.904  1.00  0.00     0.016 A 
BRANCH   7  12
ATOM     12  N   UNL     1      -0.907   0.159   0.985  1.00  0.00    -0.321 N 
ATOM     13  C   UNL     1       0.171   0.961   1.352  1.00  0.00     0.272 C 
ATOM     14  O   UNL     1       0.320   1.350   2.511  1.00  0.00    -0.267 OA
ATOM     15  H   UNL     1      -0.992  -0.747   1.361  1.00  0.00     0.170 HD
BRANCH  13  16
ATOM     16  C   UNL     1       1.296   1.199   0.321  1.00  0.00     0.108 C 
ATOM     17  C   UNL     1       1.240   2.037  -0.756  1.00  0.00     0.040 C 
BRANCH  16  18
ATOM     18  N   UNL     1       2.507   0.539   0.514  1.00  0.00    -0.317 N 
ATOM     19  C   UNL     1       3.017  -0.361   1.428  1.00  0.00     0.259 C 
ATOM     20  O   UNL     1       4.187  -0.723   1.269  1.00  0.00    -0.269 OA
ATOM     21  H   UNL     1       3.168   0.776  -0.176  1.00  0.00     0.170 HD
BRANCH  19  22
ATOM     22  C   UNL     1       2.310  -0.879   2.616  1.00  0.00     0.082 A 
ATOM     23  C   UNL     1       1.123  -1.619   2.624  1.00  0.00     0.131 A 
ATOM     24  C   UNL     1       0.485  -1.861   3.852  1.00  0.00     0.047 A 
ATOM     25  C   UNL     1       1.086  -1.513   5.062  1.00  0.00     0.004 A 
ATOM     26  C   UNL     1       2.950  -0.607   3.843  1.00  0.00     0.018 A 
ATOM     27  C   UNL     1       2.347  -0.932   5.058  1.00  0.00     0.001 A 
BRANCH  23  28
ATOM     28  O   UNL     1       0.421  -2.125   1.565  1.00  0.00    -0.496 OA
ATOM     29  C   UNL     1       1.148  -2.504   0.404  1.00  0.00     0.278 C 
ENDBRANCH  23  28
ENDBRANCH  19  22
ENDBRANCH  16  18
BRANCH  17  30
ATOM     30  C   UNL     1       0.024   2.712  -1.279  1.00  0.00    -0.019 A 
ATOM     31  C   UNL     1      -1.188   1.467  -1.735  1.00  0.00     0.012 A 
ATOM     32  C   UNL     1      -0.566   4.234  -0.578  1.00  0.00     0.058 A 
ATOM     33  C   UNL     1      -3.132   1.798  -1.282  1.00  0.00     0.051 A 
ATOM     34  C   UNL     1      -2.289   4.511  -0.243  1.00  0.00     0.166 A 
ATOM     35  C   UNL     1      -3.548   3.373  -0.555  1.00  0.00     0.165 A 
ATOM     36  O   UNL     1      -2.776   5.340   0.741  1.00  0.00    -0.454 OA
ATOM     37  O   UNL     1      -4.600   3.667   0.253  1.00  0.00    -0.454 OA
ATOM     38  C   UNL     1      -3.959   4.590   1.191  1.00  0.00     0.468 C 
ENDBRANCH  17  30
ENDBRANCH  13  16
ENDBRANCH   7  12
ENDBRANCH   3   6
ENDBRANCH   1   2
BRANCH   1  39
ATOM     39  C   UNL     1      -1.915  -0.249  -6.393  1.00  0.00     0.042 C 
BRANCH  39  40
ATOM     40  C   UNL     1      -2.462   0.022  -7.787  1.00  0.00     0.118 C 
BRANCH  40  41
ATOM     41  N   UNL     1      -1.396   0.201  -8.762  1.00  0.00    -0.352 N 
ATOM     42  C   UNL     1      -1.061  -0.608  -9.819  1.00  0.00     0.251 C 
ATOM     43  H   UNL     1      -0.844   1.007  -8.648  1.00  0.00     0.163 HD
ATOM     44  O   UNL     1       0.023  -0.476 -10.377  1.00  0.00    -0.269 OA
BRANCH  42  45
ATOM     45  C   UNL     1      -2.019  -1.640 -10.263  1.00  0.00     0.039 A 
ATOM     46  C   UNL     1      -1.558  -2.921 -10.572  1.00  0.00     0.014 A 
ATOM     47  C   UNL     1      -3.379  -1.333 -10.363  1.00  0.00     0.014 A 
ATOM     48  C   UNL     1      -2.474  -3.908 -10.939  1.00  0.00     0.010 A 
ATOM     49  C   UNL     1      -4.295  -2.340 -10.625  1.00  0.00     0.010 A 
ATOM     50  C   UNL     1      -3.851  -3.631 -10.945  1.00  0.00    -0.014 A 
BRANCH  50  51
ATOM     51  C   UNL     1      -4.852  -4.647 -11.350  1.00  0.00     0.031 A 
ATOM     52  C   UNL     1      -5.714  -4.384 -12.558  1.00  0.00     0.074 A 
ATOM     53  C   UNL     1      -5.028  -5.758 -10.609  1.00  0.00     0.049 A 
ATOM     54  N   UNL     1      -6.726  -5.074 -13.015  1.00  0.00    -0.248 NA
ATOM     55  C   UNL     1      -5.423  -3.165 -13.335  1.00  0.00     0.031 C 
ATOM     56  C   UNL     1      -4.276  -6.103  -9.398  1.00  0.00     0.029 A 
ATOM     57  N   UNL     1      -5.904  -6.803 -10.760  1.00  0.00    -0.354 N 
ATOM     58  C   UNL     1      -7.197  -4.367 -14.116  1.00  0.00     0.074 A 
ATOM     59  C   UNL     1      -6.408  -3.161 -14.219  1.00  0.00     0.031 C 
ATOM     60  C   UNL     1      -4.709  -7.287  -8.933  1.00  0.00     0.029 A 
ATOM     61  C   UNL     1      -5.795  -7.764  -9.782  1.00  0.00     0.049 A 
ATOM     62  H   UNL     1      -6.551  -6.860 -11.501  1.00  0.00     0.167 HD
ATOM     63  C   UNL     1      -8.175  -4.707 -14.986  1.00  0.00     0.031 A 
ATOM     64  C   UNL     1      -6.500  -8.895  -9.589  1.00  0.00     0.031 A 
ATOM     65  C   UNL     1      -8.934  -5.923 -14.896  1.00  0.00     0.049 A 
ATOM     66  C   UNL     1      -7.592  -9.244 -10.567  1.00  0.00     0.074 A 
ATOM     67  C   UNL     1      -9.927  -6.382 -15.743  1.00  0.00     0.029 A 
ATOM     68  N   UNL     1      -8.770  -6.882 -13.909  1.00  0.00    -0.354 N 
ATOM     69  N   UNL     1      -7.995  -8.580 -11.624  1.00  0.00    -0.248 NA
ATOM     70  C   UNL     1      -8.316 -10.502 -10.334  1.00  0.00     0.031 C 
ATOM     71  C   UNL     1     -10.390  -7.604 -15.247  1.00  0.00     0.029 A 
ATOM     72  C   UNL     1      -9.645  -7.931 -14.124  1.00  0.00     0.049 A 
ATOM     73  H   UNL     1      -8.127  -6.825 -13.166  1.00  0.00     0.167 HD
ATOM     74  C   UNL     1      -8.990  -9.360 -12.204  1.00  0.00     0.074 A 
ATOM     75  C   UNL     1      -9.118 -10.549 -11.388  1.00  0.00     0.031 C 
ATOM     76  C   UNL     1      -9.733  -9.116 -13.311  1.00  0.00     0.031 A 
BRANCH  63  77
ATOM     77  C   UNL     1      -8.457  -3.767 -16.128  1.00  0.00    -0.014 A 
ATOM     78  C   UNL     1      -7.532  -3.613 -17.177  1.00  0.00     0.010 A 
ATOM     79  C   UNL     1      -9.682  -3.078 -16.189  1.00  0.00     0.010 A 
ATOM     80  C   UNL     1      -7.816  -2.771 -18.254  1.00  0.00     0.020 A 
ATOM     81  C   UNL     1      -9.983  -2.257 -17.280  1.00  0.00     0.020 A 
ATOM     82  C   UNL     1      -9.042  -2.102 -18.302  1.00  0.00     0.054 A 
BRANCH  82  83
ATOM     83  S   UNL     1      -9.405  -1.065 -19.744  1.00  0.00     0.124 S 
ATOM     84  O   UNL     1      -8.506   0.067 -19.536  1.00  0.00    -0.237 OA
ATOM     85  O   UNL     1      -9.062  -1.942 -20.861  1.00  0.00    -0.237 OA
ATOM     86  O   UNL     1     -10.828  -0.763 -19.606  1.00  0.00    -0.744 OA
ENDBRANCH  82  83
ENDBRANCH  63  77
BRANCH  64  87
ATOM     87  C   UNL     1      -6.207  -9.783  -8.429  1.00  0.00    -0.014 A 
ATOM     88  C   UNL     1      -5.676 -11.070  -8.627  1.00  0.00     0.010 A 
ATOM     89  C   UNL     1      -6.492  -9.358  -7.118  1.00  0.00     0.010 A 
ATOM     90  C   UNL     1      -5.484 -11.934  -7.543  1.00  0.00     0.020 A 
ATOM     91  C   UNL     1      -6.270 -10.206  -6.029  1.00  0.00     0.020 A 
ATOM     92  C   UNL     1      -5.790 -11.497  -6.251  1.00  0.00     0.054 A 
BRANCH  92  93
ATOM     93  S   UNL     1      -5.538 -12.633  -4.859  1.00  0.00     0.124 S 
ATOM     94  O   UNL     1      -6.655 -13.557  -5.017  1.00  0.00    -0.237 OA
ATOM     95  O   UNL     1      -4.214 -13.184  -5.135  1.00  0.00    -0.237 OA
ATOM     96  O   UNL     1      -5.608 -11.758  -3.690  1.00  0.00    -0.744 OA
ENDBRANCH  92  93
ENDBRANCH  64  87
BRANCH  76  97
ATOM     97  C   UNL     1     -10.703 -10.180 -13.746  1.00  0.00    -0.014 A 
ATOM     98  C   UNL     1     -11.893 -10.419 -13.037  1.00  0.00     0.010 A 
ATOM     99  C   UNL     1     -10.448 -10.900 -14.928  1.00  0.00     0.010 A 
ATOM    100  C   UNL     1     -12.799 -11.381 -13.489  1.00  0.00     0.020 A 
ATOM    101  C   UNL     1     -11.366 -11.841 -15.399  1.00  0.00     0.020 A 
ATOM    102  C   UNL     1     -12.531 -12.083 -14.669  1.00  0.00     0.054 A 
BRANCH 102 103
ATOM    103  S   UNL     1     -13.751 -13.285 -15.264  1.00  0.00     0.124 S 
ATOM    104  O   UNL     1     -13.580 -14.385 -14.320  1.00  0.00    -0.237 OA
ATOM    105  O   UNL     1     -15.007 -12.548 -15.150  1.00  0.00    -0.237 OA
ATOM    106  O   UNL     1     -13.322 -13.566 -16.633  1.00  0.00    -0.744 OA
ENDBRANCH 102 103
ENDBRANCH  76  97
ENDBRANCH  50  51
ENDBRANCH  42  45
ENDBRANCH  40  41
ENDBRANCH  39  40
ENDBRANCH   1  39
TORSDOF 19
