REMARK SMILES Cc1noc(C)c1CNc1cnc(C(=O)NCCCNC(=O)c2ccc(-c3c4nc(c(-c5ccc(S(=O)(=O)[O-])cc5)c5ccc([nH]5)c(-c5ccc(S(=O)(=O)[O-])cc5)c5nc(c(-c6ccc(S(=O)(=O)[O-])cc6)c6ccc3[nH]6)C=C5)C=C4)cc2)cn1
REMARK SMILES IDX 18 1 17 2 16 3 14 4 15 5 13 7 10 8 11 9 84 10 12 11 83 12
REMARK SMILES IDX 9 13 8 15 7 16 1 17 2 18 3 19 4 20 5 21 6 22 19 23 20 24
REMARK SMILES IDX 21 25 22 27 23 28 24 29 82 30 25 31 81 32 26 33 27 34 28 35
REMARK SMILES IDX 75 36 29 37 80 38 74 39 76 40 30 41 79 42 73 43 72 44 31 46
REMARK SMILES IDX 61 47 42 48 60 49 43 50 46 51 59 52 77 53 44 54 45 55 58 57
REMARK SMILES IDX 78 58 47 59 32 60 33 61 41 62 34 63 40 64 35 65 36 66 37 67
REMARK SMILES IDX 38 68 39 69 62 70 63 71 71 72 64 73 70 74 65 75 66 76 67 77
REMARK SMILES IDX 68 78 69 79 48 80 49 81 57 82 50 83 56 84 51 85 52 86 53 87
REMARK SMILES IDX 54 88 55 89
REMARK H PARENT 16 6 9 14 20 26 76 45 46 56
REMARK Flexibility Score: inf
ROOT
ATOM      1  C   UNL     1      -3.683   8.918   1.151  1.00  0.00     0.042 C 
ENDROOT
BRANCH   1   2
ATOM      2  C   UNL     1      -4.337   7.586   1.497  1.00  0.00     0.118 C 
BRANCH   2   3
ATOM      3  N   UNL     1      -5.274   7.164   0.468  1.00  0.00    -0.351 N 
ATOM      4  C   UNL     1      -5.130   6.271  -0.570  1.00  0.00     0.271 C 
ATOM      5  O   UNL     1      -6.103   6.076  -1.300  1.00  0.00    -0.267 OA
ATOM      6  H   UNL     1      -6.160   7.588   0.523  1.00  0.00     0.163 HD
BRANCH   4   7
ATOM      7  C   UNL     1      -3.872   5.510  -0.815  1.00  0.00     0.146 A 
ATOM      8  C   UNL     1      -1.726   3.891  -1.199  1.00  0.00     0.144 A 
ATOM      9  C   UNL     1      -1.708   4.961  -0.305  1.00  0.00     0.158 A 
ATOM     10  N   UNL     1      -2.814   3.665  -1.960  1.00  0.00    -0.235 NA
ATOM     11  N   UNL     1      -2.763   5.783  -0.091  1.00  0.00    -0.246 NA
ATOM     12  C   UNL     1      -3.880   4.486  -1.751  1.00  0.00     0.147 A 
BRANCH   8  13
ATOM     13  N   UNL     1      -0.702   2.986  -1.340  1.00  0.00    -0.365 N 
ATOM     14  H   UNL     1      -0.446   2.678  -2.239  1.00  0.00     0.162 HD
BRANCH  13  15
ATOM     15  C   UNL     1       0.006   2.479  -0.180  1.00  0.00     0.156 C 
BRANCH  15  16
ATOM     16  C   UNL     1       0.043   0.996  -0.074  1.00  0.00     0.037 A 
ATOM     17  C   UNL     1      -2.506   0.408  -0.004  1.00  0.00     0.071 C 
ATOM     18  C   UNL     1      -1.056   0.095   0.008  1.00  0.00     0.086 A 
ATOM     19  N   UNL     1      -0.641  -1.174   0.104  1.00  0.00    -0.085 NA
ATOM     20  O   UNL     1       0.739  -1.122   0.090  1.00  0.00    -0.361 OA
ATOM     21  C   UNL     1       1.145   0.170  -0.013  1.00  0.00     0.138 A 
ATOM     22  C   UNL     1       2.601   0.404  -0.029  1.00  0.00     0.091 C 
ENDBRANCH  15  16
ENDBRANCH  13  15
ENDBRANCH   8  13
ENDBRANCH   4   7
ENDBRANCH   2   3
ENDBRANCH   1   2
BRANCH   1  23
ATOM     23  C   UNL     1      -4.638  10.099   1.305  1.00  0.00     0.118 C 
BRANCH  23  24
ATOM     24  N   UNL     1      -5.063  10.286   2.691  1.00  0.00    -0.352 N 
ATOM     25  C   UNL     1      -4.899  11.363   3.524  1.00  0.00     0.251 C 
ATOM     26  H   UNL     1      -5.541   9.522   3.087  1.00  0.00     0.163 HD
ATOM     27  O   UNL     1      -5.123  11.244   4.727  1.00  0.00    -0.269 OA
BRANCH  25  28
ATOM     28  C   UNL     1      -4.449  12.657   2.975  1.00  0.00     0.039 A 
ATOM     29  C   UNL     1      -3.492  13.402   3.669  1.00  0.00     0.014 A 
ATOM     30  C   UNL     1      -4.985  13.137   1.779  1.00  0.00     0.014 A 
ATOM     31  C   UNL     1      -3.025  14.602   3.127  1.00  0.00     0.010 A 
ATOM     32  C   UNL     1      -4.461  14.285   1.202  1.00  0.00     0.010 A 
ATOM     33  C   UNL     1      -3.482  15.035   1.873  1.00  0.00    -0.014 A 
BRANCH  33  34
ATOM     34  C   UNL     1      -2.989  16.281   1.236  1.00  0.00     0.031 A 
ATOM     35  C   UNL     1      -3.962  17.392   0.945  1.00  0.00     0.074 A 
ATOM     36  C   UNL     1      -1.710  16.370   0.824  1.00  0.00     0.049 A 
ATOM     37  N   UNL     1      -3.788  18.478   0.239  1.00  0.00    -0.248 NA
ATOM     38  C   UNL     1      -5.321  17.242   1.494  1.00  0.00     0.031 C 
ATOM     39  C   UNL     1      -0.676  15.353   1.033  1.00  0.00     0.029 A 
ATOM     40  N   UNL     1      -1.065  17.357   0.121  1.00  0.00    -0.354 N 
ATOM     41  C   UNL     1      -5.020  19.122   0.231  1.00  0.00     0.074 A 
ATOM     42  C   UNL     1      -5.943  18.284   0.963  1.00  0.00     0.031 C 
ATOM     43  C   UNL     1       0.473  15.774   0.479  1.00  0.00     0.029 A 
ATOM     44  C   UNL     1       0.246  17.061  -0.170  1.00  0.00     0.049 A 
ATOM     45  H   UNL     1      -1.500  18.198  -0.150  1.00  0.00     0.167 HD
ATOM     46  C   UNL     1      -5.349  20.312  -0.325  1.00  0.00     0.031 A 
ATOM     47  C   UNL     1       1.156  17.738  -0.899  1.00  0.00     0.031 A 
ATOM     48  C   UNL     1      -4.419  21.146  -1.037  1.00  0.00     0.049 A 
ATOM     49  C   UNL     1       0.763  19.048  -1.528  1.00  0.00     0.074 A 
ATOM     50  C   UNL     1      -4.637  22.392  -1.597  1.00  0.00     0.029 A 
ATOM     51  N   UNL     1      -3.094  20.820  -1.285  1.00  0.00    -0.354 N 
ATOM     52  N   UNL     1      -0.396  19.663  -1.492  1.00  0.00    -0.248 NA
ATOM     53  C   UNL     1       1.799  19.761  -2.289  1.00  0.00     0.031 C 
ATOM     54  C   UNL     1      -3.459  22.795  -2.231  1.00  0.00     0.029 A 
ATOM     55  C   UNL     1      -2.487  21.834  -2.004  1.00  0.00     0.049 A 
ATOM     56  H   UNL     1      -2.651  19.991  -0.992  1.00  0.00     0.167 HD
ATOM     57  C   UNL     1      -0.214  20.855  -2.184  1.00  0.00     0.074 A 
ATOM     58  C   UNL     1       1.163  20.874  -2.633  1.00  0.00     0.031 C 
ATOM     59  C   UNL     1      -1.106  21.848  -2.419  1.00  0.00     0.031 A 
BRANCH  46  60
ATOM     60  C   UNL     1      -6.776  20.775  -0.196  1.00  0.00    -0.014 A 
ATOM     61  C   UNL     1      -7.311  21.151   1.050  1.00  0.00     0.010 A 
ATOM     62  C   UNL     1      -7.584  20.872  -1.343  1.00  0.00     0.010 A 
ATOM     63  C   UNL     1      -8.639  21.572   1.152  1.00  0.00     0.020 A 
ATOM     64  C   UNL     1      -8.903  21.325  -1.251  1.00  0.00     0.020 A 
ATOM     65  C   UNL     1      -9.428  21.655   0.000  1.00  0.00     0.054 A 
BRANCH  65  66
ATOM     66  S   UNL     1     -11.141  22.226   0.162  1.00  0.00     0.124 S 
ATOM     67  O   UNL     1     -11.777  21.086   0.818  1.00  0.00    -0.237 OA
ATOM     68  O   UNL     1     -11.002  23.426   0.982  1.00  0.00    -0.237 OA
ATOM     69  O   UNL     1     -11.560  22.462  -1.218  1.00  0.00    -0.744 OA
ENDBRANCH  65  66
ENDBRANCH  46  60
BRANCH  47  70
ATOM     70  C   UNL     1       2.531  17.190  -1.067  1.00  0.00    -0.014 A 
ATOM     71  C   UNL     1       3.628  17.817  -0.450  1.00  0.00     0.010 A 
ATOM     72  C   UNL     1       2.751  16.031  -1.835  1.00  0.00     0.010 A 
ATOM     73  C   UNL     1       4.920  17.308  -0.613  1.00  0.00     0.020 A 
ATOM     74  C   UNL     1       4.037  15.501  -1.975  1.00  0.00     0.020 A 
ATOM     75  C   UNL     1       5.116  16.151  -1.372  1.00  0.00     0.054 A 
BRANCH  75  76
ATOM     76  S   UNL     1       6.796  15.482  -1.529  1.00  0.00     0.124 S 
ATOM     77  O   UNL     1       7.430  16.458  -2.410  1.00  0.00    -0.237 OA
ATOM     78  O   UNL     1       7.263  15.479  -0.145  1.00  0.00    -0.237 OA
ATOM     79  O   UNL     1       6.584  14.158  -2.110  1.00  0.00    -0.744 OA
ENDBRANCH  75  76
ENDBRANCH  47  70
BRANCH  59  80
ATOM     80  C   UNL     1      -0.620  23.083  -3.129  1.00  0.00    -0.014 A 
ATOM     81  C   UNL     1      -0.360  23.086  -4.510  1.00  0.00     0.010 A 
ATOM     82  C   UNL     1      -0.536  24.291  -2.411  1.00  0.00     0.010 A 
ATOM     83  C   UNL     1      -0.022  24.277  -5.159  1.00  0.00     0.020 A 
ATOM     84  C   UNL     1      -0.226  25.487  -3.061  1.00  0.00     0.020 A 
ATOM     85  C   UNL     1       0.033  25.471  -4.432  1.00  0.00     0.054 A 
BRANCH  85  86
ATOM     86  S   UNL     1       0.381  27.016  -5.317  1.00  0.00     0.124 S 
ATOM     87  O   UNL     1       1.798  26.872  -5.637  1.00  0.00    -0.237 OA
ATOM     88  O   UNL     1      -0.532  26.944  -6.455  1.00  0.00    -0.237 OA
ATOM     89  O   UNL     1       0.066  28.055  -4.338  1.00  0.00    -0.744 OA
ENDBRANCH  85  86
ENDBRANCH  59  80
ENDBRANCH  33  34
ENDBRANCH  25  28
ENDBRANCH  23  24
ENDBRANCH   1  23
TORSDOF 16
