REMARK SMILES C[C@H](NC(=O)OCc1ccccc1)C(=O)NCC(=O)N1CCC[C@H]1C(=O)NCCCNC(=O)c1ccc(-c2c3nc(c(-c4ccc(S(=O)(=O)[O-])cc4)c4ccc([nH]4)c(-c4ccc(S(=O)(=O)[O-])cc4)c4nc(c(-c5ccc(S(=O)(=O)[O-])cc5)c5ccc2[nH]5)C=C4)C=C3)cc1
REMARK SMILES IDX 20 1 21 2 22 3 23 4 24 5 18 6 19 7 17 8 16 9 14 10 15 11
REMARK SMILES IDX 2 13 1 14 3 15 4 16 5 18 6 19 7 20 8 21 9 22 13 23 10 24
REMARK SMILES IDX 12 25 11 26 25 27 26 28 27 29 28 31 29 32 30 33 31 34 32 35
REMARK SMILES IDX 33 37 34 38 35 39 93 40 36 41 92 42 37 43 38 44 39 45 86 46
REMARK SMILES IDX 40 47 91 48 85 49 87 50 41 51 90 52 84 53 83 54 42 56 72 57
REMARK SMILES IDX 53 58 71 59 54 60 57 61 70 62 88 63 55 64 56 65 69 67 89 68
REMARK SMILES IDX 58 69 43 70 44 71 52 72 45 73 51 74 46 75 47 76 48 77 49 78
REMARK SMILES IDX 50 79 73 80 74 81 82 82 75 83 81 84 76 85 77 86 78 87 79 88
REMARK SMILES IDX 80 89 59 90 60 91 68 92 61 93 67 94 62 95 63 96 64 97 65 98
REMARK SMILES IDX 66 99
REMARK H PARENT 16 12 3 17 27 30 31 36 87 55 57 66
REMARK Flexibility Score: inf
ROOT
ATOM      1  N   UNL     1      -1.257   1.511  -1.585  1.00  0.00    -0.329 N 
ATOM      2  C   UNL     1      -1.468   0.119  -1.905  1.00  0.00     0.120 C 
ATOM      3  C   UNL     1      -0.396  -0.186  -2.930  1.00  0.00     0.024 C 
ATOM      4  C   UNL     1      -0.260   1.115  -3.713  1.00  0.00     0.037 C 
ATOM      5  C   UNL     1      -0.706   2.232  -2.743  1.00  0.00     0.174 C 
ENDROOT
BRANCH   1   6
ATOM      6  C   UNL     1      -1.785   2.146  -0.483  1.00  0.00     0.242 C 
ATOM      7  O   UNL     1      -2.558   3.099  -0.570  1.00  0.00    -0.273 OA
BRANCH   6   8
ATOM      8  C   UNL     1      -1.237   1.747   0.890  1.00  0.00     0.216 C 
BRANCH   8   9
ATOM      9  N   UNL     1      -1.615   0.408   1.295  1.00  0.00    -0.345 N 
ATOM     10  C   UNL     1      -0.838  -0.656   1.646  1.00  0.00     0.242 C 
ATOM     11  O   UNL     1      -1.410  -1.708   1.944  1.00  0.00    -0.273 OA
ATOM     12  H   UNL     1      -2.584   0.240   1.323  1.00  0.00     0.164 HD
BRANCH  10  13
ATOM     13  C   UNL     1       0.697  -0.524   1.760  1.00  0.00     0.171 C 
ATOM     14  C   UNL     1       1.033   0.271   3.016  1.00  0.00     0.042 C 
BRANCH  13  15
ATOM     15  N   UNL     1       1.219  -0.025   0.490  1.00  0.00    -0.310 N 
ATOM     16  C   UNL     1       2.262   0.792   0.202  1.00  0.00     0.408 C 
ATOM     17  H   UNL     1       0.723  -0.340  -0.300  1.00  0.00     0.167 HD
ATOM     18  O   UNL     1       2.418   1.202  -0.943  1.00  0.00    -0.225 OA
BRANCH  16  19
ATOM     19  O   UNL     1       3.018   1.113   1.270  1.00  0.00    -0.445 OA
BRANCH  19  20
ATOM     20  C   UNL     1       4.044   2.088   1.029  1.00  0.00     0.270 C 
BRANCH  20  21
ATOM     21  C   UNL     1       5.249   1.517   0.324  1.00  0.00    -0.011 A 
ATOM     22  C   UNL     1       5.676   0.201   0.548  1.00  0.00     0.007 A 
ATOM     23  C   UNL     1       5.989   2.330  -0.546  1.00  0.00     0.007 A 
ATOM     24  C   UNL     1       6.798  -0.301  -0.113  1.00  0.00     0.000 A 
ATOM     25  C   UNL     1       7.113   1.829  -1.202  1.00  0.00     0.000 A 
ATOM     26  C   UNL     1       7.514   0.512  -0.989  1.00  0.00     0.000 A 
ENDBRANCH  20  21
ENDBRANCH  19  20
ENDBRANCH  16  19
ENDBRANCH  13  15
ENDBRANCH  10  13
ENDBRANCH   8   9
ENDBRANCH   6   8
ENDBRANCH   1   6
BRANCH   5  27
ATOM     27  C   UNL     1      -1.726   3.153  -3.443  1.00  0.00     0.242 C 
ATOM     28  O   UNL     1      -2.543   2.738  -4.269  1.00  0.00    -0.273 OA
ATOM     29  N   UNL     1      -1.774   4.476  -3.101  1.00  0.00    -0.354 N 
ATOM     30  H   UNL     1      -2.288   5.057  -3.707  1.00  0.00     0.163 HD
BRANCH  29  31
ATOM     31  C   UNL     1      -1.164   5.135  -1.958  1.00  0.00     0.117 C 
BRANCH  31  32
ATOM     32  C   UNL     1      -0.458   6.425  -2.325  1.00  0.00     0.042 C 
BRANCH  32  33
ATOM     33  C   UNL     1      -1.386   7.475  -2.917  1.00  0.00     0.118 C 
BRANCH  33  34
ATOM     34  N   UNL     1      -2.457   7.877  -2.010  1.00  0.00    -0.352 N 
ATOM     35  C   UNL     1      -2.723   9.098  -1.438  1.00  0.00     0.251 C 
ATOM     36  H   UNL     1      -3.088   7.160  -1.770  1.00  0.00     0.163 HD
ATOM     37  O   UNL     1      -3.587   9.196  -0.571  1.00  0.00    -0.269 OA
BRANCH  35  38
ATOM     38  C   UNL     1      -1.938  10.283  -1.839  1.00  0.00     0.039 A 
ATOM     39  C   UNL     1      -1.446  11.138  -0.850  1.00  0.00     0.014 A 
ATOM     40  C   UNL     1      -1.650  10.527  -3.183  1.00  0.00     0.014 A 
ATOM     41  C   UNL     1      -0.577  12.171  -1.203  1.00  0.00     0.010 A 
ATOM     42  C   UNL     1      -0.707  11.489  -3.522  1.00  0.00     0.010 A 
ATOM     43  C   UNL     1      -0.150  12.314  -2.534  1.00  0.00    -0.014 A 
BRANCH  43  44
ATOM     44  C   UNL     1       0.907  13.287  -2.909  1.00  0.00     0.031 A 
ATOM     45  C   UNL     1       0.613  14.383  -3.896  1.00  0.00     0.074 A 
ATOM     46  C   UNL     1       2.155  13.128  -2.425  1.00  0.00     0.049 A 
ATOM     47  N   UNL     1       1.427  15.271  -4.406  1.00  0.00    -0.248 NA
ATOM     48  C   UNL     1      -0.769  14.479  -4.395  1.00  0.00     0.031 C 
ATOM     49  C   UNL     1       2.577  12.077  -1.493  1.00  0.00     0.029 A 
ATOM     50  N   UNL     1       3.305  13.843  -2.654  1.00  0.00    -0.354 N 
ATOM     51  C   UNL     1       0.662  16.019  -5.293  1.00  0.00     0.074 A 
ATOM     52  C   UNL     1      -0.666  15.448  -5.293  1.00  0.00     0.031 C 
ATOM     53  C   UNL     1       3.879  12.235  -1.208  1.00  0.00     0.029 A 
ATOM     54  C   UNL     1       4.401  13.360  -1.976  1.00  0.00     0.049 A 
ATOM     55  H   UNL     1       3.342  14.627  -3.247  1.00  0.00     0.167 HD
ATOM     56  C   UNL     1       1.029  17.097  -6.027  1.00  0.00     0.031 A 
ATOM     57  C   UNL     1       5.687  13.764  -1.984  1.00  0.00     0.031 A 
ATOM     58  C   UNL     1       2.353  17.660  -6.021  1.00  0.00     0.049 A 
ATOM     59  C   UNL     1       6.078  14.938  -2.839  1.00  0.00     0.074 A 
ATOM     60  C   UNL     1       2.810  18.785  -6.685  1.00  0.00     0.029 A 
ATOM     61  N   UNL     1       3.435  17.137  -5.328  1.00  0.00    -0.354 N 
ATOM     62  N   UNL     1       5.321  15.683  -3.609  1.00  0.00    -0.248 NA
ATOM     63  C   UNL     1       7.494  15.327  -2.825  1.00  0.00     0.031 C 
ATOM     64  C   UNL     1       4.183  18.902  -6.449  1.00  0.00     0.029 A 
ATOM     65  C   UNL     1       4.568  17.893  -5.581  1.00  0.00     0.049 A 
ATOM     66  H   UNL     1       3.402  16.347  -4.742  1.00  0.00     0.167 HD
ATOM     67  C   UNL     1       6.166  16.641  -4.157  1.00  0.00     0.074 A 
ATOM     68  C   UNL     1       7.486  16.395  -3.611  1.00  0.00     0.031 C 
ATOM     69  C   UNL     1       5.877  17.632  -5.035  1.00  0.00     0.031 A 
BRANCH  56  70
ATOM     70  C   UNL     1      -0.016  17.733  -6.907  1.00  0.00    -0.014 A 
ATOM     71  C   UNL     1      -1.113  18.419  -6.355  1.00  0.00     0.010 A 
ATOM     72  C   UNL     1       0.127  17.686  -8.306  1.00  0.00     0.010 A 
ATOM     73  C   UNL     1      -2.068  19.012  -7.185  1.00  0.00     0.020 A 
ATOM     74  C   UNL     1      -0.809  18.306  -9.139  1.00  0.00     0.020 A 
ATOM     75  C   UNL     1      -1.910  18.951  -8.573  1.00  0.00     0.054 A 
BRANCH  75  76
ATOM     76  S   UNL     1      -3.151  19.756  -9.623  1.00  0.00     0.124 S 
ATOM     77  O   UNL     1      -4.310  18.886  -9.439  1.00  0.00    -0.237 OA
ATOM     78  O   UNL     1      -3.262  21.084  -9.024  1.00  0.00    -0.237 OA
ATOM     79  O   UNL     1      -2.554  19.724 -10.955  1.00  0.00    -0.744 OA
ENDBRANCH  75  76
ENDBRANCH  56  70
BRANCH  57  80
ATOM     80  C   UNL     1       6.698  13.046  -1.158  1.00  0.00    -0.014 A 
ATOM     81  C   UNL     1       7.290  13.673  -0.048  1.00  0.00     0.010 A 
ATOM     82  C   UNL     1       7.066  11.724  -1.472  1.00  0.00     0.010 A 
ATOM     83  C   UNL     1       8.242  12.998   0.723  1.00  0.00     0.020 A 
ATOM     84  C   UNL     1       7.992  11.035  -0.684  1.00  0.00     0.020 A 
ATOM     85  C   UNL     1       8.583  11.681   0.403  1.00  0.00     0.054 A 
BRANCH  85  86
ATOM     86  S   UNL     1       9.779  10.807   1.450  1.00  0.00     0.124 S 
ATOM     87  O   UNL     1      11.029  11.478   1.110  1.00  0.00    -0.237 OA
ATOM     88  O   UNL     1       9.266  11.065   2.794  1.00  0.00    -0.237 OA
ATOM     89  O   UNL     1       9.671   9.419   1.007  1.00  0.00    -0.744 OA
ENDBRANCH  85  86
ENDBRANCH  57  80
BRANCH  69  90
ATOM     90  C   UNL     1       7.002  18.541  -5.456  1.00  0.00    -0.014 A 
ATOM     91  C   UNL     1       8.021  18.085  -6.310  1.00  0.00     0.010 A 
ATOM     92  C   UNL     1       6.997  19.889  -5.051  1.00  0.00     0.010 A 
ATOM     93  C   UNL     1       9.026  18.956  -6.738  1.00  0.00     0.020 A 
ATOM     94  C   UNL     1       7.982  20.770  -5.502  1.00  0.00     0.020 A 
ATOM     95  C   UNL     1       8.996  20.296  -6.336  1.00  0.00     0.054 A 
BRANCH  95  96
ATOM     96  S   UNL     1      10.275  21.419  -6.963  1.00  0.00     0.124 S 
ATOM     97  O   UNL     1      11.463  20.956  -6.250  1.00  0.00    -0.237 OA
ATOM     98  O   UNL     1      10.258  21.150  -8.399  1.00  0.00    -0.237 OA
ATOM     99  O   UNL     1       9.794  22.743  -6.577  1.00  0.00    -0.744 OA
ENDBRANCH  95  96
ENDBRANCH  69  90
ENDBRANCH  43  44
ENDBRANCH  35  38
ENDBRANCH  33  34
ENDBRANCH  32  33
ENDBRANCH  31  32
ENDBRANCH  29  31
ENDBRANCH   5  27
TORSDOF 21
