REMARK SMILES CC(C)N(c1cc2c(cc1Cl)C=C(C(=O)NCCCNC(=O)c1ccc(-c3c4nc(c(-c5ccc(S(=O)(=O)[O-])cc5)c5ccc([nH]5)c(-c5ccc(S(=O)(=O)[O-])cc5)c5nc(c(-c6ccc(S(=O)(=O)[O-])cc6)c6ccc3[nH]6)C=C5)C=C4)cc1)[C@@H](C(F)(F)F)O2)C(C)C
REMARK SMILES IDX 18 1 17 2 16 3 14 4 15 5 13 7 5 8 6 9 10 10 7 11 9 12 11 13
REMARK SMILES IDX 8 14 88 15 12 16 83 17 4 18 2 19 1 20 3 21 89 22 90 23 91 24
REMARK SMILES IDX 84 25 85 26 86 27 87 28 19 29 20 30 21 31 22 33 23 34 24 35
REMARK SMILES IDX 82 36 25 37 81 38 26 39 27 40 28 41 75 42 29 43 80 44 74 45
REMARK SMILES IDX 76 46 30 47 79 48 73 49 72 50 31 52 61 53 42 54 60 55 43 56
REMARK SMILES IDX 46 57 59 58 77 59 44 60 45 61 58 63 78 64 47 65 32 66 33 67
REMARK SMILES IDX 41 68 34 69 40 70 35 71 36 72 37 73 38 74 39 75 62 76 63 77
REMARK SMILES IDX 71 78 64 79 70 80 65 81 66 82 67 83 68 84 69 85 48 86 49 87
REMARK SMILES IDX 57 88 50 89 56 90 51 91 52 92 53 93 54 94 55 95
REMARK H PARENT 16 6 20 32 76 51 46 62
REMARK Flexibility Score: inf
ROOT
ATOM      1  C   UNL     1      -7.721   6.896  -1.557  1.00  0.00     0.042 C 
ENDROOT
BRANCH   1   2
ATOM      2  C   UNL     1      -7.769   5.808  -2.619  1.00  0.00     0.118 C 
BRANCH   2   3
ATOM      3  N   UNL     1      -6.820   6.047  -3.694  1.00  0.00    -0.352 N 
ATOM      4  C   UNL     1      -5.631   5.544  -4.098  1.00  0.00     0.251 C 
ATOM      5  O   UNL     1      -5.170   6.052  -5.126  1.00  0.00    -0.270 OA
ATOM      6  H   UNL     1      -7.125   6.770  -4.289  1.00  0.00     0.163 HD
BRANCH   4   7
ATOM      7  C   UNL     1      -4.878   4.453  -3.415  1.00  0.00     0.067 C 
ATOM      8  C   UNL     1      -1.496   0.887  -2.174  1.00  0.00     0.060 A 
ATOM      9  C   UNL     1      -2.534   1.561  -1.499  1.00  0.00     0.074 A 
ATOM     10  C   UNL     1      -1.197   1.337  -3.483  1.00  0.00     0.065 A 
ATOM     11  C   UNL     1      -3.263   2.582  -2.109  1.00  0.00     0.130 A 
ATOM     12  C   UNL     1      -1.892   2.410  -4.068  1.00  0.00     0.034 A 
ATOM     13  Cl  UNL     1      -0.043   0.553  -4.513  1.00  0.00    -0.082 Cl
ATOM     14  C   UNL     1      -2.937   3.025  -3.386  1.00  0.00     0.019 A 
ATOM     15  O   UNL     1      -4.295   3.126  -1.395  1.00  0.00    -0.475 OA
ATOM     16  C   UNL     1      -3.700   4.118  -3.975  1.00  0.00     0.025 C 
ATOM     17  C   UNL     1      -5.361   3.708  -2.201  1.00  0.00     0.314 C 
BRANCH   8  18
ATOM     18  N   UNL     1      -0.851  -0.191  -1.532  1.00  0.00    -0.365 N 
BRANCH  18  19
ATOM     19  C   UNL     1       0.620  -0.109  -1.388  1.00  0.00     0.076 C 
ATOM     20  C   UNL     1       1.068   0.176   0.045  1.00  0.00     0.030 C 
ATOM     21  C   UNL     1       1.346  -1.329  -1.949  1.00  0.00     0.030 C 
ENDBRANCH  18  19
BRANCH  18  22
ATOM     22  C   UNL     1      -1.731  -1.228  -0.945  1.00  0.00     0.076 C 
ATOM     23  C   UNL     1      -1.545  -2.594  -1.601  1.00  0.00     0.030 C 
ATOM     24  C   UNL     1      -1.642  -1.323   0.574  1.00  0.00     0.030 C 
ENDBRANCH  18  22
ENDBRANCH   8  18
BRANCH  17  25
ATOM     25  C   UNL     1      -6.400   2.622  -2.554  1.00  0.00     0.429 C 
ATOM     26  F   UNL     1      -7.082   2.236  -1.448  1.00  0.00    -0.167 F 
ATOM     27  F   UNL     1      -7.326   3.059  -3.442  1.00  0.00    -0.167 F 
ATOM     28  F   UNL     1      -5.843   1.514  -3.093  1.00  0.00    -0.167 F 
ENDBRANCH  17  25
ENDBRANCH   4   7
ENDBRANCH   2   3
ENDBRANCH   1   2
BRANCH   1  29
ATOM     29  C   UNL     1      -8.441   8.170  -1.980  1.00  0.00     0.118 C 
BRANCH  29  30
ATOM     30  N   UNL     1      -9.885   7.981  -2.119  1.00  0.00    -0.352 N 
ATOM     31  C   UNL     1     -10.930   8.612  -1.485  1.00  0.00     0.251 C 
ATOM     32  H   UNL     1     -10.151   7.291  -2.769  1.00  0.00     0.163 HD
ATOM     33  O   UNL     1     -12.072   8.180  -1.620  1.00  0.00    -0.269 OA
BRANCH  31  34
ATOM     34  C   UNL     1     -10.674   9.784  -0.623  1.00  0.00     0.039 A 
ATOM     35  C   UNL     1      -9.750  10.753  -1.009  1.00  0.00     0.014 A 
ATOM     36  C   UNL     1     -11.343   9.903   0.600  1.00  0.00     0.014 A 
ATOM     37  C   UNL     1      -9.334  11.705  -0.090  1.00  0.00     0.010 A 
ATOM     38  C   UNL     1     -11.004  10.936   1.479  1.00  0.00     0.010 A 
ATOM     39  C   UNL     1      -9.949  11.807   1.170  1.00  0.00    -0.014 A 
BRANCH  39  40
ATOM     40  C   UNL     1      -9.440  12.820   2.132  1.00  0.00     0.031 A 
ATOM     41  C   UNL     1      -8.806  12.403   3.433  1.00  0.00     0.074 A 
ATOM     42  C   UNL     1      -9.439  14.119   1.768  1.00  0.00     0.049 A 
ATOM     43  N   UNL     1      -8.197  13.146   4.322  1.00  0.00    -0.248 NA
ATOM     44  C   UNL     1      -8.861  10.976   3.787  1.00  0.00     0.031 C 
ATOM     45  C   UNL     1     -10.009  14.637   0.523  1.00  0.00     0.029 A 
ATOM     46  N   UNL     1      -8.887  15.223   2.367  1.00  0.00    -0.354 N 
ATOM     47  C   UNL     1      -7.806  12.283   5.339  1.00  0.00     0.074 A 
ATOM     48  C   UNL     1      -8.283  10.966   4.980  1.00  0.00     0.031 C 
ATOM     49  C   UNL     1      -9.687  15.931   0.399  1.00  0.00     0.029 A 
ATOM     50  C   UNL     1      -8.953  16.355   1.588  1.00  0.00     0.049 A 
ATOM     51  H   UNL     1      -8.485  15.207   3.265  1.00  0.00     0.167 HD
ATOM     52  C   UNL     1      -7.100  12.558   6.462  1.00  0.00     0.031 A 
ATOM     53  C   UNL     1      -8.467  17.596   1.790  1.00  0.00     0.031 A 
ATOM     54  C   UNL     1      -6.630  13.872   6.816  1.00  0.00     0.049 A 
ATOM     55  C   UNL     1      -7.697  17.884   3.043  1.00  0.00     0.074 A 
ATOM     56  C   UNL     1      -5.948  14.262   7.955  1.00  0.00     0.029 A 
ATOM     57  N   UNL     1      -6.778  15.005   6.030  1.00  0.00    -0.354 N 
ATOM     58  N   UNL     1      -7.378  17.061   4.013  1.00  0.00    -0.248 NA
ATOM     59  C   UNL     1      -7.220  19.260   3.234  1.00  0.00     0.031 C 
ATOM     60  C   UNL     1      -5.719  15.639   7.876  1.00  0.00     0.029 A 
ATOM     61  C   UNL     1      -6.201  16.095   6.659  1.00  0.00     0.049 A 
ATOM     62  H   UNL     1      -7.227  15.031   5.154  1.00  0.00     0.167 HD
ATOM     63  C   UNL     1      -6.658  17.817   4.930  1.00  0.00     0.074 A 
ATOM     64  C   UNL     1      -6.570  19.158   4.388  1.00  0.00     0.031 C 
ATOM     65  C   UNL     1      -6.124  17.429   6.114  1.00  0.00     0.031 A 
BRANCH  52  66
ATOM     66  C   UNL     1      -6.798  11.415   7.397  1.00  0.00    -0.014 A 
ATOM     67  C   UNL     1      -7.409  11.360   8.663  1.00  0.00     0.010 A 
ATOM     68  C   UNL     1      -5.868  10.418   7.046  1.00  0.00     0.010 A 
ATOM     69  C   UNL     1      -7.096  10.336   9.562  1.00  0.00     0.020 A 
ATOM     70  C   UNL     1      -5.573   9.376   7.930  1.00  0.00     0.020 A 
ATOM     71  C   UNL     1      -6.178   9.350   9.189  1.00  0.00     0.054 A 
BRANCH  71  72
ATOM     72  S   UNL     1      -5.812   8.001  10.347  1.00  0.00     0.124 S 
ATOM     73  O   UNL     1      -4.850   8.623  11.251  1.00  0.00    -0.237 OA
ATOM     74  O   UNL     1      -7.122   7.706  10.924  1.00  0.00    -0.237 OA
ATOM     75  O   UNL     1      -5.275   6.951   9.483  1.00  0.00    -0.744 OA
ENDBRANCH  71  72
ENDBRANCH  52  66
BRANCH  53  76
ATOM     76  C   UNL     1      -8.672  18.619   0.728  1.00  0.00    -0.014 A 
ATOM     77  C   UNL     1      -9.967  19.095   0.444  1.00  0.00     0.010 A 
ATOM     78  C   UNL     1      -7.605  18.999  -0.105  1.00  0.00     0.010 A 
ATOM     79  C   UNL     1     -10.206  19.859  -0.700  1.00  0.00     0.020 A 
ATOM     80  C   UNL     1      -7.837  19.790  -1.235  1.00  0.00     0.020 A 
ATOM     81  C   UNL     1      -9.142  20.180  -1.546  1.00  0.00     0.054 A 
BRANCH  81  82
ATOM     82  S   UNL     1      -9.492  21.077  -3.084  1.00  0.00     0.124 S 
ATOM     83  O   UNL     1     -10.035  20.016  -3.929  1.00  0.00    -0.237 OA
ATOM     84  O   UNL     1     -10.450  22.091  -2.653  1.00  0.00    -0.237 OA
ATOM     85  O   UNL     1      -8.184  21.589  -3.485  1.00  0.00    -0.744 OA
ENDBRANCH  81  82
ENDBRANCH  53  76
BRANCH  65  86
ATOM     86  C   UNL     1      -5.386  18.459   6.927  1.00  0.00    -0.014 A 
ATOM     87  C   UNL     1      -3.993  18.346   7.090  1.00  0.00     0.010 A 
ATOM     88  C   UNL     1      -6.081  19.458   7.630  1.00  0.00     0.010 A 
ATOM     89  C   UNL     1      -3.311  19.195   7.963  1.00  0.00     0.020 A 
ATOM     90  C   UNL     1      -5.397  20.326   8.486  1.00  0.00     0.020 A 
ATOM     91  C   UNL     1      -4.020  20.173   8.665  1.00  0.00     0.054 A 
BRANCH  91  92
ATOM     92  S   UNL     1      -3.123  21.250   9.817  1.00  0.00     0.124 S 
ATOM     93  O   UNL     1      -2.969  20.389  10.986  1.00  0.00    -0.237 OA
ATOM     94  O   UNL     1      -1.892  21.548   9.088  1.00  0.00    -0.237 OA
ATOM     95  O   UNL     1      -4.024  22.387   9.992  1.00  0.00    -0.744 OA
ENDBRANCH  91  92
ENDBRANCH  65  86
ENDBRANCH  39  40
ENDBRANCH  31  34
ENDBRANCH  29  30
ENDBRANCH   1  29
TORSDOF 17
