REMARK SMILES COc1ccc(C(=O)SC[C@H]([NH3+])C(=O)NCCCNC(=O)c2ccc(-c3c4nc(c(-c5ccc(S(=O)(=O)[O-])cc5)c5ccc([nH]5)c(-c5ccc(S(=O)(=O)[O-])cc5)c5nc(c(-c6ccc(S(=O)(=O)[O-])cc6)c6ccc3[nH]6)C=C5)C=C4)cc2)cc1
REMARK SMILES IDX 16 1 15 2 13 3 14 4 11 6 10 7 9 8 7 9 8 10 6 11 3 12 4 13
REMARK SMILES IDX 83 14 5 15 82 16 2 17 1 18 12 19 17 23 18 24 19 25 20 26
REMARK SMILES IDX 21 28 22 29 23 30 81 31 24 32 80 33 25 34 26 35 27 36 74 37
REMARK SMILES IDX 28 38 79 39 73 40 75 41 29 42 78 43 72 44 71 45 30 47 60 48
REMARK SMILES IDX 41 49 59 50 42 51 45 52 58 53 76 54 43 55 44 56 57 58 77 59
REMARK SMILES IDX 46 60 31 61 32 62 40 63 33 64 39 65 34 66 35 67 36 68 37 69
REMARK SMILES IDX 38 70 61 71 62 72 70 73 63 74 69 75 64 76 65 77 66 78 67 79
REMARK SMILES IDX 68 80 47 81 48 82 56 83 49 84 55 85 50 86 51 87 52 88 53 89
REMARK SMILES IDX 54 90
REMARK H PARENT 15 5 12 20 12 21 12 22 19 27 75 46 45 57
REMARK Flexibility Score: inf
ROOT
ATOM      1  C   UNL     1       1.759   3.078  10.478  1.00  0.00     0.118 C 
ENDROOT
BRANCH   1   2
ATOM      2  N   UNL     1       2.704   4.154  10.717  1.00  0.00    -0.351 N 
ATOM      3  C   UNL     1       3.607   4.727   9.873  1.00  0.00     0.279 C 
ATOM      4  O   UNL     1       4.384   5.562  10.345  1.00  0.00    -0.268 OA
ATOM      5  H   UNL     1       2.690   4.527  11.628  1.00  0.00     0.163 HD
BRANCH   3   6
ATOM      6  C   UNL     1       3.649   4.363   8.380  1.00  0.00     0.281 C 
BRANCH   6   7
ATOM      7  C   UNL     1       2.347   4.813   7.697  1.00  0.00     0.153 C 
BRANCH   7   8
ATOM      8  S   UNL     1       2.447   4.750   5.881  1.00  0.00    -0.076 SA
BRANCH   8   9
ATOM      9  C   UNL     1       3.239   6.290   5.591  1.00  0.00     0.219 C 
ATOM     10  O   UNL     1       3.706   6.948   6.514  1.00  0.00    -0.282 OA
BRANCH   9  11
ATOM     11  C   UNL     1       3.340   6.778   4.188  1.00  0.00     0.029 A 
ATOM     12  C   UNL     1       3.602   7.817   1.590  1.00  0.00     0.118 A 
ATOM     13  C   UNL     1       4.254   8.428   2.660  1.00  0.00     0.047 A 
ATOM     14  C   UNL     1       2.834   6.675   1.813  1.00  0.00     0.047 A 
ATOM     15  C   UNL     1       4.116   7.921   3.953  1.00  0.00     0.016 A 
ATOM     16  C   UNL     1       2.701   6.158   3.106  1.00  0.00     0.016 A 
BRANCH  12  17
ATOM     17  O   UNL     1       3.814   8.392   0.368  1.00  0.00    -0.497 OA
ATOM     18  C   UNL     1       2.757   8.230  -0.572  1.00  0.00     0.278 C 
ENDBRANCH  12  17
ENDBRANCH   9  11
ENDBRANCH   8   9
ENDBRANCH   7   8
ENDBRANCH   6   7
BRANCH   6  19
ATOM     19  N   UNL     1       3.955   2.922   8.210  1.00  0.00    -0.347 N 
ATOM     20  H   UNL     1       3.228   2.365   8.658  1.00  0.00     0.345 HD
ATOM     21  H   UNL     1       4.856   2.713   8.638  1.00  0.00     0.345 HD
ATOM     22  H   UNL     1       3.990   2.698   7.215  1.00  0.00     0.345 HD
ENDBRANCH   6  19
ENDBRANCH   3   6
ENDBRANCH   1   2
BRANCH   1  23
ATOM     23  C   UNL     1       2.123   1.808  11.229  1.00  0.00     0.042 C 
BRANCH  23  24
ATOM     24  C   UNL     1       2.161   1.969  12.742  1.00  0.00     0.118 C 
BRANCH  24  25
ATOM     25  N   UNL     1       0.894   2.429  13.294  1.00  0.00    -0.352 N 
ATOM     26  C   UNL     1       0.059   1.851  14.216  1.00  0.00     0.251 C 
ATOM     27  H   UNL     1       0.588   3.299  12.950  1.00  0.00     0.163 HD
ATOM     28  O   UNL     1      -1.056   2.336  14.396  1.00  0.00    -0.269 OA
BRANCH  26  29
ATOM     29  C   UNL     1       0.474   0.649  14.971  1.00  0.00     0.039 A 
ATOM     30  C   UNL     1      -0.482  -0.334  15.237  1.00  0.00     0.014 A 
ATOM     31  C   UNL     1       1.781   0.491  15.440  1.00  0.00     0.014 A 
ATOM     32  C   UNL     1      -0.111  -1.495  15.917  1.00  0.00     0.010 A 
ATOM     33  C   UNL     1       2.172  -0.710  16.027  1.00  0.00     0.010 A 
ATOM     34  C   UNL     1       1.228  -1.714  16.282  1.00  0.00    -0.014 A 
BRANCH  34  35
ATOM     35  C   UNL     1       1.639  -2.999  16.903  1.00  0.00     0.031 A 
ATOM     36  C   UNL     1       2.220  -3.043  18.290  1.00  0.00     0.074 A 
ATOM     37  C   UNL     1       1.516  -4.137  16.192  1.00  0.00     0.049 A 
ATOM     38  N   UNL     1       2.566  -4.084  19.004  1.00  0.00    -0.248 NA
ATOM     39  C   UNL     1       2.471  -1.753  18.952  1.00  0.00     0.031 C 
ATOM     40  C   UNL     1       1.040  -4.220  14.809  1.00  0.00     0.029 A 
ATOM     41  N   UNL     1       1.771  -5.441  16.533  1.00  0.00    -0.354 N 
ATOM     42  C   UNL     1       3.082  -3.577  20.191  1.00  0.00     0.074 A 
ATOM     43  C   UNL     1       3.062  -2.135  20.074  1.00  0.00     0.031 C 
ATOM     44  C   UNL     1       0.991  -5.508  14.437  1.00  0.00     0.029 A 
ATOM     45  C   UNL     1       1.468  -6.339  15.538  1.00  0.00     0.049 A 
ATOM     46  H   UNL     1       2.136  -5.708  17.408  1.00  0.00     0.167 HD
ATOM     47  C   UNL     1       3.515  -4.248  21.287  1.00  0.00     0.031 A 
ATOM     48  C   UNL     1       1.555  -7.683  15.509  1.00  0.00     0.031 A 
ATOM     49  C   UNL     1       3.548  -5.684  21.390  1.00  0.00     0.049 A 
ATOM     50  C   UNL     1       2.016  -8.411  16.739  1.00  0.00     0.074 A 
ATOM     51  C   UNL     1       3.908  -6.463  22.476  1.00  0.00     0.029 A 
ATOM     52  N   UNL     1       3.224  -6.561  20.363  1.00  0.00    -0.354 N 
ATOM     53  N   UNL     1       2.409  -7.917  17.889  1.00  0.00    -0.248 NA
ATOM     54  C   UNL     1       2.021  -9.877  16.674  1.00  0.00     0.031 C 
ATOM     55  C   UNL     1       3.866  -7.806  22.085  1.00  0.00     0.029 A 
ATOM     56  C   UNL     1       3.406  -7.870  20.779  1.00  0.00     0.049 A 
ATOM     57  H   UNL     1       2.910  -6.291  19.469  1.00  0.00     0.167 HD
ATOM     58  C   UNL     1       2.691  -9.014  18.695  1.00  0.00     0.074 A 
ATOM     59  C   UNL     1       2.401 -10.195  17.905  1.00  0.00     0.031 C 
ATOM     60  C   UNL     1       3.144  -9.040  19.974  1.00  0.00     0.031 A 
BRANCH  47  61
ATOM     61  C   UNL     1       4.014  -3.423  22.449  1.00  0.00    -0.014 A 
ATOM     62  C   UNL     1       3.148  -2.587  23.182  1.00  0.00     0.010 A 
ATOM     63  C   UNL     1       5.370  -3.482  22.816  1.00  0.00     0.010 A 
ATOM     64  C   UNL     1       3.642  -1.777  24.208  1.00  0.00     0.020 A 
ATOM     65  C   UNL     1       5.862  -2.700  23.866  1.00  0.00     0.020 A 
ATOM     66  C   UNL     1       5.000  -1.831  24.537  1.00  0.00     0.054 A 
BRANCH  66  67
ATOM     67  S   UNL     1       5.619  -0.753  25.857  1.00  0.00     0.124 S 
ATOM     68  O   UNL     1       5.581   0.559  25.216  1.00  0.00    -0.237 OA
ATOM     69  O   UNL     1       4.642  -0.958  26.924  1.00  0.00    -0.237 OA
ATOM     70  O   UNL     1       6.956  -1.273  26.132  1.00  0.00    -0.744 OA
ENDBRANCH  66  67
ENDBRANCH  47  61
BRANCH  48  71
ATOM     71  C   UNL     1       1.160  -8.409  14.272  1.00  0.00    -0.014 A 
ATOM     72  C   UNL     1      -0.038  -9.142  14.219  1.00  0.00     0.010 A 
ATOM     73  C   UNL     1       1.948  -8.302  13.111  1.00  0.00     0.010 A 
ATOM     74  C   UNL     1      -0.444  -9.748  13.026  1.00  0.00     0.020 A 
ATOM     75  C   UNL     1       1.532  -8.881  11.910  1.00  0.00     0.020 A 
ATOM     76  C   UNL     1       0.337  -9.603  11.875  1.00  0.00     0.054 A 
BRANCH  76  77
ATOM     77  S   UNL     1      -0.263 -10.306  10.314  1.00  0.00     0.124 S 
ATOM     78  O   UNL     1      -0.082 -11.737  10.535  1.00  0.00    -0.237 OA
ATOM     79  O   UNL     1      -1.648  -9.842  10.273  1.00  0.00    -0.237 OA
ATOM     80  O   UNL     1       0.615  -9.711   9.310  1.00  0.00    -0.744 OA
ENDBRANCH  76  77
ENDBRANCH  48  71
BRANCH  60  81
ATOM     81  C   UNL     1       3.334 -10.395  20.608  1.00  0.00    -0.014 A 
ATOM     82  C   UNL     1       4.346 -11.273  20.177  1.00  0.00     0.010 A 
ATOM     83  C   UNL     1       2.492 -10.790  21.664  1.00  0.00     0.010 A 
ATOM     84  C   UNL     1       4.474 -12.541  20.751  1.00  0.00     0.020 A 
ATOM     85  C   UNL     1       2.639 -12.043  22.264  1.00  0.00     0.020 A 
ATOM     86  C   UNL     1       3.614 -12.920  21.787  1.00  0.00     0.054 A 
BRANCH  86  87
ATOM     87  S   UNL     1       3.799 -14.571  22.515  1.00  0.00     0.124 S 
ATOM     88  O   UNL     1       3.266 -15.429  21.461  1.00  0.00    -0.237 OA
ATOM     89  O   UNL     1       5.240 -14.665  22.735  1.00  0.00    -0.237 OA
ATOM     90  O   UNL     1       2.992 -14.505  23.732  1.00  0.00    -0.744 OA
ENDBRANCH  86  87
ENDBRANCH  60  81
ENDBRANCH  34  35
ENDBRANCH  26  29
ENDBRANCH  24  25
ENDBRANCH  23  24
ENDBRANCH   1  23
TORSDOF 19
