REMARK SMILES CC(C)c1noc(C[N@H+]2CCCC[C@H]2C(=O)NCCCNC(=O)c2ccc(-c3c4nc(c(-c5ccc(S(=O)(=O)[O-])cc5)c5ccc([nH]5)c(-c5ccc(S(=O)(=O)[O-])cc5)c5nc(c(-c6ccc(S(=O)(=O)[O-])cc6)c6ccc3[nH]6)C=C5)C=C4)cc2)n1
REMARK SMILES IDX 19 1 18 2 17 3 15 4 16 5 14 7 9 8 10 9 11 11 13 12 12 13
REMARK SMILES IDX 8 14 7 15 4 16 5 17 84 18 6 19 2 20 1 21 3 22 20 23 21 24
REMARK SMILES IDX 22 25 23 27 24 28 25 29 83 30 26 31 82 32 27 33 28 34 29 35
REMARK SMILES IDX 76 36 30 37 81 38 75 39 77 40 31 41 80 42 74 43 73 44 32 46
REMARK SMILES IDX 62 47 43 48 61 49 44 50 47 51 60 52 78 53 45 54 46 55 59 57
REMARK SMILES IDX 79 58 48 59 33 60 34 61 42 62 35 63 41 64 36 65 37 66 38 67
REMARK SMILES IDX 39 68 40 69 63 70 64 71 72 72 65 73 71 74 66 75 67 76 68 77
REMARK SMILES IDX 69 78 70 79 49 80 50 81 58 82 51 83 57 84 52 85 53 86 54 87
REMARK SMILES IDX 55 88 56 89
REMARK H PARENT 17 6 9 10 21 26 77 45 47 56
REMARK Flexibility Score: inf
ROOT
ATOM      1  C   UNL     1      -5.395   5.112   2.947  1.00  0.00     0.042 C 
ENDROOT
BRANCH   1   2
ATOM      2  C   UNL     1      -5.263   4.052   1.853  1.00  0.00     0.118 C 
BRANCH   2   3
ATOM      3  N   UNL     1      -4.139   3.182   2.128  1.00  0.00    -0.351 N 
ATOM      4  C   UNL     1      -4.136   1.973   2.755  1.00  0.00     0.278 C 
ATOM      5  O   UNL     1      -3.124   1.687   3.395  1.00  0.00    -0.268 OA
ATOM      6  H   UNL     1      -3.262   3.507   1.821  1.00  0.00     0.163 HD
BRANCH   4   7
ATOM      7  C   UNL     1      -5.354   1.030   2.581  1.00  0.00     0.274 C 
ATOM      8  N   UNL     1      -4.988  -0.403   2.424  1.00  0.00    -0.317 N 
ATOM      9  C   UNL     1      -4.368  -0.991   3.614  1.00  0.00     0.263 C 
ATOM     10  H   UNL     1      -5.891  -0.869   2.333  1.00  0.00     0.349 HD
ATOM     11  C   UNL     1      -5.255  -0.815   4.852  1.00  0.00     0.062 C 
ATOM     12  C   UNL     1      -6.321   1.184   3.759  1.00  0.00     0.076 C 
ATOM     13  C   UNL     1      -5.737   0.618   5.050  1.00  0.00     0.012 C 
BRANCH   8  14
ATOM     14  C   UNL     1      -4.290  -0.737   1.166  1.00  0.00     0.364 C 
BRANCH  14  15
ATOM     15  C   UNL     1      -2.982  -0.076   0.892  1.00  0.00     0.281 A 
ATOM     16  C   UNL     1      -1.029   0.658   0.770  1.00  0.00     0.174 A 
ATOM     17  N   UNL     1      -1.718   1.496  -0.018  1.00  0.00    -0.062 NA
ATOM     18  N   UNL     1      -1.769  -0.367   1.310  1.00  0.00    -0.191 NA
ATOM     19  O   UNL     1      -3.022   1.011   0.065  1.00  0.00    -0.333 OA
BRANCH  16  20
ATOM     20  C   UNL     1       0.447   0.754   0.975  1.00  0.00     0.055 C 
ATOM     21  C   UNL     1       1.181  -0.107  -0.054  1.00  0.00     0.016 C 
ATOM     22  C   UNL     1       0.973   2.192   0.938  1.00  0.00     0.016 C 
ENDBRANCH  16  20
ENDBRANCH  14  15
ENDBRANCH   8  14
ENDBRANCH   4   7
ENDBRANCH   2   3
ENDBRANCH   1   2
BRANCH   1  23
ATOM     23  C   UNL     1      -4.138   5.955   3.170  1.00  0.00     0.118 C 
BRANCH  23  24
ATOM     24  N   UNL     1      -3.740   6.707   1.989  1.00  0.00    -0.352 N 
ATOM     25  C   UNL     1      -3.455   8.043   1.856  1.00  0.00     0.251 C 
ATOM     26  H   UNL     1      -3.663   6.178   1.162  1.00  0.00     0.163 HD
ATOM     27  O   UNL     1      -3.288   8.516   0.733  1.00  0.00    -0.269 OA
BRANCH  25  28
ATOM     28  C   UNL     1      -3.379   8.919   3.046  1.00  0.00     0.039 A 
ATOM     29  C   UNL     1      -3.989  10.175   2.992  1.00  0.00     0.014 A 
ATOM     30  C   UNL     1      -2.704   8.521   4.204  1.00  0.00     0.014 A 
ATOM     31  C   UNL     1      -3.981  11.001   4.119  1.00  0.00     0.010 A 
ATOM     32  C   UNL     1      -2.758   9.317   5.349  1.00  0.00     0.010 A 
ATOM     33  C   UNL     1      -3.400  10.563   5.321  1.00  0.00    -0.014 A 
BRANCH  33  34
ATOM     34  C   UNL     1      -3.485  11.390   6.556  1.00  0.00     0.031 A 
ATOM     35  C   UNL     1      -2.238  11.931   7.205  1.00  0.00     0.074 A 
ATOM     36  C   UNL     1      -4.689  11.620   7.119  1.00  0.00     0.049 A 
ATOM     37  N   UNL     1      -2.121  12.640   8.299  1.00  0.00    -0.248 NA
ATOM     38  C   UNL     1      -0.955  11.622   6.552  1.00  0.00     0.031 C 
ATOM     39  C   UNL     1      -5.971  11.124   6.610  1.00  0.00     0.029 A 
ATOM     40  N   UNL     1      -5.034  12.328   8.244  1.00  0.00    -0.354 N 
ATOM     41  C   UNL     1      -0.758  12.858   8.468  1.00  0.00     0.074 A 
ATOM     42  C   UNL     1      -0.084  12.163   7.394  1.00  0.00     0.031 C 
ATOM     43  C   UNL     1      -6.961  11.568   7.401  1.00  0.00     0.029 A 
ATOM     44  C   UNL     1      -6.386  12.338   8.499  1.00  0.00     0.049 A 
ATOM     45  H   UNL     1      -4.375  12.785   8.815  1.00  0.00     0.167 HD
ATOM     46  C   UNL     1      -0.126  13.588   9.419  1.00  0.00     0.031 A 
ATOM     47  C   UNL     1      -7.087  12.893   9.507  1.00  0.00     0.031 A 
ATOM     48  C   UNL     1      -0.798  14.282  10.487  1.00  0.00     0.049 A 
ATOM     49  C   UNL     1      -6.355  13.668  10.570  1.00  0.00     0.074 A 
ATOM     50  C   UNL     1      -0.244  15.080  11.474  1.00  0.00     0.029 A 
ATOM     51  N   UNL     1      -2.166  14.261  10.713  1.00  0.00    -0.354 N 
ATOM     52  N   UNL     1      -5.071  13.915  10.673  1.00  0.00    -0.248 NA
ATOM     53  C   UNL     1      -7.169  14.251  11.646  1.00  0.00     0.031 C 
ATOM     54  C   UNL     1      -1.270  15.494  12.330  1.00  0.00     0.029 A 
ATOM     55  C   UNL     1      -2.471  15.011  11.837  1.00  0.00     0.049 A 
ATOM     56  H   UNL     1      -2.823  13.784  10.156  1.00  0.00     0.167 HD
ATOM     57  C   UNL     1      -4.929  14.708  11.807  1.00  0.00     0.074 A 
ATOM     58  C   UNL     1      -6.258  14.917  12.341  1.00  0.00     0.031 C 
ATOM     59  C   UNL     1      -3.799  15.217  12.357  1.00  0.00     0.031 A 
BRANCH  46  60
ATOM     60  C   UNL     1       1.377  13.683   9.350  1.00  0.00    -0.014 A 
ATOM     61  C   UNL     1       2.009  14.421   8.333  1.00  0.00     0.010 A 
ATOM     62  C   UNL     1       2.164  13.094  10.357  1.00  0.00     0.010 A 
ATOM     63  C   UNL     1       3.401  14.546   8.309  1.00  0.00     0.020 A 
ATOM     64  C   UNL     1       3.555  13.242  10.353  1.00  0.00     0.020 A 
ATOM     65  C   UNL     1       4.165  13.959   9.322  1.00  0.00     0.054 A 
BRANCH  65  66
ATOM     66  S   UNL     1       5.964  14.184   9.291  1.00  0.00     0.124 S 
ATOM     67  O   UNL     1       6.352  13.363   8.147  1.00  0.00    -0.237 OA
ATOM     68  O   UNL     1       6.102  15.626   9.104  1.00  0.00    -0.237 OA
ATOM     69  O   UNL     1       6.400  13.683  10.592  1.00  0.00    -0.744 OA
ENDBRANCH  65  66
ENDBRANCH  46  60
BRANCH  47  70
ATOM     70  C   UNL     1      -8.568  12.736   9.571  1.00  0.00    -0.014 A 
ATOM     71  C   UNL     1      -9.416  13.848   9.413  1.00  0.00     0.010 A 
ATOM     72  C   UNL     1      -9.139  11.474   9.818  1.00  0.00     0.010 A 
ATOM     73  C   UNL     1     -10.801  13.707   9.541  1.00  0.00     0.020 A 
ATOM     74  C   UNL     1     -10.525  11.323   9.912  1.00  0.00     0.020 A 
ATOM     75  C   UNL     1     -11.347  12.445   9.793  1.00  0.00     0.054 A 
BRANCH  75  76
ATOM     76  S   UNL     1     -13.148  12.282   9.940  1.00  0.00     0.124 S 
ATOM     77  O   UNL     1     -13.402  12.899  11.238  1.00  0.00    -0.237 OA
ATOM     78  O   UNL     1     -13.627  13.027   8.778  1.00  0.00    -0.237 OA
ATOM     79  O   UNL     1     -13.366  10.839   9.878  1.00  0.00    -0.744 OA
ENDBRANCH  75  76
ENDBRANCH  47  70
BRANCH  59  80
ATOM     80  C   UNL     1      -3.951  16.088  13.578  1.00  0.00    -0.014 A 
ATOM     81  C   UNL     1      -4.336  15.551  14.819  1.00  0.00     0.010 A 
ATOM     82  C   UNL     1      -3.662  17.463  13.488  1.00  0.00     0.010 A 
ATOM     83  C   UNL     1      -4.467  16.379  15.938  1.00  0.00     0.020 A 
ATOM     84  C   UNL     1      -3.760  18.288  14.611  1.00  0.00     0.020 A 
ATOM     85  C   UNL     1      -4.178  17.743  15.826  1.00  0.00     0.054 A 
BRANCH  85  86
ATOM     86  S   UNL     1      -4.322  18.788  17.301  1.00  0.00     0.124 S 
ATOM     87  O   UNL     1      -5.769  18.870  17.476  1.00  0.00    -0.237 OA
ATOM     88  O   UNL     1      -3.609  18.013  18.313  1.00  0.00    -0.237 OA
ATOM     89  O   UNL     1      -3.671  20.036  16.907  1.00  0.00    -0.744 OA
ENDBRANCH  85  86
ENDBRANCH  59  80
ENDBRANCH  33  34
ENDBRANCH  25  28
ENDBRANCH  23  24
ENDBRANCH   1  23
TORSDOF 16
