REMARK SMILES C[C@H]1CCC[C@]1(C(=O)NCCCNC(=O)c1ccc(-c2c3nc(c(-c4ccc(S(=O)(=O)[O-])cc4)c4ccc([nH]4)c(-c4ccc(S(=O)(=O)[O-])cc4)c4nc(c(-c5ccc(S(=O)(=O)[O-])cc5)c5ccc2[nH]5)C=C4)C=C3)cc1)c1ccc2c(c1)OCO2
REMARK SMILES IDX 12 1 11 2 10 3 9 4 7 5 8 6 6 8 1 9 2 10 3 11 4 12 5 13 76 14
REMARK SMILES IDX 77 15 81 16 78 17 80 18 79 19 82 20 84 21 83 22 13 23 14 24
REMARK SMILES IDX 15 26 16 27 17 28 75 29 18 30 74 31 19 32 20 33 21 34 68 35
REMARK SMILES IDX 22 36 73 37 67 38 69 39 23 40 72 41 66 42 65 43 24 45 54 46
REMARK SMILES IDX 35 47 53 48 36 49 39 50 52 51 70 52 37 53 38 54 51 56 71 57
REMARK SMILES IDX 40 58 25 59 26 60 34 61 27 62 33 63 28 64 29 65 30 66 31 67
REMARK SMILES IDX 32 68 55 69 56 70 64 71 57 72 63 73 58 74 59 75 60 76 61 77
REMARK SMILES IDX 62 78 41 79 42 80 50 81 43 82 49 83 44 84 45 85 46 86 47 87
REMARK SMILES IDX 48 88
REMARK H PARENT 9 7 13 25 69 44 39 55
REMARK Flexibility Score: inf
ROOT
ATOM      1  C   UNL     1      -1.668  -2.038   4.598  1.00  0.00     0.118 C 
ENDROOT
BRANCH   1   2
ATOM      2  C   UNL     1      -1.310  -2.016   3.123  1.00  0.00     0.042 C 
BRANCH   2   3
ATOM      3  C   UNL     1      -1.982  -0.888   2.357  1.00  0.00     0.117 C 
BRANCH   3   4
ATOM      4  N   UNL     1      -1.415   0.421   2.642  1.00  0.00    -0.355 N 
ATOM      5  C   UNL     1      -0.817   1.389   1.889  1.00  0.00     0.230 C 
ATOM      6  O   UNL     1      -0.719   2.467   2.487  1.00  0.00    -0.274 OA
ATOM      7  H   UNL     1      -1.478   0.663   3.594  1.00  0.00     0.163 HD
BRANCH   5   8
ATOM      8  C   UNL     1      -0.284   1.176   0.427  1.00  0.00     0.077 C 
ATOM      9  C   UNL     1       1.777  -0.013   1.557  1.00  0.00     0.009 C 
ATOM     10  C   UNL     1       0.883   0.129   0.330  1.00  0.00     0.006 C 
ATOM     11  C   UNL     1       0.265  -1.171  -0.166  1.00  0.00     0.005 C 
ATOM     12  C   UNL     1      -0.902  -0.726  -1.040  1.00  0.00     0.002 C 
ATOM     13  C   UNL     1      -1.431   0.585  -0.446  1.00  0.00     0.022 C 
BRANCH   8  14
ATOM     14  C   UNL     1       0.327   2.449  -0.263  1.00  0.00    -0.028 A 
ATOM     15  C   UNL     1       1.015   3.458   0.460  1.00  0.00     0.009 A 
ATOM     16  C   UNL     1       0.444   2.473  -1.675  1.00  0.00     0.055 A 
ATOM     17  C   UNL     1       1.798   4.432  -0.180  1.00  0.00     0.051 A 
ATOM     18  C   UNL     1       1.265   3.402  -2.272  1.00  0.00     0.166 A 
ATOM     19  C   UNL     1       1.934   4.351  -1.545  1.00  0.00     0.165 A 
ATOM     20  O   UNL     1       1.588   3.430  -3.593  1.00  0.00    -0.454 OA
ATOM     21  O   UNL     1       2.763   5.099  -2.322  1.00  0.00    -0.454 OA
ATOM     22  C   UNL     1       2.693   4.353  -3.556  1.00  0.00     0.468 C 
ENDBRANCH   8  14
ENDBRANCH   5   8
ENDBRANCH   3   4
ENDBRANCH   2   3
ENDBRANCH   1   2
BRANCH   1  23
ATOM     23  N   UNL     1      -3.077  -2.344   4.807  1.00  0.00    -0.352 N 
ATOM     24  C   UNL     1      -3.674  -3.473   5.311  1.00  0.00     0.251 C 
ATOM     25  H   UNL     1      -3.700  -1.627   4.546  1.00  0.00     0.163 HD
ATOM     26  O   UNL     1      -4.877  -3.641   5.138  1.00  0.00    -0.269 OA
BRANCH  24  27
ATOM     27  C   UNL     1      -2.880  -4.478   6.051  1.00  0.00     0.039 A 
ATOM     28  C   UNL     1      -3.211  -5.830   5.925  1.00  0.00     0.014 A 
ATOM     29  C   UNL     1      -1.841  -4.093   6.901  1.00  0.00     0.014 A 
ATOM     30  C   UNL     1      -2.467  -6.790   6.613  1.00  0.00     0.010 A 
ATOM     31  C   UNL     1      -1.033  -5.054   7.496  1.00  0.00     0.010 A 
ATOM     32  C   UNL     1      -1.353  -6.411   7.380  1.00  0.00    -0.014 A 
BRANCH  32  33
ATOM     33  C   UNL     1      -0.526  -7.426   8.078  1.00  0.00     0.031 A 
ATOM     34  C   UNL     1      -0.423  -7.425   9.579  1.00  0.00     0.074 A 
ATOM     35  C   UNL     1       0.164  -8.325   7.349  1.00  0.00     0.049 A 
ATOM     36  N   UNL     1       0.217  -8.257  10.361  1.00  0.00    -0.248 NA
ATOM     37  C   UNL     1      -1.100  -6.332  10.296  1.00  0.00     0.031 C 
ATOM     38  C   UNL     1       0.194  -8.383   5.885  1.00  0.00     0.029 A 
ATOM     39  N   UNL     1       0.959  -9.371   7.740  1.00  0.00    -0.354 N 
ATOM     40  C   UNL     1       0.031  -7.780  11.654  1.00  0.00     0.074 A 
ATOM     41  C   UNL     1      -0.724  -6.552  11.546  1.00  0.00     0.031 C 
ATOM     42  C   UNL     1       0.917  -9.447   5.503  1.00  0.00     0.029 A 
ATOM     43  C   UNL     1       1.430 -10.123   6.690  1.00  0.00     0.049 A 
ATOM     44  H   UNL     1       1.172  -9.565   8.681  1.00  0.00     0.167 HD
ATOM     45  C   UNL     1       0.430  -8.326  12.828  1.00  0.00     0.031 A 
ATOM     46  C   UNL     1       2.175 -11.244   6.685  1.00  0.00     0.031 A 
ATOM     47  C   UNL     1       1.178  -9.551  12.927  1.00  0.00     0.049 A 
ATOM     48  C   UNL     1       2.592 -11.845   7.996  1.00  0.00     0.074 A 
ATOM     49  C   UNL     1       1.580 -10.230  14.063  1.00  0.00     0.029 A 
ATOM     50  N   UNL     1       1.644 -10.280  11.841  1.00  0.00    -0.354 N 
ATOM     51  N   UNL     1       2.339 -11.424   9.213  1.00  0.00    -0.248 NA
ATOM     52  C   UNL     1       3.383 -13.079   7.932  1.00  0.00     0.031 C 
ATOM     53  C   UNL     1       2.334 -11.340  13.665  1.00  0.00     0.029 A 
ATOM     54  C   UNL     1       2.354 -11.385  12.279  1.00  0.00     0.049 A 
ATOM     55  H   UNL     1       1.492 -10.045  10.897  1.00  0.00     0.167 HD
ATOM     56  C   UNL     1       2.928 -12.352  10.063  1.00  0.00     0.074 A 
ATOM     57  C   UNL     1       3.527 -13.367   9.218  1.00  0.00     0.031 C 
ATOM     58  C   UNL     1       2.970 -12.365  11.420  1.00  0.00     0.031 A 
BRANCH  45  59
ATOM     59  C   UNL     1       0.071  -7.582  14.090  1.00  0.00    -0.014 A 
ATOM     60  C   UNL     1      -1.267  -7.460  14.511  1.00  0.00     0.010 A 
ATOM     61  C   UNL     1       1.083  -6.983  14.861  1.00  0.00     0.010 A 
ATOM     62  C   UNL     1      -1.592  -6.697  15.636  1.00  0.00     0.020 A 
ATOM     63  C   UNL     1       0.766  -6.245  16.006  1.00  0.00     0.020 A 
ATOM     64  C   UNL     1      -0.573  -6.085  16.370  1.00  0.00     0.054 A 
BRANCH  64  65
ATOM     65  S   UNL     1      -1.021  -5.082  17.814  1.00  0.00     0.124 S 
ATOM     66  O   UNL     1      -1.556  -3.876  17.187  1.00  0.00    -0.237 OA
ATOM     67  O   UNL     1      -2.002  -5.922  18.497  1.00  0.00    -0.237 OA
ATOM     68  O   UNL     1       0.245  -4.908  18.522  1.00  0.00    -0.744 OA
ENDBRANCH  64  65
ENDBRANCH  45  59
BRANCH  46  69
ATOM     69  C   UNL     1       2.513 -11.893   5.390  1.00  0.00    -0.014 A 
ATOM     70  C   UNL     1       1.873 -13.086   5.008  1.00  0.00     0.010 A 
ATOM     71  C   UNL     1       3.428 -11.294   4.505  1.00  0.00     0.010 A 
ATOM     72  C   UNL     1       2.140 -13.667   3.766  1.00  0.00     0.020 A 
ATOM     73  C   UNL     1       3.679 -11.859   3.252  1.00  0.00     0.020 A 
ATOM     74  C   UNL     1       3.036 -13.045   2.892  1.00  0.00     0.054 A 
BRANCH  74  75
ATOM     75  S   UNL     1       3.297 -13.769   1.248  1.00  0.00     0.124 S 
ATOM     76  O   UNL     1       4.102 -14.946   1.558  1.00  0.00    -0.237 OA
ATOM     77  O   UNL     1       1.932 -14.035   0.801  1.00  0.00    -0.237 OA
ATOM     78  O   UNL     1       3.988 -12.711   0.515  1.00  0.00    -0.744 OA
ENDBRANCH  74  75
ENDBRANCH  46  69
BRANCH  58  79
ATOM     79  C   UNL     1       3.690 -13.520  12.064  1.00  0.00    -0.014 A 
ATOM     80  C   UNL     1       5.090 -13.635  11.990  1.00  0.00     0.010 A 
ATOM     81  C   UNL     1       2.956 -14.498  12.758  1.00  0.00     0.010 A 
ATOM     82  C   UNL     1       5.738 -14.738  12.552  1.00  0.00     0.020 A 
ATOM     83  C   UNL     1       3.604 -15.586  13.348  1.00  0.00     0.020 A 
ATOM     84  C   UNL     1       4.989 -15.711  13.220  1.00  0.00     0.054 A 
BRANCH  84  85
ATOM     85  S   UNL     1       5.851 -17.133  13.943  1.00  0.00     0.124 S 
ATOM     86  O   UNL     1       6.151 -17.936  12.761  1.00  0.00    -0.237 OA
ATOM     87  O   UNL     1       7.004 -16.515  14.592  1.00  0.00    -0.237 OA
ATOM     88  O   UNL     1       4.865 -17.708  14.854  1.00  0.00    -0.744 OA
ENDBRANCH  84  85
ENDBRANCH  58  79
ENDBRANCH  32  33
ENDBRANCH  24  27
ENDBRANCH   1  23
TORSDOF 14
