REMARK SMILES O=C(NCCCNC(=O)c1ccc(-c2c3nc(c(-c4ccc(S(=O)(=O)[O-])cc4)c4ccc([nH]4)c(-c4ccc(S(=O)(=O)[O-])cc4)c4nc(c(-c5ccc(S(=O)(=O)[O-])cc5)c5ccc2[nH]5)C=C4)C=C3)cc1)c1ccc(Nc2ccnc(Cl)n2)cc1
REMARK SMILES IDX 5 1 4 2 3 3 1 4 2 5 70 7 71 8 83 9 72 10 82 11 73 12 74 13
REMARK SMILES IDX 75 15 76 16 81 17 77 18 79 19 78 20 80 21 6 22 7 23 8 24
REMARK SMILES IDX 9 26 10 27 11 28 69 29 12 30 68 31 13 32 14 33 15 34 62 35
REMARK SMILES IDX 16 36 67 37 61 38 63 39 17 40 66 41 60 42 59 43 18 45 48 46
REMARK SMILES IDX 29 47 47 48 30 49 33 50 46 51 64 52 31 53 32 54 45 56 65 57
REMARK SMILES IDX 34 58 19 59 20 60 28 61 21 62 27 63 22 64 23 65 24 66 25 67
REMARK SMILES IDX 26 68 49 69 50 70 58 71 51 72 57 73 52 74 53 75 54 76 55 77
REMARK SMILES IDX 56 78 35 79 36 80 44 81 37 82 43 83 38 84 39 85 40 86 41 87
REMARK SMILES IDX 42 88
REMARK H PARENT 3 6 74 14 7 25 63 44 33 55
REMARK Flexibility Score: inf
ROOT
ATOM      1  C   UNL     1       5.039  -0.954   2.075  1.00  0.00     0.042 C 
ENDROOT
BRANCH   1   2
ATOM      2  C   UNL     1       4.574  -1.070   0.633  1.00  0.00     0.118 C 
BRANCH   2   3
ATOM      3  N   UNL     1       3.124  -0.977   0.495  1.00  0.00    -0.352 N 
ATOM      4  O   UNL     1       1.135  -0.006   0.042  1.00  0.00    -0.269 OA
ATOM      5  C   UNL     1       2.357   0.001  -0.087  1.00  0.00     0.251 C 
ATOM      6  H   UNL     1       2.620  -1.731   0.878  1.00  0.00     0.163 HD
BRANCH   5   7
ATOM      7  C   UNL     1       3.002   1.072  -0.871  1.00  0.00     0.039 A 
ATOM      8  C   UNL     1       3.969   0.756  -1.821  1.00  0.00     0.016 A 
ATOM      9  C   UNL     1       2.643   2.404  -0.659  1.00  0.00     0.016 A 
ATOM     10  C   UNL     1       4.680   1.774  -2.446  1.00  0.00     0.027 A 
ATOM     11  C   UNL     1       3.330   3.423  -1.331  1.00  0.00     0.027 A 
ATOM     12  C   UNL     1       4.390   3.122  -2.200  1.00  0.00     0.040 A 
BRANCH  12  13
ATOM     13  N   UNL     1       5.114   4.170  -2.804  1.00  0.00    -0.340 N 
ATOM     14  H   UNL     1       4.874   5.077  -2.504  1.00  0.00     0.168 HD
BRANCH  13  15
ATOM     15  C   UNL     1       6.126   4.105  -3.770  1.00  0.00     0.135 A 
ATOM     16  C   UNL     1       6.026   3.269  -4.870  1.00  0.00     0.067 A 
ATOM     17  N   UNL     1       7.215   4.852  -3.547  1.00  0.00    -0.200 NA
ATOM     18  C   UNL     1       7.133   3.165  -5.678  1.00  0.00     0.118 A 
ATOM     19  C   UNL     1       8.232   4.664  -4.399  1.00  0.00     0.224 A 
ATOM     20  N   UNL     1       8.264   3.846  -5.460  1.00  0.00    -0.226 NA
ATOM     21  Cl  UNL     1       9.661   5.541  -4.079  1.00  0.00    -0.041 Cl
ENDBRANCH  13  15
ENDBRANCH  12  13
ENDBRANCH   5   7
ENDBRANCH   2   3
ENDBRANCH   1   2
BRANCH   1  22
ATOM     22  C   UNL     1       4.552  -2.073   2.981  1.00  0.00     0.118 C 
BRANCH  22  23
ATOM     23  N   UNL     1       5.021  -3.386   2.561  1.00  0.00    -0.352 N 
ATOM     24  C   UNL     1       5.786  -4.314   3.224  1.00  0.00     0.251 C 
ATOM     25  H   UNL     1       4.744  -3.652   1.654  1.00  0.00     0.163 HD
ATOM     26  O   UNL     1       6.210  -5.289   2.608  1.00  0.00    -0.269 OA
BRANCH  24  27
ATOM     27  C   UNL     1       6.119  -4.139   4.656  1.00  0.00     0.039 A 
ATOM     28  C   UNL     1       7.391  -4.508   5.101  1.00  0.00     0.014 A 
ATOM     29  C   UNL     1       5.184  -3.642   5.568  1.00  0.00     0.014 A 
ATOM     30  C   UNL     1       7.741  -4.322   6.441  1.00  0.00     0.010 A 
ATOM     31  C   UNL     1       5.566  -3.363   6.877  1.00  0.00     0.010 A 
ATOM     32  C   UNL     1       6.844  -3.714   7.334  1.00  0.00    -0.014 A 
BRANCH  32  33
ATOM     33  C   UNL     1       7.222  -3.453   8.748  1.00  0.00     0.031 A 
ATOM     34  C   UNL     1       6.457  -4.101   9.872  1.00  0.00     0.074 A 
ATOM     35  C   UNL     1       8.222  -2.591   9.022  1.00  0.00     0.049 A 
ATOM     36  N   UNL     1       6.623  -3.972  11.164  1.00  0.00    -0.248 NA
ATOM     37  C   UNL     1       5.342  -4.988   9.500  1.00  0.00     0.031 C 
ATOM     38  C   UNL     1       9.007  -1.858   8.025  1.00  0.00     0.029 A 
ATOM     39  N   UNL     1       8.747  -2.181  10.222  1.00  0.00    -0.354 N 
ATOM     40  C   UNL     1       5.628  -4.743  11.754  1.00  0.00     0.074 A 
ATOM     41  C   UNL     1       4.827  -5.291  10.682  1.00  0.00     0.031 C 
ATOM     42  C   UNL     1       9.934  -1.118   8.653  1.00  0.00     0.029 A 
ATOM     43  C   UNL     1       9.783  -1.285  10.095  1.00  0.00     0.049 A 
ATOM     44  H   UNL     1       8.414  -2.499  11.093  1.00  0.00     0.167 HD
ATOM     45  C   UNL     1       5.410  -4.990  13.068  1.00  0.00     0.031 A 
ATOM     46  C   UNL     1      10.525  -0.661  11.031  1.00  0.00     0.031 A 
ATOM     47  C   UNL     1       6.216  -4.451  14.132  1.00  0.00     0.049 A 
ATOM     48  C   UNL     1      10.265  -0.951  12.484  1.00  0.00     0.074 A 
ATOM     49  C   UNL     1       6.118  -4.693  15.491  1.00  0.00     0.029 A 
ATOM     50  N   UNL     1       7.262  -3.556  13.960  1.00  0.00    -0.354 N 
ATOM     51  N   UNL     1       9.369  -1.746  13.018  1.00  0.00    -0.248 NA
ATOM     52  C   UNL     1      11.128  -0.271  13.460  1.00  0.00     0.031 C 
ATOM     53  C   UNL     1       7.062  -3.896  16.146  1.00  0.00     0.029 A 
ATOM     54  C   UNL     1       7.798  -3.213  15.190  1.00  0.00     0.049 A 
ATOM     55  H   UNL     1       7.577  -3.216  13.091  1.00  0.00     0.167 HD
ATOM     56  C   UNL     1       9.579  -1.683  14.392  1.00  0.00     0.074 A 
ATOM     57  C   UNL     1      10.697  -0.787  14.603  1.00  0.00     0.031 C 
ATOM     58  C   UNL     1       8.907  -2.314  15.388  1.00  0.00     0.031 A 
BRANCH  45  59
ATOM     59  C   UNL     1       4.245  -5.876  13.430  1.00  0.00    -0.014 A 
ATOM     60  C   UNL     1       4.242  -7.248  13.114  1.00  0.00     0.010 A 
ATOM     61  C   UNL     1       3.151  -5.337  14.131  1.00  0.00     0.010 A 
ATOM     62  C   UNL     1       3.150  -8.051  13.451  1.00  0.00     0.020 A 
ATOM     63  C   UNL     1       2.070  -6.144  14.499  1.00  0.00     0.020 A 
ATOM     64  C   UNL     1       2.069  -7.493  14.140  1.00  0.00     0.054 A 
BRANCH  64  65
ATOM     65  S   UNL     1       0.675  -8.565  14.582  1.00  0.00     0.124 S 
ATOM     66  O   UNL     1       0.053  -8.802  13.282  1.00  0.00    -0.237 OA
ATOM     67  O   UNL     1       1.337  -9.721  15.181  1.00  0.00    -0.237 OA
ATOM     68  O   UNL     1      -0.110  -7.752  15.508  1.00  0.00    -0.744 OA
ENDBRANCH  64  65
ENDBRANCH  45  59
BRANCH  46  69
ATOM     69  C   UNL     1      11.594   0.289  10.616  1.00  0.00    -0.014 A 
ATOM     70  C   UNL     1      12.951  -0.034  10.794  1.00  0.00     0.010 A 
ATOM     71  C   UNL     1      11.258   1.519  10.020  1.00  0.00     0.010 A 
ATOM     72  C   UNL     1      13.951   0.862  10.401  1.00  0.00     0.020 A 
ATOM     73  C   UNL     1      12.255   2.402   9.596  1.00  0.00     0.020 A 
ATOM     74  C   UNL     1      13.596   2.072   9.799  1.00  0.00     0.054 A 
BRANCH  74  75
ATOM     75  S   UNL     1      14.911   3.192   9.244  1.00  0.00     0.124 S 
ATOM     76  O   UNL     1      15.432   3.699  10.509  1.00  0.00    -0.237 OA
ATOM     77  O   UNL     1      15.797   2.295   8.507  1.00  0.00    -0.237 OA
ATOM     78  O   UNL     1      14.202   4.170   8.422  1.00  0.00    -0.744 OA
ENDBRANCH  74  75
ENDBRANCH  46  69
BRANCH  58  79
ATOM     79  C   UNL     1       9.384  -2.086  16.799  1.00  0.00    -0.014 A 
ATOM     80  C   UNL     1       9.212  -0.847  17.442  1.00  0.00     0.010 A 
ATOM     81  C   UNL     1       9.974  -3.149  17.509  1.00  0.00     0.010 A 
ATOM     82  C   UNL     1       9.656  -0.665  18.754  1.00  0.00     0.020 A 
ATOM     83  C   UNL     1      10.389  -2.980  18.831  1.00  0.00     0.020 A 
ATOM     84  C   UNL     1      10.243  -1.733  19.441  1.00  0.00     0.054 A 
BRANCH  84  85
ATOM     85  S   UNL     1      10.781  -1.479  21.154  1.00  0.00     0.124 S 
ATOM     86  O   UNL     1      11.962  -0.638  20.980  1.00  0.00    -0.237 OA
ATOM     87  O   UNL     1       9.625  -0.822  21.758  1.00  0.00    -0.237 OA
ATOM     88  O   UNL     1      11.046  -2.832  21.639  1.00  0.00    -0.744 OA
ENDBRANCH  84  85
ENDBRANCH  58  79
ENDBRANCH  32  33
ENDBRANCH  24  27
ENDBRANCH  22  23
ENDBRANCH   1  22
TORSDOF 15
