REMARK SMILES O=C(NCCCNC(=O)c1ccc(-c2c3nc(c(-c4ccc(S(=O)(=O)[O-])cc4)c4ccc([nH]4)c(-c4ccc(S(=O)(=O)[O-])cc4)c4nc(c(-c5ccc(S(=O)(=O)[O-])cc5)c5ccc2[nH]5)C=C4)C=C3)cc1)c1ccc(/C=C/c2ccc3cccc(O)c3n2)cc1
REMARK SMILES IDX 5 1 4 2 3 3 1 4 2 5 70 7 71 8 88 9 72 10 87 11 73 12 74 13
REMARK SMILES IDX 75 14 76 15 77 16 86 17 78 18 85 19 79 20 83 21 80 22 82 23
REMARK SMILES IDX 81 24 84 25 6 27 7 28 8 29 9 31 10 32 11 33 69 34 12 35
REMARK SMILES IDX 68 36 13 37 14 38 15 39 62 40 16 41 67 42 61 43 63 44 17 45
REMARK SMILES IDX 66 46 60 47 59 48 18 50 48 51 29 52 47 53 30 54 33 55 46 56
REMARK SMILES IDX 64 57 31 58 32 59 45 61 65 62 34 63 19 64 20 65 28 66 21 67
REMARK SMILES IDX 27 68 22 69 23 70 24 71 25 72 26 73 49 74 50 75 58 76 51 77
REMARK SMILES IDX 57 78 52 79 53 80 54 81 55 82 56 83 35 84 36 85 44 86 37 87
REMARK SMILES IDX 43 88 38 89 39 90 40 91 41 92 42 93
REMARK H PARENT 3 6 84 26 7 30 63 49 33 60
REMARK Flexibility Score: inf
ROOT
ATOM      1  C   UNL     1       5.133  -1.149   1.835  1.00  0.00     0.042 C 
ENDROOT
BRANCH   1   2
ATOM      2  C   UNL     1       4.757  -1.118   0.355  1.00  0.00     0.118 C 
BRANCH   2   3
ATOM      3  N   UNL     1       3.322  -1.060   0.148  1.00  0.00    -0.352 N 
ATOM      4  O   UNL     1       1.310  -0.145  -0.235  1.00  0.00    -0.269 OA
ATOM      5  C   UNL     1       2.531  -0.052  -0.335  1.00  0.00     0.251 C 
ATOM      6  H   UNL     1       2.837  -1.880   0.397  1.00  0.00     0.163 HD
BRANCH   5   7
ATOM      7  C   UNL     1       3.108   1.153  -0.968  1.00  0.00     0.039 A 
ATOM      8  C   UNL     1       4.049   1.085  -2.002  1.00  0.00     0.014 A 
ATOM      9  C   UNL     1       2.587   2.386  -0.585  1.00  0.00     0.014 A 
ATOM     10  C   UNL     1       4.495   2.257  -2.634  1.00  0.00     0.009 A 
ATOM     11  C   UNL     1       3.025   3.546  -1.220  1.00  0.00     0.009 A 
ATOM     12  C   UNL     1       3.982   3.499  -2.251  1.00  0.00    -0.026 A 
BRANCH  12  13
ATOM     13  C   UNL     1       4.423   4.793  -2.783  1.00  0.00     0.010 C 
ATOM     14  C   UNL     1       5.454   5.117  -3.589  1.00  0.00     0.029 C 
BRANCH  14  15
ATOM     15  C   UNL     1       5.889   6.528  -3.431  1.00  0.00     0.064 A 
ATOM     16  C   UNL     1       6.680   6.709  -2.298  1.00  0.00     0.029 A 
ATOM     17  N   UNL     1       5.027   7.471  -3.887  1.00  0.00    -0.245 NA
ATOM     18  C   UNL     1       6.303   7.705  -1.409  1.00  0.00     0.013 A 
ATOM     19  C   UNL     1       4.710   8.475  -3.037  1.00  0.00     0.113 A 
ATOM     20  C   UNL     1       5.239   8.551  -1.734  1.00  0.00     0.004 A 
ATOM     21  C   UNL     1       3.765   9.435  -3.398  1.00  0.00     0.141 A 
ATOM     22  C   UNL     1       4.675   9.425  -0.790  1.00  0.00     0.010 A 
ATOM     23  C   UNL     1       3.228  10.337  -2.483  1.00  0.00     0.048 A 
ATOM     24  C   UNL     1       3.649  10.294  -1.159  1.00  0.00     0.005 A 
BRANCH  21  25
ATOM     25  O   UNL     1       3.324   9.496  -4.698  1.00  0.00    -0.506 OA
ATOM     26  H   UNL     1       2.689  10.138  -4.948  1.00  0.00     0.293 HD
ENDBRANCH  21  25
ENDBRANCH  14  15
ENDBRANCH  12  13
ENDBRANCH   5   7
ENDBRANCH   2   3
ENDBRANCH   1   2
BRANCH   1  27
ATOM     27  C   UNL     1       4.575  -2.333   2.623  1.00  0.00     0.118 C 
BRANCH  27  28
ATOM     28  N   UNL     1       5.025  -3.621   2.120  1.00  0.00    -0.352 N 
ATOM     29  C   UNL     1       5.763  -4.615   2.720  1.00  0.00     0.251 C 
ATOM     30  H   UNL     1       4.756  -3.814   1.193  1.00  0.00     0.163 HD
ATOM     31  O   UNL     1       6.159  -5.556   2.036  1.00  0.00    -0.269 OA
BRANCH  29  32
ATOM     32  C   UNL     1       6.106  -4.557   4.161  1.00  0.00     0.039 A 
ATOM     33  C   UNL     1       7.381  -4.968   4.562  1.00  0.00     0.014 A 
ATOM     34  C   UNL     1       5.180  -4.147   5.121  1.00  0.00     0.014 A 
ATOM     35  C   UNL     1       7.747  -4.901   5.910  1.00  0.00     0.010 A 
ATOM     36  C   UNL     1       5.571  -4.003   6.453  1.00  0.00     0.010 A 
ATOM     37  C   UNL     1       6.858  -4.381   6.864  1.00  0.00    -0.014 A 
BRANCH  37  38
ATOM     38  C   UNL     1       7.260  -4.220   8.288  1.00  0.00     0.031 A 
ATOM     39  C   UNL     1       6.540  -4.975   9.375  1.00  0.00     0.074 A 
ATOM     40  C   UNL     1       8.231  -3.343   8.612  1.00  0.00     0.049 A 
ATOM     41  N   UNL     1       6.714  -4.918  10.672  1.00  0.00    -0.248 NA
ATOM     42  C   UNL     1       5.470  -5.893   8.954  1.00  0.00     0.031 C 
ATOM     43  C   UNL     1       8.976  -2.514   7.660  1.00  0.00     0.029 A 
ATOM     44  N   UNL     1       8.755  -2.994   9.833  1.00  0.00    -0.354 N 
ATOM     45  C   UNL     1       5.763  -5.772  11.220  1.00  0.00     0.074 A 
ATOM     46  C   UNL     1       4.986  -6.299  10.119  1.00  0.00     0.031 C 
ATOM     47  C   UNL     1       9.873  -1.773   8.330  1.00  0.00     0.029 A 
ATOM     48  C   UNL     1       9.743  -2.041   9.759  1.00  0.00     0.049 A 
ATOM     49  H   UNL     1       8.451  -3.390  10.681  1.00  0.00     0.167 HD
ATOM     50  C   UNL     1       5.563  -6.102  12.519  1.00  0.00     0.031 A 
ATOM     51  C   UNL     1      10.461  -1.441  10.729  1.00  0.00     0.031 A 
ATOM     52  C   UNL     1       6.347  -5.589  13.613  1.00  0.00     0.049 A 
ATOM     53  C   UNL     1      10.229  -1.829  12.163  1.00  0.00     0.074 A 
ATOM     54  C   UNL     1       6.265  -5.914  14.956  1.00  0.00     0.029 A 
ATOM     55  N   UNL     1       7.353  -4.642  13.492  1.00  0.00    -0.354 N 
ATOM     56  N   UNL     1       9.372  -2.693  12.653  1.00  0.00    -0.248 NA
ATOM     57  C   UNL     1      11.068  -1.170  13.173  1.00  0.00     0.031 C 
ATOM     58  C   UNL     1       7.186  -5.126  15.654  1.00  0.00     0.029 A 
ATOM     59  C   UNL     1       7.883  -4.353  14.739  1.00  0.00     0.049 A 
ATOM     60  H   UNL     1       7.647  -4.235  12.645  1.00  0.00     0.167 HD
ATOM     61  C   UNL     1       9.588  -2.701  14.027  1.00  0.00     0.074 A 
ATOM     62  C   UNL     1      10.665  -1.767  14.287  1.00  0.00     0.031 C 
ATOM     63  C   UNL     1       8.952  -3.418  14.986  1.00  0.00     0.031 A 
BRANCH  50  64
ATOM     64  C   UNL     1       4.443  -7.060  12.831  1.00  0.00    -0.014 A 
ATOM     65  C   UNL     1       4.520  -8.416  12.464  1.00  0.00     0.010 A 
ATOM     66  C   UNL     1       3.312  -6.607  13.535  1.00  0.00     0.010 A 
ATOM     67  C   UNL     1       3.468  -9.290  12.753  1.00  0.00     0.020 A 
ATOM     68  C   UNL     1       2.270  -7.485  13.852  1.00  0.00     0.020 A 
ATOM     69  C   UNL     1       2.347  -8.817  13.442  1.00  0.00     0.054 A 
BRANCH  69  70
ATOM     70  S   UNL     1       1.004  -9.977  13.817  1.00  0.00     0.124 S 
ATOM     71  O   UNL     1       0.389 -10.158  12.504  1.00  0.00    -0.237 OA
ATOM     72  O   UNL     1       1.719 -11.137  14.341  1.00  0.00    -0.237 OA
ATOM     73  O   UNL     1       0.188  -9.259  14.793  1.00  0.00    -0.744 OA
ENDBRANCH  69  70
ENDBRANCH  50  64
BRANCH  51  74
ATOM     74  C   UNL     1      11.482  -0.418  10.368  1.00  0.00    -0.014 A 
ATOM     75  C   UNL     1      12.853  -0.703  10.487  1.00  0.00     0.010 A 
ATOM     76  C   UNL     1      11.084   0.841   9.882  1.00  0.00     0.010 A 
ATOM     77  C   UNL     1      13.809   0.257  10.140  1.00  0.00     0.020 A 
ATOM     78  C   UNL     1      12.037   1.793   9.508  1.00  0.00     0.020 A 
ATOM     79  C   UNL     1      13.394   1.498   9.648  1.00  0.00     0.054 A 
BRANCH  79  80
ATOM     80  S   UNL     1      14.652   2.705   9.144  1.00  0.00     0.124 S 
ATOM     81  O   UNL     1      15.159   3.171  10.430  1.00  0.00    -0.237 OA
ATOM     82  O   UNL     1      15.573   1.890   8.356  1.00  0.00    -0.237 OA
ATOM     83  O   UNL     1      13.891   3.688   8.375  1.00  0.00    -0.744 OA
ENDBRANCH  79  80
ENDBRANCH  51  74
BRANCH  63  84
ATOM     84  C   UNL     1       9.423  -3.249  16.406  1.00  0.00    -0.014 A 
ATOM     85  C   UNL     1       9.157  -2.073  17.128  1.00  0.00     0.010 A 
ATOM     86  C   UNL     1      10.098  -4.307  17.042  1.00  0.00     0.010 A 
ATOM     87  C   UNL     1       9.588  -1.945  18.452  1.00  0.00     0.020 A 
ATOM     88  C   UNL     1      10.506  -4.193  18.374  1.00  0.00     0.020 A 
ATOM     89  C   UNL     1      10.261  -3.006  19.066  1.00  0.00     0.054 A 
BRANCH  89  90
ATOM     90  S   UNL     1      10.775  -2.830  20.796  1.00  0.00     0.124 S 
ATOM     91  O   UNL     1      11.912  -1.921  20.684  1.00  0.00    -0.237 OA
ATOM     92  O   UNL     1       9.583  -2.271  21.430  1.00  0.00    -0.237 OA
ATOM     93  O   UNL     1      11.105  -4.195  21.200  1.00  0.00    -0.744 OA
ENDBRANCH  89  90
ENDBRANCH  63  84
ENDBRANCH  37  38
ENDBRANCH  29  32
ENDBRANCH  27  28
ENDBRANCH   1  27
TORSDOF 16
