REMARK SMILES O=C(CCCC[C@@H]1CCSS1)NCCCNC(=O)c1ccc(-c2c3nc(c(-c4ccc(S(=O)(=O)[O-])cc4)c4ccc([nH]4)c(-c4ccc(S(=O)(=O)[O-])cc4)c4nc(c(-c5ccc(S(=O)(=O)[O-])cc5)c5ccc2[nH]5)C=C4)C=C3)cc1
REMARK SMILES IDX 13 1 12 2 1 3 2 4 3 6 4 7 5 8 6 9 7 10 8 11 11 12 9 13 10 14
REMARK SMILES IDX 14 15 15 16 16 17 17 18 18 20 19 21 20 22 78 23 21 24 77 25
REMARK SMILES IDX 22 26 23 27 24 28 71 29 25 30 76 31 70 32 72 33 26 34 75 35
REMARK SMILES IDX 69 36 68 37 27 39 57 40 38 41 56 42 39 43 42 44 55 45 73 46
REMARK SMILES IDX 40 47 41 48 54 50 74 51 43 52 28 53 29 54 37 55 30 56 36 57
REMARK SMILES IDX 31 58 32 59 33 60 34 61 35 62 58 63 59 64 67 65 60 66 66 67
REMARK SMILES IDX 61 68 62 69 63 70 64 71 65 72 44 73 45 74 53 75 46 76 52 77
REMARK SMILES IDX 47 78 48 79 49 80 50 81 51 82
REMARK H PARENT 12 5 16 19 72 38 42 49
REMARK Flexibility Score: inf
ROOT
ATOM      1  C   UNL     1       1.866  -1.742  -1.841  1.00  0.00     0.117 C 
ENDROOT
BRANCH   1   2
ATOM      2  N   UNL     1       2.476  -0.784  -0.942  1.00  0.00    -0.356 N 
ATOM      3  O   UNL     1       0.597  -0.391   0.320  1.00  0.00    -0.275 OA
ATOM      4  C   UNL     1       1.794  -0.226   0.112  1.00  0.00     0.219 C 
ATOM      5  H   UNL     1       3.413  -0.523  -1.092  1.00  0.00     0.163 HD
BRANCH   4   6
ATOM      6  C   UNL     1       2.659   0.604   1.036  1.00  0.00     0.100 C 
BRANCH   6   7
ATOM      7  C   UNL     1       3.591  -0.264   1.887  1.00  0.00     0.010 C 
BRANCH   7   8
ATOM      8  C   UNL     1       4.926  -0.697   1.255  1.00  0.00     0.002 C 
BRANCH   8   9
ATOM      9  C   UNL     1       5.740   0.368   0.505  1.00  0.00     0.015 C 
BRANCH   9  10
ATOM     10  C   UNL     1       6.560   1.343   1.366  1.00  0.00     0.059 C 
ATOM     11  C   UNL     1       5.850   1.938   2.583  1.00  0.00     0.027 C 
ATOM     12  S   UNL     1       7.094   2.755   0.332  1.00  0.00    -0.091 SA
ATOM     13  C   UNL     1       6.646   3.107   3.148  1.00  0.00     0.083 C 
ATOM     14  S   UNL     1       6.938   4.218   1.758  1.00  0.00    -0.094 SA
ENDBRANCH   9  10
ENDBRANCH   8   9
ENDBRANCH   7   8
ENDBRANCH   6   7
ENDBRANCH   4   6
ENDBRANCH   1   2
BRANCH   1  15
ATOM     15  C   UNL     1       2.250  -1.512  -3.296  1.00  0.00     0.042 C 
BRANCH  15  16
ATOM     16  C   UNL     1       3.744  -1.603  -3.591  1.00  0.00     0.118 C 
BRANCH  16  17
ATOM     17  N   UNL     1       4.304  -2.928  -3.367  1.00  0.00    -0.352 N 
ATOM     18  C   UNL     1       5.032  -3.724  -4.226  1.00  0.00     0.251 C 
ATOM     19  H   UNL     1       4.139  -3.310  -2.475  1.00  0.00     0.163 HD
ATOM     20  O   UNL     1       5.327  -4.864  -3.904  1.00  0.00    -0.269 OA
BRANCH  18  21
ATOM     21  C   UNL     1       5.420  -3.199  -5.555  1.00  0.00     0.039 A 
ATOM     22  C   UNL     1       5.145  -3.965  -6.691  1.00  0.00     0.014 A 
ATOM     23  C   UNL     1       6.015  -1.942  -5.681  1.00  0.00     0.014 A 
ATOM     24  C   UNL     1       5.380  -3.429  -7.961  1.00  0.00     0.010 A 
ATOM     25  C   UNL     1       6.185  -1.383  -6.945  1.00  0.00     0.010 A 
ATOM     26  C   UNL     1       5.855  -2.114  -8.098  1.00  0.00    -0.014 A 
BRANCH  26  27
ATOM     27  C   UNL     1       5.986  -1.463  -9.428  1.00  0.00     0.031 A 
ATOM     28  C   UNL     1       7.335  -1.017  -9.920  1.00  0.00     0.074 A 
ATOM     29  C   UNL     1       4.880  -1.180 -10.147  1.00  0.00     0.049 A 
ATOM     30  N   UNL     1       7.635  -0.308 -10.978  1.00  0.00    -0.248 NA
ATOM     31  C   UNL     1       8.498  -1.397  -9.101  1.00  0.00     0.031 C 
ATOM     32  C   UNL     1       3.509  -1.531  -9.770  1.00  0.00     0.029 A 
ATOM     33  N   UNL     1       4.734  -0.512 -11.338  1.00  0.00    -0.354 N 
ATOM     34  C   UNL     1       9.013  -0.134 -10.939  1.00  0.00     0.074 A 
ATOM     35  C   UNL     1       9.486  -0.781  -9.734  1.00  0.00     0.031 C 
ATOM     36  C   UNL     1       2.665  -1.087 -10.715  1.00  0.00     0.029 A 
ATOM     37  C   UNL     1       3.425  -0.379 -11.740  1.00  0.00     0.049 A 
ATOM     38  H   UNL     1       5.494  -0.161 -11.856  1.00  0.00     0.167 HD
ATOM     39  C   UNL     1       9.813   0.498 -11.830  1.00  0.00     0.031 A 
ATOM     40  C   UNL     1       2.892   0.258 -12.801  1.00  0.00     0.031 A 
ATOM     41  C   UNL     1       9.344   1.128 -13.035  1.00  0.00     0.049 A 
ATOM     42  C   UNL     1       3.799   0.964 -13.771  1.00  0.00     0.074 A 
ATOM     43  C   UNL     1      10.085   1.750 -14.024  1.00  0.00     0.029 A 
ATOM     44  N   UNL     1       8.013   1.218 -13.415  1.00  0.00    -0.354 N 
ATOM     45  N   UNL     1       5.105   1.077 -13.741  1.00  0.00    -0.248 NA
ATOM     46  C   UNL     1       3.163   1.623 -14.920  1.00  0.00     0.031 C 
ATOM     47  C   UNL     1       9.199   2.253 -14.983  1.00  0.00     0.029 A 
ATOM     48  C   UNL     1       7.911   1.898 -14.616  1.00  0.00     0.049 A 
ATOM     49  H   UNL     1       7.254   0.852 -12.906  1.00  0.00     0.167 HD
ATOM     50  C   UNL     1       5.449   1.792 -14.883  1.00  0.00     0.074 A 
ATOM     51  C   UNL     1       4.216   2.082 -15.584  1.00  0.00     0.031 C 
ATOM     52  C   UNL     1       6.678   2.168 -15.312  1.00  0.00     0.031 A 
BRANCH  39  53
ATOM     53  C   UNL     1      11.287   0.546 -11.528  1.00  0.00    -0.014 A 
ATOM     54  C   UNL     1      12.084  -0.610 -11.616  1.00  0.00     0.010 A 
ATOM     55  C   UNL     1      11.892   1.770 -11.187  1.00  0.00     0.010 A 
ATOM     56  C   UNL     1      13.449  -0.551 -11.326  1.00  0.00     0.020 A 
ATOM     57  C   UNL     1      13.262   1.838 -10.923  1.00  0.00     0.020 A 
ATOM     58  C   UNL     1      14.029   0.672 -10.976  1.00  0.00     0.054 A 
BRANCH  58  59
ATOM     59  S   UNL     1      15.806   0.722 -10.618  1.00  0.00     0.124 S 
ATOM     60  O   UNL     1      15.863   0.101  -9.296  1.00  0.00    -0.237 OA
ATOM     61  O   UNL     1      16.376  -0.068 -11.707  1.00  0.00    -0.237 OA
ATOM     62  O   UNL     1      16.127   2.146 -10.652  1.00  0.00    -0.744 OA
ENDBRANCH  58  59
ENDBRANCH  39  53
BRANCH  40  63
ATOM     63  C   UNL     1       1.417   0.250 -13.006  1.00  0.00    -0.014 A 
ATOM     64  C   UNL     1       0.848  -0.515 -14.039  1.00  0.00     0.010 A 
ATOM     65  C   UNL     1       0.574   0.993 -12.160  1.00  0.00     0.010 A 
ATOM     66  C   UNL     1      -0.537  -0.525 -14.232  1.00  0.00     0.020 A 
ATOM     67  C   UNL     1      -0.813   0.965 -12.335  1.00  0.00     0.020 A 
ATOM     68  C   UNL     1      -1.359   0.214 -13.377  1.00  0.00     0.054 A 
BRANCH  68  69
ATOM     69  S   UNL     1      -3.157   0.142 -13.612  1.00  0.00     0.124 S 
ATOM     70  O   UNL     1      -3.342   0.983 -14.790  1.00  0.00    -0.237 OA
ATOM     71  O   UNL     1      -3.393  -1.286 -13.810  1.00  0.00    -0.237 OA
ATOM     72  O   UNL     1      -3.685   0.685 -12.363  1.00  0.00    -0.744 OA
ENDBRANCH  68  69
ENDBRANCH  40  63
BRANCH  52  73
ATOM     73  C   UNL     1       6.769   2.894 -16.627  1.00  0.00    -0.014 A 
ATOM     74  C   UNL     1       6.402   4.245 -16.741  1.00  0.00     0.010 A 
ATOM     75  C   UNL     1       7.317   2.233 -17.742  1.00  0.00     0.010 A 
ATOM     76  C   UNL     1       6.571   4.921 -17.953  1.00  0.00     0.020 A 
ATOM     77  C   UNL     1       7.508   2.911 -18.948  1.00  0.00     0.020 A 
ATOM     78  C   UNL     1       7.127   4.250 -19.048  1.00  0.00     0.054 A 
BRANCH  78  79
ATOM     79  S   UNL     1       7.408   5.169 -20.587  1.00  0.00     0.124 S 
ATOM     80  O   UNL     1       6.055   5.283 -21.124  1.00  0.00    -0.237 OA
ATOM     81  O   UNL     1       8.003   6.416 -20.112  1.00  0.00    -0.237 OA
ATOM     82  O   UNL     1       8.310   4.306 -21.346  1.00  0.00    -0.744 OA
ENDBRANCH  78  79
ENDBRANCH  52  73
ENDBRANCH  26  27
ENDBRANCH  18  21
ENDBRANCH  16  17
ENDBRANCH  15  16
ENDBRANCH   1  15
TORSDOF 17
