REMARK SMILES O=C(NCCCNC(=O)c1ccccc1-c1ccccc1C(=O)N1CC[NH+](Cc2ccc3c(c2)OCO3)CC1)c1ccc(-c2c3nc(c(-c4ccc(S(=O)(=O)[O-])cc4)c4ccc([nH]4)c(-c4ccc(S(=O)(=O)[O-])cc4)c4nc(c(-c5ccc(S(=O)(=O)[O-])cc5)c5ccc2[nH]5)C=C4)C=C3)cc1
REMARK SMILES IDX 5 1 4 2 3 3 1 4 2 5 40 7 41 8 99 9 42 10 98 11 43 12 44 13
REMARK SMILES IDX 45 14 92 15 46 16 97 17 91 18 93 19 47 20 96 21 90 22 89 23
REMARK SMILES IDX 48 25 78 26 59 27 77 28 60 29 63 30 76 31 94 32 61 33 62 34
REMARK SMILES IDX 75 36 95 37 64 38 49 39 50 40 58 41 51 42 57 43 52 44 53 45
REMARK SMILES IDX 54 46 55 47 56 48 79 49 80 50 88 51 81 52 87 53 82 54 83 55
REMARK SMILES IDX 84 56 85 57 86 58 65 59 66 60 74 61 67 62 73 63 68 64 69 65
REMARK SMILES IDX 70 66 71 67 72 68 6 69 7 70 8 71 9 73 10 74 11 75 15 76
REMARK SMILES IDX 12 77 14 78 13 79 16 80 17 81 21 82 18 83 20 84 19 85 22 86
REMARK SMILES IDX 23 87 24 88 25 89 39 90 26 91 38 92 27 93 28 95 29 96 30 97
REMARK SMILES IDX 34 98 31 99 33 100 32 101 35 102 37 103 36 104
REMARK H PARENT 3 6 93 24 63 35 7 72 27 94
REMARK Flexibility Score: inf
ROOT
ATOM      1  C   UNL     1       4.916   1.668   0.588  1.00  0.00     0.042 C 
ENDROOT
BRANCH   1   2
ATOM      2  C   UNL     1       4.607   0.242   1.015  1.00  0.00     0.118 C 
BRANCH   2   3
ATOM      3  N   UNL     1       3.165  -0.000   1.019  1.00  0.00    -0.352 N 
ATOM      4  O   UNL     1       1.158  -0.126  -0.022  1.00  0.00    -0.269 OA
ATOM      5  C   UNL     1       2.364  -0.319  -0.054  1.00  0.00     0.251 C 
ATOM      6  H   UNL     1       2.715   0.073   1.891  1.00  0.00     0.163 HD
BRANCH   5   7
ATOM      7  C   UNL     1       3.021  -0.883  -1.247  1.00  0.00     0.039 A 
ATOM      8  C   UNL     1       4.037  -1.819  -1.061  1.00  0.00     0.014 A 
ATOM      9  C   UNL     1       2.666  -0.462  -2.528  1.00  0.00     0.014 A 
ATOM     10  C   UNL     1       4.840  -2.177  -2.122  1.00  0.00     0.010 A 
ATOM     11  C   UNL     1       3.366  -0.970  -3.625  1.00  0.00     0.010 A 
ATOM     12  C   UNL     1       4.463  -1.824  -3.423  1.00  0.00    -0.014 A 
BRANCH  12  13
ATOM     13  C   UNL     1       5.135  -2.519  -4.542  1.00  0.00     0.031 A 
ATOM     14  C   UNL     1       5.904  -1.769  -5.584  1.00  0.00     0.074 A 
ATOM     15  C   UNL     1       5.037  -3.865  -4.574  1.00  0.00     0.049 A 
ATOM     16  N   UNL     1       6.511  -2.242  -6.640  1.00  0.00    -0.248 NA
ATOM     17  C   UNL     1       6.002  -0.307  -5.438  1.00  0.00     0.031 C 
ATOM     18  C   UNL     1       4.305  -4.682  -3.594  1.00  0.00     0.029 A 
ATOM     19  N   UNL     1       5.559  -4.788  -5.438  1.00  0.00    -0.354 N 
ATOM     20  C   UNL     1       7.027  -1.140  -7.308  1.00  0.00     0.074 A 
ATOM     21  C   UNL     1       6.665   0.030  -6.537  1.00  0.00     0.031 C 
ATOM     22  C   UNL     1       4.472  -5.978  -3.880  1.00  0.00     0.029 A 
ATOM     23  C   UNL     1       5.219  -6.082  -5.122  1.00  0.00     0.049 A 
ATOM     24  H   UNL     1       6.122  -4.549  -6.209  1.00  0.00     0.167 HD
ATOM     25  C   UNL     1       7.728  -1.121  -8.466  1.00  0.00     0.031 A 
ATOM     26  C   UNL     1       5.430  -7.231  -5.787  1.00  0.00     0.031 A 
ATOM     27  C   UNL     1       8.080  -2.308  -9.204  1.00  0.00     0.049 A 
ATOM     28  C   UNL     1       6.168  -7.165  -7.088  1.00  0.00     0.074 A 
ATOM     29  C   UNL     1       8.838  -2.404 -10.358  1.00  0.00     0.029 A 
ATOM     30  N   UNL     1       7.688  -3.597  -8.873  1.00  0.00    -0.354 N 
ATOM     31  N   UNL     1       6.699  -6.119  -7.675  1.00  0.00    -0.248 NA
ATOM     32  C   UNL     1       6.325  -8.424  -7.824  1.00  0.00     0.031 C 
ATOM     33  C   UNL     1       8.839  -3.741 -10.766  1.00  0.00     0.029 A 
ATOM     34  C   UNL     1       8.144  -4.489  -9.829  1.00  0.00     0.049 A 
ATOM     35  H   UNL     1       7.163  -3.841  -8.077  1.00  0.00     0.167 HD
ATOM     36  C   UNL     1       7.263  -6.596  -8.850  1.00  0.00     0.074 A 
ATOM     37  C   UNL     1       7.035  -8.028  -8.871  1.00  0.00     0.031 C 
ATOM     38  C   UNL     1       7.902  -5.910  -9.827  1.00  0.00     0.031 A 
BRANCH  25  39
ATOM     39  C   UNL     1       8.123   0.212  -9.043  1.00  0.00    -0.014 A 
ATOM     40  C   UNL     1       9.141   0.993  -8.471  1.00  0.00     0.010 A 
ATOM     41  C   UNL     1       7.524   0.641 -10.244  1.00  0.00     0.010 A 
ATOM     42  C   UNL     1       9.543   2.186  -9.081  1.00  0.00     0.020 A 
ATOM     43  C   UNL     1       7.940   1.820 -10.869  1.00  0.00     0.020 A 
ATOM     44  C   UNL     1       8.943   2.589 -10.279  1.00  0.00     0.054 A 
BRANCH  44  45
ATOM     45  S   UNL     1       9.528   4.110 -11.077  1.00  0.00     0.124 S 
ATOM     46  O   UNL     1       9.035   5.139 -10.164  1.00  0.00    -0.237 OA
ATOM     47  O   UNL     1      10.977   3.926 -11.091  1.00  0.00    -0.237 OA
ATOM     48  O   UNL     1       8.886   4.085 -12.389  1.00  0.00    -0.744 OA
ENDBRANCH  44  45
ENDBRANCH  25  39
BRANCH  26  49
ATOM     49  C   UNL     1       4.861  -8.504  -5.271  1.00  0.00    -0.014 A 
ATOM     50  C   UNL     1       5.697  -9.548  -4.843  1.00  0.00     0.010 A 
ATOM     51  C   UNL     1       3.464  -8.670  -5.194  1.00  0.00     0.010 A 
ATOM     52  C   UNL     1       5.146 -10.747  -4.380  1.00  0.00     0.020 A 
ATOM     53  C   UNL     1       2.910  -9.850  -4.696  1.00  0.00     0.020 A 
ATOM     54  C   UNL     1       3.756 -10.890  -4.313  1.00  0.00     0.054 A 
BRANCH  54  55
ATOM     55  S   UNL     1       3.065 -12.450  -3.700  1.00  0.00     0.124 S 
ATOM     56  O   UNL     1       3.332 -13.355  -4.814  1.00  0.00    -0.237 OA
ATOM     57  O   UNL     1       3.847 -12.687  -2.489  1.00  0.00    -0.237 OA
ATOM     58  O   UNL     1       1.657 -12.135  -3.472  1.00  0.00    -0.744 OA
ENDBRANCH  54  55
ENDBRANCH  26  49
BRANCH  38  59
ATOM     59  C   UNL     1       8.414  -6.705 -10.994  1.00  0.00    -0.014 A 
ATOM     60  C   UNL     1       7.532  -7.232 -11.953  1.00  0.00     0.010 A 
ATOM     61  C   UNL     1       9.800  -6.869 -11.167  1.00  0.00     0.010 A 
ATOM     62  C   UNL     1       8.027  -7.923 -13.059  1.00  0.00     0.020 A 
ATOM     63  C   UNL     1      10.300  -7.531 -12.289  1.00  0.00     0.020 A 
ATOM     64  C   UNL     1       9.409  -8.060 -13.225  1.00  0.00     0.054 A 
BRANCH  64  65
ATOM     65  S   UNL     1      10.027  -8.894 -14.711  1.00  0.00     0.124 S 
ATOM     66  O   UNL     1       9.665 -10.285 -14.452  1.00  0.00    -0.237 OA
ATOM     67  O   UNL     1       9.276  -8.238 -15.779  1.00  0.00    -0.237 OA
ATOM     68  O   UNL     1      11.460  -8.610 -14.698  1.00  0.00    -0.744 OA
ENDBRANCH  64  65
ENDBRANCH  38  59
ENDBRANCH  12  13
ENDBRANCH   5   7
ENDBRANCH   2   3
ENDBRANCH   1   2
BRANCH   1  69
ATOM     69  C   UNL     1       4.339   2.651   1.584  1.00  0.00     0.118 C 
BRANCH  69  70
ATOM     70  N   UNL     1       4.888   2.371   2.892  1.00  0.00    -0.352 N 
ATOM     71  C   UNL     1       6.100   2.854   3.285  1.00  0.00     0.251 C 
ATOM     72  H   UNL     1       4.371   1.814   3.518  1.00  0.00     0.163 HD
ATOM     73  O   UNL     1       6.955   2.074   3.692  1.00  0.00    -0.269 OA
BRANCH  71  74
ATOM     74  C   UNL     1       6.324   4.325   3.230  1.00  0.00     0.047 A 
ATOM     75  C   UNL     1       7.654   4.724   3.011  1.00  0.00     0.014 A 
ATOM     76  C   UNL     1       5.307   5.289   3.460  1.00  0.00    -0.005 A 
ATOM     77  C   UNL     1       7.994   6.073   2.977  1.00  0.00     0.001 A 
ATOM     78  C   UNL     1       5.685   6.649   3.398  1.00  0.00     0.009 A 
ATOM     79  C   UNL     1       7.007   7.035   3.159  1.00  0.00     0.001 A 
BRANCH  76  80
ATOM     80  C   UNL     1       3.868   4.979   3.690  1.00  0.00    -0.005 A 
ATOM     81  C   UNL     1       2.976   5.432   2.678  1.00  0.00     0.009 A 
ATOM     82  C   UNL     1       3.330   4.167   4.721  1.00  0.00     0.047 A 
ATOM     83  C   UNL     1       1.641   5.032   2.620  1.00  0.00     0.001 A 
ATOM     84  C   UNL     1       1.964   3.791   4.650  1.00  0.00     0.014 A 
ATOM     85  C   UNL     1       1.136   4.199   3.603  1.00  0.00     0.001 A 
BRANCH  82  86
ATOM     86  C   UNL     1       4.114   3.448   5.787  1.00  0.00     0.254 C 
ATOM     87  O   UNL     1       3.647   2.401   6.244  1.00  0.00    -0.269 OA
ATOM     88  N   UNL     1       5.377   3.887   6.167  1.00  0.00    -0.327 N 
ATOM     89  C   UNL     1       6.315   2.875   6.635  1.00  0.00     0.181 C 
ATOM     90  C   UNL     1       5.609   5.209   6.726  1.00  0.00     0.181 C 
ATOM     91  C   UNL     1       7.788   3.299   6.457  1.00  0.00     0.284 C 
ATOM     92  C   UNL     1       7.095   5.651   6.673  1.00  0.00     0.284 C 
ATOM     93  N   UNL     1       8.150   4.654   6.904  1.00  0.00    -0.328 N 
ATOM     94  H   UNL     1       8.890   4.950   6.267  1.00  0.00     0.348 HD
BRANCH  93  95
ATOM     95  C   UNL     1       8.870   4.731   8.180  1.00  0.00     0.299 C 
BRANCH  95  96
ATOM     96  C   UNL     1       8.035   4.260   9.348  1.00  0.00     0.010 A 
ATOM     97  C   UNL     1       7.080   5.138   9.909  1.00  0.00     0.013 A 
ATOM     98  C   UNL     1       7.983   2.884   9.619  1.00  0.00     0.060 A 
ATOM     99  C   UNL     1       5.942   4.630  10.533  1.00  0.00     0.051 A 
ATOM    100  C   UNL     1       6.818   2.414  10.171  1.00  0.00     0.166 A 
ATOM    101  C   UNL     1       5.807   3.260  10.570  1.00  0.00     0.165 A 
ATOM    102  O   UNL     1       6.422   1.109  10.153  1.00  0.00    -0.454 OA
ATOM    103  O   UNL     1       4.656   2.581  10.836  1.00  0.00    -0.454 OA
ATOM    104  C   UNL     1       4.995   1.299  10.261  1.00  0.00     0.468 C 
ENDBRANCH  95  96
ENDBRANCH  93  95
ENDBRANCH  82  86
ENDBRANCH  76  80
ENDBRANCH  71  74
ENDBRANCH  69  70
ENDBRANCH   1  69
TORSDOF 17
