REMARK SMILES Cc1ncccc1C(=O)Nc1ccccc1C(=O)NCCCNC(=O)c1ccc(-c2c3nc(c(-c4ccc(S(=O)(=O)[O-])cc4)c4ccc([nH]4)c(-c4ccc(S(=O)(=O)[O-])cc4)c4nc(c(-c5ccc(S(=O)(=O)[O-])cc5)c5ccc2[nH]5)C=C4)C=C3)cc1
REMARK SMILES IDX 21 1 20 2 19 3 17 4 18 5 16 7 11 8 12 9 13 10 15 11 14 12
REMARK SMILES IDX 10 13 8 14 9 15 7 17 1 18 2 19 3 20 4 21 6 22 5 23 22 24
REMARK SMILES IDX 23 25 24 26 25 28 26 29 27 30 85 31 28 32 84 33 29 34 30 35
REMARK SMILES IDX 31 36 78 37 32 38 83 39 77 40 79 41 33 42 82 43 76 44 75 45
REMARK SMILES IDX 34 47 64 48 45 49 63 50 46 51 49 52 62 53 80 54 47 55 48 56
REMARK SMILES IDX 61 58 81 59 50 60 35 61 36 62 44 63 37 64 43 65 38 66 39 67
REMARK SMILES IDX 40 68 41 69 42 70 65 71 66 72 74 73 67 74 73 75 68 76 69 77
REMARK SMILES IDX 70 78 71 79 72 80 51 81 52 82 60 83 53 84 59 85 54 86 55 87
REMARK SMILES IDX 56 88 57 89 58 90
REMARK H PARENT 19 6 10 16 23 27 79 46 49 57
REMARK Flexibility Score: inf
ROOT
ATOM      1  C   UNL     1       1.234  -4.322   2.353  1.00  0.00     0.042 C 
ENDROOT
BRANCH   1   2
ATOM      2  C   UNL     1       1.516  -3.158   1.429  1.00  0.00     0.118 C 
BRANCH   2   3
ATOM      3  N   UNL     1       1.246  -1.853   2.000  1.00  0.00    -0.352 N 
ATOM      4  C   UNL     1       1.865  -0.649   1.768  1.00  0.00     0.253 C 
ATOM      5  O   UNL     1       1.446   0.345   2.360  1.00  0.00    -0.269 OA
ATOM      6  H   UNL     1       0.507  -1.826   2.650  1.00  0.00     0.163 HD
BRANCH   4   7
ATOM      7  C   UNL     1       3.089  -0.530   0.928  1.00  0.00     0.063 A 
ATOM      8  C   UNL     1       3.361  -1.171  -0.291  1.00  0.00     0.054 A 
ATOM      9  C   UNL     1       4.683  -1.148  -0.783  1.00  0.00     0.027 A 
ATOM     10  C   UNL     1       5.674  -0.375  -0.181  1.00  0.00     0.002 A 
ATOM     11  C   UNL     1       4.097   0.274   1.509  1.00  0.00     0.016 A 
ATOM     12  C   UNL     1       5.370   0.370   0.947  1.00  0.00     0.001 A 
BRANCH   8  13
ATOM     13  N   UNL     1       2.468  -1.833  -1.154  1.00  0.00    -0.321 N 
ATOM     14  C   UNL     1       1.134  -1.697  -1.444  1.00  0.00     0.257 C 
ATOM     15  O   UNL     1       0.612  -2.561  -2.152  1.00  0.00    -0.269 OA
ATOM     16  H   UNL     1       2.897  -2.558  -1.665  1.00  0.00     0.170 HD
BRANCH  14  17
ATOM     17  C   UNL     1       0.291  -0.575  -0.997  1.00  0.00     0.061 A 
ATOM     18  C   UNL     1       1.877   1.279  -1.759  1.00  0.00     0.067 C 
ATOM     19  C   UNL     1       0.608   0.776  -1.143  1.00  0.00     0.050 A 
ATOM     20  N   UNL     1      -0.251   1.762  -0.757  1.00  0.00    -0.261 NA
ATOM     21  C   UNL     1      -1.454   1.399  -0.260  1.00  0.00     0.111 A 
ATOM     22  C   UNL     1      -0.991  -0.909  -0.533  1.00  0.00     0.017 A 
ATOM     23  C   UNL     1      -1.876   0.089  -0.148  1.00  0.00     0.021 A 
ENDBRANCH  14  17
ENDBRANCH   8  13
ENDBRANCH   4   7
ENDBRANCH   2   3
ENDBRANCH   1   2
BRANCH   1  24
ATOM     24  C   UNL     1      -0.231  -4.521   2.711  1.00  0.00     0.118 C 
BRANCH  24  25
ATOM     25  N   UNL     1      -1.123  -4.735   1.575  1.00  0.00    -0.352 N 
ATOM     26  C   UNL     1      -1.974  -5.778   1.268  1.00  0.00     0.251 C 
ATOM     27  H   UNL     1      -1.117  -4.007   0.911  1.00  0.00     0.163 HD
ATOM     28  O   UNL     1      -2.621  -5.749   0.233  1.00  0.00    -0.269 OA
BRANCH  26  29
ATOM     29  C   UNL     1      -2.064  -6.954   2.164  1.00  0.00     0.039 A 
ATOM     30  C   UNL     1      -2.098  -8.236   1.607  1.00  0.00     0.014 A 
ATOM     31  C   UNL     1      -2.061  -6.802   3.548  1.00  0.00     0.014 A 
ATOM     32  C   UNL     1      -2.013  -9.355   2.441  1.00  0.00     0.010 A 
ATOM     33  C   UNL     1      -1.824  -7.902   4.359  1.00  0.00     0.010 A 
ATOM     34  C   UNL     1      -1.813  -9.195   3.821  1.00  0.00    -0.014 A 
BRANCH  34  35
ATOM     35  C   UNL     1      -1.621 -10.355   4.730  1.00  0.00     0.031 A 
ATOM     36  C   UNL     1      -2.548 -10.547   5.904  1.00  0.00     0.074 A 
ATOM     37  C   UNL     1      -0.570 -11.183   4.556  1.00  0.00     0.049 A 
ATOM     38  N   UNL     1      -2.497 -11.438   6.861  1.00  0.00    -0.248 NA
ATOM     39  C   UNL     1      -3.650  -9.579   6.051  1.00  0.00     0.031 C 
ATOM     40  C   UNL     1       0.445 -11.063   3.504  1.00  0.00     0.029 A 
ATOM     41  N   UNL     1      -0.179 -12.294   5.261  1.00  0.00    -0.354 N 
ATOM     42  C   UNL     1      -3.528 -11.111   7.735  1.00  0.00     0.074 A 
ATOM     43  C   UNL     1      -4.139  -9.900   7.238  1.00  0.00     0.031 C 
ATOM     44  C   UNL     1       1.307 -12.088   3.602  1.00  0.00     0.029 A 
ATOM     45  C   UNL     1       0.933 -12.916   4.743  1.00  0.00     0.049 A 
ATOM     46  H   UNL     1      -0.651 -12.616   6.063  1.00  0.00     0.167 HD
ATOM     47  C   UNL     1      -3.958 -11.777   8.833  1.00  0.00     0.031 A 
ATOM     48  C   UNL     1       1.572 -14.036   5.136  1.00  0.00     0.031 A 
ATOM     49  C   UNL     1      -3.383 -13.010   9.291  1.00  0.00     0.049 A 
ATOM     50  C   UNL     1       1.042 -14.795   6.321  1.00  0.00     0.074 A 
ATOM     51  C   UNL     1      -3.785 -13.810  10.346  1.00  0.00     0.029 A 
ATOM     52  N   UNL     1      -2.291 -13.633   8.706  1.00  0.00    -0.354 N 
ATOM     53  N   UNL     1       0.025 -14.504   7.098  1.00  0.00    -0.248 NA
ATOM     54  C   UNL     1       1.733 -16.043   6.672  1.00  0.00     0.031 C 
ATOM     55  C   UNL     1      -2.913 -14.902  10.418  1.00  0.00     0.029 A 
ATOM     56  C   UNL     1      -2.000 -14.806   9.379  1.00  0.00     0.049 A 
ATOM     57  H   UNL     1      -1.796 -13.291   7.927  1.00  0.00     0.167 HD
ATOM     58  C   UNL     1      -0.066 -15.549   8.010  1.00  0.00     0.074 A 
ATOM     59  C   UNL     1       0.993 -16.483   7.681  1.00  0.00     0.031 C 
ATOM     60  C   UNL     1      -0.946 -15.722   9.026  1.00  0.00     0.031 A 
BRANCH  47  61
ATOM     61  C   UNL     1      -5.117 -11.183   9.591  1.00  0.00    -0.014 A 
ATOM     62  C   UNL     1      -6.406 -11.135   9.026  1.00  0.00     0.010 A 
ATOM     63  C   UNL     1      -4.920 -10.666  10.884  1.00  0.00     0.010 A 
ATOM     64  C   UNL     1      -7.459 -10.525   9.712  1.00  0.00     0.020 A 
ATOM     65  C   UNL     1      -5.979 -10.085  11.588  1.00  0.00     0.020 A 
ATOM     66  C   UNL     1      -7.237  -9.997  10.986  1.00  0.00     0.054 A 
BRANCH  66  67
ATOM     67  S   UNL     1      -8.622  -9.212  11.855  1.00  0.00     0.124 S 
ATOM     68  O   UNL     1      -8.731  -7.936  11.153  1.00  0.00    -0.237 OA
ATOM     69  O   UNL     1      -9.718 -10.150  11.626  1.00  0.00    -0.237 OA
ATOM     70  O   UNL     1      -8.158  -9.126  13.238  1.00  0.00    -0.744 OA
ENDBRANCH  66  67
ENDBRANCH  47  61
BRANCH  48  71
ATOM     71  C   UNL     1       2.742 -14.535   4.363  1.00  0.00    -0.014 A 
ATOM     72  C   UNL     1       2.619 -15.677   3.551  1.00  0.00     0.010 A 
ATOM     73  C   UNL     1       3.976 -13.862   4.410  1.00  0.00     0.010 A 
ATOM     74  C   UNL     1       3.710 -16.145   2.812  1.00  0.00     0.020 A 
ATOM     75  C   UNL     1       5.063 -14.312   3.653  1.00  0.00     0.020 A 
ATOM     76  C   UNL     1       4.925 -15.458   2.866  1.00  0.00     0.054 A 
BRANCH  76  77
ATOM     77  S   UNL     1       6.310 -16.048   1.852  1.00  0.00     0.124 S 
ATOM     78  O   UNL     1       6.744 -17.231   2.588  1.00  0.00    -0.237 OA
ATOM     79  O   UNL     1       5.673 -16.302   0.562  1.00  0.00    -0.237 OA
ATOM     80  O   UNL     1       7.245 -14.924   1.864  1.00  0.00    -0.744 OA
ENDBRANCH  76  77
ENDBRANCH  48  71
BRANCH  60  81
ATOM     81  C   UNL     1      -0.833 -16.988   9.830  1.00  0.00    -0.014 A 
ATOM     82  C   UNL     1       0.207 -17.172  10.756  1.00  0.00     0.010 A 
ATOM     83  C   UNL     1      -1.823 -17.979   9.698  1.00  0.00     0.010 A 
ATOM     84  C   UNL     1       0.272 -18.341  11.517  1.00  0.00     0.020 A 
ATOM     85  C   UNL     1      -1.776 -19.137  10.475  1.00  0.00     0.020 A 
ATOM     86  C   UNL     1      -0.720 -19.317  11.371  1.00  0.00     0.054 A 
BRANCH  86  87
ATOM     87  S   UNL     1      -0.640 -20.805  12.404  1.00  0.00     0.124 S 
ATOM     88  O   UNL     1       0.429 -21.563  11.761  1.00  0.00    -0.237 OA
ATOM     89  O   UNL     1      -0.322 -20.264  13.723  1.00  0.00    -0.237 OA
ATOM     90  O   UNL     1      -1.977 -21.383  12.281  1.00  0.00    -0.744 OA
ENDBRANCH  86  87
ENDBRANCH  60  81
ENDBRANCH  34  35
ENDBRANCH  26  29
ENDBRANCH  24  25
ENDBRANCH   1  24
TORSDOF 15
