REMARK SMILES CCc1ccc2c(CC(=O)NCCCNC(=O)c3ccc(-c4c5nc(c(-c6ccc(S(=O)(=O)[O-])cc6)c6ccc([nH]6)c(-c6ccc(S(=O)(=O)[O-])cc6)c6nc(c(-c7ccc(S(=O)(=O)[O-])cc7)c7ccc4[nH]7)C=C6)C=C5)cc3)c(C(=O)c3cc(C)ccn3)[nH]c2c1
REMARK SMILES IDX 13 1 12 2 11 3 9 4 10 5 8 7 7 8 3 9 4 10 90 11 5 12 89 13
REMARK SMILES IDX 6 14 88 15 78 16 2 18 1 19 79 20 80 21 81 22 82 23 87 24
REMARK SMILES IDX 83 25 86 26 84 27 85 28 14 29 15 30 16 31 17 33 18 34 19 35
REMARK SMILES IDX 77 36 20 37 76 38 21 39 22 40 23 41 70 42 24 43 75 44 69 45
REMARK SMILES IDX 71 46 25 47 74 48 68 49 67 50 26 52 56 53 37 54 55 55 38 56
REMARK SMILES IDX 41 57 54 58 72 59 39 60 40 61 53 63 73 64 42 65 27 66 28 67
REMARK SMILES IDX 36 68 29 69 35 70 30 71 31 72 32 73 33 74 34 75 57 76 58 77
REMARK SMILES IDX 66 78 59 79 65 80 60 81 61 82 62 83 63 84 64 85 43 86 44 87
REMARK SMILES IDX 52 88 45 89 51 90 46 91 47 92 48 93 49 94 50 95
REMARK H PARENT 11 6 88 17 15 32 71 51 41 62
REMARK Flexibility Score: inf
ROOT
ATOM      1  C   UNL     1       4.535   5.893   0.405  1.00  0.00     0.042 C 
ENDROOT
BRANCH   1   2
ATOM      2  C   UNL     1       3.562   7.056   0.567  1.00  0.00     0.117 C 
BRANCH   2   3
ATOM      3  N   UNL     1       3.645   8.022  -0.509  1.00  0.00    -0.356 N 
ATOM      4  C   UNL     1       2.774   8.268  -1.532  1.00  0.00     0.224 C 
ATOM      5  O   UNL     1       2.968   9.293  -2.193  1.00  0.00    -0.275 OA
ATOM      6  H   UNL     1       4.451   8.587  -0.502  1.00  0.00     0.163 HD
BRANCH   4   7
ATOM      7  C   UNL     1       1.544   7.397  -1.755  1.00  0.00     0.138 C 
BRANCH   7   8
ATOM      8  C   UNL     1       1.829   5.940  -2.009  1.00  0.00    -0.002 A 
ATOM      9  C   UNL     1       0.906   2.328   0.010  1.00  0.00    -0.046 A 
ATOM     10  C   UNL     1       0.375   3.501   0.564  1.00  0.00     0.004 A 
ATOM     11  C   UNL     1       1.696   2.415  -1.147  1.00  0.00     0.030 A 
ATOM     12  C   UNL     1       0.602   4.755  -0.016  1.00  0.00     0.011 A 
ATOM     13  C   UNL     1       1.909   3.680  -1.717  1.00  0.00     0.046 A 
ATOM     14  C   UNL     1       1.386   4.851  -1.183  1.00  0.00     0.004 A 
ATOM     15  N   UNL     1       2.629   4.034  -2.832  1.00  0.00    -0.352 N 
ATOM     16  C   UNL     1       2.504   5.383  -3.097  1.00  0.00     0.093 A 
ATOM     17  H   UNL     1       3.164   3.408  -3.371  1.00  0.00     0.167 HD
BRANCH   9  18
ATOM     18  C   UNL     1       0.607   1.020   0.714  1.00  0.00     0.032 C 
ATOM     19  C   UNL     1       1.046  -0.258   0.014  1.00  0.00     0.009 C 
ENDBRANCH   9  18
BRANCH  16  20
ATOM     20  C   UNL     1       3.005   6.050  -4.294  1.00  0.00     0.227 C 
ATOM     21  O   UNL     1       2.776   7.230  -4.559  1.00  0.00    -0.285 OA
BRANCH  20  22
ATOM     22  C   UNL     1       3.763   5.255  -5.295  1.00  0.00     0.113 A 
ATOM     23  C   UNL     1       3.095   4.307  -6.065  1.00  0.00     0.036 A 
ATOM     24  N   UNL     1       5.090   5.513  -5.389  1.00  0.00    -0.253 NA
ATOM     25  C   UNL     1       3.834   3.569  -6.991  1.00  0.00    -0.047 A 
ATOM     26  C   UNL     1       5.774   4.805  -6.310  1.00  0.00     0.112 A 
ATOM     27  C   UNL     1       3.188   2.518  -7.842  1.00  0.00     0.044 C 
ATOM     28  C   UNL     1       5.200   3.835  -7.119  1.00  0.00     0.023 A 
ENDBRANCH  20  22
ENDBRANCH  16  20
ENDBRANCH   7   8
ENDBRANCH   4   7
ENDBRANCH   2   3
ENDBRANCH   1   2
BRANCH   1  29
ATOM     29  C   UNL     1       6.009   6.283   0.495  1.00  0.00     0.118 C 
BRANCH  29  30
ATOM     30  N   UNL     1       6.371   6.839   1.792  1.00  0.00    -0.352 N 
ATOM     31  C   UNL     1       7.310   6.437   2.709  1.00  0.00     0.251 C 
ATOM     32  H   UNL     1       5.856   7.636   2.055  1.00  0.00     0.163 HD
ATOM     33  O   UNL     1       7.320   6.961   3.821  1.00  0.00    -0.269 OA
BRANCH  31  34
ATOM     34  C   UNL     1       8.293   5.377   2.390  1.00  0.00     0.039 A 
ATOM     35  C   UNL     1       8.607   4.437   3.378  1.00  0.00     0.014 A 
ATOM     36  C   UNL     1       8.942   5.324   1.153  1.00  0.00     0.014 A 
ATOM     37  C   UNL     1       9.515   3.410   3.103  1.00  0.00     0.010 A 
ATOM     38  C   UNL     1       9.799   4.263   0.859  1.00  0.00     0.010 A 
ATOM     39  C   UNL     1      10.090   3.292   1.828  1.00  0.00    -0.014 A 
BRANCH  39  40
ATOM     40  C   UNL     1      10.970   2.144   1.485  1.00  0.00     0.031 A 
ATOM     41  C   UNL     1      12.421   2.362   1.151  1.00  0.00     0.074 A 
ATOM     42  C   UNL     1      10.442   0.906   1.410  1.00  0.00     0.049 A 
ATOM     43  N   UNL     1      13.317   1.489   0.767  1.00  0.00    -0.248 NA
ATOM     44  C   UNL     1      12.925   3.741   1.240  1.00  0.00     0.031 C 
ATOM     45  C   UNL     1       9.041   0.566   1.674  1.00  0.00     0.029 A 
ATOM     46  N   UNL     1      11.018  -0.296   1.081  1.00  0.00    -0.354 N 
ATOM     47  C   UNL     1      14.485   2.212   0.553  1.00  0.00     0.074 A 
ATOM     48  C   UNL     1      14.172   3.601   0.813  1.00  0.00     0.031 C 
ATOM     49  C   UNL     1       8.872  -0.757   1.516  1.00  0.00     0.029 A 
ATOM     50  C   UNL     1      10.139  -1.353   1.102  1.00  0.00     0.049 A 
ATOM     51  H   UNL     1      11.970  -0.392   0.852  1.00  0.00     0.167 HD
ATOM     52  C   UNL     1      15.709   1.760   0.186  1.00  0.00     0.031 A 
ATOM     53  C   UNL     1      10.324  -2.655   0.811  1.00  0.00     0.031 A 
ATOM     54  C   UNL     1      16.021   0.377  -0.064  1.00  0.00     0.049 A 
ATOM     55  C   UNL     1      11.688  -3.131   0.398  1.00  0.00     0.074 A 
ATOM     56  C   UNL     1      17.245  -0.184  -0.385  1.00  0.00     0.029 A 
ATOM     57  N   UNL     1      15.104  -0.662  -0.025  1.00  0.00    -0.354 N 
ATOM     58  N   UNL     1      12.793  -2.438   0.257  1.00  0.00    -0.248 NA
ATOM     59  C   UNL     1      11.831  -4.565   0.110  1.00  0.00     0.031 C 
ATOM     60  C   UNL     1      17.059  -1.556  -0.585  1.00  0.00     0.029 A 
ATOM     61  C   UNL     1      15.729  -1.857  -0.340  1.00  0.00     0.049 A 
ATOM     62  H   UNL     1      14.149  -0.565   0.195  1.00  0.00     0.167 HD
ATOM     63  C   UNL     1      13.768  -3.356  -0.117  1.00  0.00     0.074 A 
ATOM     64  C   UNL     1      13.126  -4.654  -0.165  1.00  0.00     0.031 C 
ATOM     65  C   UNL     1      15.077  -3.141  -0.394  1.00  0.00     0.031 A 
BRANCH  52  66
ATOM     66  C   UNL     1      16.806   2.779   0.025  1.00  0.00    -0.014 A 
ATOM     67  C   UNL     1      17.372   3.417   1.143  1.00  0.00     0.010 A 
ATOM     68  C   UNL     1      17.306   3.073  -1.256  1.00  0.00     0.010 A 
ATOM     69  C   UNL     1      18.389   4.362   0.980  1.00  0.00     0.020 A 
ATOM     70  C   UNL     1      18.340   3.998  -1.422  1.00  0.00     0.020 A 
ATOM     71  C   UNL     1      18.863   4.651  -0.304  1.00  0.00     0.054 A 
BRANCH  71  72
ATOM     72  S   UNL     1      20.195   5.869  -0.487  1.00  0.00     0.124 S 
ATOM     73  O   UNL     1      19.485   7.126  -0.267  1.00  0.00    -0.237 OA
ATOM     74  O   UNL     1      21.130   5.484   0.567  1.00  0.00    -0.237 OA
ATOM     75  O   UNL     1      20.675   5.654  -1.850  1.00  0.00    -0.744 OA
ENDBRANCH  71  72
ENDBRANCH  52  66
BRANCH  53  76
ATOM     76  C   UNL     1       9.181  -3.602   0.906  1.00  0.00    -0.014 A 
ATOM     77  C   UNL     1       9.117  -4.538   1.953  1.00  0.00     0.010 A 
ATOM     78  C   UNL     1       8.139  -3.557  -0.038  1.00  0.00     0.010 A 
ATOM     79  C   UNL     1       8.037  -5.420   2.048  1.00  0.00     0.020 A 
ATOM     80  C   UNL     1       7.046  -4.420   0.068  1.00  0.00     0.020 A 
ATOM     81  C   UNL     1       7.006  -5.354   1.105  1.00  0.00     0.054 A 
BRANCH  81  82
ATOM     82  S   UNL     1       5.581  -6.463   1.281  1.00  0.00     0.124 S 
ATOM     83  O   UNL     1       6.124  -7.731   0.803  1.00  0.00    -0.237 OA
ATOM     84  O   UNL     1       5.298  -6.393   2.712  1.00  0.00    -0.237 OA
ATOM     85  O   UNL     1       4.567  -5.852   0.424  1.00  0.00    -0.744 OA
ENDBRANCH  81  82
ENDBRANCH  53  76
BRANCH  65  86
ATOM     86  C   UNL     1      15.910  -4.340  -0.759  1.00  0.00    -0.014 A 
ATOM     87  C   UNL     1      15.782  -4.957  -2.016  1.00  0.00     0.010 A 
ATOM     88  C   UNL     1      16.866  -4.827   0.151  1.00  0.00     0.010 A 
ATOM     89  C   UNL     1      16.575  -6.059  -2.345  1.00  0.00     0.020 A 
ATOM     90  C   UNL     1      17.679  -5.913  -0.185  1.00  0.00     0.020 A 
ATOM     91  C   UNL     1      17.518  -6.531  -1.427  1.00  0.00     0.054 A 
BRANCH  91  92
ATOM     92  S   UNL     1      18.566  -7.936  -1.893  1.00  0.00     0.124 S 
ATOM     93  O   UNL     1      17.642  -9.059  -1.762  1.00  0.00    -0.237 OA
ATOM     94  O   UNL     1      18.961  -7.604  -3.260  1.00  0.00    -0.237 OA
ATOM     95  O   UNL     1      19.648  -7.901  -0.913  1.00  0.00    -0.744 OA
ENDBRANCH  91  92
ENDBRANCH  65  86
ENDBRANCH  39  40
ENDBRANCH  31  34
ENDBRANCH  29  30
ENDBRANCH   1  29
TORSDOF 17
