REMARK SMILES Cc1ccc2c(c1)C(=O)C[C@H](C(=O)NCCCNC(=O)c1ccc(-c3c4nc(c(-c5ccc(S(=O)(=O)[O-])cc5)c5ccc([nH]5)c(-c5ccc(S(=O)(=O)[O-])cc5)c5nc(c(-c6ccc(S(=O)(=O)[O-])cc6)c6ccc3[nH]6)C=C5)C=C4)cc1)C2
REMARK SMILES IDX 18 1 19 2 20 3 17 5 16 6 15 7 14 8 12 9 13 10 11 12 1 13
REMARK SMILES IDX 2 14 3 15 7 16 4 17 6 18 5 19 8 20 81 21 9 22 10 23 21 24
REMARK SMILES IDX 22 25 80 26 23 27 79 28 24 29 25 30 26 31 73 32 27 33 78 34
REMARK SMILES IDX 72 35 74 36 28 37 77 38 71 39 70 40 29 42 59 43 40 44 58 45
REMARK SMILES IDX 41 46 44 47 57 48 75 49 42 50 43 51 56 53 76 54 45 55 30 56
REMARK SMILES IDX 31 57 39 58 32 59 38 60 33 61 34 62 35 63 36 64 37 65 60 66
REMARK SMILES IDX 61 67 69 68 62 69 68 70 63 71 64 72 65 73 66 74 67 75 46 76
REMARK SMILES IDX 47 77 55 78 48 79 54 80 49 81 50 82 51 83 52 84 53 85
REMARK H PARENT 18 4 14 11 74 41 44 52
REMARK Flexibility Score: inf
ROOT
ATOM      1  N   UNL     1       4.822   1.577   1.346  1.00  0.00    -0.352 N 
ATOM      2  C   UNL     1       5.268   0.617   0.465  1.00  0.00     0.251 C 
ATOM      3  O   UNL     1       5.166  -0.570   0.771  1.00  0.00    -0.269 OA
ATOM      4  H   UNL     1       4.573   1.233   2.234  1.00  0.00     0.163 HD
ENDROOT
BRANCH   1   5
ATOM      5  C   UNL     1       4.657   3.021   1.183  1.00  0.00     0.118 C 
BRANCH   5   6
ATOM      6  C   UNL     1       3.214   3.469   1.375  1.00  0.00     0.042 C 
BRANCH   6   7
ATOM      7  C   UNL     1       2.738   3.347   2.817  1.00  0.00     0.117 C 
BRANCH   7   8
ATOM      8  N   UNL     1       2.637   4.626   3.494  1.00  0.00    -0.356 N 
ATOM      9  C   UNL     1       1.624   5.494   3.719  1.00  0.00     0.223 C 
ATOM     10  O   UNL     1       1.894   6.436   4.478  1.00  0.00    -0.275 OA
ATOM     11  H   UNL     1       3.493   4.928   3.872  1.00  0.00     0.163 HD
BRANCH   9  12
ATOM     12  C   UNL     1       0.227   5.434   3.091  1.00  0.00     0.090 C 
ATOM     13  C   UNL     1       0.397  -0.121  -0.262  1.00  0.00     0.044 C 
ATOM     14  C   UNL     1      -0.085   0.992   0.621  1.00  0.00    -0.050 A 
ATOM     15  C   UNL     1      -0.509   0.741   1.929  1.00  0.00     0.004 A 
ATOM     16  C   UNL     1       0.012   2.317   0.182  1.00  0.00     0.015 A 
ATOM     17  C   UNL     1      -0.777   1.797   2.802  1.00  0.00     0.005 A 
ATOM     18  C   UNL     1      -0.206   3.378   1.071  1.00  0.00     0.021 A 
ATOM     19  C   UNL     1      -0.565   3.124   2.399  1.00  0.00    -0.036 A 
ATOM     20  C   UNL     1       0.119   4.752   0.619  1.00  0.00     0.163 C 
ATOM     21  C   UNL     1      -0.642   4.225   3.416  1.00  0.00     0.050 C 
ATOM     22  O   UNL     1       0.325   4.973  -0.572  1.00  0.00    -0.294 OA
ATOM     23  C   UNL     1       0.206   5.864   1.632  1.00  0.00     0.095 C 
ENDBRANCH   9  12
ENDBRANCH   7   8
ENDBRANCH   6   7
ENDBRANCH   5   6
ENDBRANCH   1   5
BRANCH   2  24
ATOM     24  C   UNL     1       5.827   0.997  -0.852  1.00  0.00     0.039 A 
ATOM     25  C   UNL     1       6.643   2.119  -0.991  1.00  0.00     0.014 A 
ATOM     26  C   UNL     1       5.521   0.220  -1.974  1.00  0.00     0.014 A 
ATOM     27  C   UNL     1       6.968   2.584  -2.260  1.00  0.00     0.010 A 
ATOM     28  C   UNL     1       5.945   0.630  -3.243  1.00  0.00     0.010 A 
ATOM     29  C   UNL     1       6.621   1.849  -3.403  1.00  0.00    -0.014 A 
BRANCH  29  30
ATOM     30  C   UNL     1       6.954   2.378  -4.753  1.00  0.00     0.031 A 
ATOM     31  C   UNL     1       5.859   2.695  -5.739  1.00  0.00     0.074 A 
ATOM     32  C   UNL     1       8.241   2.626  -5.073  1.00  0.00     0.049 A 
ATOM     33  N   UNL     1       5.963   3.108  -6.976  1.00  0.00    -0.248 NA
ATOM     34  C   UNL     1       4.468   2.528  -5.283  1.00  0.00     0.031 C 
ATOM     35  C   UNL     1       9.385   2.408  -4.184  1.00  0.00     0.029 A 
ATOM     36  N   UNL     1       8.803   3.142  -6.213  1.00  0.00    -0.354 N 
ATOM     37  C   UNL     1       4.662   3.221  -7.453  1.00  0.00     0.074 A 
ATOM     38  C   UNL     1       3.781   2.813  -6.381  1.00  0.00     0.031 C 
ATOM     39  C   UNL     1      10.499   2.849  -4.785  1.00  0.00     0.029 A 
ATOM     40  C   UNL     1      10.168   3.292  -6.135  1.00  0.00     0.049 A 
ATOM     41  H   UNL     1       8.280   3.382  -7.012  1.00  0.00     0.167 HD
ATOM     42  C   UNL     1       4.242   3.638  -8.670  1.00  0.00     0.031 A 
ATOM     43  C   UNL     1      11.066   3.712  -7.050  1.00  0.00     0.031 A 
ATOM     44  C   UNL     1       5.127   4.076  -9.717  1.00  0.00     0.049 A 
ATOM     45  C   UNL     1      10.583   4.105  -8.415  1.00  0.00     0.074 A 
ATOM     46  C   UNL     1       4.795   4.525 -10.984  1.00  0.00     0.029 A 
ATOM     47  N   UNL     1       6.509   4.135  -9.620  1.00  0.00    -0.354 N 
ATOM     48  N   UNL     1       9.351   4.168  -8.858  1.00  0.00    -0.248 NA
ATOM     49  C   UNL     1      11.603   4.467  -9.409  1.00  0.00     0.031 C 
ATOM     50  C   UNL     1       5.978   4.798 -11.672  1.00  0.00     0.029 A 
ATOM     51  C   UNL     1       7.045   4.586 -10.814  1.00  0.00     0.049 A 
ATOM     52  H   UNL     1       7.030   3.892  -8.821  1.00  0.00     0.167 HD
ATOM     53  C   UNL     1       9.445   4.578 -10.182  1.00  0.00     0.074 A 
ATOM     54  C   UNL     1      10.853   4.768 -10.463  1.00  0.00     0.031 C 
ATOM     55  C   UNL     1       8.450   4.770 -11.081  1.00  0.00     0.031 A 
BRANCH  42  56
ATOM     56  C   UNL     1       2.763   3.640  -8.962  1.00  0.00    -0.014 A 
ATOM     57  C   UNL     1       2.242   2.741  -9.913  1.00  0.00     0.010 A 
ATOM     58  C   UNL     1       1.910   4.604  -8.396  1.00  0.00     0.010 A 
ATOM     59  C   UNL     1       0.906   2.825 -10.316  1.00  0.00     0.020 A 
ATOM     60  C   UNL     1       0.565   4.674  -8.777  1.00  0.00     0.020 A 
ATOM     61  C   UNL     1       0.078   3.799  -9.752  1.00  0.00     0.054 A 
BRANCH  61  62
ATOM     62  S   UNL     1      -1.647   3.908 -10.305  1.00  0.00     0.124 S 
ATOM     63  O   UNL     1      -1.513   4.556 -11.606  1.00  0.00    -0.237 OA
ATOM     64  O   UNL     1      -2.062   2.508 -10.336  1.00  0.00    -0.237 OA
ATOM     65  O   UNL     1      -2.288   4.714  -9.268  1.00  0.00    -0.744 OA
ENDBRANCH  61  62
ENDBRANCH  42  56
BRANCH  43  66
ATOM     66  C   UNL     1      12.507   3.761  -6.678  1.00  0.00    -0.014 A 
ATOM     67  C   UNL     1      13.210   2.572  -6.402  1.00  0.00     0.010 A 
ATOM     68  C   UNL     1      13.152   4.994  -6.487  1.00  0.00     0.010 A 
ATOM     69  C   UNL     1      14.501   2.616  -5.872  1.00  0.00     0.020 A 
ATOM     70  C   UNL     1      14.458   5.042  -5.987  1.00  0.00     0.020 A 
ATOM     71  C   UNL     1      15.110   3.853  -5.650  1.00  0.00     0.054 A 
BRANCH  71  72
ATOM     72  S   UNL     1      16.758   3.889  -4.892  1.00  0.00     0.124 S 
ATOM     73  O   UNL     1      16.446   3.635  -3.488  1.00  0.00    -0.237 OA
ATOM     74  O   UNL     1      17.455   2.809  -5.586  1.00  0.00    -0.237 OA
ATOM     75  O   UNL     1      17.242   5.234  -5.192  1.00  0.00    -0.744 OA
ENDBRANCH  71  72
ENDBRANCH  43  66
BRANCH  55  76
ATOM     76  C   UNL     1       8.820   5.205 -12.473  1.00  0.00    -0.014 A 
ATOM     77  C   UNL     1       8.480   6.499 -12.911  1.00  0.00     0.010 A 
ATOM     78  C   UNL     1       9.339   4.280 -13.394  1.00  0.00     0.010 A 
ATOM     79  C   UNL     1       8.600   6.843 -14.259  1.00  0.00     0.020 A 
ATOM     80  C   UNL     1       9.484   4.629 -14.740  1.00  0.00     0.020 A 
ATOM     81  C   UNL     1       9.084   5.898 -15.168  1.00  0.00     0.054 A 
BRANCH  81  82
ATOM     82  S   UNL     1       9.157   6.335 -16.927  1.00  0.00     0.124 S 
ATOM     83  O   UNL     1       7.754   6.258 -17.321  1.00  0.00    -0.237 OA
ATOM     84  O   UNL     1       9.730   7.679 -16.899  1.00  0.00    -0.237 OA
ATOM     85  O   UNL     1      10.025   5.309 -17.500  1.00  0.00    -0.744 OA
ENDBRANCH  81  82
ENDBRANCH  55  76
ENDBRANCH  29  30
ENDBRANCH   2  24
TORSDOF 13
