REMARK SMILES O=C(COc1ccc(Cl)c2ccccc12)N[C@@H](Cc1c[nH]c2ccccc12)C(=O)NCCCNC(=O)c1ccc(-c2c3nc(c(-c4ccc(S(=O)(=O)[O-])cc4)c4ccc([nH]4)c(-c4ccc(S(=O)(=O)[O-])cc4)c4nc(c(-c5ccc(S(=O)(=O)[O-])cc5)c5ccc2[nH]5)C=C4)C=C3)cc1
REMARK SMILES IDX 31 1 30 2 28 3 29 4 17 6 16 7 1 8 2 9 3 11 4 12 5 13 6 14
REMARK SMILES IDX 15 15 7 16 10 17 14 18 8 19 11 20 13 21 9 22 12 23 18 24
REMARK SMILES IDX 19 25 20 26 27 27 21 28 22 29 26 30 23 32 25 33 24 34 32 35
REMARK SMILES IDX 33 36 34 37 35 38 36 40 37 41 38 42 96 43 39 44 95 45 40 46
REMARK SMILES IDX 41 47 42 48 89 49 43 50 94 51 88 52 90 53 44 54 93 55 87 56
REMARK SMILES IDX 86 57 45 59 75 60 56 61 74 62 57 63 60 64 73 65 91 66 58 67
REMARK SMILES IDX 59 68 72 70 92 71 61 72 46 73 47 74 55 75 48 76 54 77 49 78
REMARK SMILES IDX 50 79 51 80 52 81 53 82 76 83 77 84 85 85 78 86 84 87 79 88
REMARK SMILES IDX 80 89 81 90 82 91 83 92 62 93 63 94 71 95 64 96 70 97 65 98
REMARK SMILES IDX 66 99 67 100 68 101 69 102
REMARK H PARENT 30 5 16 10 21 31 34 39 90 58 60 69
REMARK Flexibility Score: inf
ROOT
ATOM      1  C   UNL     1       5.056   3.195   0.773  1.00  0.00     0.117 C 
ENDROOT
BRANCH   1   2
ATOM      2  N   UNL     1       3.753   3.680   0.365  1.00  0.00    -0.354 N 
ATOM      3  C   UNL     1       2.523   3.353   0.867  1.00  0.00     0.242 C 
ATOM      4  O   UNL     1       1.632   4.202   0.744  1.00  0.00    -0.273 OA
ATOM      5  H   UNL     1       3.753   4.332  -0.373  1.00  0.00     0.163 HD
BRANCH   3   6
ATOM      6  C   UNL     1       2.242   2.025   1.614  1.00  0.00     0.175 C 
BRANCH   6   7
ATOM      7  N   UNL     1       2.821   0.881   0.902  1.00  0.00    -0.341 N 
ATOM      8  O   UNL     1       0.846  -0.184   0.411  1.00  0.00    -0.271 OA
ATOM      9  C   UNL     1       2.050  -0.041   0.226  1.00  0.00     0.258 C 
ATOM     10  H   UNL     1       3.799   0.766   0.906  1.00  0.00     0.164 HD
BRANCH   9  11
ATOM     11  C   UNL     1       2.835  -0.869  -0.797  1.00  0.00     0.329 C 
BRANCH  11  12
ATOM     12  O   UNL     1       3.712  -0.071  -1.603  1.00  0.00    -0.483 OA
BRANCH  12  13
ATOM     13  C   UNL     1       3.093   0.402  -2.741  1.00  0.00     0.128 A 
ATOM     14  C   UNL     1       2.122   1.398  -2.625  1.00  0.00     0.048 A 
ATOM     15  C   UNL     1       3.517  -0.058  -4.011  1.00  0.00     0.025 A 
ATOM     16  C   UNL     1       1.515   1.913  -3.764  1.00  0.00     0.025 A 
ATOM     17  C   UNL     1       2.903   0.471  -5.180  1.00  0.00     0.004 A 
ATOM     18  C   UNL     1       4.533  -1.027  -4.158  1.00  0.00     0.012 A 
ATOM     19  C   UNL     1       1.893   1.453  -5.026  1.00  0.00     0.049 A 
ATOM     20  C   UNL     1       3.338  -0.004  -6.441  1.00  0.00     0.010 A 
ATOM     21  C   UNL     1       4.943  -1.473  -5.416  1.00  0.00     0.001 A 
ATOM     22  Cl  UNL     1       1.071   2.158  -6.381  1.00  0.00    -0.084 Cl
ATOM     23  C   UNL     1       4.345  -0.961  -6.557  1.00  0.00     0.001 A 
ENDBRANCH  12  13
ENDBRANCH  11  12
ENDBRANCH   9  11
ENDBRANCH   6   7
BRANCH   6  24
ATOM     24  C   UNL     1       2.481   2.072   3.136  1.00  0.00     0.072 C 
BRANCH  24  25
ATOM     25  C   UNL     1       3.894   2.253   3.603  1.00  0.00    -0.020 A 
ATOM     26  C   UNL     1       4.458   3.426   4.074  1.00  0.00     0.087 A 
ATOM     27  C   UNL     1       4.933   1.265   3.614  1.00  0.00     0.003 A 
ATOM     28  N   UNL     1       5.797   3.212   4.273  1.00  0.00    -0.361 N 
ATOM     29  C   UNL     1       6.122   1.916   3.947  1.00  0.00     0.046 A 
ATOM     30  C   UNL     1       4.987  -0.103   3.280  1.00  0.00     0.010 A 
ATOM     31  H   UNL     1       6.434   3.888   4.600  1.00  0.00     0.166 HD
ATOM     32  C   UNL     1       7.369   1.284   3.904  1.00  0.00     0.026 A 
ATOM     33  C   UNL     1       6.225  -0.754   3.241  1.00  0.00     0.001 A 
ATOM     34  C   UNL     1       7.398  -0.064   3.533  1.00  0.00     0.002 A 
ENDBRANCH  24  25
ENDBRANCH   6  24
ENDBRANCH   3   6
ENDBRANCH   1   2
BRANCH   1  35
ATOM     35  C   UNL     1       6.078   3.087  -0.339  1.00  0.00     0.042 C 
BRANCH  35  36
ATOM     36  C   UNL     1       6.645   4.433  -0.764  1.00  0.00     0.118 C 
BRANCH  36  37
ATOM     37  N   UNL     1       7.373   5.113   0.309  1.00  0.00    -0.352 N 
ATOM     38  C   UNL     1       8.720   5.284   0.527  1.00  0.00     0.251 C 
ATOM     39  H   UNL     1       6.796   5.520   0.995  1.00  0.00     0.163 HD
ATOM     40  O   UNL     1       9.103   5.708   1.616  1.00  0.00    -0.269 OA
BRANCH  38  41
ATOM     41  C   UNL     1       9.704   4.931  -0.520  1.00  0.00     0.039 A 
ATOM     42  C   UNL     1      10.905   4.314  -0.160  1.00  0.00     0.014 A 
ATOM     43  C   UNL     1       9.440   5.197  -1.863  1.00  0.00     0.014 A 
ATOM     44  C   UNL     1      11.776   3.856  -1.154  1.00  0.00     0.010 A 
ATOM     45  C   UNL     1      10.244   4.639  -2.848  1.00  0.00     0.010 A 
ATOM     46  C   UNL     1      11.418   3.953  -2.508  1.00  0.00    -0.014 A 
BRANCH  46  47
ATOM     47  C   UNL     1      12.221   3.328  -3.592  1.00  0.00     0.031 A 
ATOM     48  C   UNL     1      12.742   4.172  -4.727  1.00  0.00     0.074 A 
ATOM     49  C   UNL     1      12.369   1.987  -3.626  1.00  0.00     0.049 A 
ATOM     50  N   UNL     1      13.308   3.794  -5.843  1.00  0.00    -0.248 NA
ATOM     51  C   UNL     1      12.565   5.630  -4.609  1.00  0.00     0.031 C 
ATOM     52  C   UNL     1      11.864   1.047  -2.620  1.00  0.00     0.029 A 
ATOM     53  N   UNL     1      12.973   1.176  -4.555  1.00  0.00    -0.354 N 
ATOM     54  C   UNL     1      13.508   4.957  -6.579  1.00  0.00     0.074 A 
ATOM     55  C   UNL     1      12.972   6.050  -5.798  1.00  0.00     0.031 C 
ATOM     56  C   UNL     1      12.204  -0.204  -2.971  1.00  0.00     0.029 A 
ATOM     57  C   UNL     1      12.902  -0.164  -4.251  1.00  0.00     0.049 A 
ATOM     58  H   UNL     1      13.415   1.521  -5.364  1.00  0.00     0.167 HD
ATOM     59  C   UNL     1      14.098   5.104  -7.788  1.00  0.00     0.031 A 
ATOM     60  C   UNL     1      13.335  -1.243  -4.932  1.00  0.00     0.031 A 
ATOM     61  C   UNL     1      14.681   4.023  -8.535  1.00  0.00     0.049 A 
ATOM     62  C   UNL     1      14.009  -1.049  -6.262  1.00  0.00     0.074 A 
ATOM     63  C   UNL     1      15.400   4.086  -9.716  1.00  0.00     0.029 A 
ATOM     64  N   UNL     1      14.617   2.687  -8.173  1.00  0.00    -0.354 N 
ATOM     65  N   UNL     1      14.259   0.068  -6.901  1.00  0.00    -0.248 NA
ATOM     66  C   UNL     1      14.457  -2.261  -6.963  1.00  0.00     0.031 C 
ATOM     67  C   UNL     1      15.733   2.781 -10.092  1.00  0.00     0.029 A 
ATOM     68  C   UNL     1      15.260   1.912  -9.122  1.00  0.00     0.049 A 
ATOM     69  H   UNL     1      14.180   2.341  -7.362  1.00  0.00     0.167 HD
ATOM     70  C   UNL     1      14.915  -0.305  -8.068  1.00  0.00     0.074 A 
ATOM     71  C   UNL     1      15.034  -1.748  -8.041  1.00  0.00     0.031 C 
ATOM     72  C   UNL     1      15.375   0.477  -9.074  1.00  0.00     0.031 A 
BRANCH  59  73
ATOM     73  C   UNL     1      14.149   6.486  -8.382  1.00  0.00    -0.014 A 
ATOM     74  C   UNL     1      14.999   7.474  -7.853  1.00  0.00     0.010 A 
ATOM     75  C   UNL     1      13.379   6.783  -9.521  1.00  0.00     0.010 A 
ATOM     76  C   UNL     1      15.050   8.745  -8.431  1.00  0.00     0.020 A 
ATOM     77  C   UNL     1      13.447   8.045 -10.118  1.00  0.00     0.020 A 
ATOM     78  C   UNL     1      14.271   9.023  -9.559  1.00  0.00     0.054 A 
BRANCH  78  79
ATOM     79  S   UNL     1      14.386  10.671 -10.310  1.00  0.00     0.124 S 
ATOM     80  O   UNL     1      13.631  11.486  -9.361  1.00  0.00    -0.237 OA
ATOM     81  O   UNL     1      15.826  10.912 -10.337  1.00  0.00    -0.237 OA
ATOM     82  O   UNL     1      13.761  10.499 -11.619  1.00  0.00    -0.744 OA
ENDBRANCH  78  79
ENDBRANCH  59  73
BRANCH  60  83
ATOM     83  C   UNL     1      13.152  -2.609  -4.369  1.00  0.00    -0.014 A 
ATOM     84  C   UNL     1      14.260  -3.330  -3.891  1.00  0.00     0.010 A 
ATOM     85  C   UNL     1      11.876  -3.198  -4.313  1.00  0.00     0.010 A 
ATOM     86  C   UNL     1      14.101  -4.625  -3.390  1.00  0.00     0.020 A 
ATOM     87  C   UNL     1      11.709  -4.484  -3.789  1.00  0.00     0.020 A 
ATOM     88  C   UNL     1      12.826  -5.195  -3.344  1.00  0.00     0.054 A 
BRANCH  88  89
ATOM     89  S   UNL     1      12.634  -6.863  -2.657  1.00  0.00     0.124 S 
ATOM     90  O   UNL     1      13.117  -7.699  -3.751  1.00  0.00    -0.237 OA
ATOM     91  O   UNL     1      13.485  -6.817  -1.470  1.00  0.00    -0.237 OA
ATOM     92  O   UNL     1      11.202  -6.954  -2.382  1.00  0.00    -0.744 OA
ENDBRANCH  88  89
ENDBRANCH  60  83
BRANCH  72  93
ATOM     93  C   UNL     1      16.076  -0.202 -10.216  1.00  0.00    -0.014 A 
ATOM     94  C   UNL     1      15.351  -0.909 -11.191  1.00  0.00     0.010 A 
ATOM     95  C   UNL     1      17.469  -0.066 -10.356  1.00  0.00     0.010 A 
ATOM     96  C   UNL     1      16.011  -1.484 -12.279  1.00  0.00     0.020 A 
ATOM     97  C   UNL     1      18.129  -0.619 -11.455  1.00  0.00     0.020 A 
ATOM     98  C   UNL     1      17.396  -1.332 -12.406  1.00  0.00     0.054 A 
BRANCH  98  99
ATOM     99  S   UNL     1      18.221  -2.029 -13.864  1.00  0.00     0.124 S 
ATOM    100  O   UNL     1      18.245  -3.454 -13.546  1.00  0.00    -0.237 OA
ATOM    101  O   UNL     1      17.328  -1.643 -14.954  1.00  0.00    -0.237 OA
ATOM    102  O   UNL     1      19.524  -1.369 -13.872  1.00  0.00    -0.744 OA
ENDBRANCH  98  99
ENDBRANCH  72  93
ENDBRANCH  46  47
ENDBRANCH  38  41
ENDBRANCH  36  37
ENDBRANCH  35  36
ENDBRANCH   1  35
TORSDOF 19
