REMARK SMILES O=C(NCCCNC(=O)[C@@H]1[C@@H](C(=O)Nc2nc(-c3ccc(F)cc3)cs2)[C@H]2C=C[C@@H]1O2)c1ccc(-c2c3nc(c(-c4ccc(S(=O)(=O)[O-])cc4)c4ccc([nH]4)c(-c4ccc(S(=O)(=O)[O-])cc4)c4nc(c(-c5ccc(S(=O)(=O)[O-])cc5)c5ccc2[nH]5)C=C4)C=C3)cc1
REMARK SMILES IDX 5 1 4 2 3 3 1 4 2 5 32 7 33 8 91 9 34 10 90 11 35 12 36 13
REMARK SMILES IDX 37 14 84 15 38 16 89 17 83 18 85 19 39 20 88 21 82 22 81 23
REMARK SMILES IDX 40 25 70 26 51 27 69 28 52 29 55 30 68 31 86 32 53 33 54 34
REMARK SMILES IDX 67 36 87 37 56 38 41 39 42 40 50 41 43 42 49 43 44 44 45 45
REMARK SMILES IDX 46 46 47 47 48 48 71 49 72 50 80 51 73 52 79 53 74 54 75 55
REMARK SMILES IDX 76 56 77 57 78 58 57 59 58 60 66 61 59 62 65 63 60 64 61 65
REMARK SMILES IDX 62 66 63 67 64 68 6 69 7 70 8 71 9 73 10 74 11 75 30 76
REMARK SMILES IDX 27 77 29 78 31 79 28 80 12 81 13 82 14 83 15 85 16 86 26 87
REMARK SMILES IDX 17 88 25 89 18 90 19 91 24 92 20 93 23 94 21 95 22 96
REMARK H PARENT 3 6 85 24 55 35 7 72 14 84
REMARK Flexibility Score: inf
ROOT
ATOM      1  C   UNL     1       6.062   0.195  -1.892  1.00  0.00     0.042 C 
ENDROOT
BRANCH   1   2
ATOM      2  C   UNL     1       5.033  -0.099  -0.818  1.00  0.00     0.118 C 
BRANCH   2   3
ATOM      3  N   UNL     1       3.714  -0.542  -1.281  1.00  0.00    -0.352 N 
ATOM      4  O   UNL     1       1.593  -1.299  -1.074  1.00  0.00    -0.269 OA
ATOM      5  C   UNL     1       2.690  -1.131  -0.560  1.00  0.00     0.251 C 
ATOM      6  H   UNL     1       3.532  -0.401  -2.238  1.00  0.00     0.163 HD
BRANCH   5   7
ATOM      7  C   UNL     1       2.977  -1.635   0.800  1.00  0.00     0.039 A 
ATOM      8  C   UNL     1       3.786  -0.907   1.663  1.00  0.00     0.014 A 
ATOM      9  C   UNL     1       2.654  -2.964   1.083  1.00  0.00     0.014 A 
ATOM     10  C   UNL     1       4.582  -1.604   2.552  1.00  0.00     0.010 A 
ATOM     11  C   UNL     1       3.333  -3.623   2.107  1.00  0.00     0.010 A 
ATOM     12  C   UNL     1       4.397  -2.981   2.754  1.00  0.00    -0.014 A 
BRANCH  12  13
ATOM     13  C   UNL     1       5.400  -3.741   3.545  1.00  0.00     0.031 A 
ATOM     14  C   UNL     1       6.156  -4.891   2.916  1.00  0.00     0.074 A 
ATOM     15  C   UNL     1       5.708  -3.325   4.788  1.00  0.00     0.049 A 
ATOM     16  N   UNL     1       7.007  -5.717   3.470  1.00  0.00    -0.248 NA
ATOM     17  C   UNL     1       5.920  -5.160   1.485  1.00  0.00     0.031 C 
ATOM     18  C   UNL     1       5.081  -2.195   5.482  1.00  0.00     0.029 A 
ATOM     19  N   UNL     1       6.651  -3.772   5.674  1.00  0.00    -0.354 N 
ATOM     20  C   UNL     1       7.357  -6.631   2.479  1.00  0.00     0.074 A 
ATOM     21  C   UNL     1       6.627  -6.265   1.288  1.00  0.00     0.031 C 
ATOM     22  C   UNL     1       5.706  -1.991   6.648  1.00  0.00     0.029 A 
ATOM     23  C   UNL     1       6.701  -3.038   6.835  1.00  0.00     0.049 A 
ATOM     24  H   UNL     1       7.236  -4.544   5.497  1.00  0.00     0.167 HD
ATOM     25  C   UNL     1       8.210  -7.681   2.560  1.00  0.00     0.031 A 
ATOM     26  C   UNL     1       7.434  -3.210   7.949  1.00  0.00     0.031 A 
ATOM     27  C   UNL     1       8.964  -8.006   3.742  1.00  0.00     0.049 A 
ATOM     28  C   UNL     1       8.373  -4.375   8.011  1.00  0.00     0.074 A 
ATOM     29  C   UNL     1       9.833  -9.062   3.953  1.00  0.00     0.029 A 
ATOM     30  N   UNL     1       8.959  -7.254   4.908  1.00  0.00    -0.354 N 
ATOM     31  N   UNL     1       8.614  -5.284   7.095  1.00  0.00    -0.248 NA
ATOM     32  C   UNL     1       9.124  -4.550   9.258  1.00  0.00     0.031 C 
ATOM     33  C   UNL     1      10.333  -8.963   5.256  1.00  0.00     0.029 A 
ATOM     34  C   UNL     1       9.808  -7.821   5.841  1.00  0.00     0.049 A 
ATOM     35  H   UNL     1       8.428  -6.437   5.051  1.00  0.00     0.167 HD
ATOM     36  C   UNL     1       9.536  -6.151   7.663  1.00  0.00     0.074 A 
ATOM     37  C   UNL     1       9.840  -5.631   8.983  1.00  0.00     0.031 C 
ATOM     38  C   UNL     1      10.071  -7.287   7.151  1.00  0.00     0.031 A 
BRANCH  25  39
ATOM     39  C   UNL     1       8.348  -8.575   1.353  1.00  0.00    -0.014 A 
ATOM     40  C   UNL     1       9.066  -8.169   0.215  1.00  0.00     0.010 A 
ATOM     41  C   UNL     1       7.785  -9.866   1.379  1.00  0.00     0.010 A 
ATOM     42  C   UNL     1       9.196  -9.026  -0.885  1.00  0.00     0.020 A 
ATOM     43  C   UNL     1       7.931 -10.733   0.291  1.00  0.00     0.020 A 
ATOM     44  C   UNL     1       8.624 -10.301  -0.841  1.00  0.00     0.054 A 
BRANCH  44  45
ATOM     45  S   UNL     1       8.831 -11.405  -2.268  1.00  0.00     0.124 S 
ATOM     46  O   UNL     1       7.895 -10.829  -3.231  1.00  0.00    -0.237 OA
ATOM     47  O   UNL     1      10.246 -11.245  -2.596  1.00  0.00    -0.237 OA
ATOM     48  O   UNL     1       8.460 -12.718  -1.748  1.00  0.00    -0.744 OA
ENDBRANCH  44  45
ENDBRANCH  25  39
BRANCH  26  49
ATOM     49  C   UNL     1       7.238  -2.293   9.102  1.00  0.00    -0.014 A 
ATOM     50  C   UNL     1       8.229  -1.369   9.469  1.00  0.00     0.010 A 
ATOM     51  C   UNL     1       6.018  -2.307   9.806  1.00  0.00     0.010 A 
ATOM     52  C   UNL     1       8.004  -0.474  10.520  1.00  0.00     0.020 A 
ATOM     53  C   UNL     1       5.778  -1.395  10.834  1.00  0.00     0.020 A 
ATOM     54  C   UNL     1       6.778  -0.490  11.193  1.00  0.00     0.054 A 
BRANCH  54  55
ATOM     55  S   UNL     1       6.466   0.729  12.499  1.00  0.00     0.124 S 
ATOM     56  O   UNL     1       7.132   0.119  13.646  1.00  0.00    -0.237 OA
ATOM     57  O   UNL     1       7.095   1.936  11.969  1.00  0.00    -0.237 OA
ATOM     58  O   UNL     1       5.007   0.779  12.572  1.00  0.00    -0.744 OA
ENDBRANCH  54  55
ENDBRANCH  26  49
BRANCH  38  59
ATOM     59  C   UNL     1      11.034  -8.024   8.034  1.00  0.00    -0.014 A 
ATOM     60  C   UNL     1      10.570  -8.779   9.126  1.00  0.00     0.010 A 
ATOM     61  C   UNL     1      12.412  -7.957   7.772  1.00  0.00     0.010 A 
ATOM     62  C   UNL     1      11.477  -9.416   9.974  1.00  0.00     0.020 A 
ATOM     63  C   UNL     1      13.321  -8.611   8.606  1.00  0.00     0.020 A 
ATOM     64  C   UNL     1      12.847  -9.318   9.714  1.00  0.00     0.054 A 
BRANCH  64  65
ATOM     65  S   UNL     1      14.011 -10.150  10.828  1.00  0.00     0.124 S 
ATOM     66  O   UNL     1      14.064  -9.222  11.954  1.00  0.00    -0.237 OA
ATOM     67  O   UNL     1      13.350 -11.425  11.095  1.00  0.00    -0.237 OA
ATOM     68  O   UNL     1      15.236 -10.244  10.037  1.00  0.00    -0.744 OA
ENDBRANCH  64  65
ENDBRANCH  38  59
ENDBRANCH  12  13
ENDBRANCH   5   7
ENDBRANCH   2   3
ENDBRANCH   1   2
BRANCH   1  69
ATOM     69  C   UNL     1       5.555   1.118  -2.975  1.00  0.00     0.117 C 
BRANCH  69  70
ATOM     70  N   UNL     1       5.903   2.516  -2.872  1.00  0.00    -0.356 N 
ATOM     71  C   UNL     1       5.907   3.460  -3.859  1.00  0.00     0.227 C 
ATOM     72  H   UNL     1       6.171   2.827  -1.977  1.00  0.00     0.163 HD
ATOM     73  O   UNL     1       6.002   4.640  -3.499  1.00  0.00    -0.275 OA
BRANCH  71  74
ATOM     74  C   UNL     1       5.938   3.143  -5.356  1.00  0.00     0.127 C 
ATOM     75  C   UNL     1       5.056   2.003  -5.909  1.00  0.00     0.127 C 
ATOM     76  C   UNL     1       7.360   2.657  -5.707  1.00  0.00     0.155 C 
ATOM     77  C   UNL     1       6.120   1.105  -6.588  1.00  0.00     0.155 C 
ATOM     78  C   UNL     1       7.592   2.728  -7.186  1.00  0.00     0.004 C 
ATOM     79  O   UNL     1       7.194   1.215  -5.610  1.00  0.00    -0.365 OA
ATOM     80  C   UNL     1       6.836   1.762  -7.726  1.00  0.00     0.004 C 
BRANCH  75  81
ATOM     81  C   UNL     1       3.933   2.370  -6.867  1.00  0.00     0.233 C 
ATOM     82  O   UNL     1       4.133   2.796  -8.005  1.00  0.00    -0.274 OA
ATOM     83  N   UNL     1       2.656   2.019  -6.513  1.00  0.00    -0.302 N 
ATOM     84  H   UNL     1       2.040   1.757  -7.235  1.00  0.00     0.172 HD
BRANCH  83  85
ATOM     85  C   UNL     1       2.170   2.003  -5.236  1.00  0.00     0.189 A 
ATOM     86  N   UNL     1       2.631   2.640  -4.190  1.00  0.00    -0.220 NA
ATOM     87  S   UNL     1       0.759   1.075  -5.011  1.00  0.00    -0.105 S 
ATOM     88  C   UNL     1       1.789   2.406  -3.109  1.00  0.00     0.084 A 
ATOM     89  C   UNL     1       0.781   1.487  -3.341  1.00  0.00     0.097 A 
BRANCH  88  90
ATOM     90  C   UNL     1       1.942   3.124  -1.853  1.00  0.00     0.001 A 
ATOM     91  C   UNL     1       2.003   4.525  -1.867  1.00  0.00     0.013 A 
ATOM     92  C   UNL     1       1.998   2.454  -0.625  1.00  0.00     0.013 A 
ATOM     93  C   UNL     1       2.117   5.239  -0.671  1.00  0.00     0.040 A 
ATOM     94  C   UNL     1       2.146   3.165   0.569  1.00  0.00     0.040 A 
ATOM     95  C   UNL     1       2.198   4.552   0.534  1.00  0.00     0.123 A 
ATOM     96  F   UNL     1       2.317   5.237   1.679  1.00  0.00    -0.207 F 
ENDBRANCH  88  90
ENDBRANCH  83  85
ENDBRANCH  75  81
ENDBRANCH  71  74
ENDBRANCH  69  70
ENDBRANCH   1  69
TORSDOF 16
