REMARK SMILES C[C@@H]1CCC[C@@](Cc2ncccn2)(C(=O)NCCCNC(=O)c2ccc(-c3c4nc(c(-c5ccc(S(=O)(=O)[O-])cc5)c5ccc([nH]5)c(-c5ccc(S(=O)(=O)[O-])cc5)c5nc(c(-c6ccc(S(=O)(=O)[O-])cc6)c6ccc3[nH]6)C=C5)C=C4)cc2)C1
REMARK SMILES IDX 18 1 17 2 16 3 14 4 15 5 6 7 1 8 2 9 3 10 83 11 4 12 5 13
REMARK SMILES IDX 7 14 8 15 9 16 13 17 10 18 12 19 11 20 19 21 20 22 21 23
REMARK SMILES IDX 22 25 23 26 24 27 82 28 25 29 81 30 26 31 27 32 28 33 75 34
REMARK SMILES IDX 29 35 80 36 74 37 76 38 30 39 79 40 73 41 72 42 31 44 61 45
REMARK SMILES IDX 42 46 60 47 43 48 46 49 59 50 77 51 44 52 45 53 58 55 78 56
REMARK SMILES IDX 47 57 32 58 33 59 41 60 34 61 40 62 35 63 36 64 37 65 38 66
REMARK SMILES IDX 39 67 62 68 63 69 71 70 64 71 70 72 65 73 66 74 67 75 68 76
REMARK SMILES IDX 69 77 48 78 49 79 57 80 50 81 56 82 51 83 52 84 53 85 54 86
REMARK SMILES IDX 55 87
REMARK H PARENT 16 6 20 24 76 43 46 54
REMARK Flexibility Score: inf
ROOT
ATOM      1  C   UNL     1      -5.377  -1.450  -0.758  1.00  0.00     0.042 C 
ENDROOT
BRANCH   1   2
ATOM      2  C   UNL     1      -4.231  -1.830   0.154  1.00  0.00     0.117 C 
BRANCH   2   3
ATOM      3  N   UNL     1      -3.103  -2.441  -0.512  1.00  0.00    -0.356 N 
ATOM      4  C   UNL     1      -1.769  -2.315  -0.285  1.00  0.00     0.226 C 
ATOM      5  O   UNL     1      -1.075  -3.232  -0.744  1.00  0.00    -0.274 OA
ATOM      6  H   UNL     1      -3.340  -3.046  -1.251  1.00  0.00     0.163 HD
BRANCH   4   7
ATOM      7  C   UNL     1      -1.120  -1.122   0.480  1.00  0.00     0.056 C 
ATOM      8  C   UNL     1       1.726   0.204   1.823  1.00  0.00     0.007 C 
ATOM      9  C   UNL     1       1.271   0.077   0.368  1.00  0.00    -0.013 C 
ATOM     10  C   UNL     1       0.587   1.351  -0.125  1.00  0.00     0.003 C 
ATOM     11  C   UNL     1       0.407  -1.165   0.079  1.00  0.00     0.020 C 
ATOM     12  C   UNL     1      -0.852   1.456   0.355  1.00  0.00     0.001 C 
ATOM     13  C   UNL     1      -1.673   0.231  -0.036  1.00  0.00     0.017 C 
BRANCH   7  14
ATOM     14  C   UNL     1      -1.201  -1.365   2.016  1.00  0.00     0.094 C 
BRANCH  14  15
ATOM     15  C   UNL     1      -2.536  -1.351   2.709  1.00  0.00     0.129 A 
ATOM     16  N   UNL     1      -3.112  -0.154   2.938  1.00  0.00    -0.241 NA
ATOM     17  N   UNL     1      -3.087  -2.533   3.049  1.00  0.00    -0.241 NA
ATOM     18  C   UNL     1      -4.337  -0.170   3.503  1.00  0.00     0.115 A 
ATOM     19  C   UNL     1      -4.309  -2.490   3.619  1.00  0.00     0.115 A 
ATOM     20  C   UNL     1      -4.995  -1.324   3.856  1.00  0.00     0.040 A 
ENDBRANCH  14  15
ENDBRANCH   7  14
ENDBRANCH   4   7
ENDBRANCH   2   3
ENDBRANCH   1   2
BRANCH   1  21
ATOM     21  C   UNL     1      -6.221  -2.645  -1.170  1.00  0.00     0.118 C 
BRANCH  21  22
ATOM     22  N   UNL     1      -6.850  -3.316  -0.029  1.00  0.00    -0.352 N 
ATOM     23  C   UNL     1      -8.148  -3.302   0.423  1.00  0.00     0.251 C 
ATOM     24  H   UNL     1      -6.238  -3.872   0.505  1.00  0.00     0.163 HD
ATOM     25  O   UNL     1      -8.405  -3.736   1.544  1.00  0.00    -0.269 OA
BRANCH  23  26
ATOM     26  C   UNL     1      -9.221  -2.739  -0.422  1.00  0.00     0.039 A 
ATOM     27  C   UNL     1     -10.226  -1.962   0.160  1.00  0.00     0.014 A 
ATOM     28  C   UNL     1      -9.220  -2.957  -1.799  1.00  0.00     0.014 A 
ATOM     29  C   UNL     1     -11.153  -1.307  -0.656  1.00  0.00     0.010 A 
ATOM     30  C   UNL     1     -10.061  -2.213  -2.614  1.00  0.00     0.010 A 
ATOM     31  C   UNL     1     -11.032  -1.372  -2.054  1.00  0.00    -0.014 A 
BRANCH  31  32
ATOM     32  C   UNL     1     -11.877  -0.554  -2.962  1.00  0.00     0.031 A 
ATOM     33  C   UNL     1     -12.709  -1.227  -4.022  1.00  0.00     0.074 A 
ATOM     34  C   UNL     1     -11.787   0.792  -2.919  1.00  0.00     0.049 A 
ATOM     35  N   UNL     1     -13.381  -0.687  -5.005  1.00  0.00    -0.248 NA
ATOM     36  C   UNL     1     -12.757  -2.700  -4.003  1.00  0.00     0.031 C 
ATOM     37  C   UNL     1     -10.957   1.561  -1.986  1.00  0.00     0.029 A 
ATOM     38  N   UNL     1     -12.381   1.754  -3.697  1.00  0.00    -0.354 N 
ATOM     39  C   UNL     1     -13.890  -1.750  -5.743  1.00  0.00     0.074 A 
ATOM     40  C   UNL     1     -13.421  -2.966  -5.119  1.00  0.00     0.031 C 
ATOM     41  C   UNL     1     -11.109   2.872  -2.235  1.00  0.00     0.029 A 
ATOM     42  C   UNL     1     -12.005   3.038  -3.374  1.00  0.00     0.049 A 
ATOM     43  H   UNL     1     -13.016   1.546  -4.420  1.00  0.00     0.167 HD
ATOM     44  C   UNL     1     -14.690  -1.715  -6.834  1.00  0.00     0.031 A 
ATOM     45  C   UNL     1     -12.325   4.217  -3.942  1.00  0.00     0.031 A 
ATOM     46  C   UNL     1     -15.198  -0.503  -7.417  1.00  0.00     0.049 A 
ATOM     47  C   UNL     1     -13.246   4.226  -5.131  1.00  0.00     0.074 A 
ATOM     48  C   UNL     1     -16.112  -0.365  -8.446  1.00  0.00     0.029 A 
ATOM     49  N   UNL     1     -14.836   0.775  -7.024  1.00  0.00    -0.354 N 
ATOM     50  N   UNL     1     -13.804   3.211  -5.746  1.00  0.00    -0.248 NA
ATOM     51  C   UNL     1     -13.583   5.538  -5.702  1.00  0.00     0.031 C 
ATOM     52  C   UNL     1     -16.262   0.999  -8.712  1.00  0.00     0.029 A 
ATOM     53  C   UNL     1     -15.482   1.710  -7.815  1.00  0.00     0.049 A 
ATOM     54  H   UNL     1     -14.213   0.987  -6.292  1.00  0.00     0.167 HD
ATOM     55  C   UNL     1     -14.571   3.763  -6.765  1.00  0.00     0.074 A 
ATOM     56  C   UNL     1     -14.423   5.201  -6.671  1.00  0.00     0.031 C 
ATOM     57  C   UNL     1     -15.324   3.136  -7.701  1.00  0.00     0.031 A 
BRANCH  44  58
ATOM     58  C   UNL     1     -15.077  -3.023  -7.471  1.00  0.00    -0.014 A 
ATOM     59  C   UNL     1     -15.979  -3.900  -6.843  1.00  0.00     0.010 A 
ATOM     60  C   UNL     1     -14.588  -3.344  -8.751  1.00  0.00     0.010 A 
ATOM     61  C   UNL     1     -16.365  -5.086  -7.472  1.00  0.00     0.020 A 
ATOM     62  C   UNL     1     -14.992  -4.517  -9.394  1.00  0.00     0.020 A 
ATOM     63  C   UNL     1     -15.871  -5.386  -8.745  1.00  0.00     0.054 A 
BRANCH  63  64
ATOM     64  S   UNL     1     -16.434  -6.906  -9.560  1.00  0.00     0.124 S 
ATOM     65  O   UNL     1     -15.721  -7.933  -8.805  1.00  0.00    -0.237 OA
ATOM     66  O   UNL     1     -17.879  -6.863  -9.352  1.00  0.00    -0.237 OA
ATOM     67  O   UNL     1     -16.001  -6.738 -10.945  1.00  0.00    -0.744 OA
ENDBRANCH  63  64
ENDBRANCH  44  58
BRANCH  45  68
ATOM     68  C   UNL     1     -11.763   5.487  -3.406  1.00  0.00    -0.014 A 
ATOM     69  C   UNL     1     -12.590   6.410  -2.741  1.00  0.00     0.010 A 
ATOM     70  C   UNL     1     -10.397   5.786  -3.566  1.00  0.00     0.010 A 
ATOM     71  C   UNL     1     -12.069   7.621  -2.274  1.00  0.00     0.020 A 
ATOM     72  C   UNL     1      -9.867   6.983  -3.075  1.00  0.00     0.020 A 
ATOM     73  C   UNL     1     -10.711   7.901  -2.447  1.00  0.00     0.054 A 
BRANCH  73  74
ATOM     74  S   UNL     1     -10.049   9.465  -1.809  1.00  0.00     0.124 S 
ATOM     75  O   UNL     1     -10.536  10.424  -2.795  1.00  0.00    -0.237 OA
ATOM     76  O   UNL     1     -10.661   9.551  -0.485  1.00  0.00    -0.237 OA
ATOM     77  O   UNL     1      -8.604   9.247  -1.805  1.00  0.00    -0.744 OA
ENDBRANCH  73  74
ENDBRANCH  45  68
BRANCH  57  78
ATOM     78  C   UNL     1     -16.063   3.997  -8.688  1.00  0.00    -0.014 A 
ATOM     79  C   UNL     1     -15.381   4.641  -9.734  1.00  0.00     0.010 A 
ATOM     80  C   UNL     1     -17.464   4.097  -8.612  1.00  0.00     0.010 A 
ATOM     81  C   UNL     1     -16.087   5.387 -10.680  1.00  0.00     0.020 A 
ATOM     82  C   UNL     1     -18.176   4.820  -9.571  1.00  0.00     0.020 A 
ATOM     83  C   UNL     1     -17.481   5.468 -10.595  1.00  0.00     0.054 A 
BRANCH  83  84
ATOM     84  S   UNL     1     -18.380   6.387 -11.874  1.00  0.00     0.124 S 
ATOM     85  O   UNL     1     -18.087   7.772 -11.515  1.00  0.00    -0.237 OA
ATOM     86  O   UNL     1     -17.758   5.912 -13.107  1.00  0.00    -0.237 OA
ATOM     87  O   UNL     1     -19.769   5.975 -11.684  1.00  0.00    -0.744 OA
ENDBRANCH  83  84
ENDBRANCH  57  78
ENDBRANCH  31  32
ENDBRANCH  23  26
ENDBRANCH  21  22
ENDBRANCH   1  21
TORSDOF 15
