REMARK SMILES Cc1cccc(C)c1Nc1ccccc1CC(=O)NCCCNC(=O)c1ccc(-c2c3nc(c(-c4ccc(S(=O)(=O)[O-])cc4)c4ccc([nH]4)c(-c4ccc(S(=O)(=O)[O-])cc4)c4nc(c(-c5ccc(S(=O)(=O)[O-])cc5)c5ccc2[nH]5)C=C4)C=C3)cc1
REMARK SMILES IDX 21 1 20 2 19 3 17 4 18 5 16 7 15 8 10 9 11 10 12 11 14 12
REMARK SMILES IDX 13 13 9 14 8 16 1 17 2 18 3 19 4 20 6 21 5 22 7 23 22 24
REMARK SMILES IDX 23 25 24 26 25 28 26 29 27 30 85 31 28 32 84 33 29 34 30 35
REMARK SMILES IDX 31 36 78 37 32 38 83 39 77 40 79 41 33 42 82 43 76 44 75 45
REMARK SMILES IDX 34 47 64 48 45 49 63 50 46 51 49 52 62 53 80 54 47 55 48 56
REMARK SMILES IDX 61 58 81 59 50 60 35 61 36 62 44 63 37 64 43 65 38 66 39 67
REMARK SMILES IDX 40 68 41 69 42 70 65 71 66 72 74 73 67 74 73 75 68 76 69 77
REMARK SMILES IDX 70 78 71 79 72 80 51 81 52 82 60 83 53 84 59 85 54 86 55 87
REMARK SMILES IDX 56 88 57 89 58 90
REMARK H PARENT 19 6 9 15 23 27 79 46 49 57
REMARK Flexibility Score: inf
ROOT
ATOM      1  C   UNL     1       0.451   5.288   2.390  1.00  0.00     0.042 C 
ENDROOT
BRANCH   1   2
ATOM      2  C   UNL     1       0.565   3.858   2.911  1.00  0.00     0.117 C 
BRANCH   2   3
ATOM      3  N   UNL     1      -0.502   3.533   3.837  1.00  0.00    -0.356 N 
ATOM      4  C   UNL     1      -1.658   2.850   3.586  1.00  0.00     0.224 C 
ATOM      5  O   UNL     1      -2.496   2.764   4.485  1.00  0.00    -0.275 OA
ATOM      6  H   UNL     1      -0.378   3.843   4.763  1.00  0.00     0.163 HD
BRANCH   4   7
ATOM      7  C   UNL     1      -1.859   2.175   2.241  1.00  0.00     0.137 C 
BRANCH   7   8
ATOM      8  C   UNL     1      -2.138   3.128   1.096  1.00  0.00    -0.015 A 
ATOM      9  C   UNL     1      -1.347   3.183  -0.072  1.00  0.00     0.042 A 
ATOM     10  C   UNL     1      -1.629   4.173  -1.033  1.00  0.00     0.026 A 
ATOM     11  C   UNL     1      -2.690   5.063  -0.874  1.00  0.00     0.002 A 
ATOM     12  C   UNL     1      -3.223   4.020   1.229  1.00  0.00     0.006 A 
ATOM     13  C   UNL     1      -3.497   4.976   0.252  1.00  0.00     0.000 A 
BRANCH   9  14
ATOM     14  N   UNL     1      -0.318   2.272  -0.385  1.00  0.00    -0.355 N 
ATOM     15  H   UNL     1       0.502   2.706  -0.716  1.00  0.00     0.167 HD
BRANCH  14  16
ATOM     16  C   UNL     1      -0.222   0.863  -0.320  1.00  0.00     0.044 A 
ATOM     17  C   UNL     1       2.308   1.134  -0.020  1.00  0.00     0.046 C 
ATOM     18  C   UNL     1       1.061   0.289  -0.105  1.00  0.00    -0.027 A 
ATOM     19  C   UNL     1       1.196  -1.100   0.062  1.00  0.00     0.005 A 
ATOM     20  C   UNL     1       0.083  -1.928   0.025  1.00  0.00     0.001 A 
ATOM     21  C   UNL     1      -1.341   0.001  -0.410  1.00  0.00    -0.027 A 
ATOM     22  C   UNL     1      -1.174  -1.382  -0.208  1.00  0.00     0.005 A 
ATOM     23  C   UNL     1      -2.731   0.472  -0.750  1.00  0.00     0.046 C 
ENDBRANCH  14  16
ENDBRANCH   9  14
ENDBRANCH   7   8
ENDBRANCH   4   7
ENDBRANCH   2   3
ENDBRANCH   1   2
BRANCH   1  24
ATOM     24  C   UNL     1       0.648   6.348   3.469  1.00  0.00     0.118 C 
BRANCH  24  25
ATOM     25  N   UNL     1       1.973   6.284   4.073  1.00  0.00    -0.352 N 
ATOM     26  C   UNL     1       2.944   7.246   4.168  1.00  0.00     0.251 C 
ATOM     27  H   UNL     1       2.206   5.416   4.474  1.00  0.00     0.163 HD
ATOM     28  O   UNL     1       4.080   6.924   4.520  1.00  0.00    -0.269 OA
BRANCH  26  29
ATOM     29  C   UNL     1       2.641   8.653   3.840  1.00  0.00     0.039 A 
ATOM     30  C   UNL     1       3.576   9.392   3.110  1.00  0.00     0.014 A 
ATOM     31  C   UNL     1       1.451   9.252   4.265  1.00  0.00     0.014 A 
ATOM     32  C   UNL     1       3.286  10.709   2.747  1.00  0.00     0.010 A 
ATOM     33  C   UNL     1       1.133  10.539   3.841  1.00  0.00     0.010 A 
ATOM     34  C   UNL     1       2.044  11.278   3.073  1.00  0.00    -0.014 A 
BRANCH  34  35
ATOM     35  C   UNL     1       1.666  12.628   2.584  1.00  0.00     0.031 A 
ATOM     36  C   UNL     1       1.415  13.750   3.553  1.00  0.00     0.074 A 
ATOM     37  C   UNL     1       1.480  12.818   1.263  1.00  0.00     0.049 A 
ATOM     38  N   UNL     1       1.022  14.974   3.310  1.00  0.00    -0.248 NA
ATOM     39  C   UNL     1       1.612  13.454   4.982  1.00  0.00     0.031 C 
ATOM     40  C   UNL     1       1.656  11.796   0.227  1.00  0.00     0.029 A 
ATOM     41  N   UNL     1       1.096  13.934   0.562  1.00  0.00    -0.354 N 
ATOM     42  C   UNL     1       0.910  15.590   4.551  1.00  0.00     0.074 A 
ATOM     43  C   UNL     1       1.234  14.592   5.548  1.00  0.00     0.031 C 
ATOM     44  C   UNL     1       1.409  12.339  -0.975  1.00  0.00     0.029 A 
ATOM     45  C   UNL     1       1.009  13.731  -0.795  1.00  0.00     0.049 A 
ATOM     46  H   UNL     1       0.900  14.798   0.991  1.00  0.00     0.167 HD
ATOM     47  C   UNL     1       0.581  16.873   4.833  1.00  0.00     0.031 A 
ATOM     48  C   UNL     1       0.635  14.564  -1.785  1.00  0.00     0.031 A 
ATOM     49  C   UNL     1       0.259  17.860   3.835  1.00  0.00     0.049 A 
ATOM     50  C   UNL     1       0.241  15.974  -1.442  1.00  0.00     0.074 A 
ATOM     51  C   UNL     1      -0.028  19.202   4.014  1.00  0.00     0.029 A 
ATOM     52  N   UNL     1       0.169  17.612   2.473  1.00  0.00    -0.354 N 
ATOM     53  N   UNL     1       0.216  16.559  -0.268  1.00  0.00    -0.248 NA
ATOM     54  C   UNL     1      -0.172  16.836  -2.557  1.00  0.00     0.031 C 
ATOM     55  C   UNL     1      -0.355  19.749   2.769  1.00  0.00     0.029 A 
ATOM     56  C   UNL     1      -0.208  18.765   1.805  1.00  0.00     0.049 A 
ATOM     57  H   UNL     1       0.347  16.743   2.045  1.00  0.00     0.167 HD
ATOM     58  C   UNL     1      -0.200  17.864  -0.506  1.00  0.00     0.074 A 
ATOM     59  C   UNL     1      -0.390  17.988  -1.937  1.00  0.00     0.031 C 
ATOM     60  C   UNL     1      -0.408  18.869   0.381  1.00  0.00     0.031 A 
BRANCH  47  61
ATOM     61  C   UNL     1       0.538  17.284   6.283  1.00  0.00    -0.014 A 
ATOM     62  C   UNL     1       1.715  17.381   7.048  1.00  0.00     0.010 A 
ATOM     63  C   UNL     1      -0.691  17.624   6.877  1.00  0.00     0.010 A 
ATOM     64  C   UNL     1       1.658  17.773   8.388  1.00  0.00     0.020 A 
ATOM     65  C   UNL     1      -0.749  18.045   8.209  1.00  0.00     0.020 A 
ATOM     66  C   UNL     1       0.426  18.102   8.961  1.00  0.00     0.054 A 
BRANCH  66  67
ATOM     67  S   UNL     1       0.388  18.632  10.695  1.00  0.00     0.124 S 
ATOM     68  O   UNL     1       0.671  17.383  11.398  1.00  0.00    -0.237 OA
ATOM     69  O   UNL     1       1.449  19.635  10.745  1.00  0.00    -0.237 OA
ATOM     70  O   UNL     1      -0.966  19.151  10.870  1.00  0.00    -0.744 OA
ENDBRANCH  66  67
ENDBRANCH  47  61
BRANCH  48  71
ATOM     71  C   UNL     1       0.618  14.084  -3.194  1.00  0.00    -0.014 A 
ATOM     72  C   UNL     1       1.552  14.570  -4.125  1.00  0.00     0.010 A 
ATOM     73  C   UNL     1      -0.323  13.123  -3.608  1.00  0.00     0.010 A 
ATOM     74  C   UNL     1       1.538  14.116  -5.447  1.00  0.00     0.020 A 
ATOM     75  C   UNL     1      -0.322  12.645  -4.921  1.00  0.00     0.020 A 
ATOM     76  C   UNL     1       0.603  13.152  -5.835  1.00  0.00     0.054 A 
BRANCH  76  77
ATOM     77  S   UNL     1       0.640  12.536  -7.541  1.00  0.00     0.124 S 
ATOM     78  O   UNL     1       0.115  13.675  -8.287  1.00  0.00    -0.237 OA
ATOM     79  O   UNL     1       2.058  12.248  -7.740  1.00  0.00    -0.237 OA
ATOM     80  O   UNL     1      -0.226  11.360  -7.499  1.00  0.00    -0.744 OA
ENDBRANCH  76  77
ENDBRANCH  48  71
BRANCH  60  81
ATOM     81  C   UNL     1      -0.858  20.195  -0.172  1.00  0.00    -0.014 A 
ATOM     82  C   UNL     1      -2.158  20.366  -0.680  1.00  0.00     0.010 A 
ATOM     83  C   UNL     1       0.014  21.299  -0.134  1.00  0.00     0.010 A 
ATOM     84  C   UNL     1      -2.568  21.609  -1.168  1.00  0.00     0.020 A 
ATOM     85  C   UNL     1      -0.403  22.552  -0.592  1.00  0.00     0.020 A 
ATOM     86  C   UNL     1      -1.688  22.695  -1.119  1.00  0.00     0.054 A 
BRANCH  86  87
ATOM     87  S   UNL     1      -2.263  24.309  -1.714  1.00  0.00     0.124 S 
ATOM     88  O   UNL     1      -2.301  24.104  -3.160  1.00  0.00    -0.237 OA
ATOM     89  O   UNL     1      -3.564  24.444  -1.064  1.00  0.00    -0.237 OA
ATOM     90  O   UNL     1      -1.238  25.238  -1.244  1.00  0.00    -0.744 OA
ENDBRANCH  86  87
ENDBRANCH  60  81
ENDBRANCH  34  35
ENDBRANCH  26  29
ENDBRANCH  24  25
ENDBRANCH   1  24
TORSDOF 16
