REMARK SMILES Cc1cc(CNC(=O)C[C@H](C)CC(=O)NCCCNC(=O)c2ccc(-c3c4nc(c(-c5ccc(S(=O)(=O)[O-])cc5)c5ccc([nH]5)c(-c5ccc(S(=O)(=O)[O-])cc5)c5nc(c(-c6ccc(S(=O)(=O)[O-])cc6)c6ccc3[nH]6)C=C5)C=C4)cc2)cc(C)c1F
REMARK SMILES IDX 16 1 15 2 13 3 14 4 12 6 10 7 11 8 9 9 7 10 6 11 8 13 5 14
REMARK SMILES IDX 4 15 1 16 2 17 3 18 85 19 83 20 86 21 82 22 84 23 17 24
REMARK SMILES IDX 18 25 19 26 20 27 21 29 22 30 23 31 81 32 24 33 80 34 25 35
REMARK SMILES IDX 26 36 27 37 74 38 28 39 79 40 73 41 75 42 29 43 78 44 72 45
REMARK SMILES IDX 71 46 30 48 60 49 41 50 59 51 42 52 45 53 58 54 76 55 43 56
REMARK SMILES IDX 44 57 57 59 77 60 46 61 31 62 32 63 40 64 33 65 39 66 34 67
REMARK SMILES IDX 35 68 36 69 37 70 38 71 61 72 62 73 70 74 63 75 69 76 64 77
REMARK SMILES IDX 65 78 66 79 67 80 68 81 47 82 48 83 56 84 49 85 55 86 50 87
REMARK SMILES IDX 51 88 52 89 53 90 54 91
REMARK H PARENT 15 5 6 12 19 28 75 47 45 58
REMARK Flexibility Score: inf
ROOT
ATOM      1  C   UNL     1       4.793  -5.756   4.667  1.00  0.00     0.117 C 
ENDROOT
BRANCH   1   2
ATOM      2  N   UNL     1       4.614  -4.370   5.073  1.00  0.00    -0.356 N 
ATOM      3  C   UNL     1       3.629  -3.478   4.778  1.00  0.00     0.220 C 
ATOM      4  O   UNL     1       3.749  -2.325   5.199  1.00  0.00    -0.275 OA
ATOM      5  H   UNL     1       5.324  -4.019   5.657  1.00  0.00     0.163 HD
BRANCH   3   6
ATOM      6  C   UNL     1       2.410  -3.878   3.961  1.00  0.00     0.103 C 
BRANCH   6   7
ATOM      7  C   UNL     1       2.632  -3.747   2.441  1.00  0.00     0.004 C 
ATOM      8  C   UNL     1       2.954  -5.106   1.810  1.00  0.00     0.009 C 
BRANCH   7   9
ATOM      9  C   UNL     1       1.415  -3.115   1.735  1.00  0.00     0.103 C 
BRANCH   9  10
ATOM     10  C   UNL     1       1.542  -3.146   0.217  1.00  0.00     0.220 C 
ATOM     11  N   UNL     1       2.523  -2.429  -0.401  1.00  0.00    -0.352 N 
ATOM     12  H   UNL     1       2.773  -2.732  -1.304  1.00  0.00     0.163 HD
ATOM     13  O   UNL     1       0.809  -3.869  -0.457  1.00  0.00    -0.275 OA
BRANCH  11  14
ATOM     14  C   UNL     1       3.244  -1.281   0.101  1.00  0.00     0.151 C 
BRANCH  14  15
ATOM     15  C   UNL     1       4.742  -1.357  -0.081  1.00  0.00    -0.028 A 
ATOM     16  C   UNL     1       7.689  -3.514   1.032  1.00  0.00     0.047 C 
ATOM     17  C   UNL     1       6.900  -2.409   0.397  1.00  0.00    -0.015 A 
ATOM     18  C   UNL     1       5.498  -2.431   0.416  1.00  0.00     0.012 A 
ATOM     19  C   UNL     1       7.546  -1.301  -0.150  1.00  0.00     0.129 A 
ATOM     20  C   UNL     1       6.827  -0.238  -0.699  1.00  0.00    -0.015 A 
ATOM     21  F   UNL     1       8.887  -1.250  -0.132  1.00  0.00    -0.206 F 
ATOM     22  C   UNL     1       5.425  -0.272  -0.653  1.00  0.00     0.012 A 
ATOM     23  C   UNL     1       7.530   0.932  -1.317  1.00  0.00     0.047 C 
ENDBRANCH  14  15
ENDBRANCH  11  14
ENDBRANCH   9  10
ENDBRANCH   7   9
ENDBRANCH   6   7
ENDBRANCH   3   6
ENDBRANCH   1   2
BRANCH   1  24
ATOM     24  C   UNL     1       5.896  -5.884   3.615  1.00  0.00     0.042 C 
BRANCH  24  25
ATOM     25  C   UNL     1       7.305  -5.853   4.194  1.00  0.00     0.118 C 
BRANCH  25  26
ATOM     26  N   UNL     1       7.733  -7.161   4.651  1.00  0.00    -0.352 N 
ATOM     27  C   UNL     1       8.552  -8.083   4.042  1.00  0.00     0.251 C 
ATOM     28  H   UNL     1       7.383  -7.430   5.531  1.00  0.00     0.163 HD
ATOM     29  O   UNL     1       8.590  -9.232   4.489  1.00  0.00    -0.269 OA
BRANCH  27  30
ATOM     30  C   UNL     1       9.376  -7.729   2.861  1.00  0.00     0.039 A 
ATOM     31  C   UNL     1       9.503  -8.661   1.825  1.00  0.00     0.014 A 
ATOM     32  C   UNL     1      10.094  -6.532   2.801  1.00  0.00     0.014 A 
ATOM     33  C   UNL     1      10.320  -8.383   0.724  1.00  0.00     0.010 A 
ATOM     34  C   UNL     1      10.858  -6.225   1.673  1.00  0.00     0.010 A 
ATOM     35  C   UNL     1      11.000  -7.158   0.636  1.00  0.00    -0.014 A 
BRANCH  35  36
ATOM     36  C   UNL     1      11.929  -6.877  -0.488  1.00  0.00     0.031 A 
ATOM     37  C   UNL     1      13.412  -6.809  -0.230  1.00  0.00     0.074 A 
ATOM     38  C   UNL     1      11.454  -6.669  -1.731  1.00  0.00     0.049 A 
ATOM     39  N   UNL     1      14.383  -6.548  -1.068  1.00  0.00    -0.248 NA
ATOM     40  C   UNL     1      13.862  -7.056   1.151  1.00  0.00     0.031 C 
ATOM     41  C   UNL     1      10.042  -6.702  -2.115  1.00  0.00     0.029 A 
ATOM     42  N   UNL     1      12.112  -6.390  -2.904  1.00  0.00    -0.354 N 
ATOM     43  C   UNL     1      15.552  -6.592  -0.318  1.00  0.00     0.074 A 
ATOM     44  C   UNL     1      15.170  -6.863   1.050  1.00  0.00     0.031 C 
ATOM     45  C   UNL     1       9.942  -6.477  -3.436  1.00  0.00     0.029 A 
ATOM     46  C   UNL     1      11.276  -6.252  -3.987  1.00  0.00     0.049 A 
ATOM     47  H   UNL     1      13.090  -6.298  -2.964  1.00  0.00     0.167 HD
ATOM     48  C   UNL     1      16.831  -6.443  -0.732  1.00  0.00     0.031 A 
ATOM     49  C   UNL     1      11.550  -5.975  -5.278  1.00  0.00     0.031 A 
ATOM     50  C   UNL     1      17.219  -6.192  -2.092  1.00  0.00     0.049 A 
ATOM     51  C   UNL     1      12.977  -5.779  -5.710  1.00  0.00     0.074 A 
ATOM     52  C   UNL     1      18.496  -6.064  -2.610  1.00  0.00     0.029 A 
ATOM     53  N   UNL     1      16.338  -6.033  -3.150  1.00  0.00    -0.354 N 
ATOM     54  N   UNL     1      14.070  -5.849  -4.988  1.00  0.00    -0.248 NA
ATOM     55  C   UNL     1      13.210  -5.471  -7.129  1.00  0.00     0.031 C 
ATOM     56  C   UNL     1      18.387  -5.786  -3.975  1.00  0.00     0.029 A 
ATOM     57  C   UNL     1      17.043  -5.789  -4.315  1.00  0.00     0.049 A 
ATOM     58  H   UNL     1      15.357  -6.086  -3.083  1.00  0.00     0.167 HD
ATOM     59  C   UNL     1      15.121  -5.613  -5.868  1.00  0.00     0.074 A 
ATOM     60  C   UNL     1      14.536  -5.403  -7.176  1.00  0.00     0.031 C 
ATOM     61  C   UNL     1      16.451  -5.579  -5.611  1.00  0.00     0.031 A 
BRANCH  48  62
ATOM     62  C   UNL     1      17.920  -6.557   0.300  1.00  0.00    -0.014 A 
ATOM     63  C   UNL     1      18.292  -7.811   0.815  1.00  0.00     0.010 A 
ATOM     64  C   UNL     1      18.630  -5.410   0.698  1.00  0.00     0.010 A 
ATOM     65  C   UNL     1      19.347  -7.915   1.725  1.00  0.00     0.020 A 
ATOM     66  C   UNL     1      19.700  -5.513   1.591  1.00  0.00     0.020 A 
ATOM     67  C   UNL     1      20.049  -6.765   2.101  1.00  0.00     0.054 A 
BRANCH  67  68
ATOM     68  S   UNL     1      21.437  -6.942   3.255  1.00  0.00     0.124 S 
ATOM     69  O   UNL     1      20.782  -7.496   4.438  1.00  0.00    -0.237 OA
ATOM     70  O   UNL     1      22.323  -7.856   2.541  1.00  0.00    -0.237 OA
ATOM     71  O   UNL     1      21.939  -5.578   3.409  1.00  0.00    -0.744 OA
ENDBRANCH  67  68
ENDBRANCH  48  62
BRANCH  49  72
ATOM     72  C   UNL     1      10.435  -5.888  -6.259  1.00  0.00    -0.014 A 
ATOM     73  C   UNL     1      10.210  -6.932  -7.172  1.00  0.00     0.010 A 
ATOM     74  C   UNL     1       9.565  -4.783  -6.251  1.00  0.00     0.010 A 
ATOM     75  C   UNL     1       9.128  -6.877  -8.055  1.00  0.00     0.020 A 
ATOM     76  C   UNL     1       8.471  -4.733  -7.120  1.00  0.00     0.020 A 
ATOM     77  C   UNL     1       8.257  -5.784  -8.014  1.00  0.00     0.054 A 
BRANCH  77  78
ATOM     78  S   UNL     1       6.823  -5.773  -9.126  1.00  0.00     0.124 S 
ATOM     79  O   UNL     1       7.452  -5.808 -10.443  1.00  0.00    -0.237 OA
ATOM     80  O   UNL     1       6.119  -6.990  -8.728  1.00  0.00    -0.237 OA
ATOM     81  O   UNL     1       6.139  -4.526  -8.794  1.00  0.00    -0.744 OA
ENDBRANCH  77  78
ENDBRANCH  49  72
BRANCH  61  82
ATOM     82  C   UNL     1      17.387  -5.322  -6.759  1.00  0.00    -0.014 A 
ATOM     83  C   UNL     1      17.567  -4.024  -7.265  1.00  0.00     0.010 A 
ATOM     84  C   UNL     1      18.183  -6.372  -7.253  1.00  0.00     0.010 A 
ATOM     85  C   UNL     1      18.528  -3.780  -8.251  1.00  0.00     0.020 A 
ATOM     86  C   UNL     1      19.158  -6.128  -8.223  1.00  0.00     0.020 A 
ATOM     87  C   UNL     1      19.325  -4.832  -8.715  1.00  0.00     0.054 A 
BRANCH  87  88
ATOM     88  S   UNL     1      20.606  -4.470  -9.947  1.00  0.00     0.124 S 
ATOM     89  O   UNL     1      19.819  -3.974 -11.073  1.00  0.00    -0.237 OA
ATOM     90  O   UNL     1      21.424  -3.471  -9.265  1.00  0.00    -0.237 OA
ATOM     91  O   UNL     1      21.256  -5.760 -10.166  1.00  0.00    -0.744 OA
ENDBRANCH  87  88
ENDBRANCH  61  82
ENDBRANCH  35  36
ENDBRANCH  27  30
ENDBRANCH  25  26
ENDBRANCH  24  25
ENDBRANCH   1  24
TORSDOF 18
