REMARK SMILES CCC(CC)NC(=O)N[C@@H]1C=C[C@@H](C(=O)NCCCNC(=O)c2ccc(-c3c4nc(c(-c5ccc(S(=O)(=O)[O-])cc5)c5ccc([nH]5)c(-c5ccc(S(=O)(=O)[O-])cc5)c5nc(c(-c6ccc(S(=O)(=O)[O-])cc6)c6ccc3[nH]6)C=C5)C=C4)cc2)C1
REMARK SMILES IDX 18 1 17 2 16 3 14 4 15 5 13 7 10 8 11 9 83 10 12 11 9 12
REMARK SMILES IDX 6 13 7 14 8 16 3 18 2 19 1 20 4 21 5 22 19 23 20 24 21 25
REMARK SMILES IDX 22 27 23 28 24 29 82 30 25 31 81 32 26 33 27 34 28 35 75 36
REMARK SMILES IDX 29 37 80 38 74 39 76 40 30 41 79 42 73 43 72 44 31 46 61 47
REMARK SMILES IDX 42 48 60 49 43 50 46 51 59 52 77 53 44 54 45 55 58 57 78 58
REMARK SMILES IDX 47 59 32 60 33 61 41 62 34 63 40 64 35 65 36 66 37 67 38 68
REMARK SMILES IDX 39 69 62 70 63 71 71 72 64 73 70 74 65 75 66 76 67 77 68 78
REMARK SMILES IDX 69 79 48 80 49 81 57 82 50 83 56 84 51 85 52 86 53 87 54 88
REMARK SMILES IDX 55 89
REMARK H PARENT 16 6 6 15 9 17 20 26 76 45 46 56
REMARK Flexibility Score: inf
ROOT
ATOM      1  C   UNL     1       2.329   1.684   5.653  1.00  0.00     0.042 C 
ENDROOT
BRANCH   1   2
ATOM      2  C   UNL     1       3.566   1.448   4.824  1.00  0.00     0.117 C 
BRANCH   2   3
ATOM      3  N   UNL     1       3.455   0.186   4.115  1.00  0.00    -0.356 N 
ATOM      4  C   UNL     1       3.275  -0.046   2.793  1.00  0.00     0.227 C 
ATOM      5  O   UNL     1       2.904  -1.171   2.447  1.00  0.00    -0.274 OA
ATOM      6  H   UNL     1       3.522  -0.619   4.678  1.00  0.00     0.163 HD
BRANCH   4   7
ATOM      7  C   UNL     1       3.593   1.019   1.763  1.00  0.00     0.103 C 
ATOM      8  C   UNL     1       3.171   3.243   0.910  1.00  0.00     0.107 C 
ATOM      9  C   UNL     1       4.419   3.233   1.711  1.00  0.00    -0.006 C 
ATOM     10  C   UNL     1       2.466   1.932   1.302  1.00  0.00     0.047 C 
ATOM     11  C   UNL     1       4.663   2.004   2.187  1.00  0.00    -0.016 C 
BRANCH   8  12
ATOM     12  N   UNL     1       3.405   3.475  -0.519  1.00  0.00    -0.332 N 
ATOM     13  N   UNL     1       5.199   2.315  -1.625  1.00  0.00    -0.335 N 
ATOM     14  C   UNL     1       4.132   3.120  -1.580  1.00  0.00     0.315 C 
ATOM     15  H   UNL     1       5.540   2.178  -2.539  1.00  0.00     0.165 HD
ATOM     16  O   UNL     1       3.783   3.618  -2.659  1.00  0.00    -0.249 OA
ATOM     17  H   UNL     1       2.773   4.170  -0.813  1.00  0.00     0.165 HD
BRANCH  13  18
ATOM     18  C   UNL     1       5.963   1.602  -0.624  1.00  0.00     0.083 C 
BRANCH  18  19
ATOM     19  C   UNL     1       6.166   0.112  -0.936  1.00  0.00     0.021 C 
ATOM     20  C   UNL     1       6.620  -0.687   0.288  1.00  0.00     0.006 C 
ENDBRANCH  18  19
BRANCH  18  21
ATOM     21  C   UNL     1       7.185   2.378  -0.113  1.00  0.00     0.021 C 
ATOM     22  C   UNL     1       8.462   2.161  -0.901  1.00  0.00     0.006 C 
ENDBRANCH  18  21
ENDBRANCH  13  18
ENDBRANCH   8  12
ENDBRANCH   4   7
ENDBRANCH   2   3
ENDBRANCH   1   2
BRANCH   1  23
ATOM     23  C   UNL     1       2.201   0.635   6.734  1.00  0.00     0.118 C 
BRANCH  23  24
ATOM     24  N   UNL     1       3.318   0.705   7.674  1.00  0.00    -0.352 N 
ATOM     25  C   UNL     1       3.360   1.317   8.902  1.00  0.00     0.251 C 
ATOM     26  H   UNL     1       4.147   0.256   7.390  1.00  0.00     0.163 HD
ATOM     27  O   UNL     1       4.436   1.595   9.427  1.00  0.00    -0.269 OA
BRANCH  25  28
ATOM     28  C   UNL     1       2.083   1.642   9.558  1.00  0.00     0.039 A 
ATOM     29  C   UNL     1       1.907   2.872  10.189  1.00  0.00     0.014 A 
ATOM     30  C   UNL     1       1.032   0.728   9.471  1.00  0.00     0.014 A 
ATOM     31  C   UNL     1       0.642   3.208  10.669  1.00  0.00     0.010 A 
ATOM     32  C   UNL     1      -0.249   1.132   9.791  1.00  0.00     0.010 A 
ATOM     33  C   UNL     1      -0.453   2.358  10.434  1.00  0.00    -0.014 A 
BRANCH  33  34
ATOM     34  C   UNL     1      -1.820   2.687  10.895  1.00  0.00     0.031 A 
ATOM     35  C   UNL     1      -2.530   1.740  11.829  1.00  0.00     0.074 A 
ATOM     36  C   UNL     1      -2.443   3.782  10.416  1.00  0.00     0.049 A 
ATOM     37  N   UNL     1      -3.752   1.798  12.287  1.00  0.00    -0.248 NA
ATOM     38  C   UNL     1      -1.784   0.546  12.271  1.00  0.00     0.031 C 
ATOM     39  C   UNL     1      -1.876   4.735   9.458  1.00  0.00     0.029 A 
ATOM     40  N   UNL     1      -3.695   4.277  10.672  1.00  0.00    -0.354 N 
ATOM     41  C   UNL     1      -3.924   0.643  13.041  1.00  0.00     0.074 A 
ATOM     42  C   UNL     1      -2.716  -0.135  12.917  1.00  0.00     0.031 C 
ATOM     43  C   UNL     1      -2.759   5.724   9.246  1.00  0.00     0.029 A 
ATOM     44  C   UNL     1      -3.971   5.450  10.011  1.00  0.00     0.049 A 
ATOM     45  H   UNL     1      -4.337   3.833  11.273  1.00  0.00     0.167 HD
ATOM     46  C   UNL     1      -4.982   0.277  13.800  1.00  0.00     0.031 A 
ATOM     47  C   UNL     1      -5.077   6.217  10.022  1.00  0.00     0.031 A 
ATOM     48  C   UNL     1      -6.167   1.076  13.943  1.00  0.00     0.049 A 
ATOM     49  C   UNL     1      -6.238   5.795  10.881  1.00  0.00     0.074 A 
ATOM     50  C   UNL     1      -7.271   0.840  14.740  1.00  0.00     0.029 A 
ATOM     51  N   UNL     1      -6.399   2.268  13.273  1.00  0.00    -0.354 N 
ATOM     52  N   UNL     1      -6.354   4.738  11.650  1.00  0.00    -0.248 NA
ATOM     53  C   UNL     1      -7.413   6.677  10.884  1.00  0.00     0.031 C 
ATOM     54  C   UNL     1      -8.197   1.861  14.508  1.00  0.00     0.029 A 
ATOM     55  C   UNL     1      -7.641   2.768  13.619  1.00  0.00     0.049 A 
ATOM     56  H   UNL     1      -5.772   2.695  12.646  1.00  0.00     0.167 HD
ATOM     57  C   UNL     1      -7.602   4.842  12.252  1.00  0.00     0.074 A 
ATOM     58  C   UNL     1      -8.194   6.074  11.770  1.00  0.00     0.031 C 
ATOM     59  C   UNL     1      -8.207   3.998  13.124  1.00  0.00     0.031 A 
BRANCH  46  60
ATOM     60  C   UNL     1      -4.896  -1.037  14.531  1.00  0.00    -0.014 A 
ATOM     61  C   UNL     1      -3.985  -1.228  15.586  1.00  0.00     0.010 A 
ATOM     62  C   UNL     1      -5.759  -2.090  14.177  1.00  0.00     0.010 A 
ATOM     63  C   UNL     1      -3.907  -2.458  16.244  1.00  0.00     0.020 A 
ATOM     64  C   UNL     1      -5.709  -3.311  14.854  1.00  0.00     0.020 A 
ATOM     65  C   UNL     1      -4.771  -3.492  15.873  1.00  0.00     0.054 A 
BRANCH  65  66
ATOM     66  S   UNL     1      -4.671  -5.067  16.767  1.00  0.00     0.124 S 
ATOM     67  O   UNL     1      -3.405  -5.609  16.279  1.00  0.00    -0.237 OA
ATOM     68  O   UNL     1      -4.675  -4.641  18.164  1.00  0.00    -0.237 OA
ATOM     69  O   UNL     1      -5.864  -5.789  16.334  1.00  0.00    -0.744 OA
ENDBRANCH  65  66
ENDBRANCH  46  60
BRANCH  47  70
ATOM     70  C   UNL     1      -5.126   7.467   9.216  1.00  0.00    -0.014 A 
ATOM     71  C   UNL     1      -5.129   8.724   9.847  1.00  0.00     0.010 A 
ATOM     72  C   UNL     1      -5.154   7.410   7.811  1.00  0.00     0.010 A 
ATOM     73  C   UNL     1      -5.181   9.898   9.090  1.00  0.00     0.020 A 
ATOM     74  C   UNL     1      -5.174   8.582   7.049  1.00  0.00     0.020 A 
ATOM     75  C   UNL     1      -5.200   9.819   7.695  1.00  0.00     0.054 A 
BRANCH  75  76
ATOM     76  S   UNL     1      -5.220  11.357   6.732  1.00  0.00     0.124 S 
ATOM     77  O   UNL     1      -6.577  11.841   6.962  1.00  0.00    -0.237 OA
ATOM     78  O   UNL     1      -4.154  12.134   7.360  1.00  0.00    -0.237 OA
ATOM     79  O   UNL     1      -4.935  10.911   5.370  1.00  0.00    -0.744 OA
ENDBRANCH  75  76
ENDBRANCH  47  70
BRANCH  59  80
ATOM     80  C   UNL     1      -9.562   4.394  13.643  1.00  0.00    -0.014 A 
ATOM     81  C   UNL     1     -10.699   4.361  12.817  1.00  0.00     0.010 A 
ATOM     82  C   UNL     1      -9.705   4.747  14.998  1.00  0.00     0.010 A 
ATOM     83  C   UNL     1     -11.951   4.708  13.330  1.00  0.00     0.020 A 
ATOM     84  C   UNL     1     -10.960   5.061  15.521  1.00  0.00     0.020 A 
ATOM     85  C   UNL     1     -12.073   5.055  14.679  1.00  0.00     0.054 A 
BRANCH  85  86
ATOM     86  S   UNL     1     -13.716   5.459  15.329  1.00  0.00     0.124 S 
ATOM     87  O   UNL     1     -13.966   6.768  14.730  1.00  0.00    -0.237 OA
ATOM     88  O   UNL     1     -14.540   4.366  14.817  1.00  0.00    -0.237 OA
ATOM     89  O   UNL     1     -13.526   5.463  16.777  1.00  0.00    -0.744 OA
ENDBRANCH  85  86
ENDBRANCH  59  80
ENDBRANCH  33  34
ENDBRANCH  25  28
ENDBRANCH  23  24
ENDBRANCH   1  23
TORSDOF 17
