REMARK SMILES O=C(NCCCNC(=O)c1cc(-c2cncnc2)cc(S(=O)(=O)N2CCCC2)c1)c1ccc(-c2c3nc(c(-c4ccc(S(=O)(=O)[O-])cc4)c4ccc([nH]4)c(-c4ccc(S(=O)(=O)[O-])cc4)c4nc(c(-c5ccc(S(=O)(=O)[O-])cc5)c5ccc2[nH]5)C=C4)C=C3)cc1
REMARK SMILES IDX 4 1 3 2 1 3 2 4 30 6 31 7 89 8 32 9 88 10 33 11 34 12 35 13
REMARK SMILES IDX 82 14 36 15 87 16 81 17 83 18 37 19 86 20 80 21 79 22 38 24
REMARK SMILES IDX 68 25 49 26 67 27 50 28 53 29 66 30 84 31 51 32 52 33 65 35
REMARK SMILES IDX 85 36 54 37 39 38 40 39 48 40 41 41 47 42 42 43 43 44 44 45
REMARK SMILES IDX 45 46 46 47 69 48 70 49 78 50 71 51 77 52 72 53 73 54 74 55
REMARK SMILES IDX 75 56 76 57 55 58 56 59 64 60 57 61 63 62 58 63 59 64 60 65
REMARK SMILES IDX 61 66 62 67 5 68 6 69 7 70 8 71 9 73 10 74 11 75 29 76 12 77
REMARK SMILES IDX 20 78 19 79 13 80 14 81 18 82 15 83 17 84 16 85 21 86 22 87
REMARK SMILES IDX 23 88 24 89 25 90 28 91 26 92 27 93
REMARK H PARENT 3 5 83 23 53 34 7 72
REMARK Flexibility Score: inf
ROOT
ATOM      1  C   UNL     1       4.741  -1.314  -0.064  1.00  0.00     0.118 C 
ENDROOT
BRANCH   1   2
ATOM      2  N   UNL     1       3.290  -1.182  -0.095  1.00  0.00    -0.352 N 
ATOM      3  O   UNL     1       1.282  -0.175  -0.062  1.00  0.00    -0.269 OA
ATOM      4  C   UNL     1       2.491  -0.073  -0.254  1.00  0.00     0.251 C 
ATOM      5  H   UNL     1       2.799  -2.028   0.016  1.00  0.00     0.163 HD
BRANCH   4   6
ATOM      6  C   UNL     1       3.077   1.239  -0.617  1.00  0.00     0.039 A 
ATOM      7  C   UNL     1       4.105   1.332  -1.553  1.00  0.00     0.014 A 
ATOM      8  C   UNL     1       2.576   2.403  -0.025  1.00  0.00     0.014 A 
ATOM      9  C   UNL     1       4.768   2.539  -1.740  1.00  0.00     0.010 A 
ATOM     10  C   UNL     1       3.165   3.641  -0.310  1.00  0.00     0.010 A 
ATOM     11  C   UNL     1       4.297   3.715  -1.135  1.00  0.00    -0.014 A 
BRANCH  11  12
ATOM     12  C   UNL     1       4.983   5.002  -1.423  1.00  0.00     0.031 A 
ATOM     13  C   UNL     1       5.635   5.802  -0.326  1.00  0.00     0.074 A 
ATOM     14  C   UNL     1       5.055   5.428  -2.701  1.00  0.00     0.049 A 
ATOM     15  N   UNL     1       6.286   6.935  -0.413  1.00  0.00    -0.248 NA
ATOM     16  C   UNL     1       5.541   5.270   1.042  1.00  0.00     0.031 C 
ATOM     17  C   UNL     1       4.464   4.742  -3.853  1.00  0.00     0.029 A 
ATOM     18  N   UNL     1       5.678   6.518  -3.252  1.00  0.00    -0.354 N 
ATOM     19  C   UNL     1       6.649   7.268   0.887  1.00  0.00     0.074 A 
ATOM     20  C   UNL     1       6.134   6.225   1.747  1.00  0.00     0.031 C 
ATOM     21  C   UNL     1       4.807   5.388  -4.976  1.00  0.00     0.029 A 
ATOM     22  C   UNL     1       5.574   6.576  -4.622  1.00  0.00     0.049 A 
ATOM     23  H   UNL     1       6.155   7.195  -2.718  1.00  0.00     0.167 HD
ATOM     24  C   UNL     1       7.348   8.344   1.324  1.00  0.00     0.031 A 
ATOM     25  C   UNL     1       6.024   7.489  -5.502  1.00  0.00     0.031 A 
ATOM     26  C   UNL     1       7.869   9.374   0.464  1.00  0.00     0.049 A 
ATOM     27  C   UNL     1       6.784   8.677  -4.992  1.00  0.00     0.074 A 
ATOM     28  C   UNL     1       8.607  10.494   0.809  1.00  0.00     0.029 A 
ATOM     29  N   UNL     1       7.709   9.412  -0.913  1.00  0.00    -0.354 N 
ATOM     30  N   UNL     1       7.119   8.968  -3.758  1.00  0.00    -0.248 NA
ATOM     31  C   UNL     1       7.222   9.660  -5.990  1.00  0.00     0.031 C 
ATOM     32  C   UNL     1       8.857  11.230  -0.354  1.00  0.00     0.029 A 
ATOM     33  C   UNL     1       8.317  10.544  -1.431  1.00  0.00     0.049 A 
ATOM     34  H   UNL     1       7.233   8.734  -1.445  1.00  0.00     0.167 HD
ATOM     35  C   UNL     1       7.814  10.168  -3.831  1.00  0.00     0.074 A 
ATOM     36  C   UNL     1       7.870  10.535  -5.232  1.00  0.00     0.031 C 
ATOM     37  C   UNL     1       8.355  10.899  -2.827  1.00  0.00     0.031 A 
BRANCH  24  38
ATOM     38  C   UNL     1       7.558   8.481   2.810  1.00  0.00    -0.014 A 
ATOM     39  C   UNL     1       8.460   7.652   3.502  1.00  0.00     0.010 A 
ATOM     40  C   UNL     1       6.862   9.476   3.521  1.00  0.00     0.010 A 
ATOM     41  C   UNL     1       8.625   7.785   4.884  1.00  0.00     0.020 A 
ATOM     42  C   UNL     1       7.043   9.629   4.898  1.00  0.00     0.020 A 
ATOM     43  C   UNL     1       7.909   8.768   5.575  1.00  0.00     0.054 A 
BRANCH  43  44
ATOM     44  S   UNL     1       8.140   8.920   7.368  1.00  0.00     0.124 S 
ATOM     45  O   UNL     1       7.377   7.778   7.866  1.00  0.00    -0.237 OA
ATOM     46  O   UNL     1       9.589   8.819   7.516  1.00  0.00    -0.237 OA
ATOM     47  O   UNL     1       7.574  10.231   7.680  1.00  0.00    -0.744 OA
ENDBRANCH  43  44
ENDBRANCH  24  38
BRANCH  25  48
ATOM     48  C   UNL     1       5.741   7.308  -6.950  1.00  0.00    -0.014 A 
ATOM     49  C   UNL     1       6.765   6.945  -7.841  1.00  0.00     0.010 A 
ATOM     50  C   UNL     1       4.425   7.438  -7.433  1.00  0.00     0.010 A 
ATOM     51  C   UNL     1       6.477   6.712  -9.189  1.00  0.00     0.020 A 
ATOM     52  C   UNL     1       4.129   7.179  -8.772  1.00  0.00     0.020 A 
ATOM     53  C   UNL     1       5.160   6.823  -9.644  1.00  0.00     0.054 A 
BRANCH  53  54
ATOM     54  S   UNL     1       4.791   6.429 -11.377  1.00  0.00     0.124 S 
ATOM     55  O   UNL     1       5.256   7.629 -12.065  1.00  0.00    -0.237 OA
ATOM     56  O   UNL     1       5.582   5.222 -11.603  1.00  0.00    -0.237 OA
ATOM     57  O   UNL     1       3.344   6.224 -11.378  1.00  0.00    -0.744 OA
ENDBRANCH  53  54
ENDBRANCH  25  48
BRANCH  37  58
ATOM     58  C   UNL     1       9.072  12.163  -3.211  1.00  0.00    -0.014 A 
ATOM     59  C   UNL     1       8.360  13.312  -3.597  1.00  0.00     0.010 A 
ATOM     60  C   UNL     1      10.476  12.212  -3.144  1.00  0.00     0.010 A 
ATOM     61  C   UNL     1       9.043  14.482  -3.938  1.00  0.00     0.020 A 
ATOM     62  C   UNL     1      11.161  13.387  -3.462  1.00  0.00     0.020 A 
ATOM     63  C   UNL     1      10.440  14.511  -3.871  1.00  0.00     0.054 A 
BRANCH  63  64
ATOM     64  S   UNL     1      11.303  16.053  -4.277  1.00  0.00     0.124 S 
ATOM     65  O   UNL     1      11.234  16.064  -5.736  1.00  0.00    -0.237 OA
ATOM     66  O   UNL     1      10.494  17.064  -3.602  1.00  0.00    -0.237 OA
ATOM     67  O   UNL     1      12.639  15.858  -3.718  1.00  0.00    -0.744 OA
ENDBRANCH  63  64
ENDBRANCH  37  58
ENDBRANCH  11  12
ENDBRANCH   4   6
ENDBRANCH   1   2
BRANCH   1  68
ATOM     68  C   UNL     1       5.297  -1.459   1.346  1.00  0.00     0.042 C 
BRANCH  68  69
ATOM     69  C   UNL     1       4.977  -2.793   2.002  1.00  0.00     0.118 C 
BRANCH  69  70
ATOM     70  N   UNL     1       5.569  -3.921   1.297  1.00  0.00    -0.352 N 
ATOM     71  C   UNL     1       6.314  -4.974   1.755  1.00  0.00     0.251 C 
ATOM     72  H   UNL     1       5.407  -3.927   0.326  1.00  0.00     0.163 HD
ATOM     73  O   UNL     1       6.840  -5.735   0.947  1.00  0.00    -0.269 OA
BRANCH  71  74
ATOM     74  C   UNL     1       6.482  -5.234   3.202  1.00  0.00     0.041 A 
ATOM     75  C   UNL     1       7.697  -5.763   3.650  1.00  0.00     0.022 A 
ATOM     76  C   UNL     1       5.424  -5.082   4.095  1.00  0.00     0.035 A 
ATOM     77  C   UNL     1       7.880  -6.119   4.996  1.00  0.00    -0.013 A 
ATOM     78  C   UNL     1       5.591  -5.394   5.438  1.00  0.00     0.084 A 
ATOM     79  C   UNL     1       6.812  -5.916   5.890  1.00  0.00     0.030 A 
BRANCH  77  80
ATOM     80  C   UNL     1       9.138  -6.729   5.428  1.00  0.00     0.018 A 
ATOM     81  C   UNL     1       9.199  -7.973   6.035  1.00  0.00     0.123 A 
ATOM     82  C   UNL     1      10.377  -6.147   5.218  1.00  0.00     0.123 A 
ATOM     83  N   UNL     1      10.343  -8.594   6.396  1.00  0.00    -0.244 NA
ATOM     84  N   UNL     1      11.556  -6.715   5.556  1.00  0.00    -0.244 NA
ATOM     85  C   UNL     1      11.473  -7.923   6.131  1.00  0.00     0.221 A 
ENDBRANCH  77  80
BRANCH  78  86
ATOM     86  S   UNL     1       4.272  -5.191   6.622  1.00  0.00     0.243 S 
ATOM     87  O   UNL     1       4.126  -6.481   7.269  1.00  0.00    -0.207 OA
ATOM     88  O   UNL     1       4.586  -3.995   7.367  1.00  0.00    -0.207 OA
BRANCH  86  89
ATOM     89  N   UNL     1       2.864  -4.908   5.756  1.00  0.00    -0.198 NA
ATOM     90  C   UNL     1       2.203  -5.971   4.988  1.00  0.00     0.102 C 
ATOM     91  C   UNL     1       2.553  -3.579   5.205  1.00  0.00     0.102 C 
ATOM     92  C   UNL     1       1.792  -5.300   3.685  1.00  0.00     0.018 C 
ATOM     93  C   UNL     1       1.563  -3.849   4.074  1.00  0.00     0.018 C 
ENDBRANCH  86  89
ENDBRANCH  78  86
ENDBRANCH  71  74
ENDBRANCH  69  70
ENDBRANCH  68  69
ENDBRANCH   1  68
TORSDOF 16
