REMARK SMILES COc1ccc(-c2ccc3n(c2=O)C[C@H]2C[C@@H]3CN(C(=O)CCCC(=O)NCCCNC(=O)c3ccc(-c4c5nc(c(-c6ccc(S(=O)(=O)[O-])cc6)c6ccc([nH]6)c(-c6ccc(S(=O)(=O)[O-])cc6)c6nc(c(-c7ccc(S(=O)(=O)[O-])cc7)c7ccc4[nH]7)C=C6)C=C5)cc3)C2)cc1
REMARK SMILES IDX 25 1 26 2 27 3 24 5 23 6 22 7 20 8 21 9 19 10 7 11 8 12
REMARK SMILES IDX 12 13 9 14 11 15 13 16 10 17 14 18 17 19 15 20 16 21 18 22
REMARK SMILES IDX 94 23 6 24 3 25 4 26 96 27 5 28 95 29 2 30 1 31 28 32 29 33
REMARK SMILES IDX 30 34 31 35 32 36 33 38 34 39 35 40 93 41 36 42 92 43 37 44
REMARK SMILES IDX 38 45 39 46 86 47 40 48 91 49 85 50 87 51 41 52 90 53 84 54
REMARK SMILES IDX 83 55 42 57 72 58 53 59 71 60 54 61 57 62 70 63 88 64 55 65
REMARK SMILES IDX 56 66 69 68 89 69 58 70 43 71 44 72 52 73 45 74 51 75 46 76
REMARK SMILES IDX 47 77 48 78 49 79 50 80 73 81 74 82 82 83 75 84 81 85 76 86
REMARK SMILES IDX 77 87 78 88 79 89 80 90 59 91 60 92 68 93 61 94 67 95 62 96
REMARK SMILES IDX 63 97 64 98 65 99 66 100
REMARK H PARENT 27 4 31 37 87 56 57 67
REMARK Flexibility Score: inf
ROOT
ATOM      1  C   UNL     1      -2.896   1.591  11.034  1.00  0.00     0.220 C 
ATOM      2  O   UNL     1      -3.798   0.768  10.836  1.00  0.00    -0.275 OA
ATOM      3  N   UNL     1      -2.603   1.832  12.336  1.00  0.00    -0.356 N 
ATOM      4  H   UNL     1      -3.273   1.482  12.967  1.00  0.00     0.163 HD
ENDROOT
BRANCH   1   5
ATOM      5  C   UNL     1      -2.147   2.176   9.834  1.00  0.00     0.100 C 
BRANCH   5   6
ATOM      6  C   UNL     1      -1.953   3.677   9.669  1.00  0.00     0.020 C 
BRANCH   6   7
ATOM      7  C   UNL     1      -0.810   4.437  10.340  1.00  0.00     0.101 C 
BRANCH   7   8
ATOM      8  C   UNL     1       0.664   4.227   9.971  1.00  0.00     0.222 C 
ATOM      9  O   UNL     1       1.182   5.094   9.252  1.00  0.00    -0.275 OA
BRANCH   8  10
ATOM     10  N   UNL     1       1.456   3.224  10.524  1.00  0.00    -0.342 N 
ATOM     11  C   UNL     1       2.173   1.707   5.858  1.00  0.00     0.047 A 
ATOM     12  C   UNL     1       3.169   2.559   6.147  1.00  0.00     0.016 A 
ATOM     13  C   UNL     1       1.568   0.893   6.967  1.00  0.00     0.258 A 
ATOM     14  C   UNL     1       3.674   2.692   7.484  1.00  0.00     0.023 A 
ATOM     15  N   UNL     1       2.104   1.088   8.247  1.00  0.00    -0.311 N 
ATOM     16  O   UNL     1       0.663   0.091   6.736  1.00  0.00    -0.269 OA
ATOM     17  C   UNL     1       3.155   1.975   8.493  1.00  0.00     0.026 A 
ATOM     18  C   UNL     1       1.538   0.267   9.313  1.00  0.00     0.131 C 
ATOM     19  C   UNL     1       3.638   2.202   9.916  1.00  0.00     0.056 C 
ATOM     20  C   UNL     1       1.869   0.722  10.735  1.00  0.00     0.029 C 
ATOM     21  C   UNL     1       3.361   0.995  10.812  1.00  0.00     0.019 C 
ATOM     22  C   UNL     1       2.909   3.426  10.498  1.00  0.00     0.129 C 
ATOM     23  C   UNL     1       1.066   1.968  11.161  1.00  0.00     0.125 C 
BRANCH  11  24
ATOM     24  C   UNL     1       1.720   1.554   4.468  1.00  0.00    -0.013 A 
ATOM     25  C   UNL     1       0.874   1.162   1.822  1.00  0.00     0.118 A 
ATOM     26  C   UNL     1      -0.018   1.641   2.781  1.00  0.00     0.047 A 
ATOM     27  C   UNL     1       2.201   0.915   2.174  1.00  0.00     0.047 A 
ATOM     28  C   UNL     1       0.398   1.827   4.103  1.00  0.00     0.013 A 
ATOM     29  C   UNL     1       2.620   1.107   3.491  1.00  0.00     0.013 A 
BRANCH  25  30
ATOM     30  O   UNL     1       0.368   1.000   0.561  1.00  0.00    -0.497 OA
ATOM     31  C   UNL     1       0.919  -0.100  -0.158  1.00  0.00     0.278 C 
ENDBRANCH  25  30
ENDBRANCH  11  24
ENDBRANCH   8  10
ENDBRANCH   7   8
ENDBRANCH   6   7
ENDBRANCH   5   6
ENDBRANCH   1   5
BRANCH   3  32
ATOM     32  C   UNL     1      -1.498   2.502  12.968  1.00  0.00     0.117 C 
BRANCH  32  33
ATOM     33  C   UNL     1      -1.882   3.686  13.827  1.00  0.00     0.042 C 
BRANCH  33  34
ATOM     34  C   UNL     1      -1.923   3.322  15.294  1.00  0.00     0.118 C 
BRANCH  34  35
ATOM     35  N   UNL     1      -0.598   3.048  15.852  1.00  0.00    -0.352 N 
ATOM     36  C   UNL     1      -0.017   3.531  17.003  1.00  0.00     0.251 C 
ATOM     37  H   UNL     1      -0.041   2.427  15.328  1.00  0.00     0.163 HD
ATOM     38  O   UNL     1       1.160   3.275  17.246  1.00  0.00    -0.269 OA
BRANCH  36  39
ATOM     39  C   UNL     1      -0.805   4.392  17.909  1.00  0.00     0.039 A 
ATOM     40  C   UNL     1      -0.214   5.529  18.463  1.00  0.00     0.014 A 
ATOM     41  C   UNL     1      -2.152   4.116  18.143  1.00  0.00     0.014 A 
ATOM     42  C   UNL     1      -1.006   6.433  19.174  1.00  0.00     0.010 A 
ATOM     43  C   UNL     1      -2.960   5.086  18.714  1.00  0.00     0.010 A 
ATOM     44  C   UNL     1      -2.396   6.246  19.257  1.00  0.00    -0.014 A 
BRANCH  44  45
ATOM     45  C   UNL     1      -3.277   7.244  19.911  1.00  0.00     0.031 A 
ATOM     46  C   UNL     1      -4.155   6.836  21.066  1.00  0.00     0.074 A 
ATOM     47  C   UNL     1      -3.351   8.494  19.412  1.00  0.00     0.049 A 
ATOM     48  N   UNL     1      -5.005   7.558  21.750  1.00  0.00    -0.248 NA
ATOM     49  C   UNL     1      -4.108   5.422  21.476  1.00  0.00     0.031 C 
ATOM     50  C   UNL     1      -2.631   8.981  18.232  1.00  0.00     0.029 A 
ATOM     51  N   UNL     1      -4.070   9.583  19.833  1.00  0.00    -0.354 N 
ATOM     52  C   UNL     1      -5.611   6.680  22.642  1.00  0.00     0.074 A 
ATOM     53  C   UNL     1      -5.090   5.363  22.360  1.00  0.00     0.031 C 
ATOM     54  C   UNL     1      -2.910  10.281  18.051  1.00  0.00     0.029 A 
ATOM     55  C   UNL     1      -3.854  10.711  19.078  1.00  0.00     0.049 A 
ATOM     56  H   UNL     1      -4.683   9.560  20.603  1.00  0.00     0.167 HD
ATOM     57  C   UNL     1      -6.497   6.947  23.631  1.00  0.00     0.031 A 
ATOM     58  C   UNL     1      -4.353  11.956  19.200  1.00  0.00     0.031 A 
ATOM     59  C   UNL     1      -6.994   8.265  23.917  1.00  0.00     0.049 A 
ATOM     60  C   UNL     1      -5.283  12.253  20.341  1.00  0.00     0.074 A 
ATOM     61  C   UNL     1      -7.821   8.671  24.949  1.00  0.00     0.029 A 
ATOM     62  N   UNL     1      -6.710   9.395  23.161  1.00  0.00    -0.354 N 
ATOM     63  N   UNL     1      -5.760  11.432  21.248  1.00  0.00    -0.248 NA
ATOM     64  C   UNL     1      -5.724  13.644  20.490  1.00  0.00     0.031 C 
ATOM     65  C   UNL     1      -8.082  10.037  24.784  1.00  0.00     0.029 A 
ATOM     66  C   UNL     1      -7.369  10.493  23.685  1.00  0.00     0.049 A 
ATOM     67  H   UNL     1      -6.127   9.412  22.369  1.00  0.00     0.167 HD
ATOM     68  C   UNL     1      -6.555  12.209  22.081  1.00  0.00     0.074 A 
ATOM     69  C   UNL     1      -6.466  13.570  21.587  1.00  0.00     0.031 C 
ATOM     70  C   UNL     1      -7.293  11.833  23.156  1.00  0.00     0.031 A 
BRANCH  57  71
ATOM     71  C   UNL     1      -6.982   5.780  24.454  1.00  0.00    -0.014 A 
ATOM     72  C   UNL     1      -6.107   5.060  25.291  1.00  0.00     0.010 A 
ATOM     73  C   UNL     1      -8.326   5.376  24.369  1.00  0.00     0.010 A 
ATOM     74  C   UNL     1      -6.546   3.917  25.963  1.00  0.00     0.020 A 
ATOM     75  C   UNL     1      -8.779   4.254  25.069  1.00  0.00     0.020 A 
ATOM     76  C   UNL     1      -7.878   3.514  25.838  1.00  0.00     0.054 A 
BRANCH  76  77
ATOM     77  S   UNL     1      -8.417   2.012  26.700  1.00  0.00     0.124 S 
ATOM     78  O   UNL     1      -7.818   0.964  25.877  1.00  0.00    -0.237 OA
ATOM     79  O   UNL     1      -7.833   2.177  28.029  1.00  0.00    -0.237 OA
ATOM     80  O   UNL     1      -9.875   2.088  26.649  1.00  0.00    -0.744 OA
ENDBRANCH  76  77
ENDBRANCH  57  71
BRANCH  58  81
ATOM     81  C   UNL     1      -3.938  13.006  18.231  1.00  0.00    -0.014 A 
ATOM     82  C   UNL     1      -3.028  14.009  18.607  1.00  0.00     0.010 A 
ATOM     83  C   UNL     1      -4.391  12.958  16.899  1.00  0.00     0.010 A 
ATOM     84  C   UNL     1      -2.573  14.940  17.668  1.00  0.00     0.020 A 
ATOM     85  C   UNL     1      -3.919  13.871  15.952  1.00  0.00     0.020 A 
ATOM     86  C   UNL     1      -3.012  14.857  16.343  1.00  0.00     0.054 A 
BRANCH  86  87
ATOM     87  S   UNL     1      -2.323  16.007  15.119  1.00  0.00     0.124 S 
ATOM     88  O   UNL     1      -2.986  17.259  15.469  1.00  0.00    -0.237 OA
ATOM     89  O   UNL     1      -0.891  15.948  15.404  1.00  0.00    -0.237 OA
ATOM     90  O   UNL     1      -2.719  15.422  13.840  1.00  0.00    -0.744 OA
ENDBRANCH  86  87
ENDBRANCH  58  81
BRANCH  70  91
ATOM     91  C   UNL     1      -8.066  12.914  23.863  1.00  0.00    -0.014 A 
ATOM     92  C   UNL     1      -9.189  13.513  23.265  1.00  0.00     0.010 A 
ATOM     93  C   UNL     1      -7.676  13.319  25.153  1.00  0.00     0.010 A 
ATOM     94  C   UNL     1      -9.878  14.534  23.923  1.00  0.00     0.020 A 
ATOM     95  C   UNL     1      -8.383  14.318  25.827  1.00  0.00     0.020 A 
ATOM     96  C   UNL     1      -9.466  14.934  25.198  1.00  0.00     0.054 A 
BRANCH  96  97
ATOM     97  S   UNL     1     -10.381  16.257  26.035  1.00  0.00     0.124 S 
ATOM     98  O   UNL     1      -9.926  17.442  25.314  1.00  0.00    -0.237 OA
ATOM     99  O   UNL     1     -11.773  15.878  25.809  1.00  0.00    -0.237 OA
ATOM    100  O   UNL     1      -9.933  16.161  27.423  1.00  0.00    -0.744 OA
ENDBRANCH  96  97
ENDBRANCH  70  91
ENDBRANCH  44  45
ENDBRANCH  36  39
ENDBRANCH  34  35
ENDBRANCH  33  34
ENDBRANCH  32  33
ENDBRANCH   3  32
TORSDOF 19
