REMARK SMILES CCCC[C@H](C(=O)NCCCNC(=O)c1ccc(-c2c3nc(c(-c4ccc(S(=O)(=O)[O-])cc4)c4ccc([nH]4)c(-c4ccc(S(=O)(=O)[O-])cc4)c4nc(c(-c5ccc(S(=O)(=O)[O-])cc5)c5ccc2[nH]5)C=C4)C=C3)cc1)[C@H](O)c1ccc(C(F)(F)F)cc1
REMARK SMILES IDX 10 1 9 2 8 3 6 4 7 5 5 7 4 8 3 9 2 10 1 11 75 12 77 13 78 14
REMARK SMILES IDX 86 15 79 16 85 17 80 18 81 19 82 20 83 21 84 22 76 23 11 25
REMARK SMILES IDX 12 26 13 27 14 29 15 30 16 31 74 32 17 33 73 34 18 35 19 36
REMARK SMILES IDX 20 37 67 38 21 39 72 40 66 41 68 42 22 43 71 44 65 45 64 46
REMARK SMILES IDX 23 48 53 49 34 50 52 51 35 52 38 53 51 54 69 55 36 56 37 57
REMARK SMILES IDX 50 59 70 60 39 61 24 62 25 63 33 64 26 65 32 66 27 67 28 68
REMARK SMILES IDX 29 69 30 70 31 71 54 72 55 73 63 74 56 75 62 76 57 77 58 78
REMARK SMILES IDX 59 79 60 80 61 81 40 82 41 83 49 84 42 85 48 86 43 87 44 88
REMARK SMILES IDX 45 89 46 90 47 91
REMARK H PARENT 8 6 76 24 12 28 68 47 38 58
REMARK Flexibility Score: inf
ROOT
ATOM      1  C   UNL     1       2.453   4.294  -3.815  1.00  0.00     0.042 C 
ENDROOT
BRANCH   1   2
ATOM      2  C   UNL     1       2.112   5.029  -2.499  1.00  0.00     0.117 C 
BRANCH   2   3
ATOM      3  N   UNL     1       0.834   5.697  -2.263  1.00  0.00    -0.356 N 
ATOM      4  C   UNL     1      -0.249   5.424  -1.475  1.00  0.00     0.226 C 
ATOM      5  O   UNL     1      -0.735   6.412  -0.899  1.00  0.00    -0.275 OA
ATOM      6  H   UNL     1       0.730   6.526  -2.785  1.00  0.00     0.163 HD
BRANCH   4   7
ATOM      7  C   UNL     1      -1.033   4.103  -1.421  1.00  0.00     0.111 C 
BRANCH   7   8
ATOM      8  C   UNL     1      -0.454   2.924  -2.182  1.00  0.00     0.016 C 
BRANCH   8   9
ATOM      9  C   UNL     1      -0.754   2.845  -3.695  1.00  0.00     0.001 C 
BRANCH   9  10
ATOM     10  C   UNL     1      -1.560   3.887  -4.494  1.00  0.00    -0.003 C 
ATOM     11  C   UNL     1      -1.273   5.379  -4.424  1.00  0.00     0.004 C 
ENDBRANCH   9  10
ENDBRANCH   8   9
ENDBRANCH   7   8
BRANCH   7  12
ATOM     12  C   UNL     1      -1.450   3.810   0.064  1.00  0.00     0.157 C 
BRANCH  12  13
ATOM     13  C   UNL     1      -2.975   3.729   0.216  1.00  0.00    -0.019 A 
ATOM     14  C   UNL     1      -3.709   4.926   0.295  1.00  0.00     0.007 A 
ATOM     15  C   UNL     1      -3.689   2.521   0.197  1.00  0.00     0.007 A 
ATOM     16  C   UNL     1      -5.108   4.921   0.313  1.00  0.00     0.013 A 
ATOM     17  C   UNL     1      -5.095   2.514   0.221  1.00  0.00     0.013 A 
ATOM     18  C   UNL     1      -5.820   3.715   0.258  1.00  0.00     0.056 A 
BRANCH  18  19
ATOM     19  C   UNL     1      -7.330   3.739   0.208  1.00  0.00     0.416 C 
ATOM     20  F   UNL     1      -7.882   4.355   1.292  1.00  0.00    -0.166 F 
ATOM     21  F   UNL     1      -7.805   4.412  -0.878  1.00  0.00    -0.166 F 
ATOM     22  F   UNL     1      -7.901   2.503   0.155  1.00  0.00    -0.166 F 
ENDBRANCH  18  19
ENDBRANCH  12  13
BRANCH  12  23
ATOM     23  O   UNL     1      -0.833   2.627   0.577  1.00  0.00    -0.388 OA
ATOM     24  H   UNL     1      -1.134   1.858   0.068  1.00  0.00     0.211 HD
ENDBRANCH  12  23
ENDBRANCH   7  12
ENDBRANCH   4   7
ENDBRANCH   2   3
ENDBRANCH   1   2
BRANCH   1  25
ATOM     25  C   UNL     1       2.209   4.844  -5.231  1.00  0.00     0.118 C 
BRANCH  25  26
ATOM     26  N   UNL     1       2.803   6.130  -5.525  1.00  0.00    -0.352 N 
ATOM     27  C   UNL     1       3.360   6.565  -6.712  1.00  0.00     0.251 C 
ATOM     28  H   UNL     1       2.810   6.779  -4.784  1.00  0.00     0.163 HD
ATOM     29  O   UNL     1       3.896   7.666  -6.762  1.00  0.00    -0.269 OA
BRANCH  27  30
ATOM     30  C   UNL     1       3.342   5.709  -7.928  1.00  0.00     0.039 A 
ATOM     31  C   UNL     1       4.556   5.411  -8.556  1.00  0.00     0.014 A 
ATOM     32  C   UNL     1       2.144   5.273  -8.503  1.00  0.00     0.014 A 
ATOM     33  C   UNL     1       4.574   4.651  -9.734  1.00  0.00     0.010 A 
ATOM     34  C   UNL     1       2.167   4.488  -9.668  1.00  0.00     0.010 A 
ATOM     35  C   UNL     1       3.381   4.168 -10.299  1.00  0.00    -0.014 A 
BRANCH  35  36
ATOM     36  C   UNL     1       3.421   3.328 -11.536  1.00  0.00     0.031 A 
ATOM     37  C   UNL     1       2.885   3.846 -12.847  1.00  0.00     0.074 A 
ATOM     38  C   UNL     1       3.949   2.087 -11.485  1.00  0.00     0.049 A 
ATOM     39  N   UNL     1       2.893   3.276 -14.028  1.00  0.00    -0.248 NA
ATOM     40  C   UNL     1       2.248   5.170 -12.828  1.00  0.00     0.031 C 
ATOM     41  C   UNL     1       4.486   1.451 -10.282  1.00  0.00     0.029 A 
ATOM     42  N   UNL     1       4.133   1.143 -12.468  1.00  0.00    -0.354 N 
ATOM     43  C   UNL     1       2.264   4.168 -14.890  1.00  0.00     0.074 A 
ATOM     44  C   UNL     1       1.840   5.294 -14.084  1.00  0.00     0.031 C 
ATOM     45  C   UNL     1       4.974   0.242 -10.603  1.00  0.00     0.029 A 
ATOM     46  C   UNL     1       4.753  -0.003 -12.026  1.00  0.00     0.049 A 
ATOM     47  H   UNL     1       3.847   1.275 -13.401  1.00  0.00     0.167 HD
ATOM     48  C   UNL     1       2.068   4.072 -16.230  1.00  0.00     0.031 A 
ATOM     49  C   UNL     1       5.111  -1.125 -12.684  1.00  0.00     0.031 A 
ATOM     50  C   UNL     1       2.473   2.943 -17.031  1.00  0.00     0.049 A 
ATOM     51  C   UNL     1       4.851  -1.228 -14.163  1.00  0.00     0.074 A 
ATOM     52  C   UNL     1       2.351   2.768 -18.399  1.00  0.00     0.029 A 
ATOM     53  N   UNL     1       3.067   1.791 -16.536  1.00  0.00    -0.354 N 
ATOM     54  N   UNL     1       4.312  -0.345 -14.969  1.00  0.00    -0.248 NA
ATOM     55  C   UNL     1       5.262  -2.475 -14.824  1.00  0.00     0.031 C 
ATOM     56  C   UNL     1       2.812   1.486 -18.721  1.00  0.00     0.029 A 
ATOM     57  C   UNL     1       3.288   0.889 -17.565  1.00  0.00     0.049 A 
ATOM     58  H   UNL     1       3.297   1.636 -15.591  1.00  0.00     0.167 HD
ATOM     59  C   UNL     1       4.344  -0.917 -16.236  1.00  0.00     0.074 A 
ATOM     60  C   UNL     1       4.969  -2.217 -16.091  1.00  0.00     0.031 C 
ATOM     61  C   UNL     1       3.901  -0.408 -17.413  1.00  0.00     0.031 A 
BRANCH  48  62
ATOM     62  C   UNL     1       1.360   5.219 -16.913  1.00  0.00    -0.014 A 
ATOM     63  C   UNL     1       1.960   6.489 -17.019  1.00  0.00     0.010 A 
ATOM     64  C   UNL     1       0.084   5.024 -17.474  1.00  0.00     0.010 A 
ATOM     65  C   UNL     1       1.271   7.553 -17.609  1.00  0.00     0.020 A 
ATOM     66  C   UNL     1      -0.595   6.077 -18.096  1.00  0.00     0.020 A 
ATOM     67  C   UNL     1      -0.006   7.343 -18.136  1.00  0.00     0.054 A 
BRANCH  67  68
ATOM     68  S   UNL     1      -0.883   8.746 -18.878  1.00  0.00     0.124 S 
ATOM     69  O   UNL     1      -1.226   9.543 -17.703  1.00  0.00    -0.237 OA
ATOM     70  O   UNL     1       0.128   9.329 -19.757  1.00  0.00    -0.237 OA
ATOM     71  O   UNL     1      -2.016   8.127 -19.562  1.00  0.00    -0.744 OA
ENDBRANCH  67  68
ENDBRANCH  48  62
BRANCH  49  72
ATOM     72  C   UNL     1       5.783  -2.232 -11.946  1.00  0.00    -0.014 A 
ATOM     73  C   UNL     1       7.142  -2.521 -12.169  1.00  0.00     0.010 A 
ATOM     74  C   UNL     1       5.075  -2.986 -10.991  1.00  0.00     0.010 A 
ATOM     75  C   UNL     1       7.778  -3.540 -11.454  1.00  0.00     0.020 A 
ATOM     76  C   UNL     1       5.715  -3.986 -10.254  1.00  0.00     0.020 A 
ATOM     77  C   UNL     1       7.063  -4.261 -10.494  1.00  0.00     0.054 A 
BRANCH  77  78
ATOM     78  S   UNL     1       7.931  -5.524  -9.522  1.00  0.00     0.124 S 
ATOM     79  O   UNL     1       8.148  -6.575 -10.511  1.00  0.00    -0.237 OA
ATOM     80  O   UNL     1       9.128  -4.812  -9.081  1.00  0.00    -0.237 OA
ATOM     81  O   UNL     1       6.983  -5.849  -8.459  1.00  0.00    -0.744 OA
ENDBRANCH  77  78
ENDBRANCH  49  72
BRANCH  61  82
ATOM     82  C   UNL     1       4.101  -1.244 -18.652  1.00  0.00    -0.014 A 
ATOM     83  C   UNL     1       3.364  -2.422 -18.871  1.00  0.00     0.010 A 
ATOM     84  C   UNL     1       5.009  -0.814 -19.639  1.00  0.00     0.010 A 
ATOM     85  C   UNL     1       3.556  -3.171 -20.037  1.00  0.00     0.020 A 
ATOM     86  C   UNL     1       5.180  -1.542 -20.819  1.00  0.00     0.020 A 
ATOM     87  C   UNL     1       4.463  -2.725 -21.004  1.00  0.00     0.054 A 
BRANCH  87  88
ATOM     88  S   UNL     1       4.662  -3.693 -22.525  1.00  0.00     0.124 S 
ATOM     89  O   UNL     1       5.387  -4.867 -22.047  1.00  0.00    -0.237 OA
ATOM     90  O   UNL     1       3.280  -3.932 -22.935  1.00  0.00    -0.237 OA
ATOM     91  O   UNL     1       5.422  -2.807 -23.404  1.00  0.00    -0.744 OA
ENDBRANCH  87  88
ENDBRANCH  61  82
ENDBRANCH  35  36
ENDBRANCH  27  30
ENDBRANCH  25  26
ENDBRANCH   1  25
TORSDOF 20
