REMARK SMILES Cc1cccc(-c2cc(C(=O)NCCCNC(=O)c3ccc(-c4c5nc(c(-c6ccc(S(=O)(=O)[O-])cc6)c6ccc([nH]6)c(-c6ccc(S(=O)(=O)[O-])cc6)c6nc(c(-c7ccc(S(=O)(=O)[O-])cc7)c7ccc4[nH]7)C=C6)C=C5)cc3)ccn2)c1
REMARK SMILES IDX 15 1 14 2 13 3 12 4 10 5 11 6 9 8 7 9 8 10 81 11 80 12 79 13
REMARK SMILES IDX 6 14 1 15 2 16 3 17 82 18 4 19 5 20 16 21 17 22 18 24 19 25
REMARK SMILES IDX 20 26 78 27 21 28 77 29 22 30 23 31 24 32 71 33 25 34 76 35
REMARK SMILES IDX 70 36 72 37 26 38 75 39 69 40 68 41 27 43 57 44 38 45 56 46
REMARK SMILES IDX 39 47 42 48 55 49 73 50 40 51 41 52 54 54 74 55 43 56 28 57
REMARK SMILES IDX 29 58 37 59 30 60 36 61 31 62 32 63 33 64 34 65 35 66 58 67
REMARK SMILES IDX 59 68 67 69 60 70 66 71 61 72 62 73 63 74 64 75 65 76 44 77
REMARK SMILES IDX 45 78 53 79 46 80 52 81 47 82 48 83 49 84 50 85 51 86
REMARK H PARENT 12 7 16 23 72 42 42 53
REMARK Flexibility Score: inf
ROOT
ATOM      1  C   UNL     1      -0.266   3.246  -5.529  1.00  0.00     0.118 C 
ENDROOT
BRANCH   1   2
ATOM      2  C   UNL     1      -0.475   3.198  -4.023  1.00  0.00     0.042 C 
BRANCH   2   3
ATOM      3  C   UNL     1      -0.050   4.482  -3.305  1.00  0.00     0.118 C 
BRANCH   3   4
ATOM      4  N   UNL     1      -1.176   5.383  -3.058  1.00  0.00    -0.352 N 
ATOM      5  C   UNL     1      -2.108   5.484  -2.053  1.00  0.00     0.251 C 
ATOM      6  O   UNL     1      -2.866   6.458  -2.074  1.00  0.00    -0.269 OA
ATOM      7  H   UNL     1      -1.290   6.062  -3.762  1.00  0.00     0.163 HD
BRANCH   5   8
ATOM      8  C   UNL     1      -2.275   4.505  -0.937  1.00  0.00     0.043 A 
ATOM      9  C   UNL     1      -1.910   2.407   0.198  1.00  0.00     0.071 A 
ATOM     10  C   UNL     1      -1.678   3.256  -0.883  1.00  0.00     0.042 A 
ATOM     11  N   UNL     1      -2.748   2.727   1.208  1.00  0.00    -0.256 NA
ATOM     12  C   UNL     1      -3.334   3.942   1.143  1.00  0.00     0.112 A 
ATOM     13  C   UNL     1      -3.129   4.850   0.115  1.00  0.00     0.034 A 
BRANCH   9  14
ATOM     14  C   UNL     1      -1.204   1.122   0.271  1.00  0.00     0.000 A 
ATOM     15  C   UNL     1       2.403  -0.115   0.009  1.00  0.00     0.044 C 
ATOM     16  C   UNL     1       0.908  -0.115   0.135  1.00  0.00    -0.050 A 
ATOM     17  C   UNL     1       0.195  -1.316   0.168  1.00  0.00     0.003 A 
ATOM     18  C   UNL     1       0.202   1.091   0.191  1.00  0.00     0.013 A 
ATOM     19  C   UNL     1      -1.198  -1.307   0.269  1.00  0.00     0.001 A 
ATOM     20  C   UNL     1      -1.893  -0.096   0.326  1.00  0.00     0.010 A 
ENDBRANCH   9  14
ENDBRANCH   5   8
ENDBRANCH   3   4
ENDBRANCH   2   3
ENDBRANCH   1   2
BRANCH   1  21
ATOM     21  N   UNL     1       0.745   2.299  -6.000  1.00  0.00    -0.352 N 
ATOM     22  C   UNL     1       1.016   1.932  -7.311  1.00  0.00     0.251 C 
ATOM     23  H   UNL     1       1.297   1.872  -5.306  1.00  0.00     0.163 HD
ATOM     24  O   UNL     1       1.779   1.049  -7.632  1.00  0.00    -0.269 OA
BRANCH  22  25
ATOM     25  C   UNL     1       0.405   2.797  -8.340  1.00  0.00     0.039 A 
ATOM     26  C   UNL     1       1.228   3.811  -8.845  1.00  0.00     0.014 A 
ATOM     27  C   UNL     1      -0.984   2.862  -8.418  1.00  0.00     0.014 A 
ATOM     28  C   UNL     1       0.647   5.008  -9.232  1.00  0.00     0.010 A 
ATOM     29  C   UNL     1      -1.552   4.084  -8.721  1.00  0.00     0.010 A 
ATOM     30  C   UNL     1      -0.728   5.168  -9.051  1.00  0.00    -0.014 A 
BRANCH  30  31
ATOM     31  C   UNL     1      -1.361   6.478  -9.110  1.00  0.00     0.031 A 
ATOM     32  C   UNL     1      -2.030   6.879 -10.361  1.00  0.00     0.074 A 
ATOM     33  C   UNL     1      -1.290   7.325  -8.059  1.00  0.00     0.049 A 
ATOM     34  N   UNL     1      -2.157   8.094 -10.777  1.00  0.00    -0.248 NA
ATOM     35  C   UNL     1      -2.522   5.885 -11.309  1.00  0.00     0.031 C 
ATOM     36  C   UNL     1      -1.992   8.597  -7.916  1.00  0.00     0.029 A 
ATOM     37  N   UNL     1      -0.358   7.329  -7.015  1.00  0.00    -0.354 N 
ATOM     38  C   UNL     1      -3.014   8.061 -11.855  1.00  0.00     0.074 A 
ATOM     39  C   UNL     1      -3.086   6.669 -12.228  1.00  0.00     0.031 C 
ATOM     40  C   UNL     1      -1.281   9.380  -7.089  1.00  0.00     0.029 A 
ATOM     41  C   UNL     1      -0.043   8.677  -6.787  1.00  0.00     0.049 A 
ATOM     42  H   UNL     1       0.003   6.546  -6.538  1.00  0.00     0.167 HD
ATOM     43  C   UNL     1      -3.711   9.183 -12.195  1.00  0.00     0.031 A 
ATOM     44  C   UNL     1       1.208   9.198  -6.936  1.00  0.00     0.031 A 
ATOM     45  C   UNL     1      -3.221  10.355 -11.465  1.00  0.00     0.049 A 
ATOM     46  C   UNL     1       1.256  10.327  -7.945  1.00  0.00     0.074 A 
ATOM     47  C   UNL     1      -3.700  11.063 -10.375  1.00  0.00     0.029 A 
ATOM     48  N   UNL     1      -1.898  10.761 -11.640  1.00  0.00    -0.354 N 
ATOM     49  N   UNL     1       0.331  10.551  -8.839  1.00  0.00    -0.248 NA
ATOM     50  C   UNL     1       2.358  11.279  -8.036  1.00  0.00     0.031 C 
ATOM     51  C   UNL     1      -2.623  11.817  -9.832  1.00  0.00     0.029 A 
ATOM     52  C   UNL     1      -1.502  11.601 -10.615  1.00  0.00     0.049 A 
ATOM     53  H   UNL     1      -1.324  10.487 -12.392  1.00  0.00     0.167 HD
ATOM     54  C   UNL     1       0.662  11.656  -9.583  1.00  0.00     0.074 A 
ATOM     55  C   UNL     1       1.943  12.076  -9.038  1.00  0.00     0.031 C 
ATOM     56  C   UNL     1      -0.144  12.139 -10.577  1.00  0.00     0.031 A 
BRANCH  43  57
ATOM     57  C   UNL     1      -5.053   9.109 -12.912  1.00  0.00    -0.014 A 
ATOM     58  C   UNL     1      -6.017  10.120 -12.716  1.00  0.00     0.010 A 
ATOM     59  C   UNL     1      -5.476   8.017 -13.695  1.00  0.00     0.010 A 
ATOM     60  C   UNL     1      -7.345   9.986 -13.165  1.00  0.00     0.020 A 
ATOM     61  C   UNL     1      -6.802   7.847 -14.117  1.00  0.00     0.020 A 
ATOM     62  C   UNL     1      -7.739   8.828 -13.833  1.00  0.00     0.054 A 
BRANCH  62  63
ATOM     63  S   UNL     1      -9.472   8.604 -14.312  1.00  0.00     0.124 S 
ATOM     64  O   UNL     1     -10.175   8.758 -13.041  1.00  0.00    -0.237 OA
ATOM     65  O   UNL     1      -9.671   9.678 -15.280  1.00  0.00    -0.237 OA
ATOM     66  O   UNL     1      -9.505   7.253 -14.872  1.00  0.00    -0.744 OA
ENDBRANCH  62  63
ENDBRANCH  43  57
BRANCH  44  67
ATOM     67  C   UNL     1       2.328   8.276  -6.606  1.00  0.00    -0.014 A 
ATOM     68  C   UNL     1       2.537   7.967  -5.245  1.00  0.00     0.010 A 
ATOM     69  C   UNL     1       2.914   7.450  -7.581  1.00  0.00     0.010 A 
ATOM     70  C   UNL     1       3.194   6.792  -4.867  1.00  0.00     0.020 A 
ATOM     71  C   UNL     1       3.569   6.265  -7.205  1.00  0.00     0.020 A 
ATOM     72  C   UNL     1       3.651   5.918  -5.852  1.00  0.00     0.054 A 
BRANCH  72  73
ATOM     73  S   UNL     1       4.230   4.274  -5.332  1.00  0.00     0.124 S 
ATOM     74  O   UNL     1       5.235   4.597  -4.325  1.00  0.00    -0.237 OA
ATOM     75  O   UNL     1       3.001   3.669  -4.814  1.00  0.00    -0.237 OA
ATOM     76  O   UNL     1       4.740   3.692  -6.569  1.00  0.00    -0.744 OA
ENDBRANCH  72  73
ENDBRANCH  44  67
BRANCH  56  77
ATOM     77  C   UNL     1       0.210  13.231 -11.568  1.00  0.00    -0.014 A 
ATOM     78  C   UNL     1       1.518  13.638 -11.875  1.00  0.00     0.010 A 
ATOM     79  C   UNL     1      -0.829  13.814 -12.338  1.00  0.00     0.010 A 
ATOM     80  C   UNL     1       1.773  14.613 -12.854  1.00  0.00     0.020 A 
ATOM     81  C   UNL     1      -0.584  14.749 -13.347  1.00  0.00     0.020 A 
ATOM     82  C   UNL     1       0.720  15.162 -13.584  1.00  0.00     0.054 A 
BRANCH  82  83
ATOM     83  S   UNL     1       1.064  16.353 -14.905  1.00  0.00     0.124 S 
ATOM     84  O   UNL     1       1.062  17.619 -14.178  1.00  0.00    -0.237 OA
ATOM     85  O   UNL     1       2.368  15.921 -15.405  1.00  0.00    -0.237 OA
ATOM     86  O   UNL     1      -0.045  16.160 -15.836  1.00  0.00    -0.744 OA
ENDBRANCH  82  83
ENDBRANCH  56  77
ENDBRANCH  30  31
ENDBRANCH  22  25
ENDBRANCH   1  21
TORSDOF 14
