REMARK SMILES C=Cc1cc(Cl)cc2c1O[C@H](C(F)(F)F)C(C(=O)NCCCNC(=O)c1ccc(-c3c4nc(c(-c5ccc(S(=O)(=O)[O-])cc5)c5ccc([nH]5)c(-c5ccc(S(=O)(=O)[O-])cc5)c5nc(c(-c6ccc(S(=O)(=O)[O-])cc6)c6ccc3[nH]6)C=C5)C=C4)cc1)=C2
REMARK SMILES IDX 22 1 21 2 20 3 19 4 17 5 18 6 16 8 3 9 4 10 9 11 5 12 8 13
REMARK SMILES IDX 10 14 6 15 7 16 86 17 11 18 2 19 1 20 12 21 13 22 14 23
REMARK SMILES IDX 15 24 23 25 24 26 25 28 26 29 27 30 85 31 28 32 84 33 29 34
REMARK SMILES IDX 30 35 31 36 78 37 32 38 83 39 77 40 79 41 33 42 82 43 76 44
REMARK SMILES IDX 75 45 34 47 64 48 45 49 63 50 46 51 49 52 62 53 80 54 47 55
REMARK SMILES IDX 48 56 61 58 81 59 50 60 35 61 36 62 44 63 37 64 43 65 38 66
REMARK SMILES IDX 39 67 40 68 41 69 42 70 65 71 66 72 74 73 67 74 73 75 68 76
REMARK SMILES IDX 69 77 70 78 71 79 72 80 51 81 52 82 60 83 53 84 59 85 54 86
REMARK SMILES IDX 55 87 56 88 57 89 58 90
REMARK H PARENT 19 7 23 27 79 46 49 57
REMARK Flexibility Score: inf
ROOT
ATOM      1  C   UNL     1      -2.284   6.742  -6.564  1.00  0.00     0.118 C 
ENDROOT
BRANCH   1   2
ATOM      2  C   UNL     1      -1.634   5.916  -5.460  1.00  0.00     0.042 C 
BRANCH   2   3
ATOM      3  C   UNL     1      -2.139   6.310  -4.080  1.00  0.00     0.118 C 
BRANCH   3   4
ATOM      4  N   UNL     1      -3.472   5.783  -3.820  1.00  0.00    -0.352 N 
ATOM      5  C   UNL     1      -4.024   4.788  -3.090  1.00  0.00     0.251 C 
ATOM      6  O   UNL     1      -5.253   4.693  -3.179  1.00  0.00    -0.270 OA
ATOM      7  H   UNL     1      -4.159   6.290  -4.309  1.00  0.00     0.163 HD
BRANCH   5   8
ATOM      8  C   UNL     1      -3.274   3.845  -2.210  1.00  0.00     0.067 C 
ATOM      9  C   UNL     1      -1.281   0.981   0.148  1.00  0.00     0.018 A 
ATOM     10  C   UNL     1      -2.038   0.139   0.972  1.00  0.00     0.032 A 
ATOM     11  C   UNL     1      -1.951   1.899  -0.678  1.00  0.00     0.135 A 
ATOM     12  C   UNL     1      -3.432   0.198   0.943  1.00  0.00     0.042 A 
ATOM     13  C   UNL     1      -3.349   1.950  -0.714  1.00  0.00     0.019 A 
ATOM     14  O   UNL     1      -1.191   2.700  -1.491  1.00  0.00    -0.475 OA
ATOM     15  Cl  UNL     1      -4.349  -0.842   1.964  1.00  0.00    -0.084 Cl
ATOM     16  C   UNL     1      -4.091   1.092   0.100  1.00  0.00     0.032 A 
ATOM     17  C   UNL     1      -4.009   2.882  -1.622  1.00  0.00     0.025 C 
ATOM     18  C   UNL     1      -1.803   3.941  -1.929  1.00  0.00     0.314 C 
BRANCH   9  19
ATOM     19  C   UNL     1       0.189   0.957   0.190  1.00  0.00     0.004 C 
ATOM     20  C   UNL     1       0.918  -0.163   0.124  1.00  0.00     0.009 C 
ENDBRANCH   9  19
BRANCH  18  21
ATOM     21  C   UNL     1      -1.464   5.058  -0.923  1.00  0.00     0.429 C 
ATOM     22  F   UNL     1      -0.139   5.347  -0.959  1.00  0.00    -0.167 F 
ATOM     23  F   UNL     1      -2.117   6.214  -1.188  1.00  0.00    -0.167 F 
ATOM     24  F   UNL     1      -1.770   4.723   0.351  1.00  0.00    -0.167 F 
ENDBRANCH  18  21
ENDBRANCH   5   8
ENDBRANCH   3   4
ENDBRANCH   2   3
ENDBRANCH   1   2
BRANCH   1  25
ATOM     25  N   UNL     1      -1.848   8.137  -6.530  1.00  0.00    -0.352 N 
ATOM     26  C   UNL     1      -0.935   8.798  -7.317  1.00  0.00     0.251 C 
ATOM     27  H   UNL     1      -2.274   8.688  -5.835  1.00  0.00     0.163 HD
ATOM     28  O   UNL     1      -0.517   9.901  -6.973  1.00  0.00    -0.269 OA
BRANCH  26  29
ATOM     29  C   UNL     1      -0.447   8.170  -8.561  1.00  0.00     0.039 A 
ATOM     30  C   UNL     1      -1.341   7.520  -9.412  1.00  0.00     0.014 A 
ATOM     31  C   UNL     1       0.913   8.224  -8.877  1.00  0.00     0.014 A 
ATOM     32  C   UNL     1      -0.856   6.758 -10.464  1.00  0.00     0.010 A 
ATOM     33  C   UNL     1       1.387   7.544 -10.002  1.00  0.00     0.010 A 
ATOM     34  C   UNL     1       0.512   6.765 -10.777  1.00  0.00    -0.014 A 
BRANCH  34  35
ATOM     35  C   UNL     1       1.002   5.957 -11.922  1.00  0.00     0.031 A 
ATOM     36  C   UNL     1       1.955   4.815 -11.701  1.00  0.00     0.074 A 
ATOM     37  C   UNL     1       0.526   6.216 -13.156  1.00  0.00     0.049 A 
ATOM     38  N   UNL     1       2.498   4.019 -12.585  1.00  0.00    -0.248 NA
ATOM     39  C   UNL     1       2.349   4.524 -10.312  1.00  0.00     0.031 C 
ATOM     40  C   UNL     1      -0.450   7.262 -13.476  1.00  0.00     0.029 A 
ATOM     41  N   UNL     1       0.760   5.604 -14.360  1.00  0.00    -0.354 N 
ATOM     42  C   UNL     1       3.305   3.145 -11.866  1.00  0.00     0.074 A 
ATOM     43  C   UNL     1       3.206   3.524 -10.475  1.00  0.00     0.031 C 
ATOM     44  C   UNL     1      -0.788   7.167 -14.768  1.00  0.00     0.029 A 
ATOM     45  C   UNL     1       0.017   6.122 -15.394  1.00  0.00     0.049 A 
ATOM     46  H   UNL     1       1.399   4.863 -14.473  1.00  0.00     0.167 HD
ATOM     47  C   UNL     1       4.050   2.113 -12.328  1.00  0.00     0.031 A 
ATOM     48  C   UNL     1      -0.005   5.815 -16.706  1.00  0.00     0.031 A 
ATOM     49  C   UNL     1       4.133   1.745 -13.717  1.00  0.00     0.049 A 
ATOM     50  C   UNL     1       0.909   4.741 -17.211  1.00  0.00     0.074 A 
ATOM     51  C   UNL     1       4.870   0.724 -14.289  1.00  0.00     0.029 A 
ATOM     52  N   UNL     1       3.455   2.377 -14.749  1.00  0.00    -0.354 N 
ATOM     53  N   UNL     1       1.701   3.954 -16.523  1.00  0.00    -0.248 NA
ATOM     54  C   UNL     1       0.953   4.525 -18.663  1.00  0.00     0.031 C 
ATOM     55  C   UNL     1       4.686   0.777 -15.672  1.00  0.00     0.029 A 
ATOM     56  C   UNL     1       3.782   1.789 -15.959  1.00  0.00     0.049 A 
ATOM     57  H   UNL     1       2.833   3.132 -14.638  1.00  0.00     0.167 HD
ATOM     58  C   UNL     1       2.342   3.151 -17.456  1.00  0.00     0.074 A 
ATOM     59  C   UNL     1       1.831   3.533 -18.758  1.00  0.00     0.031 C 
ATOM     60  C   UNL     1       3.275   2.191 -17.249  1.00  0.00     0.031 A 
BRANCH  47  61
ATOM     61  C   UNL     1       4.851   1.312 -11.335  1.00  0.00    -0.014 A 
ATOM     62  C   UNL     1       6.257   1.380 -11.352  1.00  0.00     0.010 A 
ATOM     63  C   UNL     1       4.223   0.423 -10.444  1.00  0.00     0.010 A 
ATOM     64  C   UNL     1       7.021   0.567 -10.511  1.00  0.00     0.020 A 
ATOM     65  C   UNL     1       4.982  -0.374  -9.581  1.00  0.00     0.020 A 
ATOM     66  C   UNL     1       6.377  -0.310  -9.633  1.00  0.00     0.054 A 
BRANCH  66  67
ATOM     67  S   UNL     1       7.381  -1.351  -8.537  1.00  0.00     0.124 S 
ATOM     68  O   UNL     1       7.824  -2.410  -9.438  1.00  0.00    -0.237 OA
ATOM     69  O   UNL     1       8.421  -0.431  -8.082  1.00  0.00    -0.237 OA
ATOM     70  O   UNL     1       6.435  -1.764  -7.502  1.00  0.00    -0.744 OA
ENDBRANCH  66  67
ENDBRANCH  47  61
BRANCH  48  71
ATOM     71  C   UNL     1      -0.934   6.559 -17.599  1.00  0.00    -0.014 A 
ATOM     72  C   UNL     1      -0.746   7.935 -17.834  1.00  0.00     0.010 A 
ATOM     73  C   UNL     1      -2.091   5.932 -18.094  1.00  0.00     0.010 A 
ATOM     74  C   UNL     1      -1.736   8.688 -18.468  1.00  0.00     0.020 A 
ATOM     75  C   UNL     1      -3.071   6.679 -18.757  1.00  0.00     0.020 A 
ATOM     76  C   UNL     1      -2.904   8.058 -18.903  1.00  0.00     0.054 A 
BRANCH  76  77
ATOM     77  S   UNL     1      -4.223   9.073 -19.626  1.00  0.00     0.124 S 
ATOM     78  O   UNL     1      -4.801   9.699 -18.440  1.00  0.00    -0.237 OA
ATOM     79  O   UNL     1      -3.487   9.969 -20.515  1.00  0.00    -0.237 OA
ATOM     80  O   UNL     1      -5.077   8.096 -20.297  1.00  0.00    -0.744 OA
ENDBRANCH  76  77
ENDBRANCH  48  71
BRANCH  60  81
ATOM     81  C   UNL     1       3.842   1.480 -18.447  1.00  0.00    -0.014 A 
ATOM     82  C   UNL     1       3.530   0.126 -18.667  1.00  0.00     0.010 A 
ATOM     83  C   UNL     1       4.815   2.104 -19.246  1.00  0.00     0.010 A 
ATOM     84  C   UNL     1       4.225  -0.610 -19.628  1.00  0.00     0.020 A 
ATOM     85  C   UNL     1       5.494   1.376 -20.226  1.00  0.00     0.020 A 
ATOM     86  C   UNL     1       5.218   0.016 -20.388  1.00  0.00     0.054 A 
BRANCH  86  87
ATOM     87  S   UNL     1       6.168  -0.978 -21.570  1.00  0.00     0.124 S 
ATOM     88  O   UNL     1       7.049  -1.740 -20.691  1.00  0.00    -0.237 OA
ATOM     89  O   UNL     1       5.129  -1.752 -22.246  1.00  0.00    -0.237 OA
ATOM     90  O   UNL     1       6.831   0.022 -22.404  1.00  0.00    -0.744 OA
ENDBRANCH  86  87
ENDBRANCH  60  81
ENDBRANCH  34  35
ENDBRANCH  26  29
ENDBRANCH   1  25
TORSDOF 15
