REMARK SMILES CC(C)Cc1ccc([C@H](C)C(=O)NCCCNC(=O)c2ccc(-c3c4nc(c(-c5ccc(S(=O)(=O)[O-])cc5)c5ccc([nH]5)c(-c5ccc(S(=O)(=O)[O-])cc5)c5nc(c(-c6ccc(S(=O)(=O)[O-])cc6)c6ccc3[nH]6)C=C5)C=C4)cc2)cc1
REMARK SMILES IDX 15 1 14 2 13 3 11 4 12 5 9 7 10 8 8 9 5 10 6 11 81 12 7 13
REMARK SMILES IDX 80 14 4 15 2 16 1 17 3 18 16 19 17 20 18 21 19 23 20 24
REMARK SMILES IDX 21 25 79 26 22 27 78 28 23 29 24 30 25 31 72 32 26 33 77 34
REMARK SMILES IDX 71 35 73 36 27 37 76 38 70 39 69 40 28 42 58 43 39 44 57 45
REMARK SMILES IDX 40 46 43 47 56 48 74 49 41 50 42 51 55 53 75 54 44 55 29 56
REMARK SMILES IDX 30 57 38 58 31 59 37 60 32 61 33 62 34 63 35 64 36 65 59 66
REMARK SMILES IDX 60 67 68 68 61 69 67 70 62 71 63 72 64 73 65 74 66 75 45 76
REMARK SMILES IDX 46 77 54 78 47 79 53 80 48 81 49 82 50 83 51 84 52 85
REMARK H PARENT 13 6 17 22 73 41 43 52
REMARK Flexibility Score: inf
ROOT
ATOM      1  C   UNL     1      -3.460   2.213   4.640  1.00  0.00     0.042 C 
ENDROOT
BRANCH   1   2
ATOM      2  C   UNL     1      -2.964   1.031   5.454  1.00  0.00     0.117 C 
BRANCH   2   3
ATOM      3  N   UNL     1      -3.842  -0.124   5.343  1.00  0.00    -0.356 N 
ATOM      4  C   UNL     1      -3.530  -1.436   5.146  1.00  0.00     0.227 C 
ATOM      5  O   UNL     1      -4.444  -2.260   5.239  1.00  0.00    -0.274 OA
ATOM      6  H   UNL     1      -4.804   0.071   5.423  1.00  0.00     0.163 HD
BRANCH   4   7
ATOM      7  C   UNL     1      -2.105  -1.875   4.805  1.00  0.00     0.105 C 
ATOM      8  C   UNL     1      -1.712  -1.325   3.425  1.00  0.00     0.023 C 
BRANCH   7   9
ATOM      9  C   UNL     1      -1.066  -1.639   5.898  1.00  0.00    -0.036 A 
ATOM     10  C   UNL     1       0.894  -1.178   7.886  1.00  0.00    -0.048 A 
ATOM     11  C   UNL     1      -0.460  -0.976   8.164  1.00  0.00     0.004 A 
ATOM     12  C   UNL     1       1.265  -1.621   6.614  1.00  0.00     0.004 A 
ATOM     13  C   UNL     1      -1.426  -1.238   7.194  1.00  0.00     0.005 A 
ATOM     14  C   UNL     1       0.296  -1.850   5.632  1.00  0.00     0.005 A 
BRANCH  10  15
ATOM     15  C   UNL     1       1.920  -0.990   8.975  1.00  0.00     0.038 C 
BRANCH  15  16
ATOM     16  C   UNL     1       1.796  -2.058  10.082  1.00  0.00    -0.013 C 
ATOM     17  C   UNL     1       2.082  -3.465   9.551  1.00  0.00     0.008 C 
ATOM     18  C   UNL     1       2.739  -1.731  11.238  1.00  0.00     0.008 C 
ENDBRANCH  15  16
ENDBRANCH  10  15
ENDBRANCH   7   9
ENDBRANCH   4   7
ENDBRANCH   2   3
ENDBRANCH   1   2
BRANCH   1  19
ATOM     19  C   UNL     1      -4.815   2.741   5.091  1.00  0.00     0.118 C 
BRANCH  19  20
ATOM     20  N   UNL     1      -4.793   3.298   6.440  1.00  0.00    -0.352 N 
ATOM     21  C   UNL     1      -4.974   4.595   6.859  1.00  0.00     0.251 C 
ATOM     22  H   UNL     1      -4.624   2.646   7.158  1.00  0.00     0.163 HD
ATOM     23  O   UNL     1      -4.761   4.901   8.028  1.00  0.00    -0.269 OA
BRANCH  21  24
ATOM     24  C   UNL     1      -5.389   5.623   5.883  1.00  0.00     0.039 A 
ATOM     25  C   UNL     1      -4.683   6.827   5.820  1.00  0.00     0.014 A 
ATOM     26  C   UNL     1      -6.437   5.372   4.995  1.00  0.00     0.014 A 
ATOM     27  C   UNL     1      -4.957   7.731   4.791  1.00  0.00     0.010 A 
ATOM     28  C   UNL     1      -6.646   6.230   3.922  1.00  0.00     0.010 A 
ATOM     29  C   UNL     1      -5.897   7.410   3.798  1.00  0.00    -0.014 A 
BRANCH  29  30
ATOM     30  C   UNL     1      -6.093   8.261   2.597  1.00  0.00     0.031 A 
ATOM     31  C   UNL     1      -7.438   8.873   2.321  1.00  0.00     0.074 A 
ATOM     32  C   UNL     1      -5.093   8.387   1.701  1.00  0.00     0.049 A 
ATOM     33  N   UNL     1      -7.846   9.518   1.259  1.00  0.00    -0.248 NA
ATOM     34  C   UNL     1      -8.468   8.710   3.360  1.00  0.00     0.031 C 
ATOM     35  C   UNL     1      -3.754   7.806   1.831  1.00  0.00     0.029 A 
ATOM     36  N   UNL     1      -5.055   9.031   0.489  1.00  0.00    -0.354 N 
ATOM     37  C   UNL     1      -9.184   9.814   1.490  1.00  0.00     0.074 A 
ATOM     38  C   UNL     1      -9.530   9.243   2.774  1.00  0.00     0.031 C 
ATOM     39  C   UNL     1      -3.023   8.136   0.754  1.00  0.00     0.029 A 
ATOM     40  C   UNL     1      -3.852   8.906  -0.166  1.00  0.00     0.049 A 
ATOM     41  H   UNL     1      -5.818   9.535   0.122  1.00  0.00     0.167 HD
ATOM     42  C   UNL     1     -10.044  10.513   0.711  1.00  0.00     0.031 A 
ATOM     43  C   UNL     1      -3.463   9.343  -1.380  1.00  0.00     0.031 A 
ATOM     44  C   UNL     1      -9.691  11.097  -0.554  1.00  0.00     0.049 A 
ATOM     45  C   UNL     1      -4.440  10.102  -2.234  1.00  0.00     0.074 A 
ATOM     46  C   UNL     1     -10.470  11.884  -1.384  1.00  0.00     0.029 A 
ATOM     47  N   UNL     1      -8.459  10.957  -1.174  1.00  0.00    -0.354 N 
ATOM     48  N   UNL     1      -5.683  10.427  -1.969  1.00  0.00    -0.248 NA
ATOM     49  C   UNL     1      -3.964  10.550  -3.550  1.00  0.00     0.031 C 
ATOM     50  C   UNL     1      -9.724  12.181  -2.529  1.00  0.00     0.029 A 
ATOM     51  C   UNL     1      -8.465  11.618  -2.390  1.00  0.00     0.049 A 
ATOM     52  H   UNL     1      -7.694  10.460  -0.805  1.00  0.00     0.167 HD
ATOM     53  C   UNL     1      -6.133  11.130  -3.080  1.00  0.00     0.074 A 
ATOM     54  C   UNL     1      -5.026  11.197  -4.012  1.00  0.00     0.031 C 
ATOM     55  C   UNL     1      -7.355  11.669  -3.308  1.00  0.00     0.031 A 
BRANCH  42  56
ATOM     56  C   UNL     1     -11.454  10.678   1.210  1.00  0.00    -0.014 A 
ATOM     57  C   UNL     1     -11.742  11.518   2.301  1.00  0.00     0.010 A 
ATOM     58  C   UNL     1     -12.508  10.009   0.562  1.00  0.00     0.010 A 
ATOM     59  C   UNL     1     -13.054  11.651   2.763  1.00  0.00     0.020 A 
ATOM     60  C   UNL     1     -13.825  10.160   1.006  1.00  0.00     0.020 A 
ATOM     61  C   UNL     1     -14.086  10.966   2.116  1.00  0.00     0.054 A 
BRANCH  61  62
ATOM     62  S   UNL     1     -15.782  11.169   2.728  1.00  0.00     0.124 S 
ATOM     63  O   UNL     1     -15.760  10.358   3.943  1.00  0.00    -0.237 OA
ATOM     64  O   UNL     1     -15.878  12.611   2.937  1.00  0.00    -0.237 OA
ATOM     65  O   UNL     1     -16.607  10.644   1.643  1.00  0.00    -0.744 OA
ENDBRANCH  61  62
ENDBRANCH  42  56
BRANCH  43  66
ATOM     66  C   UNL     1      -2.082   9.068  -1.859  1.00  0.00    -0.014 A 
ATOM     67  C   UNL     1      -1.134  10.104  -1.925  1.00  0.00     0.010 A 
ATOM     68  C   UNL     1      -1.700   7.766  -2.232  1.00  0.00     0.010 A 
ATOM     69  C   UNL     1       0.168   9.845  -2.363  1.00  0.00     0.020 A 
ATOM     70  C   UNL     1      -0.393   7.499  -2.648  1.00  0.00     0.020 A 
ATOM     71  C   UNL     1       0.531   8.544  -2.720  1.00  0.00     0.054 A 
BRANCH  71  72
ATOM     72  S   UNL     1       2.243   8.218  -3.226  1.00  0.00     0.124 S 
ATOM     73  O   UNL     1       2.266   8.757  -4.582  1.00  0.00    -0.237 OA
ATOM     74  O   UNL     1       3.014   8.965  -2.235  1.00  0.00    -0.237 OA
ATOM     75  O   UNL     1       2.357   6.765  -3.125  1.00  0.00    -0.744 OA
ENDBRANCH  71  72
ENDBRANCH  43  66
BRANCH  55  76
ATOM     76  C   UNL     1      -7.563  12.391  -4.610  1.00  0.00    -0.014 A 
ATOM     77  C   UNL     1      -7.733  11.678  -5.810  1.00  0.00     0.010 A 
ATOM     78  C   UNL     1      -7.669  13.794  -4.621  1.00  0.00     0.010 A 
ATOM     79  C   UNL     1      -7.994  12.358  -7.002  1.00  0.00     0.020 A 
ATOM     80  C   UNL     1      -7.952  14.475  -5.807  1.00  0.00     0.020 A 
ATOM     81  C   UNL     1      -8.106  13.752  -6.992  1.00  0.00     0.054 A 
BRANCH  81  82
ATOM     82  S   UNL     1      -8.517  14.605  -8.539  1.00  0.00     0.124 S 
ATOM     83  O   UNL     1      -7.253  14.540  -9.268  1.00  0.00    -0.237 OA
ATOM     84  O   UNL     1      -9.598  13.786  -9.081  1.00  0.00    -0.237 OA
ATOM     85  O   UNL     1      -8.916  15.941  -8.102  1.00  0.00    -0.744 OA
ENDBRANCH  81  82
ENDBRANCH  55  76
ENDBRANCH  29  30
ENDBRANCH  21  24
ENDBRANCH  19  20
ENDBRANCH   1  19
TORSDOF 16
