REMARK SMILES COc1ccc2c(c1)c(CC(=O)NCCCNC(=O)c1ccc(-c3c4nc(c(-c5ccc(S(=O)(=O)[O-])cc5)c5ccc([nH]5)c(-c5ccc(S(=O)(=O)[O-])cc5)c5nc(c(-c6ccc(S(=O)(=O)[O-])cc6)c6ccc3[nH]6)C=C5)C=C4)cc1)c(C)n2Cc1ccn(C(F)F)c(=O)c1
REMARK SMILES IDX 14 1 13 2 11 3 12 4 10 6 9 7 3 8 4 9 8 10 5 11 7 12 6 13
REMARK SMILES IDX 82 14 80 15 81 16 2 17 1 18 83 19 84 20 85 21 93 22 86 23
REMARK SMILES IDX 91 24 87 25 92 26 88 27 89 28 90 29 15 30 16 31 17 32 18 33
REMARK SMILES IDX 19 35 20 36 21 37 79 38 22 39 78 40 23 41 24 42 25 43 72 44
REMARK SMILES IDX 26 45 77 46 71 47 73 48 27 49 76 50 70 51 69 52 28 54 58 55
REMARK SMILES IDX 39 56 57 57 40 58 43 59 56 60 74 61 41 62 42 63 55 65 75 66
REMARK SMILES IDX 44 67 29 68 30 69 38 70 31 71 37 72 32 73 33 74 34 75 35 76
REMARK SMILES IDX 36 77 59 78 60 79 68 80 61 81 67 82 62 83 63 84 64 85 65 86
REMARK SMILES IDX 66 87 45 88 46 89 54 90 47 91 53 92 48 93 49 94 50 95 51 96
REMARK SMILES IDX 52 97
REMARK H PARENT 13 5 17 34 73 53 43 64
REMARK Flexibility Score: inf
ROOT
ATOM      1  C   UNL     1      -0.486   5.487  -6.043  1.00  0.00     0.117 C 
ENDROOT
BRANCH   1   2
ATOM      2  N   UNL     1      -1.375   4.425  -5.591  1.00  0.00    -0.356 N 
ATOM      3  C   UNL     1      -2.002   4.253  -4.387  1.00  0.00     0.224 C 
ATOM      4  O   UNL     1      -2.796   3.312  -4.279  1.00  0.00    -0.275 OA
ATOM      5  H   UNL     1      -1.552   3.720  -6.256  1.00  0.00     0.163 HD
BRANCH   3   6
ATOM      6  C   UNL     1      -1.789   5.227  -3.236  1.00  0.00     0.138 C 
BRANCH   6   7
ATOM      7  C   UNL     1      -0.382   5.243  -2.725  1.00  0.00    -0.010 A 
ATOM      8  C   UNL     1       1.058   1.891  -1.612  1.00  0.00     0.119 A 
ATOM      9  C   UNL     1       2.362   2.338  -1.431  1.00  0.00     0.048 A 
ATOM     10  C   UNL     1       0.075   2.759  -2.088  1.00  0.00     0.057 A 
ATOM     11  C   UNL     1       2.699   3.680  -1.648  1.00  0.00     0.031 A 
ATOM     12  C   UNL     1       0.383   4.122  -2.287  1.00  0.00     0.007 A 
ATOM     13  C   UNL     1       1.683   4.571  -2.040  1.00  0.00     0.049 A 
ATOM     14  N   UNL     1       1.693   5.940  -2.276  1.00  0.00    -0.340 N 
ATOM     15  C   UNL     1       0.396   6.370  -2.504  1.00  0.00     0.020 A 
ATOM     16  C   UNL     1      -0.036   7.794  -2.549  1.00  0.00     0.065 C 
BRANCH   8  17
ATOM     17  O   UNL     1       0.675   0.592  -1.399  1.00  0.00    -0.497 OA
ATOM     18  C   UNL     1       1.048   0.115  -0.107  1.00  0.00     0.278 C 
ENDBRANCH   8  17
BRANCH  14  19
ATOM     19  C   UNL     1       2.895   6.788  -2.261  1.00  0.00     0.158 C 
BRANCH  19  20
ATOM     20  C   UNL     1       3.260   7.283  -3.638  1.00  0.00    -0.021 A 
ATOM     21  C   UNL     1       2.693   8.534  -4.093  1.00  0.00     0.024 A 
ATOM     22  C   UNL     1       4.098   6.621  -4.454  1.00  0.00     0.077 A 
ATOM     23  C   UNL     1       2.869   8.948  -5.349  1.00  0.00     0.095 A 
ATOM     24  C   UNL     1       4.307   7.070  -5.861  1.00  0.00     0.255 A 
ATOM     25  N   UNL     1       3.659   8.239  -6.226  1.00  0.00    -0.258 N 
ATOM     26  O   UNL     1       4.976   6.340  -6.588  1.00  0.00    -0.269 OA
BRANCH  25  27
ATOM     27  C   UNL     1       3.736   8.688  -7.590  1.00  0.00     0.451 C 
ATOM     28  F   UNL     1       4.965   8.523  -8.116  1.00  0.00    -0.185 F 
ATOM     29  F   UNL     1       2.838   7.999  -8.336  1.00  0.00    -0.185 F 
ENDBRANCH  25  27
ENDBRANCH  19  20
ENDBRANCH  14  19
ENDBRANCH   6   7
ENDBRANCH   3   6
ENDBRANCH   1   2
BRANCH   1  30
ATOM     30  C   UNL     1       0.943   5.018  -6.340  1.00  0.00     0.042 C 
BRANCH  30  31
ATOM     31  C   UNL     1       1.095   4.069  -7.533  1.00  0.00     0.118 C 
BRANCH  31  32
ATOM     32  N   UNL     1       0.543   4.561  -8.787  1.00  0.00    -0.352 N 
ATOM     33  C   UNL     1       1.016   5.104  -9.954  1.00  0.00     0.251 C 
ATOM     34  H   UNL     1      -0.438   4.483  -8.801  1.00  0.00     0.163 HD
ATOM     35  O   UNL     1       0.171   5.215 -10.851  1.00  0.00    -0.269 OA
BRANCH  33  36
ATOM     36  C   UNL     1       2.388   5.626 -10.218  1.00  0.00     0.039 A 
ATOM     37  C   UNL     1       3.509   5.416  -9.429  1.00  0.00     0.014 A 
ATOM     38  C   UNL     1       2.528   6.460 -11.353  1.00  0.00     0.014 A 
ATOM     39  C   UNL     1       4.689   6.122  -9.700  1.00  0.00     0.010 A 
ATOM     40  C   UNL     1       3.706   7.171 -11.618  1.00  0.00     0.010 A 
ATOM     41  C   UNL     1       4.778   7.059 -10.747  1.00  0.00    -0.014 A 
BRANCH  41  42
ATOM     42  C   UNL     1       6.038   7.817 -10.887  1.00  0.00     0.031 A 
ATOM     43  C   UNL     1       7.262   6.973 -10.834  1.00  0.00     0.074 A 
ATOM     44  C   UNL     1       6.199   9.147 -11.083  1.00  0.00     0.049 A 
ATOM     45  N   UNL     1       8.195   6.987  -9.939  1.00  0.00    -0.248 NA
ATOM     46  C   UNL     1       7.393   5.905 -11.835  1.00  0.00     0.031 C 
ATOM     47  C   UNL     1       5.180  10.154 -11.382  1.00  0.00     0.029 A 
ATOM     48  N   UNL     1       7.364   9.876 -11.127  1.00  0.00    -0.354 N 
ATOM     49  C   UNL     1       9.121   6.036 -10.342  1.00  0.00     0.074 A 
ATOM     50  C   UNL     1       8.514   5.310 -11.431  1.00  0.00     0.031 C 
ATOM     51  C   UNL     1       5.782  11.292 -11.803  1.00  0.00     0.029 A 
ATOM     52  C   UNL     1       7.224  11.148 -11.671  1.00  0.00     0.049 A 
ATOM     53  H   UNL     1       8.225   9.527 -10.801  1.00  0.00     0.167 HD
ATOM     54  C   UNL     1      10.404   6.041  -9.888  1.00  0.00     0.031 A 
ATOM     55  C   UNL     1       8.214  12.003 -12.040  1.00  0.00     0.031 A 
ATOM     56  C   UNL     1      10.555   6.793  -8.671  1.00  0.00     0.049 A 
ATOM     57  C   UNL     1       9.437  11.644 -11.290  1.00  0.00     0.074 A 
ATOM     58  C   UNL     1       9.976   6.732  -7.418  1.00  0.00     0.029 A 
ATOM     59  N   UNL     1      11.168   8.021  -8.743  1.00  0.00    -0.354 N 
ATOM     60  N   UNL     1       9.595  11.850 -10.015  1.00  0.00    -0.248 NA
ATOM     61  C   UNL     1      10.383  10.725 -11.900  1.00  0.00     0.031 C 
ATOM     62  C   UNL     1       9.870   8.085  -6.989  1.00  0.00     0.029 A 
ATOM     63  C   UNL     1      10.435   8.892  -7.978  1.00  0.00     0.049 A 
ATOM     64  H   UNL     1      11.984   8.236  -9.251  1.00  0.00     0.167 HD
ATOM     65  C   UNL     1      10.346  10.770  -9.581  1.00  0.00     0.074 A 
ATOM     66  C   UNL     1      10.900  10.182 -10.798  1.00  0.00     0.031 C 
ATOM     67  C   UNL     1      10.222  10.287  -8.309  1.00  0.00     0.031 A 
BRANCH  54  68
ATOM     68  C   UNL     1      11.567   5.646 -10.762  1.00  0.00    -0.014 A 
ATOM     69  C   UNL     1      11.460   5.559 -12.167  1.00  0.00     0.010 A 
ATOM     70  C   UNL     1      12.866   5.604 -10.219  1.00  0.00     0.010 A 
ATOM     71  C   UNL     1      12.573   5.412 -12.991  1.00  0.00     0.020 A 
ATOM     72  C   UNL     1      13.998   5.508 -11.042  1.00  0.00     0.020 A 
ATOM     73  C   UNL     1      13.840   5.403 -12.423  1.00  0.00     0.054 A 
BRANCH  73  74
ATOM     74  S   UNL     1      15.261   5.332 -13.538  1.00  0.00     0.124 S 
ATOM     75  O   UNL     1      15.171   3.967 -14.050  1.00  0.00    -0.237 OA
ATOM     76  O   UNL     1      14.958   6.387 -14.499  1.00  0.00    -0.237 OA
ATOM     77  O   UNL     1      16.398   5.597 -12.659  1.00  0.00    -0.744 OA
ENDBRANCH  73  74
ENDBRANCH  54  68
BRANCH  55  78
ATOM     78  C   UNL     1       8.280  12.874 -13.247  1.00  0.00    -0.014 A 
ATOM     79  C   UNL     1       7.472  12.590 -14.364  1.00  0.00     0.010 A 
ATOM     80  C   UNL     1       9.365  13.759 -13.433  1.00  0.00     0.010 A 
ATOM     81  C   UNL     1       7.792  13.076 -15.636  1.00  0.00     0.020 A 
ATOM     82  C   UNL     1       9.697  14.245 -14.710  1.00  0.00     0.020 A 
ATOM     83  C   UNL     1       8.931  13.861 -15.810  1.00  0.00     0.054 A 
BRANCH  83  84
ATOM     84  S   UNL     1       9.440  14.264 -17.506  1.00  0.00     0.124 S 
ATOM     85  O   UNL     1       9.815  12.954 -18.030  1.00  0.00    -0.237 OA
ATOM     86  O   UNL     1       8.222  14.838 -18.073  1.00  0.00    -0.237 OA
ATOM     87  O   UNL     1      10.542  15.205 -17.325  1.00  0.00    -0.744 OA
ENDBRANCH  83  84
ENDBRANCH  55  78
BRANCH  67  88
ATOM     88  C   UNL     1       9.553  11.140  -7.249  1.00  0.00    -0.014 A 
ATOM     89  C   UNL     1      10.182  11.224  -5.991  1.00  0.00     0.010 A 
ATOM     90  C   UNL     1       8.280  11.726  -7.392  1.00  0.00     0.010 A 
ATOM     91  C   UNL     1       9.557  11.846  -4.907  1.00  0.00     0.020 A 
ATOM     92  C   UNL     1       7.660  12.383  -6.317  1.00  0.00     0.020 A 
ATOM     93  C   UNL     1       8.294  12.416  -5.074  1.00  0.00     0.054 A 
BRANCH  93  94
ATOM     94  S   UNL     1       7.493  13.174  -3.635  1.00  0.00     0.124 S 
ATOM     95  O   UNL     1       7.152  12.009  -2.819  1.00  0.00    -0.237 OA
ATOM     96  O   UNL     1       8.544  14.030  -3.091  1.00  0.00    -0.237 OA
ATOM     97  O   UNL     1       6.347  13.883  -4.199  1.00  0.00    -0.744 OA
ENDBRANCH  93  94
ENDBRANCH  67  88
ENDBRANCH  41  42
ENDBRANCH  33  36
ENDBRANCH  31  32
ENDBRANCH  30  31
ENDBRANCH   1  30
TORSDOF 18
