REMARK SMILES CC(C)(C)OC(=O)N[C@H](c1ccccc1)[C@@H](O)CC(=O)NCCCNC(=O)c1ccc(-c2c3nc(c(-c4ccc(S(=O)(=O)[O-])cc4)c4ccc([nH]4)c(-c4ccc(S(=O)(=O)[O-])cc4)c4nc(c(-c5ccc(S(=O)(=O)[O-])cc5)c5ccc2[nH]5)C=C4)C=C3)cc1
REMARK SMILES IDX 22 1 21 2 19 3 20 4 18 6 16 7 9 8 8 9 6 10 7 11 5 13 2 14
REMARK SMILES IDX 1 15 3 16 4 17 10 18 11 19 15 20 12 21 14 22 13 23 17 24
REMARK SMILES IDX 23 26 24 27 25 28 26 29 27 31 28 32 29 33 87 34 30 35 86 36
REMARK SMILES IDX 31 37 32 38 33 39 80 40 34 41 85 42 79 43 81 44 35 45 84 46
REMARK SMILES IDX 78 47 77 48 36 50 66 51 47 52 65 53 48 54 51 55 64 56 82 57
REMARK SMILES IDX 49 58 50 59 63 61 83 62 52 63 37 64 38 65 46 66 39 67 45 68
REMARK SMILES IDX 40 69 41 70 42 71 43 72 44 73 67 74 68 75 76 76 69 77 75 78
REMARK SMILES IDX 70 79 71 80 72 81 73 82 74 83 53 84 54 85 62 86 55 87 61 88
REMARK SMILES IDX 56 89 57 90 58 91 59 92 60 93
REMARK H PARENT 21 5 8 12 17 25 25 30 81 49 51 60
REMARK Flexibility Score: inf
ROOT
ATOM      1  C   UNL     1       2.749  -2.361   1.534  1.00  0.00     0.117 C 
ENDROOT
BRANCH   1   2
ATOM      2  N   UNL     1       3.205  -3.692   1.890  1.00  0.00    -0.356 N 
ATOM      3  C   UNL     1       2.660  -4.919   2.142  1.00  0.00     0.222 C 
ATOM      4  O   UNL     1       3.351  -5.939   2.127  1.00  0.00    -0.275 OA
ATOM      5  H   UNL     1       4.186  -3.718   1.974  1.00  0.00     0.163 HD
BRANCH   3   6
ATOM      6  C   UNL     1       1.259  -5.053   2.579  1.00  0.00     0.134 C 
BRANCH   6   7
ATOM      7  C   UNL     1       1.072  -4.713   4.055  1.00  0.00     0.150 C 
BRANCH   7   8
ATOM      8  C   UNL     1       2.065  -3.638   4.702  1.00  0.00     0.145 C 
BRANCH   8   9
ATOM      9  N   UNL     1       3.371  -4.180   5.223  1.00  0.00    -0.312 N 
ATOM     10  C   UNL     1       4.652  -4.484   4.749  1.00  0.00     0.408 C 
ATOM     11  O   UNL     1       5.452  -4.961   5.572  1.00  0.00    -0.225 OA
ATOM     12  H   UNL     1       3.303  -4.379   6.185  1.00  0.00     0.167 HD
BRANCH  10  13
ATOM     13  O   UNL     1       5.009  -4.248   3.442  1.00  0.00    -0.444 OA
BRANCH  13  14
ATOM     14  C   UNL     1       6.271  -4.721   2.767  1.00  0.00     0.106 C 
ATOM     15  C   UNL     1       6.036  -4.932   1.233  1.00  0.00     0.056 C 
ATOM     16  C   UNL     1       6.780  -6.059   3.305  1.00  0.00     0.056 C 
ATOM     17  C   UNL     1       7.363  -3.649   2.840  1.00  0.00     0.056 C 
ENDBRANCH  13  14
ENDBRANCH  10  13
ENDBRANCH   8   9
BRANCH   8  18
ATOM     18  C   UNL     1       1.341  -2.667   5.691  1.00  0.00    -0.023 A 
ATOM     19  C   UNL     1       1.808  -1.349   5.816  1.00  0.00     0.006 A 
ATOM     20  C   UNL     1       0.074  -2.923   6.246  1.00  0.00     0.006 A 
ATOM     21  C   UNL     1       0.964  -0.299   6.201  1.00  0.00     0.000 A 
ATOM     22  C   UNL     1      -0.786  -1.876   6.612  1.00  0.00     0.000 A 
ATOM     23  C   UNL     1      -0.356  -0.557   6.542  1.00  0.00     0.000 A 
ENDBRANCH   8  18
ENDBRANCH   7   8
BRANCH   7  24
ATOM     24  O   UNL     1      -0.325  -4.332   4.053  1.00  0.00    -0.390 OA
ATOM     25  H   UNL     1      -0.457  -3.591   3.442  1.00  0.00     0.211 HD
ENDBRANCH   7  24
ENDBRANCH   6   7
ENDBRANCH   3   6
ENDBRANCH   1   2
BRANCH   1  26
ATOM     26  C   UNL     1       3.154  -1.114   2.397  1.00  0.00     0.042 C 
BRANCH  26  27
ATOM     27  C   UNL     1       4.276  -1.021   3.466  1.00  0.00     0.118 C 
BRANCH  27  28
ATOM     28  N   UNL     1       5.618  -0.736   3.015  1.00  0.00    -0.352 N 
ATOM     29  C   UNL     1       6.648  -0.056   3.643  1.00  0.00     0.251 C 
ATOM     30  H   UNL     1       5.835  -1.079   2.118  1.00  0.00     0.163 HD
ATOM     31  O   UNL     1       7.752  -0.052   3.094  1.00  0.00    -0.269 OA
BRANCH  29  32
ATOM     32  C   UNL     1       6.489   0.748   4.894  1.00  0.00     0.039 A 
ATOM     33  C   UNL     1       6.835   2.106   4.820  1.00  0.00     0.014 A 
ATOM     34  C   UNL     1       6.191   0.211   6.152  1.00  0.00     0.014 A 
ATOM     35  C   UNL     1       6.830   2.926   5.963  1.00  0.00     0.010 A 
ATOM     36  C   UNL     1       6.173   1.044   7.303  1.00  0.00     0.010 A 
ATOM     37  C   UNL     1       6.480   2.416   7.224  1.00  0.00    -0.014 A 
BRANCH  37  38
ATOM     38  C   UNL     1       6.374   3.349   8.399  1.00  0.00     0.031 A 
ATOM     39  C   UNL     1       7.378   3.357   9.530  1.00  0.00     0.074 A 
ATOM     40  C   UNL     1       5.362   4.244   8.443  1.00  0.00     0.049 A 
ATOM     41  N   UNL     1       7.455   4.165  10.563  1.00  0.00    -0.248 NA
ATOM     42  C   UNL     1       8.425   2.328   9.501  1.00  0.00     0.031 C 
ATOM     43  C   UNL     1       4.306   4.365   7.437  1.00  0.00     0.029 A 
ATOM     44  N   UNL     1       5.059   5.229   9.358  1.00  0.00    -0.354 N 
ATOM     45  C   UNL     1       8.554   3.746  11.307  1.00  0.00     0.074 A 
ATOM     46  C   UNL     1       9.092   2.587  10.620  1.00  0.00     0.031 C 
ATOM     47  C   UNL     1       3.490   5.377   7.773  1.00  0.00     0.029 A 
ATOM     48  C   UNL     1       3.942   5.965   9.032  1.00  0.00     0.049 A 
ATOM     49  H   UNL     1       5.591   5.391  10.170  1.00  0.00     0.167 HD
ATOM     50  C   UNL     1       9.078   4.272  12.447  1.00  0.00     0.031 A 
ATOM     51  C   UNL     1       3.341   6.999   9.658  1.00  0.00     0.031 A 
ATOM     52  C   UNL     1       8.546   5.415  13.151  1.00  0.00     0.049 A 
ATOM     53  C   UNL     1       3.922   7.551  10.931  1.00  0.00     0.074 A 
ATOM     54  C   UNL     1       9.040   6.031  14.292  1.00  0.00     0.029 A 
ATOM     55  N   UNL     1       7.402   6.111  12.796  1.00  0.00    -0.354 N 
ATOM     56  N   UNL     1       4.997   7.172  11.578  1.00  0.00    -0.248 NA
ATOM     57  C   UNL     1       3.215   8.683  11.551  1.00  0.00     0.031 C 
ATOM     58  C   UNL     1       8.168   7.065  14.653  1.00  0.00     0.029 A 
ATOM     59  C   UNL     1       7.162   7.132  13.705  1.00  0.00     0.049 A 
ATOM     60  H   UNL     1       6.840   5.911  12.013  1.00  0.00     0.167 HD
ATOM     61  C   UNL     1       5.112   8.037  12.662  1.00  0.00     0.074 A 
ATOM     62  C   UNL     1       4.004   8.964  12.580  1.00  0.00     0.031 C 
ATOM     63  C   UNL     1       6.058   8.058  13.632  1.00  0.00     0.031 A 
BRANCH  50  64
ATOM     64  C   UNL     1      10.302   3.603  13.028  1.00  0.00    -0.014 A 
ATOM     65  C   UNL     1      11.556   3.711  12.399  1.00  0.00     0.010 A 
ATOM     66  C   UNL     1      10.212   2.907  14.249  1.00  0.00     0.010 A 
ATOM     67  C   UNL     1      12.682   3.092  12.950  1.00  0.00     0.020 A 
ATOM     68  C   UNL     1      11.342   2.309  14.818  1.00  0.00     0.020 A 
ATOM     69  C   UNL     1      12.567   2.387  14.151  1.00  0.00     0.054 A 
BRANCH  69  70
ATOM     70  S   UNL     1      14.043   1.590  14.845  1.00  0.00     0.124 S 
ATOM     71  O   UNL     1      14.212   0.444  13.952  1.00  0.00    -0.237 OA
ATOM     72  O   UNL     1      15.061   2.634  14.719  1.00  0.00    -0.237 OA
ATOM     73  O   UNL     1      13.656   1.264  16.210  1.00  0.00    -0.744 OA
ENDBRANCH  69  70
ENDBRANCH  50  64
BRANCH  51  74
ATOM     74  C   UNL     1       2.113   7.604   9.069  1.00  0.00    -0.014 A 
ATOM     75  C   UNL     1       2.154   8.880   8.479  1.00  0.00     0.010 A 
ATOM     76  C   UNL     1       0.897   6.895   9.081  1.00  0.00     0.010 A 
ATOM     77  C   UNL     1       1.002   9.438   7.917  1.00  0.00     0.020 A 
ATOM     78  C   UNL     1      -0.250   7.440   8.497  1.00  0.00     0.020 A 
ATOM     79  C   UNL     1      -0.192   8.712   7.926  1.00  0.00     0.054 A 
BRANCH  79  80
ATOM     80  S   UNL     1      -1.658   9.423   7.125  1.00  0.00     0.124 S 
ATOM     81  O   UNL     1      -2.075  10.431   8.094  1.00  0.00    -0.237 OA
ATOM     82  O   UNL     1      -1.115   9.936   5.870  1.00  0.00    -0.237 OA
ATOM     83  O   UNL     1      -2.556   8.279   6.983  1.00  0.00    -0.744 OA
ENDBRANCH  79  80
ENDBRANCH  51  74
BRANCH  63  84
ATOM     84  C   UNL     1       5.965   9.142  14.677  1.00  0.00    -0.014 A 
ATOM     85  C   UNL     1       4.975   9.116  15.675  1.00  0.00     0.010 A 
ATOM     86  C   UNL     1       6.913  10.183  14.684  1.00  0.00     0.010 A 
ATOM     87  C   UNL     1       4.916  10.126  16.642  1.00  0.00     0.020 A 
ATOM     88  C   UNL     1       6.872  11.181  15.663  1.00  0.00     0.020 A 
ATOM     89  C   UNL     1       5.864  11.153  16.629  1.00  0.00     0.054 A 
BRANCH  89  90
ATOM     90  S   UNL     1       5.791  12.431  17.916  1.00  0.00     0.124 S 
ATOM     91  O   UNL     1       4.656  13.239  17.480  1.00  0.00    -0.237 OA
ATOM     92  O   UNL     1       5.576  11.650  19.133  1.00  0.00    -0.237 OA
ATOM     93  O   UNL     1       7.094  13.087  17.828  1.00  0.00    -0.744 OA
ENDBRANCH  89  90
ENDBRANCH  63  84
ENDBRANCH  37  38
ENDBRANCH  29  32
ENDBRANCH  27  28
ENDBRANCH  26  27
ENDBRANCH   1  26
TORSDOF 20
