REMARK SMILES O=C(NCCCNC(=O)[C@@H]1CC2(CC[NH2+]CC2)C[N@@H+]1Cc1cccc2nonc12)c1ccc(-c2c3nc(c(-c4ccc(S(=O)(=O)[O-])cc4)c4ccc([nH]4)c(-c4ccc(S(=O)(=O)[O-])cc4)c4nc(c(-c5ccc(S(=O)(=O)[O-])cc5)c5ccc2[nH]5)C=C4)C=C3)cc1
REMARK SMILES IDX 4 1 3 2 1 3 2 4 30 6 31 7 89 8 32 9 88 10 33 11 34 12 35 13
REMARK SMILES IDX 82 14 36 15 87 16 81 17 83 18 37 19 86 20 80 21 79 22 38 24
REMARK SMILES IDX 68 25 49 26 67 27 50 28 53 29 66 30 84 31 51 32 52 33 65 35
REMARK SMILES IDX 85 36 54 37 39 38 40 39 48 40 41 41 47 42 42 43 43 44 44 45
REMARK SMILES IDX 45 46 46 47 69 48 70 49 78 50 71 51 77 52 72 53 73 54 74 55
REMARK SMILES IDX 75 56 76 57 55 58 56 59 64 60 57 61 63 62 58 63 59 64 60 65
REMARK SMILES IDX 61 66 62 67 5 68 6 69 7 70 8 71 9 73 10 74 11 75 19 76 12 77
REMARK SMILES IDX 18 78 13 80 17 81 14 82 16 83 15 84 20 87 21 88 22 89 29 90
REMARK SMILES IDX 23 91 25 92 28 93 24 94 26 95 27 96
REMARK H PARENT 3 5 83 23 53 34 7 72 19 79 15 85 15 86
REMARK Flexibility Score: inf
ROOT
ATOM      1  C   UNL     1       4.287   0.652   0.408  1.00  0.00     0.118 C 
ENDROOT
BRANCH   1   2
ATOM      2  N   UNL     1       2.842   0.609   0.264  1.00  0.00    -0.352 N 
ATOM      3  O   UNL     1       0.936   0.117  -0.751  1.00  0.00    -0.269 OA
ATOM      4  C   UNL     1       2.008  -0.307  -0.316  1.00  0.00     0.251 C 
ATOM      5  H   UNL     1       2.377   1.383   0.655  1.00  0.00     0.163 HD
BRANCH   4   6
ATOM      6  C   UNL     1       2.283  -1.765  -0.390  1.00  0.00     0.039 A 
ATOM      7  C   UNL     1       1.604  -2.488  -1.386  1.00  0.00     0.014 A 
ATOM      8  C   UNL     1       2.984  -2.465   0.594  1.00  0.00     0.014 A 
ATOM      9  C   UNL     1       1.613  -3.885  -1.402  1.00  0.00     0.010 A 
ATOM     10  C   UNL     1       2.990  -3.871   0.577  1.00  0.00     0.010 A 
ATOM     11  C   UNL     1       2.306  -4.594  -0.419  1.00  0.00    -0.014 A 
BRANCH  11  12
ATOM     12  C   UNL     1       2.380  -6.074  -0.550  1.00  0.00     0.031 A 
ATOM     13  C   UNL     1       3.767  -6.612  -0.466  1.00  0.00     0.074 A 
ATOM     14  C   UNL     1       1.355  -6.902  -0.233  1.00  0.00     0.049 A 
ATOM     15  N   UNL     1       4.353  -6.694   0.688  1.00  0.00    -0.248 NA
ATOM     16  C   UNL     1       4.677  -6.811  -1.589  1.00  0.00     0.031 C 
ATOM     17  C   UNL     1       0.276  -6.535   0.698  1.00  0.00     0.029 A 
ATOM     18  N   UNL     1       1.146  -8.249  -0.463  1.00  0.00    -0.354 N 
ATOM     19  C   UNL     1       5.702  -6.904   0.475  1.00  0.00     0.074 A 
ATOM     20  C   UNL     1       5.855  -6.984  -0.960  1.00  0.00     0.031 C 
ATOM     21  C   UNL     1      -0.378  -7.653   1.075  1.00  0.00     0.029 A 
ATOM     22  C   UNL     1       0.121  -8.796   0.312  1.00  0.00     0.049 A 
ATOM     23  H   UNL     1       1.671  -8.773  -1.111  1.00  0.00     0.167 HD
ATOM     24  C   UNL     1       6.554  -7.040   1.530  1.00  0.00     0.031 A 
ATOM     25  C   UNL     1       0.053 -10.082   0.758  1.00  0.00     0.031 A 
ATOM     26  C   UNL     1       5.917  -7.037   2.830  1.00  0.00     0.049 A 
ATOM     27  C   UNL     1       1.183 -10.125   1.752  1.00  0.00     0.074 A 
ATOM     28  C   UNL     1       6.005  -6.419   4.056  1.00  0.00     0.029 A 
ATOM     29  N   UNL     1       4.841  -7.876   2.912  1.00  0.00    -0.354 N 
ATOM     30  N   UNL     1       1.151  -9.652   2.968  1.00  0.00    -0.248 NA
ATOM     31  C   UNL     1       2.522 -10.523   1.289  1.00  0.00     0.031 C 
ATOM     32  C   UNL     1       4.895  -6.888   4.844  1.00  0.00     0.029 A 
ATOM     33  C   UNL     1       4.168  -7.803   4.091  1.00  0.00     0.049 A 
ATOM     34  H   UNL     1       4.576  -8.480   2.181  1.00  0.00     0.167 HD
ATOM     35  C   UNL     1       2.480  -9.421   3.297  1.00  0.00     0.074 A 
ATOM     36  C   UNL     1       3.268 -10.145   2.320  1.00  0.00     0.031 C 
ATOM     37  C   UNL     1       2.879  -8.462   4.184  1.00  0.00     0.031 A 
BRANCH  24  38
ATOM     38  C   UNL     1       7.951  -7.523   1.406  1.00  0.00    -0.014 A 
ATOM     39  C   UNL     1       9.038  -6.698   1.093  1.00  0.00     0.010 A 
ATOM     40  C   UNL     1       8.192  -8.865   1.765  1.00  0.00     0.010 A 
ATOM     41  C   UNL     1      10.345  -7.210   1.153  1.00  0.00     0.020 A 
ATOM     42  C   UNL     1       9.486  -9.379   1.827  1.00  0.00     0.020 A 
ATOM     43  C   UNL     1      10.559  -8.546   1.524  1.00  0.00     0.054 A 
BRANCH  43  44
ATOM     44  S   UNL     1      12.259  -9.171   1.647  1.00  0.00     0.124 S 
ATOM     45  O   UNL     1      12.719  -9.080   0.265  1.00  0.00    -0.237 OA
ATOM     46  O   UNL     1      12.875  -8.231   2.579  1.00  0.00    -0.237 OA
ATOM     47  O   UNL     1      12.095 -10.531   2.158  1.00  0.00    -0.744 OA
ENDBRANCH  43  44
ENDBRANCH  24  38
BRANCH  25  48
ATOM     48  C   UNL     1      -0.165 -11.172  -0.249  1.00  0.00    -0.014 A 
ATOM     49  C   UNL     1       0.579 -12.364  -0.296  1.00  0.00     0.010 A 
ATOM     50  C   UNL     1      -1.188 -11.016  -1.209  1.00  0.00     0.010 A 
ATOM     51  C   UNL     1       0.489 -13.230  -1.392  1.00  0.00     0.020 A 
ATOM     52  C   UNL     1      -1.319 -11.901  -2.287  1.00  0.00     0.020 A 
ATOM     53  C   UNL     1      -0.424 -12.959  -2.410  1.00  0.00     0.054 A 
BRANCH  53  54
ATOM     54  S   UNL     1      -0.360 -13.952  -3.924  1.00  0.00     0.124 S 
ATOM     55  O   UNL     1       0.907 -13.517  -4.507  1.00  0.00    -0.237 OA
ATOM     56  O   UNL     1      -0.388 -15.318  -3.417  1.00  0.00    -0.237 OA
ATOM     57  O   UNL     1      -1.556 -13.535  -4.660  1.00  0.00    -0.744 OA
ENDBRANCH  53  54
ENDBRANCH  25  48
BRANCH  37  58
ATOM     58  C   UNL     1       1.874  -8.024   5.195  1.00  0.00    -0.014 A 
ATOM     59  C   UNL     1       1.582  -6.669   5.417  1.00  0.00     0.010 A 
ATOM     60  C   UNL     1       1.307  -8.995   6.040  1.00  0.00     0.010 A 
ATOM     61  C   UNL     1       0.802  -6.289   6.513  1.00  0.00     0.020 A 
ATOM     62  C   UNL     1       0.519  -8.624   7.125  1.00  0.00     0.020 A 
ATOM     63  C   UNL     1       0.303  -7.271   7.377  1.00  0.00     0.054 A 
BRANCH  63  64
ATOM     64  S   UNL     1      -0.563  -6.754   8.880  1.00  0.00     0.124 S 
ATOM     65  O   UNL     1       0.489  -6.062   9.619  1.00  0.00    -0.237 OA
ATOM     66  O   UNL     1      -1.631  -5.907   8.362  1.00  0.00    -0.237 OA
ATOM     67  O   UNL     1      -1.008  -8.015   9.479  1.00  0.00    -0.744 OA
ENDBRANCH  63  64
ENDBRANCH  37  58
ENDBRANCH  11  12
ENDBRANCH   4   6
ENDBRANCH   1   2
BRANCH   1  68
ATOM     68  C   UNL     1       4.846   1.985  -0.135  1.00  0.00     0.042 C 
BRANCH  68  69
ATOM     69  C   UNL     1       4.419   3.248   0.635  1.00  0.00     0.118 C 
BRANCH  69  70
ATOM     70  N   UNL     1       5.010   3.272   1.956  1.00  0.00    -0.351 N 
ATOM     71  C   UNL     1       5.929   4.110   2.509  1.00  0.00     0.278 C 
ATOM     72  H   UNL     1       4.694   2.559   2.557  1.00  0.00     0.163 HD
ATOM     73  O   UNL     1       6.538   3.654   3.478  1.00  0.00    -0.268 OA
BRANCH  71  74
ATOM     74  C   UNL     1       6.157   5.533   1.949  1.00  0.00     0.275 C 
ATOM     75  C   UNL     1       7.530   5.645   1.276  1.00  0.00     0.089 C 
ATOM     76  N   UNL     1       6.211   6.590   2.965  1.00  0.00    -0.320 N 
ATOM     77  C   UNL     1       8.478   6.300   2.313  1.00  0.00     0.036 C 
ATOM     78  C   UNL     1       7.522   7.175   3.135  1.00  0.00     0.270 C 
ATOM     79  H   UNL     1       5.590   7.270   2.525  1.00  0.00     0.349 HD
ATOM     80  C   UNL     1       9.575   7.154   1.646  1.00  0.00     0.074 C 
ATOM     81  C   UNL     1       9.206   5.277   3.219  1.00  0.00     0.074 C 
ATOM     82  C   UNL     1      10.615   6.292   0.928  1.00  0.00     0.261 C 
ATOM     83  C   UNL     1      10.238   4.452   2.452  1.00  0.00     0.261 C 
ATOM     84  N   UNL     1      11.239   5.316   1.820  1.00  0.00    -0.346 N 
ATOM     85  H   UNL     1      11.755   5.813   2.547  1.00  0.00     0.346 HD
ATOM     86  H   UNL     1      11.866   4.731   1.268  1.00  0.00     0.346 HD
BRANCH  76  87
ATOM     87  C   UNL     1       5.177   6.799   3.956  1.00  0.00     0.302 C 
BRANCH  87  88
ATOM     88  C   UNL     1       5.130   5.748   5.026  1.00  0.00     0.038 A 
ATOM     89  C   UNL     1       6.194   5.538   5.944  1.00  0.00     0.012 A 
ATOM     90  C   UNL     1       4.104   4.780   5.136  1.00  0.00     0.144 A 
ATOM     91  C   UNL     1       6.280   4.423   6.819  1.00  0.00     0.003 A 
ATOM     92  C   UNL     1       4.192   3.639   6.038  1.00  0.00     0.135 A 
ATOM     93  N   UNL     1       2.950   4.686   4.458  1.00  0.00    -0.049 NA
ATOM     94  C   UNL     1       5.293   3.426   6.886  1.00  0.00     0.034 A 
ATOM     95  N   UNL     1       3.093   2.893   5.878  1.00  0.00    -0.050 NA
ATOM     96  O   UNL     1       2.334   3.536   4.918  1.00  0.00    -0.243 OA
ENDBRANCH  87  88
ENDBRANCH  76  87
ENDBRANCH  71  74
ENDBRANCH  69  70
ENDBRANCH  68  69
ENDBRANCH   1  68
TORSDOF 15
