REMARK SMILES C#CC[C@@H](C(=O)NCCCNC(=O)c1ccc(-c2c3nc(c(-c4ccc(S(=O)(=O)[O-])cc4)c4ccc([nH]4)c(-c4ccc(S(=O)(=O)[O-])cc4)c4nc(c(-c5ccc(S(=O)(=O)[O-])cc5)c5ccc2[nH]5)C=C4)C=C3)cc1)c1cccc(Br)c1
REMARK SMILES IDX 9 1 8 2 7 3 5 4 6 5 4 7 3 8 2 9 1 10 74 11 75 12 80 13 76 14
REMARK SMILES IDX 78 15 77 16 79 17 10 18 11 19 12 20 13 22 14 23 15 24 73 25
REMARK SMILES IDX 16 26 72 27 17 28 18 29 19 30 66 31 20 32 71 33 65 34 67 35
REMARK SMILES IDX 21 36 70 37 64 38 63 39 22 41 52 42 33 43 51 44 34 45 37 46
REMARK SMILES IDX 50 47 68 48 35 49 36 50 49 52 69 53 38 54 23 55 24 56 32 57
REMARK SMILES IDX 25 58 31 59 26 60 27 61 28 62 29 63 30 64 53 65 54 66 62 67
REMARK SMILES IDX 55 68 61 69 56 70 57 71 58 72 59 73 60 74 39 75 40 76 48 77
REMARK SMILES IDX 41 78 47 79 42 80 43 81 44 82 45 83 46 84
REMARK H PARENT 7 6 11 21 67 40 37 51
REMARK Flexibility Score: inf
ROOT
ATOM      1  C   UNL     1       1.410  -2.468   1.353  1.00  0.00     0.042 C 
ENDROOT
BRANCH   1   2
ATOM      2  C   UNL     1       0.226  -3.106   0.609  1.00  0.00     0.117 C 
BRANCH   2   3
ATOM      3  N   UNL     1      -0.997  -2.972   1.389  1.00  0.00    -0.355 N 
ATOM      4  C   UNL     1      -2.037  -2.088   1.294  1.00  0.00     0.228 C 
ATOM      5  O   UNL     1      -2.742  -1.973   2.303  1.00  0.00    -0.274 OA
ATOM      6  H   UNL     1      -1.092  -3.634   2.112  1.00  0.00     0.163 HD
BRANCH   4   7
ATOM      7  C   UNL     1      -2.380  -1.340  -0.021  1.00  0.00     0.120 C 
BRANCH   7   8
ATOM      8  C   UNL     1      -1.816   0.099  -0.013  1.00  0.00     0.107 C 
BRANCH   8   9
ATOM      9  C   UNL     1      -0.296   0.099  -0.013  1.00  0.00    -0.106 C 
ATOM     10  C   UNL     1       1.008   0.099  -0.013  1.00  0.00     0.004 C 
ENDBRANCH   8   9
ENDBRANCH   7   8
BRANCH   7  11
ATOM     11  C   UNL     1      -3.911  -1.368  -0.224  1.00  0.00    -0.034 A 
ATOM     12  C   UNL     1      -4.715  -0.214  -0.174  1.00  0.00     0.004 A 
ATOM     13  C   UNL     1      -4.554  -2.610  -0.380  1.00  0.00     0.020 A 
ATOM     14  C   UNL     1      -6.108  -0.297  -0.253  1.00  0.00     0.001 A 
ATOM     15  C   UNL     1      -5.949  -2.687  -0.440  1.00  0.00     0.018 A 
ATOM     16  C   UNL     1      -6.728  -1.536  -0.375  1.00  0.00     0.016 A 
ATOM     17  Br  UNL     1      -6.792  -4.375  -0.574  1.00  0.00    -0.051 Br
ENDBRANCH   7  11
ENDBRANCH   4   7
ENDBRANCH   2   3
ENDBRANCH   1   2
BRANCH   1  18
ATOM     18  C   UNL     1       2.107  -3.355   2.375  1.00  0.00     0.118 C 
BRANCH  18  19
ATOM     19  N   UNL     1       3.386  -3.824   1.866  1.00  0.00    -0.352 N 
ATOM     20  C   UNL     1       4.656  -3.297   1.845  1.00  0.00     0.251 C 
ATOM     21  H   UNL     1       3.331  -4.712   1.445  1.00  0.00     0.163 HD
ATOM     22  O   UNL     1       5.435  -3.806   1.034  1.00  0.00    -0.269 OA
BRANCH  20  23
ATOM     23  C   UNL     1       5.161  -2.196   2.724  1.00  0.00     0.039 A 
ATOM     24  C   UNL     1       6.380  -1.593   2.359  1.00  0.00     0.014 A 
ATOM     25  C   UNL     1       4.606  -1.837   3.951  1.00  0.00     0.014 A 
ATOM     26  C   UNL     1       7.048  -0.709   3.221  1.00  0.00     0.010 A 
ATOM     27  C   UNL     1       5.228  -0.884   4.776  1.00  0.00     0.010 A 
ATOM     28  C   UNL     1       6.488  -0.358   4.455  1.00  0.00    -0.014 A 
BRANCH  28  29
ATOM     29  C   UNL     1       7.254   0.432   5.466  1.00  0.00     0.031 A 
ATOM     30  C   UNL     1       7.611  -0.196   6.798  1.00  0.00     0.074 A 
ATOM     31  C   UNL     1       7.625   1.705   5.224  1.00  0.00     0.049 A 
ATOM     32  N   UNL     1       8.201   0.339   7.840  1.00  0.00    -0.248 NA
ATOM     33  C   UNL     1       7.227  -1.603   6.992  1.00  0.00     0.031 C 
ATOM     34  C   UNL     1       7.340   2.455   4.001  1.00  0.00     0.029 A 
ATOM     35  N   UNL     1       8.323   2.597   6.005  1.00  0.00    -0.354 N 
ATOM     36  C   UNL     1       8.220  -0.651   8.819  1.00  0.00     0.074 A 
ATOM     37  C   UNL     1       7.540  -1.801   8.264  1.00  0.00     0.031 C 
ATOM     38  C   UNL     1       7.871   3.685   4.106  1.00  0.00     0.029 A 
ATOM     39  C   UNL     1       8.509   3.824   5.413  1.00  0.00     0.049 A 
ATOM     40  H   UNL     1       8.658   2.377   6.905  1.00  0.00     0.167 HD
ATOM     41  C   UNL     1       8.769  -0.626  10.059  1.00  0.00     0.031 A 
ATOM     42  C   UNL     1       9.121   4.937   5.865  1.00  0.00     0.031 A 
ATOM     43  C   UNL     1       9.486   0.495  10.606  1.00  0.00     0.049 A 
ATOM     44  C   UNL     1       9.767   4.933   7.225  1.00  0.00     0.074 A 
ATOM     45  C   UNL     1      10.111   0.604  11.836  1.00  0.00     0.029 A 
ATOM     46  N   UNL     1       9.690   1.698   9.947  1.00  0.00    -0.354 N 
ATOM     47  N   UNL     1       9.788   3.979   8.124  1.00  0.00    -0.248 NA
ATOM     48  C   UNL     1      10.492   6.150   7.620  1.00  0.00     0.031 C 
ATOM     49  C   UNL     1      10.674   1.882  11.932  1.00  0.00     0.029 A 
ATOM     50  C   UNL     1      10.436   2.552  10.743  1.00  0.00     0.049 A 
ATOM     51  H   UNL     1       9.355   1.913   9.047  1.00  0.00     0.167 HD
ATOM     52  C   UNL     1      10.550   4.470   9.180  1.00  0.00     0.074 A 
ATOM     53  C   UNL     1      10.982   5.800   8.801  1.00  0.00     0.031 C 
ATOM     54  C   UNL     1      10.865   3.871  10.355  1.00  0.00     0.031 A 
BRANCH  41  55
ATOM     55  C   UNL     1       8.612  -1.862  10.909  1.00  0.00    -0.014 A 
ATOM     56  C   UNL     1       9.291  -3.053  10.592  1.00  0.00     0.010 A 
ATOM     57  C   UNL     1       7.778  -1.833  12.041  1.00  0.00     0.010 A 
ATOM     58  C   UNL     1       9.089  -4.208  11.352  1.00  0.00     0.020 A 
ATOM     59  C   UNL     1       7.597  -2.979  12.823  1.00  0.00     0.020 A 
ATOM     60  C   UNL     1       8.235  -4.167  12.457  1.00  0.00     0.054 A 
BRANCH  60  61
ATOM     61  S   UNL     1       7.978  -5.681  13.423  1.00  0.00     0.124 S 
ATOM     62  O   UNL     1       7.066  -6.433  12.561  1.00  0.00    -0.237 OA
ATOM     63  O   UNL     1       9.330  -6.229  13.529  1.00  0.00    -0.237 OA
ATOM     64  O   UNL     1       7.404  -5.203  14.673  1.00  0.00    -0.744 OA
ENDBRANCH  60  61
ENDBRANCH  41  55
BRANCH  42  65
ATOM     65  C   UNL     1       9.176   6.148   5.001  1.00  0.00    -0.014 A 
ATOM     66  C   UNL     1      10.376   6.520   4.369  1.00  0.00     0.010 A 
ATOM     67  C   UNL     1       8.020   6.918   4.782  1.00  0.00     0.010 A 
ATOM     68  C   UNL     1      10.420   7.644   3.538  1.00  0.00     0.020 A 
ATOM     69  C   UNL     1       8.054   8.028   3.933  1.00  0.00     0.020 A 
ATOM     70  C   UNL     1       9.257   8.388   3.321  1.00  0.00     0.054 A 
BRANCH  70  71
ATOM     71  S   UNL     1       9.317   9.796   2.177  1.00  0.00     0.124 S 
ATOM     72  O   UNL     1       9.983  10.814   2.982  1.00  0.00    -0.237 OA
ATOM     73  O   UNL     1      10.095   9.264   1.060  1.00  0.00    -0.237 OA
ATOM     74  O   UNL     1       7.910  10.052   1.878  1.00  0.00    -0.744 OA
ENDBRANCH  70  71
ENDBRANCH  42  65
BRANCH  54  75
ATOM     75  C   UNL     1      11.756   4.629  11.303  1.00  0.00    -0.014 A 
ATOM     76  C   UNL     1      11.278   5.730  12.035  1.00  0.00     0.010 A 
ATOM     77  C   UNL     1      13.085   4.206  11.490  1.00  0.00     0.010 A 
ATOM     78  C   UNL     1      12.125   6.419  12.909  1.00  0.00     0.020 A 
ATOM     79  C   UNL     1      13.927   4.877  12.380  1.00  0.00     0.020 A 
ATOM     80  C   UNL     1      13.447   5.991  13.071  1.00  0.00     0.054 A 
BRANCH  80  81
ATOM     81  S   UNL     1      14.522   6.884  14.227  1.00  0.00     0.124 S 
ATOM     82  O   UNL     1      14.865   8.079  13.461  1.00  0.00    -0.237 OA
ATOM     83  O   UNL     1      13.649   7.104  15.377  1.00  0.00    -0.237 OA
ATOM     84  O   UNL     1      15.626   5.955  14.460  1.00  0.00    -0.744 OA
ENDBRANCH  80  81
ENDBRANCH  54  75
ENDBRANCH  28  29
ENDBRANCH  20  23
ENDBRANCH  18  19
ENDBRANCH   1  18
TORSDOF 16
