REMARK SMILES O=C(CC1(NC(=O)c2ccccc2[N+](=O)[O-])CCC1)NCCCNC(=O)c1ccc(-c2c3nc(c(-c4ccc(S(=O)(=O)[O-])cc4)c4ccc([nH]4)c(-c4ccc(S(=O)(=O)[O-])cc4)c4nc(c(-c5ccc(S(=O)(=O)[O-])cc5)c5ccc2[nH]5)C=C4)C=C3)cc1
REMARK SMILES IDX 21 1 20 2 1 3 2 4 3 6 4 7 17 8 19 9 18 10 5 11 6 12 7 14
REMARK SMILES IDX 8 15 9 16 13 17 10 18 12 19 11 20 14 21 15 22 16 23 22 24
REMARK SMILES IDX 23 25 24 26 25 27 26 29 27 30 28 31 86 32 29 33 85 34 30 35
REMARK SMILES IDX 31 36 32 37 79 38 33 39 84 40 78 41 80 42 34 43 83 44 77 45
REMARK SMILES IDX 76 46 35 48 65 49 46 50 64 51 47 52 50 53 63 54 81 55 48 56
REMARK SMILES IDX 49 57 62 59 82 60 51 61 36 62 37 63 45 64 38 65 44 66 39 67
REMARK SMILES IDX 40 68 41 69 42 70 43 71 66 72 67 73 75 74 68 75 74 76 69 77
REMARK SMILES IDX 70 78 71 79 72 80 73 81 52 82 53 83 61 84 54 85 60 86 55 87
REMARK SMILES IDX 56 88 57 89 58 90 59 91
REMARK H PARENT 20 5 5 13 24 28 80 47 50 58
REMARK Flexibility Score: inf
ROOT
ATOM      1  C   UNL     1       2.724   2.401  -2.248  1.00  0.00     0.117 C 
ENDROOT
BRANCH   1   2
ATOM      2  N   UNL     1       3.584   1.339  -1.764  1.00  0.00    -0.356 N 
ATOM      3  O   UNL     1       2.513   1.187   0.243  1.00  0.00    -0.275 OA
ATOM      4  C   UNL     1       3.398   0.805  -0.516  1.00  0.00     0.222 C 
ATOM      5  H   UNL     1       4.308   0.999  -2.337  1.00  0.00     0.163 HD
BRANCH   4   6
ATOM      6  C   UNL     1       4.359  -0.276  -0.124  1.00  0.00     0.128 C 
BRANCH   6   7
ATOM      7  C   UNL     1       3.930  -1.688  -0.499  1.00  0.00     0.049 C 
ATOM      8  C   UNL     1       4.724  -2.114  -1.792  1.00  0.00     0.029 C 
ATOM      9  C   UNL     1       4.621  -2.884   0.224  1.00  0.00     0.029 C 
ATOM     10  C   UNL     1       5.185  -3.397  -1.103  1.00  0.00     0.005 C 
BRANCH   7  11
ATOM     11  N   UNL     1       2.469  -1.925  -0.695  1.00  0.00    -0.346 N 
ATOM     12  C   UNL     1       1.341  -2.018   0.095  1.00  0.00     0.258 C 
ATOM     13  H   UNL     1       2.252  -2.050  -1.647  1.00  0.00     0.164 HD
ATOM     14  O   UNL     1       0.543  -2.892  -0.276  1.00  0.00    -0.269 OA
BRANCH  12  15
ATOM     15  C   UNL     1       0.829  -1.060   1.120  1.00  0.00     0.117 A 
ATOM     16  C   UNL     1      -0.543  -0.742   0.940  1.00  0.00     0.021 A 
ATOM     17  C   UNL     1       1.442  -0.495   2.239  1.00  0.00     0.282 A 
ATOM     18  C   UNL     1      -1.244   0.110   1.803  1.00  0.00     0.001 A 
ATOM     19  C   UNL     1       0.754   0.405   3.091  1.00  0.00     0.086 A 
ATOM     20  C   UNL     1      -0.588   0.702   2.871  1.00  0.00     0.007 A 
BRANCH  17  21
ATOM     21  N   UNL     1       2.763  -0.878   2.670  1.00  0.00     0.063 N 
ATOM     22  O   UNL     1       3.060  -2.076   2.596  1.00  0.00    -0.258 OA
ATOM     23  O   UNL     1       3.492   0.002   3.153  1.00  0.00    -0.258 OA
ENDBRANCH  17  21
ENDBRANCH  12  15
ENDBRANCH   7  11
ENDBRANCH   6   7
ENDBRANCH   4   6
ENDBRANCH   1   2
BRANCH   1  24
ATOM     24  C   UNL     1       2.721   3.651  -1.363  1.00  0.00     0.042 C 
BRANCH  24  25
ATOM     25  C   UNL     1       4.104   4.071  -0.879  1.00  0.00     0.118 C 
BRANCH  25  26
ATOM     26  N   UNL     1       5.030   4.199  -1.994  1.00  0.00    -0.352 N 
ATOM     27  C   UNL     1       5.679   5.306  -2.446  1.00  0.00     0.251 C 
ATOM     28  H   UNL     1       5.212   3.368  -2.490  1.00  0.00     0.163 HD
ATOM     29  O   UNL     1       6.135   5.317  -3.596  1.00  0.00    -0.269 OA
BRANCH  27  30
ATOM     30  C   UNL     1       5.862   6.467  -1.559  1.00  0.00     0.039 A 
ATOM     31  C   UNL     1       5.793   7.751  -2.101  1.00  0.00     0.014 A 
ATOM     32  C   UNL     1       6.191   6.281  -0.210  1.00  0.00     0.014 A 
ATOM     33  C   UNL     1       6.072   8.851  -1.294  1.00  0.00     0.010 A 
ATOM     34  C   UNL     1       6.397   7.382   0.611  1.00  0.00     0.010 A 
ATOM     35  C   UNL     1       6.386   8.671   0.063  1.00  0.00    -0.014 A 
BRANCH  35  36
ATOM     36  C   UNL     1       6.802   9.820   0.895  1.00  0.00     0.031 A 
ATOM     37  C   UNL     1       8.228   9.915   1.368  1.00  0.00     0.074 A 
ATOM     38  C   UNL     1       5.898  10.758   1.228  1.00  0.00     0.049 A 
ATOM     39  N   UNL     1       8.799  10.848   2.083  1.00  0.00    -0.248 NA
ATOM     40  C   UNL     1       9.125   8.801   1.011  1.00  0.00     0.031 C 
ATOM     41  C   UNL     1       4.479  10.735   0.861  1.00  0.00     0.029 A 
ATOM     42  N   UNL     1       6.040  11.917   1.944  1.00  0.00    -0.354 N 
ATOM     43  C   UNL     1      10.110  10.425   2.277  1.00  0.00     0.074 A 
ATOM     44  C   UNL     1      10.237   9.129   1.651  1.00  0.00     0.031 C 
ATOM     45  C   UNL     1       3.889  11.849   1.326  1.00  0.00     0.029 A 
ATOM     46  C   UNL     1       4.881  12.649   2.037  1.00  0.00     0.049 A 
ATOM     47  H   UNL     1       6.890  12.199   2.352  1.00  0.00     0.167 HD
ATOM     48  C   UNL     1      11.124  11.071   2.901  1.00  0.00     0.031 A 
ATOM     49  C   UNL     1       4.653  13.842   2.617  1.00  0.00     0.031 A 
ATOM     50  C   UNL     1      10.989  12.371   3.499  1.00  0.00     0.049 A 
ATOM     51  C   UNL     1       5.806  14.566   3.255  1.00  0.00     0.074 A 
ATOM     52  C   UNL     1      11.955  13.142   4.119  1.00  0.00     0.029 A 
ATOM     53  N   UNL     1       9.808  13.098   3.538  1.00  0.00    -0.354 N 
ATOM     54  N   UNL     1       7.053  14.177   3.383  1.00  0.00    -0.248 NA
ATOM     55  C   UNL     1       5.528  15.900   3.800  1.00  0.00     0.031 C 
ATOM     56  C   UNL     1      11.350  14.325   4.559  1.00  0.00     0.029 A 
ATOM     57  C   UNL     1      10.019  14.309   4.172  1.00  0.00     0.049 A 
ATOM     58  H   UNL     1       8.946  12.796   3.169  1.00  0.00     0.167 HD
ATOM     59  C   UNL     1       7.717  15.232   3.997  1.00  0.00     0.074 A 
ATOM     60  C   UNL     1       6.734  16.279   4.201  1.00  0.00     0.031 C 
ATOM     61  C   UNL     1       9.021  15.331   4.357  1.00  0.00     0.031 A 
BRANCH  48  62
ATOM     62  C   UNL     1      12.457  10.373   2.960  1.00  0.00    -0.014 A 
ATOM     63  C   UNL     1      13.237  10.198   1.802  1.00  0.00     0.010 A 
ATOM     64  C   UNL     1      12.944   9.894   4.189  1.00  0.00     0.010 A 
ATOM     65  C   UNL     1      14.454   9.514   1.862  1.00  0.00     0.020 A 
ATOM     66  C   UNL     1      14.175   9.234   4.259  1.00  0.00     0.020 A 
ATOM     67  C   UNL     1      14.913   9.030   3.091  1.00  0.00     0.054 A 
BRANCH  67  68
ATOM     68  S   UNL     1      16.501   8.155   3.145  1.00  0.00     0.124 S 
ATOM     69  O   UNL     1      16.147   6.855   2.580  1.00  0.00    -0.237 OA
ATOM     70  O   UNL     1      17.359   8.990   2.308  1.00  0.00    -0.237 OA
ATOM     71  O   UNL     1      16.842   8.145   4.566  1.00  0.00    -0.744 OA
ENDBRANCH  67  68
ENDBRANCH  48  62
BRANCH  49  72
ATOM     72  C   UNL     1       3.294  14.442   2.565  1.00  0.00    -0.014 A 
ATOM     73  C   UNL     1       3.029  15.536   1.723  1.00  0.00     0.010 A 
ATOM     74  C   UNL     1       2.248  13.902   3.335  1.00  0.00     0.010 A 
ATOM     75  C   UNL     1       1.749  16.093   1.666  1.00  0.00     0.020 A 
ATOM     76  C   UNL     1       0.960  14.441   3.263  1.00  0.00     0.020 A 
ATOM     77  C   UNL     1       0.722  15.541   2.437  1.00  0.00     0.054 A 
BRANCH  77  78
ATOM     78  S   UNL     1      -0.946  16.245   2.308  1.00  0.00     0.124 S 
ATOM     79  O   UNL     1      -0.820  17.469   3.092  1.00  0.00    -0.237 OA
ATOM     80  O   UNL     1      -1.103  16.428   0.867  1.00  0.00    -0.237 OA
ATOM     81  O   UNL     1      -1.798  15.210   2.892  1.00  0.00    -0.744 OA
ENDBRANCH  77  78
ENDBRANCH  49  72
BRANCH  61  82
ATOM     82  C   UNL     1       9.461  16.632   4.968  1.00  0.00    -0.014 A 
ATOM     83  C   UNL     1       9.098  16.982   6.280  1.00  0.00     0.010 A 
ATOM     84  C   UNL     1      10.277  17.502   4.222  1.00  0.00     0.010 A 
ATOM     85  C   UNL     1       9.506  18.203   6.820  1.00  0.00     0.020 A 
ATOM     86  C   UNL     1      10.709  18.711   4.769  1.00  0.00     0.020 A 
ATOM     87  C   UNL     1      10.303  19.063   6.058  1.00  0.00     0.054 A 
BRANCH  87  88
ATOM     88  S   UNL     1      10.837  20.637   6.784  1.00  0.00     0.124 S 
ATOM     89  O   UNL     1       9.632  21.451   6.659  1.00  0.00    -0.237 OA
ATOM     90  O   UNL     1      11.201  20.257   8.147  1.00  0.00    -0.237 OA
ATOM     91  O   UNL     1      11.957  21.044   5.938  1.00  0.00    -0.744 OA
ENDBRANCH  87  88
ENDBRANCH  61  82
ENDBRANCH  35  36
ENDBRANCH  27  30
ENDBRANCH  25  26
ENDBRANCH  24  25
ENDBRANCH   1  24
TORSDOF 17
