REMARK SMILES C[C@H]1CC[C@H]([NH2+]Cc2c(C(=O)NCCCNC(=O)c3ccc(-c4c5nc(c(-c6ccc(S(=O)(=O)[O-])cc6)c6ccc([nH]6)c(-c6ccc(S(=O)(=O)[O-])cc6)c6nc(c(-c7ccc(S(=O)(=O)[O-])cc7)c7ccc4[nH]7)C=C6)C=C5)cc3)n(Cc3ccccc3F)c3ccccc23)CC1
REMARK SMILES IDX 14 1 13 2 12 3 10 4 11 5 9 7 8 8 93 9 79 10 88 11 92 12
REMARK SMILES IDX 89 13 91 14 90 15 7 16 6 17 5 20 1 21 2 22 3 23 95 24 4 25
REMARK SMILES IDX 94 26 80 27 81 28 82 29 86 30 83 31 85 32 87 33 84 34 15 35
REMARK SMILES IDX 16 36 17 37 18 39 19 40 20 41 78 42 21 43 77 44 22 45 23 46
REMARK SMILES IDX 24 47 71 48 25 49 76 50 70 51 72 52 26 53 75 54 69 55 68 56
REMARK SMILES IDX 27 58 57 59 38 60 56 61 39 62 42 63 55 64 73 65 40 66 41 67
REMARK SMILES IDX 54 69 74 70 43 71 28 72 29 73 37 74 30 75 36 76 31 77 32 78
REMARK SMILES IDX 33 79 34 80 35 81 58 82 59 83 67 84 60 85 66 86 61 87 62 88
REMARK SMILES IDX 63 89 64 90 65 91 44 92 45 93 53 94 46 95 52 96 47 97 48 98
REMARK SMILES IDX 49 99 50 100 51 101
REMARK H PARENT 12 6 6 18 6 19 16 38 72 57 42 68
REMARK Flexibility Score: inf
ROOT
ATOM      1  C   UNL     1      -4.434   1.690   2.326  1.00  0.00     0.042 C 
ENDROOT
BRANCH   1   2
ATOM      2  C   UNL     1      -3.802   0.442   1.720  1.00  0.00     0.118 C 
BRANCH   2   3
ATOM      3  N   UNL     1      -2.828  -0.259   2.516  1.00  0.00    -0.351 N 
ATOM      4  C   UNL     1      -2.252  -1.500   2.333  1.00  0.00     0.268 C 
ATOM      5  O   UNL     1      -1.335  -1.726   3.130  1.00  0.00    -0.268 OA
ATOM      6  H   UNL     1      -2.524   0.224   3.319  1.00  0.00     0.163 HD
BRANCH   4   7
ATOM      7  C   UNL     1      -2.695  -2.504   1.348  1.00  0.00     0.117 A 
ATOM      8  C   UNL     1      -3.358  -2.432   0.105  1.00  0.00     0.045 A 
ATOM      9  C   UNL     1      -3.873  -3.746  -0.147  1.00  0.00     0.009 A 
ATOM     10  N   UNL     1      -2.312  -3.872   1.422  1.00  0.00    -0.331 N 
ATOM     11  C   UNL     1      -3.021  -4.625   0.494  1.00  0.00     0.049 A 
ATOM     12  C   UNL     1      -4.870  -4.256  -1.007  1.00  0.00     0.011 A 
ATOM     13  C   UNL     1      -2.992  -5.987   0.138  1.00  0.00     0.027 A 
ATOM     14  C   UNL     1      -4.964  -5.631  -1.221  1.00  0.00     0.001 A 
ATOM     15  C   UNL     1      -4.004  -6.481  -0.691  1.00  0.00     0.002 A 
BRANCH   8  16
ATOM     16  C   UNL     1      -3.612  -1.365  -0.925  1.00  0.00     0.300 C 
BRANCH  16  17
ATOM     17  N   UNL     1      -2.700  -0.239  -0.944  1.00  0.00    -0.340 N 
ATOM     18  H   UNL     1      -3.119   0.446  -1.573  1.00  0.00     0.346 HD
ATOM     19  H   UNL     1      -2.609  -0.049   0.054  1.00  0.00     0.346 HD
BRANCH  17  20
ATOM     20  C   UNL     1      -1.295  -0.327  -1.336  1.00  0.00     0.182 C 
ATOM     21  C   UNL     1       3.007   0.034  -0.322  1.00  0.00     0.007 C 
ATOM     22  C   UNL     1       1.489  -0.081  -0.284  1.00  0.00    -0.014 C 
ATOM     23  C   UNL     1       1.008  -1.370  -0.957  1.00  0.00     0.009 C 
ATOM     24  C   UNL     1       0.817   1.115  -0.959  1.00  0.00     0.009 C 
ATOM     25  C   UNL     1      -0.500  -1.512  -0.781  1.00  0.00     0.065 C 
ATOM     26  C   UNL     1      -0.699   1.013  -0.842  1.00  0.00     0.065 C 
ENDBRANCH  17  20
ENDBRANCH  16  17
ENDBRANCH   8  16
BRANCH  10  27
ATOM     27  C   UNL     1      -1.236  -4.455   2.243  1.00  0.00     0.161 C 
BRANCH  27  28
ATOM     28  C   UNL     1      -1.700  -5.166   3.496  1.00  0.00     0.008 A 
ATOM     29  C   UNL     1      -2.490  -6.328   3.457  1.00  0.00     0.008 A 
ATOM     30  C   UNL     1      -1.282  -4.731   4.756  1.00  0.00     0.128 A 
ATOM     31  C   UNL     1      -2.883  -6.994   4.620  1.00  0.00     0.001 A 
ATOM     32  C   UNL     1      -1.680  -5.381   5.926  1.00  0.00     0.039 A 
ATOM     33  F   UNL     1      -0.441  -3.695   4.870  1.00  0.00    -0.207 F 
ATOM     34  C   UNL     1      -2.489  -6.512   5.860  1.00  0.00     0.003 A 
ENDBRANCH  27  28
ENDBRANCH  10  27
ENDBRANCH   4   7
ENDBRANCH   2   3
ENDBRANCH   1   2
BRANCH   1  35
ATOM     35  C   UNL     1      -3.591   2.978   2.265  1.00  0.00     0.118 C 
BRANCH  35  36
ATOM     36  N   UNL     1      -2.935   3.280   0.999  1.00  0.00    -0.352 N 
ATOM     37  C   UNL     1      -3.076   4.307   0.100  1.00  0.00     0.251 C 
ATOM     38  H   UNL     1      -2.257   2.616   0.737  1.00  0.00     0.163 HD
ATOM     39  O   UNL     1      -2.056   4.681  -0.483  1.00  0.00    -0.269 OA
BRANCH  37  40
ATOM     40  C   UNL     1      -4.386   4.880  -0.313  1.00  0.00     0.039 A 
ATOM     41  C   UNL     1      -5.613   4.391   0.124  1.00  0.00     0.014 A 
ATOM     42  C   UNL     1      -4.368   5.842  -1.345  1.00  0.00     0.014 A 
ATOM     43  C   UNL     1      -6.786   4.764  -0.523  1.00  0.00     0.010 A 
ATOM     44  C   UNL     1      -5.542   6.226  -1.989  1.00  0.00     0.010 A 
ATOM     45  C   UNL     1      -6.745   5.640  -1.612  1.00  0.00    -0.014 A 
BRANCH  45  46
ATOM     46  C   UNL     1      -8.009   5.926  -2.288  1.00  0.00     0.031 A 
ATOM     47  C   UNL     1      -9.053   6.586  -1.454  1.00  0.00     0.074 A 
ATOM     48  C   UNL     1      -8.241   5.679  -3.592  1.00  0.00     0.049 A 
ATOM     49  N   UNL     1     -10.218   6.133  -1.123  1.00  0.00    -0.248 NA
ATOM     50  C   UNL     1      -8.712   7.875  -0.837  1.00  0.00     0.031 C 
ATOM     51  C   UNL     1      -7.288   5.303  -4.638  1.00  0.00     0.029 A 
ATOM     52  N   UNL     1      -9.410   5.823  -4.277  1.00  0.00    -0.354 N 
ATOM     53  C   UNL     1     -10.825   7.129  -0.360  1.00  0.00     0.074 A 
ATOM     54  C   UNL     1      -9.813   8.131  -0.130  1.00  0.00     0.031 C 
ATOM     55  C   UNL     1      -7.866   5.489  -5.849  1.00  0.00     0.029 A 
ATOM     56  C   UNL     1      -9.261   5.849  -5.655  1.00  0.00     0.049 A 
ATOM     57  H   UNL     1     -10.285   5.901  -3.832  1.00  0.00     0.167 HD
ATOM     58  C   UNL     1     -12.157   7.132  -0.069  1.00  0.00     0.031 A 
ATOM     59  C   UNL     1     -10.199   6.236  -6.556  1.00  0.00     0.031 A 
ATOM     60  C   UNL     1     -12.769   5.856  -0.316  1.00  0.00     0.049 A 
ATOM     61  C   UNL     1     -11.524   6.098  -5.900  1.00  0.00     0.074 A 
ATOM     62  C   UNL     1     -12.613   4.593   0.220  1.00  0.00     0.029 A 
ATOM     63  N   UNL     1     -13.457   5.683  -1.493  1.00  0.00    -0.354 N 
ATOM     64  N   UNL     1     -12.047   4.953  -5.563  1.00  0.00    -0.248 NA
ATOM     65  C   UNL     1     -12.093   7.262  -5.238  1.00  0.00     0.031 C 
ATOM     66  C   UNL     1     -12.763   3.707  -0.884  1.00  0.00     0.029 A 
ATOM     67  C   UNL     1     -13.055   4.477  -2.012  1.00  0.00     0.049 A 
ATOM     68  H   UNL     1     -14.111   6.304  -1.888  1.00  0.00     0.167 HD
ATOM     69  C   UNL     1     -12.695   5.198  -4.361  1.00  0.00     0.074 A 
ATOM     70  C   UNL     1     -12.775   6.654  -4.264  1.00  0.00     0.031 C 
ATOM     71  C   UNL     1     -12.862   4.216  -3.425  1.00  0.00     0.031 A 
BRANCH  58  72
ATOM     72  C   UNL     1     -12.968   8.370   0.214  1.00  0.00    -0.014 A 
ATOM     73  C   UNL     1     -12.526   9.664  -0.128  1.00  0.00     0.010 A 
ATOM     74  C   UNL     1     -14.313   8.243   0.622  1.00  0.00     0.010 A 
ATOM     75  C   UNL     1     -13.365  10.777  -0.053  1.00  0.00     0.020 A 
ATOM     76  C   UNL     1     -15.177   9.348   0.657  1.00  0.00     0.020 A 
ATOM     77  C   UNL     1     -14.693  10.610   0.321  1.00  0.00     0.054 A 
BRANCH  77  78
ATOM     78  S   UNL     1     -15.783  12.055   0.264  1.00  0.00     0.124 S 
ATOM     79  O   UNL     1     -15.276  12.857   1.374  1.00  0.00    -0.237 OA
ATOM     80  O   UNL     1     -15.523  12.590  -1.070  1.00  0.00    -0.237 OA
ATOM     81  O   UNL     1     -17.115  11.489   0.458  1.00  0.00    -0.744 OA
ENDBRANCH  77  78
ENDBRANCH  58  72
BRANCH  59  82
ATOM     82  C   UNL     1      -9.979   7.156  -7.704  1.00  0.00    -0.014 A 
ATOM     83  C   UNL     1      -8.865   8.021  -7.712  1.00  0.00     0.010 A 
ATOM     84  C   UNL     1     -11.018   7.415  -8.619  1.00  0.00     0.010 A 
ATOM     85  C   UNL     1      -8.832   9.158  -8.523  1.00  0.00     0.020 A 
ATOM     86  C   UNL     1     -10.995   8.560  -9.433  1.00  0.00     0.020 A 
ATOM     87  C   UNL     1      -9.919   9.447  -9.343  1.00  0.00     0.054 A 
BRANCH  87  88
ATOM     88  S   UNL     1      -9.950  11.050 -10.193  1.00  0.00     0.124 S 
ATOM     89  O   UNL     1     -10.072  11.981  -9.069  1.00  0.00    -0.237 OA
ATOM     90  O   UNL     1      -8.653  11.068 -10.874  1.00  0.00    -0.237 OA
ATOM     91  O   UNL     1     -11.108  10.963 -11.064  1.00  0.00    -0.744 OA
ENDBRANCH  87  88
ENDBRANCH  59  82
BRANCH  71  92
ATOM     92  C   UNL     1     -12.526   2.783  -3.790  1.00  0.00    -0.014 A 
ATOM     93  C   UNL     1     -13.460   1.782  -3.462  1.00  0.00     0.010 A 
ATOM     94  C   UNL     1     -11.246   2.382  -4.226  1.00  0.00     0.010 A 
ATOM     95  C   UNL     1     -13.117   0.428  -3.521  1.00  0.00     0.020 A 
ATOM     96  C   UNL     1     -10.905   1.024  -4.315  1.00  0.00     0.020 A 
ATOM     97  C   UNL     1     -11.835   0.057  -3.932  1.00  0.00     0.054 A 
BRANCH  97  98
ATOM     98  S   UNL     1     -11.402  -1.705  -3.914  1.00  0.00     0.124 S 
ATOM     99  O   UNL     1     -11.323  -1.990  -2.483  1.00  0.00    -0.237 OA
ATOM    100  O   UNL     1     -12.529  -2.322  -4.610  1.00  0.00    -0.237 OA
ATOM    101  O   UNL     1     -10.128  -1.766  -4.627  1.00  0.00    -0.744 OA
ENDBRANCH  97  98
ENDBRANCH  71  92
ENDBRANCH  45  46
ENDBRANCH  37  40
ENDBRANCH  35  36
ENDBRANCH   1  35
TORSDOF 18
