REMARK SMILES CN(CC(C)(C)O)C(=O)N[C@H]1CC[C@H](C(=O)NCCCNC(=O)c2ccc(-c3c4nc(c(-c5ccc(S(=O)(=O)[O-])cc5)c5ccc([nH]5)c(-c5ccc(S(=O)(=O)[O-])cc5)c5nc(c(-c6ccc(S(=O)(=O)[O-])cc6)c6ccc3[nH]6)C=C5)C=C4)cc2)C1
REMARK SMILES IDX 18 1 17 2 15 3 16 4 14 6 11 7 12 8 84 9 13 10 10 11 8 12
REMARK SMILES IDX 9 13 2 15 1 16 3 17 4 18 5 19 6 20 7 21 19 23 20 24 21 25
REMARK SMILES IDX 22 26 23 28 24 29 25 30 83 31 26 32 82 33 27 34 28 35 29 36
REMARK SMILES IDX 76 37 30 38 81 39 75 40 77 41 31 42 80 43 74 44 73 45 32 47
REMARK SMILES IDX 62 48 43 49 61 50 44 51 47 52 60 53 78 54 45 55 46 56 59 58
REMARK SMILES IDX 79 59 48 60 33 61 34 62 42 63 35 64 41 65 36 66 37 67 38 68
REMARK SMILES IDX 39 69 40 70 63 71 64 72 72 73 65 74 71 75 66 76 67 77 68 78
REMARK SMILES IDX 69 79 70 80 49 81 50 82 58 83 51 84 57 85 52 86 53 87 54 88
REMARK SMILES IDX 55 89 56 90
REMARK H PARENT 17 5 10 14 7 22 21 27 77 46 47 57
REMARK Flexibility Score: inf
ROOT
ATOM      1  C   UNL     1      -3.526  -5.668  -2.256  1.00  0.00     0.117 C 
ENDROOT
BRANCH   1   2
ATOM      2  N   UNL     1      -4.541  -5.609  -1.214  1.00  0.00    -0.356 N 
ATOM      3  C   UNL     1      -4.458  -5.642   0.144  1.00  0.00     0.223 C 
ATOM      4  O   UNL     1      -5.514  -5.668   0.779  1.00  0.00    -0.275 OA
ATOM      5  H   UNL     1      -5.461  -5.531  -1.556  1.00  0.00     0.163 HD
BRANCH   3   6
ATOM      6  C   UNL     1      -3.127  -5.524   0.869  1.00  0.00     0.080 C 
ATOM      7  C   UNL     1      -1.020  -4.442   0.205  1.00  0.00     0.084 C 
ATOM      8  C   UNL     1      -0.776  -5.951   0.310  1.00  0.00     0.026 C 
ATOM      9  C   UNL     1      -2.491  -4.204   0.496  1.00  0.00     0.038 C 
ATOM     10  C   UNL     1      -2.112  -6.623   0.608  1.00  0.00     0.015 C 
BRANCH   7  11
ATOM     11  N   UNL     1      -0.150  -3.677   1.073  1.00  0.00    -0.335 N 
ATOM     12  C   UNL     1      -0.071  -2.369   1.389  1.00  0.00     0.317 C 
ATOM     13  O   UNL     1       0.625  -2.107   2.375  1.00  0.00    -0.249 OA
ATOM     14  H   UNL     1       0.527  -4.228   1.529  1.00  0.00     0.165 HD
BRANCH  12  15
ATOM     15  N   UNL     1      -0.774  -1.399   0.726  1.00  0.00    -0.325 N 
ATOM     16  C   UNL     1      -1.051  -0.206   1.517  1.00  0.00     0.148 C 
BRANCH  15  17
ATOM     17  C   UNL     1      -1.327  -1.388  -0.639  1.00  0.00     0.155 C 
BRANCH  17  18
ATOM     18  C   UNL     1      -0.404  -1.417  -1.890  1.00  0.00     0.077 C 
ATOM     19  C   UNL     1       0.830  -2.319  -1.855  1.00  0.00     0.043 C 
ATOM     20  C   UNL     1      -1.288  -1.826  -3.088  1.00  0.00     0.043 C 
BRANCH  18  21
ATOM     21  O   UNL     1       0.044  -0.073  -2.130  1.00  0.00    -0.389 OA
ATOM     22  H   UNL     1       0.604   0.218  -1.394  1.00  0.00     0.211 HD
ENDBRANCH  18  21
ENDBRANCH  17  18
ENDBRANCH  15  17
ENDBRANCH  12  15
ENDBRANCH   7  11
ENDBRANCH   3   6
ENDBRANCH   1   2
BRANCH   1  23
ATOM     23  C   UNL     1      -3.539  -7.010  -2.966  1.00  0.00     0.042 C 
BRANCH  23  24
ATOM     24  C   UNL     1      -4.867  -7.314  -3.640  1.00  0.00     0.118 C 
BRANCH  24  25
ATOM     25  N   UNL     1      -5.131  -6.449  -4.782  1.00  0.00    -0.352 N 
ATOM     26  C   UNL     1      -5.358  -6.792  -6.096  1.00  0.00     0.251 C 
ATOM     27  H   UNL     1      -5.149  -5.484  -4.587  1.00  0.00     0.163 HD
ATOM     28  O   UNL     1      -5.387  -5.926  -6.957  1.00  0.00    -0.269 OA
BRANCH  26  29
ATOM     29  C   UNL     1      -5.530  -8.218  -6.453  1.00  0.00     0.039 A 
ATOM     30  C   UNL     1      -4.863  -8.724  -7.570  1.00  0.00     0.014 A 
ATOM     31  C   UNL     1      -6.316  -9.060  -5.663  1.00  0.00     0.014 A 
ATOM     32  C   UNL     1      -4.922 -10.092  -7.846  1.00  0.00     0.010 A 
ATOM     33  C   UNL     1      -6.287 -10.432  -5.876  1.00  0.00     0.010 A 
ATOM     34  C   UNL     1      -5.597 -10.964  -6.976  1.00  0.00    -0.014 A 
BRANCH  34  35
ATOM     35  C   UNL     1      -5.610 -12.433  -7.196  1.00  0.00     0.031 A 
ATOM     36  C   UNL     1      -6.919 -13.146  -7.408  1.00  0.00     0.074 A 
ATOM     37  C   UNL     1      -4.460 -13.133  -7.131  1.00  0.00     0.049 A 
ATOM     38  N   UNL     1      -7.149 -14.428  -7.529  1.00  0.00    -0.248 NA
ATOM     39  C   UNL     1      -8.133 -12.313  -7.460  1.00  0.00     0.031 C 
ATOM     40  C   UNL     1      -3.131 -12.564  -6.892  1.00  0.00     0.029 A 
ATOM     41  N   UNL     1      -4.224 -14.480  -7.251  1.00  0.00    -0.354 N 
ATOM     42  C   UNL     1      -8.528 -14.555  -7.649  1.00  0.00     0.074 A 
ATOM     43  C   UNL     1      -9.088 -13.227  -7.529  1.00  0.00     0.031 C 
ATOM     44  C   UNL     1      -2.219 -13.549  -6.913  1.00  0.00     0.029 A 
ATOM     45  C   UNL     1      -2.899 -14.824  -7.116  1.00  0.00     0.049 A 
ATOM     46  H   UNL     1      -4.937 -15.138  -7.419  1.00  0.00     0.167 HD
ATOM     47  C   UNL     1      -9.263 -15.672  -7.863  1.00  0.00     0.031 A 
ATOM     48  C   UNL     1      -2.300 -16.031  -7.140  1.00  0.00     0.031 A 
ATOM     49  C   UNL     1      -8.701 -16.989  -7.995  1.00  0.00     0.049 A 
ATOM     50  C   UNL     1      -3.139 -17.260  -7.361  1.00  0.00     0.074 A 
ATOM     51  C   UNL     1      -9.354 -18.178  -8.268  1.00  0.00     0.029 A 
ATOM     52  N   UNL     1      -7.354 -17.293  -7.861  1.00  0.00    -0.354 N 
ATOM     53  N   UNL     1      -4.436 -17.352  -7.536  1.00  0.00    -0.248 NA
ATOM     54  C   UNL     1      -2.432 -18.548  -7.399  1.00  0.00     0.031 C 
ATOM     55  C   UNL     1      -8.410 -19.209  -8.239  1.00  0.00     0.029 A 
ATOM     56  C   UNL     1      -7.160 -18.654  -8.019  1.00  0.00     0.049 A 
ATOM     57  H   UNL     1      -6.643 -16.637  -7.680  1.00  0.00     0.167 HD
ATOM     58  C   UNL     1      -4.696 -18.703  -7.737  1.00  0.00     0.074 A 
ATOM     59  C   UNL     1      -3.421 -19.387  -7.676  1.00  0.00     0.031 C 
ATOM     60  C   UNL     1      -5.883 -19.321  -7.957  1.00  0.00     0.031 A 
BRANCH  47  61
ATOM     61  C   UNL     1     -10.759 -15.515  -7.962  1.00  0.00    -0.014 A 
ATOM     62  C   UNL     1     -11.352 -14.849  -9.050  1.00  0.00     0.010 A 
ATOM     63  C   UNL     1     -11.586 -16.075  -6.971  1.00  0.00     0.010 A 
ATOM     64  C   UNL     1     -12.741 -14.709  -9.123  1.00  0.00     0.020 A 
ATOM     65  C   UNL     1     -12.977 -15.966  -7.058  1.00  0.00     0.020 A 
ATOM     66  C   UNL     1     -13.544 -15.268  -8.126  1.00  0.00     0.054 A 
BRANCH  66  67
ATOM     67  S   UNL     1     -15.344 -15.091  -8.262  1.00  0.00     0.124 S 
ATOM     68  O   UNL     1     -15.529 -13.671  -7.975  1.00  0.00    -0.237 OA
ATOM     69  O   UNL     1     -15.600 -15.491  -9.643  1.00  0.00    -0.237 OA
ATOM     70  O   UNL     1     -15.861 -16.004  -7.245  1.00  0.00    -0.744 OA
ENDBRANCH  66  67
ENDBRANCH  47  61
BRANCH  48  71
ATOM     71  C   UNL     1      -0.824 -16.134  -6.960  1.00  0.00    -0.014 A 
ATOM     72  C   UNL     1       0.002 -16.517  -8.031  1.00  0.00     0.010 A 
ATOM     73  C   UNL     1      -0.236 -15.839  -5.716  1.00  0.00     0.010 A 
ATOM     74  C   UNL     1       1.386 -16.622  -7.857  1.00  0.00     0.020 A 
ATOM     75  C   UNL     1       1.149 -15.912  -5.546  1.00  0.00     0.020 A 
ATOM     76  C   UNL     1       1.951 -16.315  -6.616  1.00  0.00     0.054 A 
BRANCH  76  77
ATOM     77  S   UNL     1       3.753 -16.408  -6.429  1.00  0.00     0.124 S 
ATOM     78  O   UNL     1       3.986 -17.849  -6.445  1.00  0.00    -0.237 OA
ATOM     79  O   UNL     1       4.229 -15.675  -7.600  1.00  0.00    -0.237 OA
ATOM     80  O   UNL     1       3.998 -15.747  -5.149  1.00  0.00    -0.744 OA
ENDBRANCH  76  77
ENDBRANCH  48  71
BRANCH  60  81
ATOM     81  C   UNL     1      -5.861 -20.808  -8.192  1.00  0.00    -0.014 A 
ATOM     82  C   UNL     1      -5.583 -21.712  -7.151  1.00  0.00     0.010 A 
ATOM     83  C   UNL     1      -6.184 -21.310  -9.466  1.00  0.00     0.010 A 
ATOM     84  C   UNL     1      -5.598 -23.089  -7.389  1.00  0.00     0.020 A 
ATOM     85  C   UNL     1      -6.231 -22.686  -9.700  1.00  0.00     0.020 A 
ATOM     86  C   UNL     1      -5.925 -23.567  -8.662  1.00  0.00     0.054 A 
BRANCH  86  87
ATOM     87  S   UNL     1      -5.983 -25.359  -8.932  1.00  0.00     0.124 S 
ATOM     88  O   UNL     1      -4.567 -25.717  -8.902  1.00  0.00    -0.237 OA
ATOM     89  O   UNL     1      -6.774 -25.828  -7.797  1.00  0.00    -0.237 OA
ATOM     90  O   UNL     1      -6.631 -25.493 -10.235  1.00  0.00    -0.744 OA
ENDBRANCH  86  87
ENDBRANCH  60  81
ENDBRANCH  34  35
ENDBRANCH  26  29
ENDBRANCH  24  25
ENDBRANCH  23  24
ENDBRANCH   1  23
TORSDOF 18
