REMARK SMILES CCCc1cc(OC(F)(F)F)cc2c1O[C@@H](C(F)(F)F)C(C(=O)NCCCNC(=O)c1ccc(-c3c4nc(c(-c5ccc(S(=O)(=O)[O-])cc5)c5ccc([nH]5)c(-c5ccc(S(=O)(=O)[O-])cc5)c5nc(c(-c6ccc(S(=O)(=O)[O-])cc6)c6ccc3[nH]6)C=C5)C=C4)cc1)=C2
REMARK SMILES IDX 26 1 25 2 24 3 22 4 23 5 21 7 4 8 5 9 14 10 6 11 13 12 15 13
REMARK SMILES IDX 12 14 91 15 16 16 3 17 2 18 1 19 7 20 8 21 9 22 10 23 11 24
REMARK SMILES IDX 17 25 18 26 19 27 20 28 27 29 28 30 29 31 30 33 31 34 32 35
REMARK SMILES IDX 90 36 33 37 89 38 34 39 35 40 36 41 83 42 37 43 88 44 82 45
REMARK SMILES IDX 84 46 38 47 87 48 81 49 80 50 39 52 69 53 50 54 68 55 51 56
REMARK SMILES IDX 54 57 67 58 85 59 52 60 53 61 66 63 86 64 55 65 40 66 41 67
REMARK SMILES IDX 49 68 42 69 48 70 43 71 44 72 45 73 46 74 47 75 70 76 71 77
REMARK SMILES IDX 79 78 72 79 78 80 73 81 74 82 75 83 76 84 77 85 56 86 57 87
REMARK SMILES IDX 65 88 58 89 64 90 59 91 60 92 61 93 62 94 63 95
REMARK H PARENT 24 6 28 32 84 51 54 62
REMARK Flexibility Score: inf
ROOT
ATOM      1  C   UNL     1      -4.981   5.821   3.273  1.00  0.00     0.042 C 
ENDROOT
BRANCH   1   2
ATOM      2  C   UNL     1      -4.791   4.661   4.255  1.00  0.00     0.118 C 
BRANCH   2   3
ATOM      3  N   UNL     1      -5.382   3.442   3.725  1.00  0.00    -0.352 N 
ATOM      4  C   UNL     1      -4.885   2.407   3.001  1.00  0.00     0.251 C 
ATOM      5  O   UNL     1      -5.684   1.581   2.566  1.00  0.00    -0.270 OA
ATOM      6  H   UNL     1      -6.339   3.349   3.934  1.00  0.00     0.163 HD
BRANCH   4   7
ATOM      7  C   UNL     1      -3.432   2.189   2.784  1.00  0.00     0.067 C 
ATOM      8  C   UNL     1       0.658   1.286   2.432  1.00  0.00    -0.002 A 
ATOM      9  C   UNL     1       1.582   2.338   2.293  1.00  0.00     0.054 A 
ATOM     10  C   UNL     1      -0.706   1.584   2.555  1.00  0.00     0.131 A 
ATOM     11  C   UNL     1       1.151   3.664   2.253  1.00  0.00     0.130 A 
ATOM     12  C   UNL     1      -1.146   2.902   2.483  1.00  0.00     0.021 A 
ATOM     13  O   UNL     1      -1.555   0.548   2.812  1.00  0.00    -0.475 OA
ATOM     14  C   UNL     1      -0.217   3.936   2.333  1.00  0.00     0.058 A 
ATOM     15  C   UNL     1      -2.562   3.198   2.631  1.00  0.00     0.025 C 
ATOM     16  C   UNL     1      -2.978   0.747   2.572  1.00  0.00     0.314 C 
BRANCH   8  17
ATOM     17  C   UNL     1       1.144  -0.145   2.372  1.00  0.00     0.039 C 
BRANCH  17  18
ATOM     18  C   UNL     1       0.718  -0.871   1.087  1.00  0.00     0.001 C 
ATOM     19  C   UNL     1       1.199  -0.186  -0.186  1.00  0.00     0.004 C 
ENDBRANCH  17  18
ENDBRANCH   8  17
BRANCH  11  20
ATOM     20  O   UNL     1       1.939   4.774   2.140  1.00  0.00    -0.406 OA
BRANCH  20  21
ATOM     21  C   UNL     1       3.339   4.587   2.030  1.00  0.00     0.573 C 
ATOM     22  F   UNL     1       3.832   3.964   3.124  1.00  0.00    -0.132 F 
ATOM     23  F   UNL     1       3.650   3.869   0.930  1.00  0.00    -0.132 F 
ATOM     24  F   UNL     1       3.936   5.793   1.934  1.00  0.00    -0.132 F 
ENDBRANCH  20  21
ENDBRANCH  11  20
BRANCH  16  25
ATOM     25  C   UNL     1      -3.715  -0.355   3.369  1.00  0.00     0.429 C 
ATOM     26  F   UNL     1      -4.859  -0.764   2.777  1.00  0.00    -0.167 F 
ATOM     27  F   UNL     1      -2.946  -1.477   3.464  1.00  0.00    -0.167 F 
ATOM     28  F   UNL     1      -4.001   0.022   4.636  1.00  0.00    -0.167 F 
ENDBRANCH  16  25
ENDBRANCH   4   7
ENDBRANCH   2   3
ENDBRANCH   1   2
BRANCH   1  29
ATOM     29  C   UNL     1      -6.418   6.340   3.236  1.00  0.00     0.118 C 
BRANCH  29  30
ATOM     30  N   UNL     1      -6.778   7.014   4.476  1.00  0.00    -0.352 N 
ATOM     31  C   UNL     1      -7.087   8.333   4.700  1.00  0.00     0.251 C 
ATOM     32  H   UNL     1      -6.803   6.438   5.274  1.00  0.00     0.163 HD
ATOM     33  O   UNL     1      -7.098   8.766   5.848  1.00  0.00    -0.269 OA
BRANCH  31  34
ATOM     34  C   UNL     1      -7.397   9.227   3.565  1.00  0.00     0.039 A 
ATOM     35  C   UNL     1      -6.852  10.514   3.544  1.00  0.00     0.014 A 
ATOM     36  C   UNL     1      -8.245   8.806   2.536  1.00  0.00     0.014 A 
ATOM     37  C   UNL     1      -7.099  11.353   2.455  1.00  0.00     0.010 A 
ATOM     38  C   UNL     1      -8.438   9.619   1.423  1.00  0.00     0.010 A 
ATOM     39  C   UNL     1      -7.859  10.896   1.366  1.00  0.00    -0.014 A 
BRANCH  39  40
ATOM     40  C   UNL     1      -8.033  11.716   0.141  1.00  0.00     0.031 A 
ATOM     41  C   UNL     1      -9.399  12.192  -0.269  1.00  0.00     0.074 A 
ATOM     42  C   UNL     1      -6.967  11.950  -0.651  1.00  0.00     0.049 A 
ATOM     43  N   UNL     1      -9.759  12.819  -1.359  1.00  0.00    -0.248 NA
ATOM     44  C   UNL     1     -10.507  11.907   0.657  1.00  0.00     0.031 C 
ATOM     45  C   UNL     1      -5.595  11.515  -0.375  1.00  0.00     0.029 A 
ATOM     46  N   UNL     1      -6.872  12.597  -1.858  1.00  0.00    -0.354 N 
ATOM     47  C   UNL     1     -11.135  12.990  -1.260  1.00  0.00     0.074 A 
ATOM     48  C   UNL     1     -11.550  12.364  -0.022  1.00  0.00     0.031 C 
ATOM     49  C   UNL     1      -4.796  11.918  -1.375  1.00  0.00     0.029 A 
ATOM     50  C   UNL     1      -5.602  12.595  -2.386  1.00  0.00     0.049 A 
ATOM     51  H   UNL     1      -7.640  13.023  -2.303  1.00  0.00     0.167 HD
ATOM     52  C   UNL     1     -11.974  13.621  -2.116  1.00  0.00     0.031 A 
ATOM     53  C   UNL     1      -5.139  13.062  -3.562  1.00  0.00     0.031 A 
ATOM     54  C   UNL     1     -11.553  14.240  -3.345  1.00  0.00     0.049 A 
ATOM     55  C   UNL     1      -6.097  13.721  -4.515  1.00  0.00     0.074 A 
ATOM     56  C   UNL     1     -12.316  14.953  -4.254  1.00  0.00     0.029 A 
ATOM     57  N   UNL     1     -10.259  14.213  -3.845  1.00  0.00    -0.354 N 
ATOM     58  N   UNL     1      -7.383  13.934  -4.372  1.00  0.00    -0.248 NA
ATOM     59  C   UNL     1      -5.542  14.204  -5.787  1.00  0.00     0.031 C 
ATOM     60  C   UNL     1     -11.497  15.304  -5.332  1.00  0.00     0.029 A 
ATOM     61  C   UNL     1     -10.210  14.865  -5.066  1.00  0.00     0.049 A 
ATOM     62  H   UNL     1      -9.490  13.793  -3.397  1.00  0.00     0.167 HD
ATOM     63  C   UNL     1      -7.788  14.592  -5.527  1.00  0.00     0.074 A 
ATOM     64  C   UNL     1      -6.607  14.760  -6.350  1.00  0.00     0.031 C 
ATOM     65  C   UNL     1      -9.027  15.019  -5.876  1.00  0.00     0.031 A 
BRANCH  52  66
ATOM     66  C   UNL     1     -13.438  13.661  -1.761  1.00  0.00    -0.014 A 
ATOM     67  C   UNL     1     -13.904  14.439  -0.686  1.00  0.00     0.010 A 
ATOM     68  C   UNL     1     -14.367  12.948  -2.541  1.00  0.00     0.010 A 
ATOM     69  C   UNL     1     -15.265  14.471  -0.372  1.00  0.00     0.020 A 
ATOM     70  C   UNL     1     -15.733  13.000  -2.248  1.00  0.00     0.020 A 
ATOM     71  C   UNL     1     -16.171  13.748  -1.154  1.00  0.00     0.054 A 
BRANCH  71  72
ATOM     72  S   UNL     1     -17.934  13.826  -0.735  1.00  0.00     0.124 S 
ATOM     73  O   UNL     1     -17.986  13.036   0.493  1.00  0.00    -0.237 OA
ATOM     74  O   UNL     1     -18.161  15.259  -0.570  1.00  0.00    -0.237 OA
ATOM     75  O   UNL     1     -18.594  13.222  -1.891  1.00  0.00    -0.744 OA
ENDBRANCH  71  72
ENDBRANCH  52  66
BRANCH  53  76
ATOM     76  C   UNL     1      -3.698  12.913  -3.904  1.00  0.00    -0.014 A 
ATOM     77  C   UNL     1      -2.855  14.037  -3.949  1.00  0.00     0.010 A 
ATOM     78  C   UNL     1      -3.156  11.641  -4.169  1.00  0.00     0.010 A 
ATOM     79  C   UNL     1      -1.501  13.895  -4.265  1.00  0.00     0.020 A 
ATOM     80  C   UNL     1      -1.797  11.492  -4.458  1.00  0.00     0.020 A 
ATOM     81  C   UNL     1      -0.979  12.622  -4.514  1.00  0.00     0.054 A 
BRANCH  81  82
ATOM     82  S   UNL     1       0.792  12.456  -4.867  1.00  0.00     0.124 S 
ATOM     83  O   UNL     1       0.884  12.995  -6.220  1.00  0.00    -0.237 OA
ATOM     84  O   UNL     1       1.400  13.270  -3.817  1.00  0.00    -0.237 OA
ATOM     85  O   UNL     1       1.031  11.019  -4.746  1.00  0.00    -0.744 OA
ENDBRANCH  81  82
ENDBRANCH  53  76
BRANCH  65  86
ATOM     86  C   UNL     1      -9.174  15.723  -7.198  1.00  0.00    -0.014 A 
ATOM     87  C   UNL     1      -9.109  15.012  -8.409  1.00  0.00     0.010 A 
ATOM     88  C   UNL     1      -9.459  17.101  -7.225  1.00  0.00     0.010 A 
ATOM     89  C   UNL     1      -9.311  15.670  -9.625  1.00  0.00     0.020 A 
ATOM     90  C   UNL     1      -9.690  17.756  -8.437  1.00  0.00     0.020 A 
ATOM     91  C   UNL     1      -9.606  17.037  -9.630  1.00  0.00     0.054 A 
BRANCH  91  92
ATOM     92  S   UNL     1      -9.935  17.850 -11.218  1.00  0.00     0.124 S 
ATOM     93  O   UNL     1      -8.604  17.897 -11.817  1.00  0.00    -0.237 OA
ATOM     94  O   UNL     1     -10.879  16.935 -11.856  1.00  0.00    -0.237 OA
ATOM     95  O   UNL     1     -10.493  19.145 -10.836  1.00  0.00    -0.744 OA
ENDBRANCH  91  92
ENDBRANCH  65  86
ENDBRANCH  39  40
ENDBRANCH  31  34
ENDBRANCH  29  30
ENDBRANCH   1  29
TORSDOF 18
