REMARK SMILES C[C@@H](Oc1ccc(I)cc1)C(=O)NCc1ccc(C(=O)NCCCNC(=O)c2ccc(-c3c4nc(c(-c5ccc(S(=O)(=O)[O-])cc5)c5ccc([nH]5)c(-c5ccc(S(=O)(=O)[O-])cc5)c5nc(c(-c6ccc(S(=O)(=O)[O-])cc6)c6ccc3[nH]6)C=C5)C=C4)cc2)cc1
REMARK SMILES IDX 22 1 21 2 19 3 20 4 18 6 15 7 16 8 89 9 17 10 88 11 14 12
REMARK SMILES IDX 13 13 11 14 12 15 2 17 1 18 3 19 4 20 5 21 10 22 6 23 9 24
REMARK SMILES IDX 7 25 8 26 23 27 24 28 25 29 26 30 27 32 28 33 29 34 87 35
REMARK SMILES IDX 30 36 86 37 31 38 32 39 33 40 80 41 34 42 85 43 79 44 81 45
REMARK SMILES IDX 35 46 84 47 78 48 77 49 36 51 66 52 47 53 65 54 48 55 51 56
REMARK SMILES IDX 64 57 82 58 49 59 50 60 63 62 83 63 52 64 37 65 38 66 46 67
REMARK SMILES IDX 39 68 45 69 40 70 41 71 42 72 43 73 44 74 67 75 68 76 76 77
REMARK SMILES IDX 69 78 75 79 70 80 71 81 72 82 73 83 74 84 53 85 54 86 62 87
REMARK SMILES IDX 55 88 61 89 56 90 57 91 58 92 59 93 60 94
REMARK H PARENT 21 5 13 16 25 31 81 50 51 61
REMARK Flexibility Score: inf
ROOT
ATOM      1  C   UNL     1      -0.078  -5.914  -3.148  1.00  0.00     0.118 C 
ENDROOT
BRANCH   1   2
ATOM      2  N   UNL     1      -1.530  -5.923  -3.183  1.00  0.00    -0.352 N 
ATOM      3  C   UNL     1      -2.468  -4.928  -3.066  1.00  0.00     0.251 C 
ATOM      4  O   UNL     1      -3.649  -5.237  -3.232  1.00  0.00    -0.269 OA
ATOM      5  H   UNL     1      -1.918  -6.818  -3.317  1.00  0.00     0.163 HD
BRANCH   3   6
ATOM      6  C   UNL     1      -2.127  -3.502  -2.801  1.00  0.00     0.039 A 
ATOM      7  C   UNL     1      -1.599  -0.749  -2.419  1.00  0.00    -0.029 A 
ATOM      8  C   UNL     1      -2.797  -1.162  -3.008  1.00  0.00     0.006 A 
ATOM      9  C   UNL     1      -0.693  -1.726  -1.999  1.00  0.00     0.006 A 
ATOM     10  C   UNL     1      -3.051  -2.525  -3.209  1.00  0.00     0.014 A 
ATOM     11  C   UNL     1      -0.973  -3.083  -2.146  1.00  0.00     0.014 A 
BRANCH   7  12
ATOM     12  C   UNL     1      -1.281   0.705  -2.199  1.00  0.00     0.151 C 
BRANCH  12  13
ATOM     13  N   UNL     1      -1.712   1.147  -0.888  1.00  0.00    -0.349 N 
ATOM     14  C   UNL     1      -1.016   1.616   0.185  1.00  0.00     0.261 C 
ATOM     15  O   UNL     1      -1.681   2.011   1.151  1.00  0.00    -0.271 OA
ATOM     16  H   UNL     1      -2.685   1.099  -0.748  1.00  0.00     0.163 HD
BRANCH  14  17
ATOM     17  C   UNL     1       0.524   1.590   0.265  1.00  0.00     0.258 C 
ATOM     18  C   UNL     1       0.964   0.222   0.784  1.00  0.00     0.064 C 
BRANCH  17  19
ATOM     19  O   UNL     1       1.099   1.934  -0.995  1.00  0.00    -0.481 OA
BRANCH  19  20
ATOM     20  C   UNL     1       2.427   2.239  -0.960  1.00  0.00     0.120 A 
ATOM     21  C   UNL     1       3.374   1.230  -1.127  1.00  0.00     0.047 A 
ATOM     22  C   UNL     1       2.815   3.577  -0.954  1.00  0.00     0.047 A 
ATOM     23  C   UNL     1       4.726   1.555  -1.246  1.00  0.00     0.018 A 
ATOM     24  C   UNL     1       4.166   3.906  -1.086  1.00  0.00     0.018 A 
ATOM     25  C   UNL     1       5.117   2.893  -1.232  1.00  0.00     0.013 A 
ATOM     26  I   UNL     1       7.122   3.380  -1.476  1.00  0.00    -0.044 I 
ENDBRANCH  19  20
ENDBRANCH  17  19
ENDBRANCH  14  17
ENDBRANCH  12  13
ENDBRANCH   7  12
ENDBRANCH   3   6
ENDBRANCH   1   2
BRANCH   1  27
ATOM     27  C   UNL     1       0.451  -6.358  -1.783  1.00  0.00     0.042 C 
BRANCH  27  28
ATOM     28  C   UNL     1       0.407  -7.871  -1.583  1.00  0.00     0.118 C 
BRANCH  28  29
ATOM     29  N   UNL     1       1.370  -8.553  -2.435  1.00  0.00    -0.352 N 
ATOM     30  C   UNL     1       2.350  -9.458  -2.112  1.00  0.00     0.251 C 
ATOM     31  H   UNL     1       1.309  -8.331  -3.392  1.00  0.00     0.163 HD
ATOM     32  O   UNL     1       3.202  -9.738  -2.949  1.00  0.00    -0.269 OA
BRANCH  30  33
ATOM     33  C   UNL     1       2.392 -10.086  -0.772  1.00  0.00     0.039 A 
ATOM     34  C   UNL     1       3.637 -10.298  -0.171  1.00  0.00     0.014 A 
ATOM     35  C   UNL     1       1.227 -10.518  -0.133  1.00  0.00     0.014 A 
ATOM     36  C   UNL     1       3.710 -10.903   1.086  1.00  0.00     0.010 A 
ATOM     37  C   UNL     1       1.296 -11.061   1.149  1.00  0.00     0.010 A 
ATOM     38  C   UNL     1       2.538 -11.268   1.768  1.00  0.00    -0.014 A 
BRANCH  38  39
ATOM     39  C   UNL     1       2.593 -11.866   3.126  1.00  0.00     0.031 A 
ATOM     40  C   UNL     1       2.113 -13.274   3.356  1.00  0.00     0.074 A 
ATOM     41  C   UNL     1       3.010 -11.114   4.165  1.00  0.00     0.049 A 
ATOM     42  N   UNL     1       2.018 -13.939   4.479  1.00  0.00    -0.248 NA
ATOM     43  C   UNL     1       1.656 -14.026   2.175  1.00  0.00     0.031 C 
ATOM     44  C   UNL     1       3.455  -9.720   4.078  1.00  0.00     0.029 A 
ATOM     45  N   UNL     1       3.112 -11.410   5.501  1.00  0.00    -0.354 N 
ATOM     46  C   UNL     1       1.464 -15.170   4.146  1.00  0.00     0.074 A 
ATOM     47  C   UNL     1       1.215 -15.150   2.721  1.00  0.00     0.031 C 
ATOM     48  C   UNL     1       3.792  -9.288   5.304  1.00  0.00     0.029 A 
ATOM     49  C   UNL     1       3.552 -10.356   6.268  1.00  0.00     0.049 A 
ATOM     50  H   UNL     1       2.891 -12.293   5.876  1.00  0.00     0.167 HD
ATOM     51  C   UNL     1       1.197 -16.224   4.953  1.00  0.00     0.031 A 
ATOM     52  C   UNL     1       3.728 -10.254   7.600  1.00  0.00     0.031 A 
ATOM     53  C   UNL     1       1.474 -16.248   6.365  1.00  0.00     0.049 A 
ATOM     54  C   UNL     1       3.447 -11.449   8.470  1.00  0.00     0.074 A 
ATOM     55  C   UNL     1       1.319 -17.300   7.252  1.00  0.00     0.029 A 
ATOM     56  N   UNL     1       1.957 -15.175   7.097  1.00  0.00    -0.354 N 
ATOM     57  N   UNL     1       3.006 -12.635   8.121  1.00  0.00    -0.248 NA
ATOM     58  C   UNL     1       3.699 -11.298   9.909  1.00  0.00     0.031 C 
ATOM     59  C   UNL     1       1.659 -16.846   8.530  1.00  0.00     0.029 A 
ATOM     60  C   UNL     1       2.081 -15.530   8.429  1.00  0.00     0.049 A 
ATOM     61  H   UNL     1       2.180 -14.291   6.724  1.00  0.00     0.167 HD
ATOM     62  C   UNL     1       2.956 -13.378   9.295  1.00  0.00     0.074 A 
ATOM     63  C   UNL     1       3.426 -12.515  10.359  1.00  0.00     0.031 C 
ATOM     64  C   UNL     1       2.557 -14.661   9.475  1.00  0.00     0.031 A 
BRANCH  51  65
ATOM     65  C   UNL     1       0.564 -17.444   4.337  1.00  0.00    -0.014 A 
ATOM     66  C   UNL     1       1.292 -18.293   3.484  1.00  0.00     0.010 A 
ATOM     67  C   UNL     1      -0.758 -17.786   4.676  1.00  0.00     0.010 A 
ATOM     68  C   UNL     1       0.700 -19.445   2.959  1.00  0.00     0.020 A 
ATOM     69  C   UNL     1      -1.345 -18.952   4.174  1.00  0.00     0.020 A 
ATOM     70  C   UNL     1      -0.615 -19.768   3.308  1.00  0.00     0.054 A 
BRANCH  70  71
ATOM     71  S   UNL     1      -1.341 -21.294   2.649  1.00  0.00     0.124 S 
ATOM     72  O   UNL     1      -1.567 -20.940   1.250  1.00  0.00    -0.237 OA
ATOM     73  O   UNL     1      -0.286 -22.278   2.885  1.00  0.00    -0.237 OA
ATOM     74  O   UNL     1      -2.549 -21.478   3.449  1.00  0.00    -0.744 OA
ENDBRANCH  70  71
ENDBRANCH  51  65
BRANCH  52  75
ATOM     75  C   UNL     1       4.194  -8.971   8.195  1.00  0.00    -0.014 A 
ATOM     76  C   UNL     1       5.482  -8.861   8.745  1.00  0.00     0.010 A 
ATOM     77  C   UNL     1       3.343  -7.850   8.215  1.00  0.00     0.010 A 
ATOM     78  C   UNL     1       5.902  -7.663   9.332  1.00  0.00     0.020 A 
ATOM     79  C   UNL     1       3.770  -6.642   8.774  1.00  0.00     0.020 A 
ATOM     80  C   UNL     1       5.042  -6.561   9.343  1.00  0.00     0.054 A 
BRANCH  80  81
ATOM     81  S   UNL     1       5.618  -5.005  10.078  1.00  0.00     0.124 S 
ATOM     82  O   UNL     1       5.536  -5.296  11.505  1.00  0.00    -0.237 OA
ATOM     83  O   UNL     1       6.967  -4.879   9.533  1.00  0.00    -0.237 OA
ATOM     84  O   UNL     1       4.660  -4.020   9.582  1.00  0.00    -0.744 OA
ENDBRANCH  80  81
ENDBRANCH  52  75
BRANCH  64  85
ATOM     85  C   UNL     1       2.648 -15.227  10.867  1.00  0.00    -0.014 A 
ATOM     86  C   UNL     1       1.752 -14.831  11.876  1.00  0.00     0.010 A 
ATOM     87  C   UNL     1       3.610 -16.214  11.150  1.00  0.00     0.010 A 
ATOM     88  C   UNL     1       1.839 -15.390  13.154  1.00  0.00     0.020 A 
ATOM     89  C   UNL     1       3.681 -16.795  12.418  1.00  0.00     0.020 A 
ATOM     90  C   UNL     1       2.803 -16.368  13.417  1.00  0.00     0.054 A 
BRANCH  90  91
ATOM     91  S   UNL     1       2.866 -17.111  15.070  1.00  0.00     0.124 S 
ATOM     92  O   UNL     1       3.471 -16.043  15.860  1.00  0.00    -0.237 OA
ATOM     93  O   UNL     1       1.459 -17.383  15.354  1.00  0.00    -0.237 OA
ATOM     94  O   UNL     1       3.698 -18.298  14.885  1.00  0.00    -0.744 OA
ENDBRANCH  90  91
ENDBRANCH  64  85
ENDBRANCH  38  39
ENDBRANCH  30  33
ENDBRANCH  28  29
ENDBRANCH  27  28
ENDBRANCH   1  27
TORSDOF 18
