REMARK SMILES CS(=O)(=O)c1ccc(-n2nc(C(F)(F)F)cc2-c2ccc(CC(=O)NCCCNC(=O)c3ccc(-c4c5nc(c(-c6ccc(S(=O)(=O)[O-])cc6)c6ccc([nH]6)c(-c6ccc(S(=O)(=O)[O-])cc6)c6nc(c(-c7ccc(S(=O)(=O)[O-])cc7)c7ccc4[nH]7)C=C6)C=C5)cc3)cc2)cc1
REMARK SMILES IDX 26 1 25 2 23 3 24 4 22 6 21 7 18 8 19 9 93 10 20 11 92 12
REMARK SMILES IDX 17 13 9 14 10 15 11 16 16 17 8 18 5 19 6 20 95 21 7 22 94 23
REMARK SMILES IDX 2 24 1 25 3 26 4 27 12 28 13 29 14 30 15 31 27 32 28 33
REMARK SMILES IDX 29 34 30 35 31 37 32 38 33 39 91 40 34 41 90 42 35 43 36 44
REMARK SMILES IDX 37 45 84 46 38 47 89 48 83 49 85 50 39 51 88 52 82 53 81 54
REMARK SMILES IDX 40 56 70 57 51 58 69 59 52 60 55 61 68 62 86 63 53 64 54 65
REMARK SMILES IDX 67 67 87 68 56 69 41 70 42 71 50 72 43 73 49 74 44 75 45 76
REMARK SMILES IDX 46 77 47 78 48 79 71 80 72 81 80 82 73 83 79 84 74 85 75 86
REMARK SMILES IDX 76 87 77 88 78 89 57 90 58 91 66 92 59 93 65 94 60 95 61 96
REMARK SMILES IDX 62 97 63 98 64 99
REMARK H PARENT 25 5 29 36 85 55 55 66
REMARK Flexibility Score: inf
ROOT
ATOM      1  C   UNL     1       5.470   0.712   4.267  1.00  0.00     0.117 C 
ENDROOT
BRANCH   1   2
ATOM      2  N   UNL     1       6.375   0.748   3.133  1.00  0.00    -0.356 N 
ATOM      3  C   UNL     1       7.278   1.710   2.781  1.00  0.00     0.224 C 
ATOM      4  O   UNL     1       7.946   1.542   1.761  1.00  0.00    -0.275 OA
ATOM      5  H   UNL     1       6.332  -0.032   2.533  1.00  0.00     0.163 HD
BRANCH   3   6
ATOM      6  C   UNL     1       7.486   2.919   3.674  1.00  0.00     0.135 C 
BRANCH   6   7
ATOM      7  C   UNL     1       6.311   3.868   3.729  1.00  0.00    -0.039 A 
ATOM      8  C   UNL     1       4.099   5.622   3.862  1.00  0.00     0.000 A 
ATOM      9  C   UNL     1       4.758   5.382   2.643  1.00  0.00     0.010 A 
ATOM     10  C   UNL     1       4.564   4.979   5.011  1.00  0.00     0.010 A 
ATOM     11  C   UNL     1       5.849   4.507   2.574  1.00  0.00     0.005 A 
ATOM     12  C   UNL     1       5.668   4.127   4.948  1.00  0.00     0.005 A 
BRANCH   8  13
ATOM     13  C   UNL     1       2.927   6.501   3.948  1.00  0.00     0.075 A 
ATOM     14  N   UNL     1       1.817   6.425   3.128  1.00  0.00    -0.233 N 
ATOM     15  N   UNL     1       0.960   7.449   3.290  1.00  0.00    -0.163 NA
ATOM     16  C   UNL     1       1.424   8.113   4.356  1.00  0.00     0.167 A 
ATOM     17  C   UNL     1       2.672   7.579   4.774  1.00  0.00     0.064 A 
BRANCH  14  18
ATOM     18  C   UNL     1       1.517   5.429   2.199  1.00  0.00     0.065 A 
ATOM     19  C   UNL     1       1.173   3.542   0.297  1.00  0.00     0.067 A 
ATOM     20  C   UNL     1       1.482   3.133   1.600  1.00  0.00     0.022 A 
ATOM     21  C   UNL     1       0.977   4.869  -0.057  1.00  0.00     0.022 A 
ATOM     22  C   UNL     1       1.683   4.092   2.563  1.00  0.00     0.030 A 
ATOM     23  C   UNL     1       1.112   5.827   0.921  1.00  0.00     0.030 A 
BRANCH  19  24
ATOM     24  S   UNL     1       0.889   2.356  -0.951  1.00  0.00     0.175 S 
ATOM     25  C   UNL     1       1.954   1.034  -0.465  1.00  0.00     0.163 C 
ATOM     26  O   UNL     1       1.367   2.868  -2.204  1.00  0.00    -0.224 OA
ATOM     27  O   UNL     1      -0.505   1.994  -0.727  1.00  0.00    -0.224 OA
ENDBRANCH  19  24
ENDBRANCH  14  18
BRANCH  16  28
ATOM     28  C   UNL     1       0.662   9.257   4.950  1.00  0.00     0.435 C 
ATOM     29  F   UNL     1       0.332  10.203   4.033  1.00  0.00    -0.164 F 
ATOM     30  F   UNL     1      -0.494   8.848   5.538  1.00  0.00    -0.164 F 
ATOM     31  F   UNL     1       1.381   9.888   5.918  1.00  0.00    -0.164 F 
ENDBRANCH  16  28
ENDBRANCH   8  13
ENDBRANCH   6   7
ENDBRANCH   3   6
ENDBRANCH   1   2
BRANCH   1  32
ATOM     32  C   UNL     1       4.024   1.003   3.863  1.00  0.00     0.042 C 
BRANCH  32  33
ATOM     33  C   UNL     1       3.396  -0.164   3.110  1.00  0.00     0.118 C 
BRANCH  33  34
ATOM     34  N   UNL     1       3.147  -1.341   3.954  1.00  0.00    -0.352 N 
ATOM     35  C   UNL     1       2.236  -2.375   3.758  1.00  0.00     0.251 C 
ATOM     36  H   UNL     1       3.700  -1.407   4.766  1.00  0.00     0.163 HD
ATOM     37  O   UNL     1       1.875  -3.073   4.698  1.00  0.00    -0.269 OA
BRANCH  35  38
ATOM     38  C   UNL     1       1.805  -2.682   2.376  1.00  0.00     0.039 A 
ATOM     39  C   UNL     1       0.575  -3.214   1.956  1.00  0.00     0.014 A 
ATOM     40  C   UNL     1       2.769  -2.482   1.418  1.00  0.00     0.014 A 
ATOM     41  C   UNL     1       0.377  -3.474   0.568  1.00  0.00     0.010 A 
ATOM     42  C   UNL     1       2.321  -2.238   0.162  1.00  0.00     0.010 A 
ATOM     43  C   UNL     1       1.357  -3.064  -0.359  1.00  0.00    -0.014 A 
BRANCH  43  44
ATOM     44  C   UNL     1       1.230  -2.796  -1.812  1.00  0.00     0.031 A 
ATOM     45  C   UNL     1      -0.050  -2.024  -2.094  1.00  0.00     0.074 A 
ATOM     46  C   UNL     1       2.301  -2.955  -2.683  1.00  0.00     0.049 A 
ATOM     47  N   UNL     1      -1.023  -2.413  -2.833  1.00  0.00    -0.248 NA
ATOM     48  C   UNL     1      -0.454  -0.806  -1.364  1.00  0.00     0.031 C 
ATOM     49  C   UNL     1       3.635  -3.573  -2.464  1.00  0.00     0.029 A 
ATOM     50  N   UNL     1       2.445  -2.590  -4.015  1.00  0.00    -0.354 N 
ATOM     51  C   UNL     1      -1.915  -1.346  -2.963  1.00  0.00     0.074 A 
ATOM     52  C   UNL     1      -1.572  -0.397  -1.970  1.00  0.00     0.031 C 
ATOM     53  C   UNL     1       4.476  -3.362  -3.522  1.00  0.00     0.029 A 
ATOM     54  C   UNL     1       3.757  -2.688  -4.591  1.00  0.00     0.049 A 
ATOM     55  H   UNL     1       1.677  -2.276  -4.544  1.00  0.00     0.167 HD
ATOM     56  C   UNL     1      -2.730  -1.287  -4.042  1.00  0.00     0.031 A 
ATOM     57  C   UNL     1       4.161  -2.466  -5.904  1.00  0.00     0.031 A 
ATOM     58  C   UNL     1      -2.757  -2.583  -4.666  1.00  0.00     0.049 A 
ATOM     59  C   UNL     1       2.926  -2.572  -6.720  1.00  0.00     0.074 A 
ATOM     60  C   UNL     1      -3.114  -3.832  -4.195  1.00  0.00     0.029 A 
ATOM     61  N   UNL     1      -1.789  -2.762  -5.623  1.00  0.00    -0.354 N 
ATOM     62  N   UNL     1       2.287  -3.704  -6.831  1.00  0.00    -0.248 NA
ATOM     63  C   UNL     1       2.133  -1.357  -6.830  1.00  0.00     0.031 C 
ATOM     64  C   UNL     1      -2.010  -4.663  -4.538  1.00  0.00     0.029 A 
ATOM     65  C   UNL     1      -1.153  -3.953  -5.383  1.00  0.00     0.049 A 
ATOM     66  H   UNL     1      -1.585  -2.139  -6.358  1.00  0.00     0.167 HD
ATOM     67  C   UNL     1       0.980  -3.373  -6.527  1.00  0.00     0.074 A 
ATOM     68  C   UNL     1       0.947  -1.898  -6.528  1.00  0.00     0.031 C 
ATOM     69  C   UNL     1       0.144  -4.274  -5.929  1.00  0.00     0.031 A 
BRANCH  56  70
ATOM     70  C   UNL     1      -3.121  -0.042  -4.781  1.00  0.00    -0.014 A 
ATOM     71  C   UNL     1      -4.086  -0.197  -5.794  1.00  0.00     0.010 A 
ATOM     72  C   UNL     1      -2.386   1.164  -4.758  1.00  0.00     0.010 A 
ATOM     73  C   UNL     1      -4.290   0.782  -6.765  1.00  0.00     0.020 A 
ATOM     74  C   UNL     1      -2.606   2.169  -5.720  1.00  0.00     0.020 A 
ATOM     75  C   UNL     1      -3.553   1.963  -6.723  1.00  0.00     0.054 A 
BRANCH  75  76
ATOM     76  S   UNL     1      -3.881   3.200  -8.007  1.00  0.00     0.124 S 
ATOM     77  O   UNL     1      -3.500   2.492  -9.226  1.00  0.00    -0.237 OA
ATOM     78  O   UNL     1      -5.314   3.434  -7.842  1.00  0.00    -0.237 OA
ATOM     79  O   UNL     1      -3.025   4.324  -7.639  1.00  0.00    -0.744 OA
ENDBRANCH  75  76
ENDBRANCH  56  70
BRANCH  57  80
ATOM     80  C   UNL     1       5.373  -1.762  -6.517  1.00  0.00    -0.014 A 
ATOM     81  C   UNL     1       5.674  -1.709  -7.916  1.00  0.00     0.010 A 
ATOM     82  C   UNL     1       6.061  -0.833  -5.724  1.00  0.00     0.010 A 
ATOM     83  C   UNL     1       6.571  -0.744  -8.475  1.00  0.00     0.020 A 
ATOM     84  C   UNL     1       6.935   0.134  -6.268  1.00  0.00     0.020 A 
ATOM     85  C   UNL     1       7.177   0.196  -7.640  1.00  0.00     0.054 A 
BRANCH  85  86
ATOM     86  S   UNL     1       8.178   1.579  -8.316  1.00  0.00     0.124 S 
ATOM     87  O   UNL     1       9.368   0.901  -8.823  1.00  0.00    -0.237 OA
ATOM     88  O   UNL     1       7.303   2.155  -9.332  1.00  0.00    -0.237 OA
ATOM     89  O   UNL     1       8.410   2.434  -7.152  1.00  0.00    -0.744 OA
ENDBRANCH  85  86
ENDBRANCH  57  80
BRANCH  69  90
ATOM     90  C   UNL     1       0.577  -5.715  -5.769  1.00  0.00    -0.014 A 
ATOM     91  C   UNL     1       1.610  -6.207  -4.940  1.00  0.00     0.010 A 
ATOM     92  C   UNL     1      -0.283  -6.642  -6.375  1.00  0.00     0.010 A 
ATOM     93  C   UNL     1       1.787  -7.597  -4.769  1.00  0.00     0.020 A 
ATOM     94  C   UNL     1      -0.134  -8.010  -6.187  1.00  0.00     0.020 A 
ATOM     95  C   UNL     1       0.914  -8.487  -5.407  1.00  0.00     0.054 A 
BRANCH  95  96
ATOM     96  S   UNL     1       1.128 -10.280  -5.224  1.00  0.00     0.124 S 
ATOM     97  O   UNL     1       2.397 -10.516  -5.907  1.00  0.00    -0.237 OA
ATOM     98  O   UNL     1       1.149 -10.460  -3.775  1.00  0.00    -0.237 OA
ATOM     99  O   UNL     1      -0.046 -10.840  -5.893  1.00  0.00    -0.744 OA
ENDBRANCH  95  96
ENDBRANCH  69  90
ENDBRANCH  43  44
ENDBRANCH  35  38
ENDBRANCH  33  34
ENDBRANCH  32  33
ENDBRANCH   1  32
TORSDOF 18
