REMARK SMILES CCC([NH3+])(CC)C(=O)N1CCC[N@H+](CC(=O)NCCCNC(=O)c2ccc(-c3c4nc(c(-c5ccc(S(=O)(=O)[O-])cc5)c5ccc([nH]5)c(-c5ccc(S(=O)(=O)[O-])cc5)c5nc(c(-c6ccc(S(=O)(=O)[O-])cc6)c6ccc3[nH]6)C=C5)C=C4)cc2)CC1
REMARK SMILES IDX 15 1 16 2 17 3 14 5 13 6 84 8 85 9 9 10 7 11 8 12 3 13 2 14
REMARK SMILES IDX 1 15 4 16 5 20 6 21 10 22 11 23 12 25 18 27 19 28 20 29
REMARK SMILES IDX 21 30 22 31 23 33 24 34 25 35 83 36 26 37 82 38 27 39 28 40
REMARK SMILES IDX 29 41 76 42 30 43 81 44 75 45 77 46 31 47 80 48 74 49 73 50
REMARK SMILES IDX 32 52 62 53 43 54 61 55 44 56 47 57 60 58 78 59 45 60 46 61
REMARK SMILES IDX 59 63 79 64 48 65 33 66 34 67 42 68 35 69 41 70 36 71 37 72
REMARK SMILES IDX 38 73 39 74 40 75 63 76 64 77 72 78 65 79 71 80 66 81 67 82
REMARK SMILES IDX 68 83 69 84 70 85 49 86 50 87 58 88 51 89 57 90 52 91 53 92
REMARK SMILES IDX 54 93 55 94 56 95
REMARK H PARENT 17 4 13 7 4 17 4 18 4 19 21 32 77 51 47 62
REMARK Flexibility Score: 90.00
ROOT
ATOM      1  C   UNL     1       4.039  -4.439  -3.892  1.00  0.00     0.275 C 
ATOM      2  O   UNL     1       3.091  -4.770  -4.613  1.00  0.00    -0.269 OA
ATOM      3  N   UNL     1       3.817  -4.403  -2.543  1.00  0.00    -0.351 N 
ATOM      4  H   UNL     1       2.873  -4.314  -2.280  1.00  0.00     0.163 HD
ENDROOT
BRANCH   1   5
ATOM      5  C   UNL     1       5.397  -4.076  -4.490  1.00  0.00     0.363 C 
BRANCH   5   6
ATOM      6  N   UNL     1       5.487  -2.722  -5.040  1.00  0.00    -0.326 N 
ATOM      7  H   UNL     1       6.476  -2.834  -5.264  1.00  0.00     0.348 HD
BRANCH   6   8
ATOM      8  C   UNL     1       5.595  -1.582  -4.155  1.00  0.00     0.284 C 
BRANCH   8   9
ATOM      9  C   UNL     1       4.355  -1.082  -3.400  1.00  0.00     0.181 C 
BRANCH   9  10
ATOM     10  N   UNL     1       3.054  -0.869  -4.044  1.00  0.00    -0.331 N 
BRANCH  10  11
ATOM     11  C   UNL     1       2.138  -0.181  -3.222  1.00  0.00     0.284 C 
ATOM     12  O   UNL     1       2.587   0.519  -2.303  1.00  0.00    -0.268 OA
BRANCH  11  13
ATOM     13  C   UNL     1       0.562  -0.434  -3.285  1.00  0.00     0.173 C 
BRANCH  13  14
ATOM     14  C   UNL     1      -0.171   0.540  -2.295  1.00  0.00     0.075 C 
ATOM     15  C   UNL     1      -0.002   0.283  -0.807  1.00  0.00     0.011 C 
ENDBRANCH  13  14
BRANCH  13  16
ATOM     16  N   UNL     1       0.317  -1.838  -2.848  1.00  0.00    -0.345 N 
ATOM     17  H   UNL     1      -0.684  -2.033  -2.876  1.00  0.00     0.345 HD
ATOM     18  H   UNL     1       0.661  -1.962  -1.895  1.00  0.00     0.345 HD
ATOM     19  H   UNL     1       0.806  -2.479  -3.472  1.00  0.00     0.345 HD
ENDBRANCH  13  16
BRANCH  13  20
ATOM     20  C   UNL     1      -0.136  -0.232  -4.648  1.00  0.00     0.075 C 
ATOM     21  C   UNL     1       0.274   1.048  -5.364  1.00  0.00     0.011 C 
ENDBRANCH  13  20
ENDBRANCH  11  13
ENDBRANCH  10  11
BRANCH  10  22
ATOM     22  C   UNL     1       2.711  -1.619  -5.246  1.00  0.00     0.126 C 
BRANCH  22  23
ATOM     23  C   UNL     1       3.700  -1.536  -6.397  1.00  0.00     0.083 CG0
ATOM     24  G   UNL     1       4.910  -2.460  -6.338  1.00  0.00     0.000 G0
ENDBRANCH  22  23
ENDBRANCH  10  22
ENDBRANCH   9  10
ENDBRANCH   8   9
ENDBRANCH   6   8
BRANCH   6  25
ATOM     25  C   UNL     1       4.910  -2.460  -6.338  1.00  0.00     0.264 CG0
ATOM     26  G   UNL     1       3.700  -1.536  -6.397  1.00  0.00     0.000 G0
ENDBRANCH   6  25
ENDBRANCH   5   6
ENDBRANCH   1   5
BRANCH   3  27
ATOM     27  C   UNL     1       4.759  -4.475  -1.434  1.00  0.00     0.118 C 
BRANCH  27  28
ATOM     28  C   UNL     1       4.814  -3.252  -0.511  1.00  0.00     0.042 C 
BRANCH  28  29
ATOM     29  C   UNL     1       3.471  -2.738   0.023  1.00  0.00     0.118 C 
BRANCH  29  30
ATOM     30  N   UNL     1       3.153  -3.305   1.327  1.00  0.00    -0.352 N 
ATOM     31  C   UNL     1       3.076  -2.707   2.567  1.00  0.00     0.251 C 
ATOM     32  H   UNL     1       2.963  -4.271   1.321  1.00  0.00     0.163 HD
ATOM     33  O   UNL     1       3.077  -3.428   3.564  1.00  0.00    -0.269 OA
BRANCH  31  34
ATOM     34  C   UNL     1       2.973  -1.232   2.735  1.00  0.00     0.039 A 
ATOM     35  C   UNL     1       3.613  -0.609   3.811  1.00  0.00     0.014 A 
ATOM     36  C   UNL     1       2.157  -0.463   1.910  1.00  0.00     0.014 A 
ATOM     37  C   UNL     1       3.466   0.774   4.024  1.00  0.00     0.010 A 
ATOM     38  C   UNL     1       2.065   0.927   2.081  1.00  0.00     0.010 A 
ATOM     39  C   UNL     1       2.705   1.569   3.148  1.00  0.00    -0.014 A 
BRANCH  39  40
ATOM     40  C   UNL     1       2.610   3.054   3.319  1.00  0.00     0.031 A 
ATOM     41  C   UNL     1       1.289   3.754   3.558  1.00  0.00     0.074 A 
ATOM     42  C   UNL     1       3.722   3.808   3.199  1.00  0.00     0.049 A 
ATOM     43  N   UNL     1       1.061   5.025   3.797  1.00  0.00    -0.248 NA
ATOM     44  C   UNL     1       0.068   2.938   3.492  1.00  0.00     0.031 C 
ATOM     45  C   UNL     1       5.053   3.302   2.857  1.00  0.00     0.029 A 
ATOM     46  N   UNL     1       3.913   5.162   3.348  1.00  0.00    -0.354 N 
ATOM     47  C   UNL     1      -0.321   5.161   3.895  1.00  0.00     0.074 A 
ATOM     48  C   UNL     1      -0.883   3.852   3.639  1.00  0.00     0.031 C 
ATOM     49  C   UNL     1       5.927   4.321   2.865  1.00  0.00     0.029 A 
ATOM     50  C   UNL     1       5.221   5.557   3.193  1.00  0.00     0.049 A 
ATOM     51  H   UNL     1       3.182   5.790   3.548  1.00  0.00     0.167 HD
ATOM     52  C   UNL     1      -1.059   6.261   4.195  1.00  0.00     0.031 A 
ATOM     53  C   UNL     1       5.803   6.767   3.316  1.00  0.00     0.031 A 
ATOM     54  C   UNL     1      -0.510   7.565   4.472  1.00  0.00     0.049 A 
ATOM     55  C   UNL     1       4.981   7.959   3.718  1.00  0.00     0.074 A 
ATOM     56  C   UNL     1      -1.175   8.707   4.891  1.00  0.00     0.029 A 
ATOM     57  N   UNL     1       0.827   7.907   4.354  1.00  0.00    -0.354 N 
ATOM     58  N   UNL     1       3.692   8.033   3.941  1.00  0.00    -0.248 NA
ATOM     59  C   UNL     1       5.700   9.227   3.912  1.00  0.00     0.031 C 
ATOM     60  C   UNL     1      -0.246   9.749   4.984  1.00  0.00     0.029 A 
ATOM     61  C   UNL     1       1.005   9.244   4.673  1.00  0.00     0.049 A 
ATOM     62  H   UNL     1       1.546   7.291   4.082  1.00  0.00     0.167 HD
ATOM     63  C   UNL     1       3.450   9.347   4.330  1.00  0.00     0.074 A 
ATOM     64  C   UNL     1       4.727  10.029   4.323  1.00  0.00     0.031 C 
ATOM     65  C   UNL     1       2.273   9.928   4.667  1.00  0.00     0.031 A 
BRANCH  52  66
ATOM     66  C   UNL     1      -2.559   6.104   4.268  1.00  0.00    -0.014 A 
ATOM     67  C   UNL     1      -3.158   5.377   5.313  1.00  0.00     0.010 A 
ATOM     68  C   UNL     1      -3.384   6.754   3.331  1.00  0.00     0.010 A 
ATOM     69  C   UNL     1      -4.549   5.264   5.394  1.00  0.00     0.020 A 
ATOM     70  C   UNL     1      -4.778   6.667   3.425  1.00  0.00     0.020 A 
ATOM     71  C   UNL     1      -5.351   5.907   4.446  1.00  0.00     0.054 A 
BRANCH  71  72
ATOM     72  S   UNL     1      -7.154   5.765   4.594  1.00  0.00     0.124 S 
ATOM     73  O   UNL     1      -7.387   4.400   4.132  1.00  0.00    -0.237 OA
ATOM     74  O   UNL     1      -7.380   5.994   6.018  1.00  0.00    -0.237 OA
ATOM     75  O   UNL     1      -7.658   6.816   3.711  1.00  0.00    -0.744 OA
ENDBRANCH  71  72
ENDBRANCH  52  66
BRANCH  53  76
ATOM     76  C   UNL     1       7.273   6.895   3.120  1.00  0.00    -0.014 A 
ATOM     77  C   UNL     1       8.122   7.059   4.228  1.00  0.00     0.010 A 
ATOM     78  C   UNL     1       7.830   6.823   1.831  1.00  0.00     0.010 A 
ATOM     79  C   UNL     1       9.504   7.162   4.051  1.00  0.00     0.020 A 
ATOM     80  C   UNL     1       9.215   6.901   1.653  1.00  0.00     0.020 A 
ATOM     81  C   UNL     1      10.042   7.080   2.764  1.00  0.00     0.054 A 
BRANCH  81  82
ATOM     82  S   UNL     1      11.844   7.146   2.563  1.00  0.00     0.124 S 
ATOM     83  O   UNL     1      12.118   8.568   2.746  1.00  0.00    -0.237 OA
ATOM     84  O   UNL     1      12.315   6.268   3.632  1.00  0.00    -0.237 OA
ATOM     85  O   UNL     1      12.056   6.634   1.211  1.00  0.00    -0.744 OA
ENDBRANCH  81  82
ENDBRANCH  53  76
BRANCH  65  86
ATOM     86  C   UNL     1       2.304  11.373   5.093  1.00  0.00    -0.014 A 
ATOM     87  C   UNL     1       2.518  12.405   4.163  1.00  0.00     0.010 A 
ATOM     88  C   UNL     1       2.071  11.704   6.440  1.00  0.00     0.010 A 
ATOM     89  C   UNL     1       2.531  13.741   4.578  1.00  0.00     0.020 A 
ATOM     90  C   UNL     1       2.059  13.039   6.855  1.00  0.00     0.020 A 
ATOM     91  C   UNL     1       2.304  14.049   5.923  1.00  0.00     0.054 A 
BRANCH  91  92
ATOM     92  S   UNL     1       2.289  15.791   6.433  1.00  0.00     0.124 S 
ATOM     93  O   UNL     1       3.712  16.121   6.431  1.00  0.00    -0.237 OA
ATOM     94  O   UNL     1       1.496  16.427   5.384  1.00  0.00    -0.237 OA
ATOM     95  O   UNL     1       1.659  15.761   7.750  1.00  0.00    -0.744 OA
ENDBRANCH  91  92
ENDBRANCH  65  86
ENDBRANCH  39  40
ENDBRANCH  31  34
ENDBRANCH  29  30
ENDBRANCH  28  29
ENDBRANCH  27  28
ENDBRANCH   3  27
TORSDOF 19
