REMARK SMILES C[C@@H](C(=O)NCCCNC(=O)c1ccc(-c2c3nc(c(-c4ccc(S(=O)(=O)[O-])cc4)c4ccc([nH]4)c(-c4ccc(S(=O)(=O)[O-])cc4)c4nc(c(-c5ccc(S(=O)(=O)[O-])cc5)c5ccc2[nH]5)C=C4)C=C3)cc1)c1cc(/C=C/S(C)(=O)=O)cc(C(=O)c2ccccc2)c1
REMARK SMILES IDX 7 1 6 2 5 3 3 4 4 5 2 7 1 8 72 9 73 10 91 11 74 12 82 13
REMARK SMILES IDX 81 14 75 15 76 16 77 17 78 18 79 19 80 20 83 21 84 22 85 23
REMARK SMILES IDX 86 24 90 25 87 26 89 27 88 28 8 29 9 30 10 31 11 33 12 34
REMARK SMILES IDX 13 35 71 36 14 37 70 38 15 39 16 40 17 41 64 42 18 43 69 44
REMARK SMILES IDX 63 45 65 46 19 47 68 48 62 49 61 50 20 52 50 53 31 54 49 55
REMARK SMILES IDX 32 56 35 57 48 58 66 59 33 60 34 61 47 63 67 64 36 65 21 66
REMARK SMILES IDX 22 67 30 68 23 69 29 70 24 71 25 72 26 73 27 74 28 75 51 76
REMARK SMILES IDX 52 77 60 78 53 79 59 80 54 81 55 82 56 83 57 84 58 85 37 86
REMARK SMILES IDX 38 87 46 88 39 89 45 90 40 91 41 92 42 93 43 94 44 95
REMARK H PARENT 5 6 9 32 65 51 35 62
REMARK Flexibility Score: inf
ROOT
ATOM      1  C   UNL     1       4.441   0.937   0.727  1.00  0.00     0.042 C 
ENDROOT
BRANCH   1   2
ATOM      2  C   UNL     1       3.584   0.364   1.849  1.00  0.00     0.117 C 
BRANCH   2   3
ATOM      3  N   UNL     1       2.565   1.302   2.273  1.00  0.00    -0.356 N 
ATOM      4  C   UNL     1       1.227   1.337   2.029  1.00  0.00     0.227 C 
ATOM      5  O   UNL     1       0.632   2.305   2.510  1.00  0.00    -0.274 OA
ATOM      6  H   UNL     1       2.897   2.040   2.833  1.00  0.00     0.163 HD
BRANCH   4   7
ATOM      7  C   UNL     1       0.541   0.192   1.248  1.00  0.00     0.105 C 
ATOM      8  C   UNL     1       0.889   0.182  -0.238  1.00  0.00     0.023 C 
BRANCH   7   9
ATOM      9  C   UNL     1      -0.979   0.149   1.397  1.00  0.00    -0.035 A 
ATOM     10  C   UNL     1      -1.756   1.313   1.410  1.00  0.00     0.012 A 
ATOM     11  C   UNL     1      -1.637  -1.083   1.490  1.00  0.00     0.016 A 
ATOM     12  C   UNL     1      -3.126   1.293   1.699  1.00  0.00    -0.024 A 
ATOM     13  C   UNL     1      -3.023  -1.143   1.694  1.00  0.00     0.023 A 
ATOM     14  C   UNL     1      -3.757   0.049   1.816  1.00  0.00     0.020 A 
BRANCH  12  15
ATOM     15  C   UNL     1      -3.886   2.539   1.918  1.00  0.00     0.020 C 
ATOM     16  C   UNL     1      -3.299   3.714   2.203  1.00  0.00     0.106 C 
BRANCH  16  17
ATOM     17  S   UNL     1      -4.245   5.117   2.574  1.00  0.00     0.168 S 
ATOM     18  C   UNL     1      -3.349   5.773   3.963  1.00  0.00     0.163 C 
ATOM     19  O   UNL     1      -4.110   6.070   1.488  1.00  0.00    -0.225 OA
ATOM     20  O   UNL     1      -5.556   4.728   3.057  1.00  0.00    -0.225 OA
ENDBRANCH  16  17
ENDBRANCH  12  15
BRANCH  13  21
ATOM     21  C   UNL     1      -3.751  -2.446   1.756  1.00  0.00     0.193 C 
ATOM     22  O   UNL     1      -4.977  -2.475   1.697  1.00  0.00    -0.289 OA
BRANCH  21  23
ATOM     23  C   UNL     1      -3.022  -3.732   1.838  1.00  0.00     0.022 A 
ATOM     24  C   UNL     1      -3.295  -4.716   0.882  1.00  0.00     0.012 A 
ATOM     25  C   UNL     1      -2.077  -3.969   2.843  1.00  0.00     0.012 A 
ATOM     26  C   UNL     1      -2.587  -5.918   0.903  1.00  0.00     0.001 A 
ATOM     27  C   UNL     1      -1.368  -5.171   2.856  1.00  0.00     0.001 A 
ATOM     28  C   UNL     1      -1.618  -6.140   1.884  1.00  0.00     0.000 A 
ENDBRANCH  21  23
ENDBRANCH  13  21
ENDBRANCH   7   9
ENDBRANCH   4   7
ENDBRANCH   2   3
ENDBRANCH   1   2
BRANCH   1  29
ATOM     29  C   UNL     1       5.150   2.239   1.084  1.00  0.00     0.118 C 
BRANCH  29  30
ATOM     30  N   UNL     1       6.120   2.077   2.158  1.00  0.00    -0.352 N 
ATOM     31  C   UNL     1       7.479   2.280   2.140  1.00  0.00     0.251 C 
ATOM     32  H   UNL     1       5.749   1.779   3.019  1.00  0.00     0.163 HD
ATOM     33  O   UNL     1       8.165   1.912   3.089  1.00  0.00    -0.269 OA
BRANCH  31  34
ATOM     34  C   UNL     1       8.108   2.920   0.966  1.00  0.00     0.039 A 
ATOM     35  C   UNL     1       9.258   2.350   0.414  1.00  0.00     0.014 A 
ATOM     36  C   UNL     1       7.551   4.069   0.401  1.00  0.00     0.014 A 
ATOM     37  C   UNL     1       9.804   2.889  -0.754  1.00  0.00     0.010 A 
ATOM     38  C   UNL     1       8.046   4.553  -0.805  1.00  0.00     0.010 A 
ATOM     39  C   UNL     1       9.177   3.969  -1.395  1.00  0.00    -0.014 A 
BRANCH  39  40
ATOM     40  C   UNL     1       9.674   4.513  -2.685  1.00  0.00     0.031 A 
ATOM     41  C   UNL     1      10.136   5.941  -2.766  1.00  0.00     0.074 A 
ATOM     42  C   UNL     1       9.608   3.760  -3.801  1.00  0.00     0.049 A 
ATOM     43  N   UNL     1      10.466   6.644  -3.818  1.00  0.00    -0.248 NA
ATOM     44  C   UNL     1      10.201   6.686  -1.498  1.00  0.00     0.031 C 
ATOM     45  C   UNL     1       9.143   2.373  -3.861  1.00  0.00     0.029 A 
ATOM     46  N   UNL     1       9.905   4.067  -5.106  1.00  0.00    -0.354 N 
ATOM     47  C   UNL     1      10.751   7.920  -3.344  1.00  0.00     0.074 A 
ATOM     48  C   UNL     1      10.506   7.905  -1.918  1.00  0.00     0.031 C 
ATOM     49  C   UNL     1       9.188   1.950  -5.135  1.00  0.00     0.029 A 
ATOM     50  C   UNL     1       9.635   3.047  -5.988  1.00  0.00     0.049 A 
ATOM     51  H   UNL     1      10.277   4.936  -5.384  1.00  0.00     0.167 HD
ATOM     52  C   UNL     1      11.190   9.002  -4.031  1.00  0.00     0.031 A 
ATOM     53  C   UNL     1       9.709   3.003  -7.333  1.00  0.00     0.031 A 
ATOM     54  C   UNL     1      11.428   9.009  -5.449  1.00  0.00     0.049 A 
ATOM     55  C   UNL     1      10.181   4.218  -8.083  1.00  0.00     0.074 A 
ATOM     56  C   UNL     1      11.927  10.035  -6.232  1.00  0.00     0.029 A 
ATOM     57  N   UNL     1      11.175   7.942  -6.300  1.00  0.00    -0.354 N 
ATOM     58  N   UNL     1      10.515   5.395  -7.611  1.00  0.00    -0.248 NA
ATOM     59  C   UNL     1      10.299   4.098  -9.543  1.00  0.00     0.031 C 
ATOM     60  C   UNL     1      11.916   9.610  -7.564  1.00  0.00     0.029 A 
ATOM     61  C   UNL     1      11.479   8.295  -7.604  1.00  0.00     0.049 A 
ATOM     62  H   UNL     1      10.829   7.064  -6.018  1.00  0.00     0.167 HD
ATOM     63  C   UNL     1      10.909   6.148  -8.711  1.00  0.00     0.074 A 
ATOM     64  C   UNL     1      10.776   5.292  -9.872  1.00  0.00     0.031 C 
ATOM     65  C   UNL     1      11.347   7.431  -8.752  1.00  0.00     0.031 A 
BRANCH  52  66
ATOM     66  C   UNL     1      11.409  10.273  -3.251  1.00  0.00    -0.014 A 
ATOM     67  C   UNL     1      12.425  10.372  -2.282  1.00  0.00     0.010 A 
ATOM     68  C   UNL     1      10.584  11.388  -3.489  1.00  0.00     0.010 A 
ATOM     69  C   UNL     1      12.565  11.533  -1.518  1.00  0.00     0.020 A 
ATOM     70  C   UNL     1      10.744  12.565  -2.752  1.00  0.00     0.020 A 
ATOM     71  C   UNL     1      11.716  12.619  -1.751  1.00  0.00     0.054 A 
BRANCH  71  72
ATOM     72  S   UNL     1      11.903  14.103  -0.727  1.00  0.00     0.124 S 
ATOM     73  O   UNL     1      11.359  13.654   0.553  1.00  0.00    -0.237 OA
ATOM     74  O   UNL     1      13.346  14.329  -0.750  1.00  0.00    -0.237 OA
ATOM     75  O   UNL     1      11.105  15.109  -1.423  1.00  0.00    -0.744 OA
ENDBRANCH  71  72
ENDBRANCH  52  66
BRANCH  53  76
ATOM     76  C   UNL     1       9.314   1.756  -8.044  1.00  0.00    -0.014 A 
ATOM     77  C   UNL     1      10.284   0.926  -8.632  1.00  0.00     0.010 A 
ATOM     78  C   UNL     1       7.964   1.360  -8.078  1.00  0.00     0.010 A 
ATOM     79  C   UNL     1       9.912  -0.278  -9.237  1.00  0.00     0.020 A 
ATOM     80  C   UNL     1       7.591   0.144  -8.657  1.00  0.00     0.020 A 
ATOM     81  C   UNL     1       8.569  -0.667  -9.236  1.00  0.00     0.054 A 
BRANCH  81  82
ATOM     82  S   UNL     1       8.124  -2.280  -9.941  1.00  0.00     0.124 S 
ATOM     83  O   UNL     1       8.292  -2.044 -11.371  1.00  0.00    -0.237 OA
ATOM     84  O   UNL     1       9.104  -3.171  -9.325  1.00  0.00    -0.237 OA
ATOM     85  O   UNL     1       6.747  -2.479  -9.495  1.00  0.00    -0.744 OA
ENDBRANCH  81  82
ENDBRANCH  53  76
BRANCH  65  86
ATOM     86  C   UNL     1      11.761   7.993 -10.085  1.00  0.00    -0.014 A 
ATOM     87  C   UNL     1      10.811   8.352 -11.057  1.00  0.00     0.010 A 
ATOM     88  C   UNL     1      13.122   8.271 -10.320  1.00  0.00     0.010 A 
ATOM     89  C   UNL     1      11.215   8.976 -12.241  1.00  0.00     0.020 A 
ATOM     90  C   UNL     1      13.526   8.918 -11.489  1.00  0.00     0.020 A 
ATOM     91  C   UNL     1      12.569   9.264 -12.445  1.00  0.00     0.054 A 
BRANCH  91  92
ATOM     92  S   UNL     1      13.054  10.160 -13.946  1.00  0.00     0.124 S 
ATOM     93  O   UNL     1      12.869   9.145 -14.980  1.00  0.00    -0.237 OA
ATOM     94  O   UNL     1      12.105  11.270 -13.977  1.00  0.00    -0.237 OA
ATOM     95  O   UNL     1      14.441  10.542 -13.690  1.00  0.00    -0.744 OA
ENDBRANCH  91  92
ENDBRANCH  65  86
ENDBRANCH  39  40
ENDBRANCH  31  34
ENDBRANCH  29  30
ENDBRANCH   1  29
TORSDOF 18
