REMARK SMILES O=C(CN1C(=O)N[C@](c2cccs2)(C2CC2)C1=O)NCCCNC(=O)c1ccc(-c2c3nc(c(-c4ccc(S(=O)(=O)[O-])cc4)c4ccc([nH]4)c(-c4ccc(S(=O)(=O)[O-])cc4)c4nc(c(-c5ccc(S(=O)(=O)[O-])cc5)c5ccc2[nH]5)C=C4)C=C3)cc1
REMARK SMILES IDX 21 1 20 2 19 3 1 4 2 5 3 7 4 8 5 9 17 10 6 11 7 12 8 13
REMARK SMILES IDX 18 14 14 16 15 17 16 18 9 19 10 20 13 21 11 22 12 23 22 24
REMARK SMILES IDX 23 25 24 26 25 28 26 29 27 30 85 31 28 32 84 33 29 34 30 35
REMARK SMILES IDX 31 36 78 37 32 38 83 39 77 40 79 41 33 42 82 43 76 44 75 45
REMARK SMILES IDX 34 47 64 48 45 49 63 50 46 51 49 52 62 53 80 54 47 55 48 56
REMARK SMILES IDX 61 58 81 59 50 60 35 61 36 62 44 63 37 64 43 65 38 66 39 67
REMARK SMILES IDX 40 68 41 69 42 70 65 71 66 72 74 73 67 74 73 75 68 76 69 77
REMARK SMILES IDX 70 78 71 79 72 80 51 81 52 82 60 83 53 84 59 85 54 86 55 87
REMARK SMILES IDX 56 88 57 89 58 90
REMARK H PARENT 19 6 7 15 23 27 79 46 49 57
REMARK Flexibility Score: inf
ROOT
ATOM      1  C   UNL     1       2.484   3.308  -0.724  1.00  0.00     0.042 C 
ENDROOT
BRANCH   1   2
ATOM      2  C   UNL     1       2.150   1.957  -1.349  1.00  0.00     0.117 C 
BRANCH   2   3
ATOM      3  N   UNL     1       2.859   0.871  -0.708  1.00  0.00    -0.354 N 
ATOM      4  O   UNL     1       1.033  -0.289   0.069  1.00  0.00    -0.273 OA
ATOM      5  C   UNL     1       2.249  -0.175  -0.048  1.00  0.00     0.240 C 
ATOM      6  H   UNL     1       3.843   0.879  -0.745  1.00  0.00     0.163 HD
BRANCH   5   7
ATOM      7  C   UNL     1       3.232  -1.163   0.587  1.00  0.00     0.230 C 
BRANCH   7   8
ATOM      8  N   UNL     1       3.957  -1.906  -0.425  1.00  0.00    -0.252 N 
ATOM      9  C   UNL     1       4.910  -1.379  -1.235  1.00  0.00     0.325 C 
ATOM     10  C   UNL     1       3.863  -3.259  -0.624  1.00  0.00     0.262 C 
ATOM     11  O   UNL     1       5.285  -0.215  -1.249  1.00  0.00    -0.248 OA
ATOM     12  N   UNL     1       5.396  -2.353  -2.059  1.00  0.00    -0.318 N 
ATOM     13  C   UNL     1       4.868  -3.667  -1.755  1.00  0.00     0.158 C 
ATOM     14  O   UNL     1       3.129  -4.023  -0.009  1.00  0.00    -0.271 OA
ATOM     15  H   UNL     1       6.039  -2.181  -2.785  1.00  0.00     0.166 HD
BRANCH  13  16
ATOM     16  C   UNL     1       4.065  -4.124  -2.960  1.00  0.00     0.030 C 
ATOM     17  C   UNL     1       4.647  -4.708  -4.226  1.00  0.00     0.007 C 
ATOM     18  C   UNL     1       3.794  -5.565  -3.322  1.00  0.00     0.007 C 
ENDBRANCH  13  16
BRANCH  13  19
ATOM     19  C   UNL     1       6.031  -4.425  -1.105  1.00  0.00     0.040 A 
ATOM     20  C   UNL     1       6.640  -4.133   0.115  1.00  0.00     0.018 A 
ATOM     21  S   UNL     1       6.878  -5.711  -1.866  1.00  0.00    -0.146 S 
ATOM     22  C   UNL     1       7.758  -4.962   0.411  1.00  0.00     0.012 A 
ATOM     23  C   UNL     1       7.988  -5.877  -0.586  1.00  0.00     0.065 A 
ENDBRANCH  13  19
ENDBRANCH   7   8
ENDBRANCH   5   7
ENDBRANCH   2   3
ENDBRANCH   1   2
BRANCH   1  24
ATOM     24  C   UNL     1       3.963   3.688  -0.753  1.00  0.00     0.118 C 
BRANCH  24  25
ATOM     25  N   UNL     1       4.498   3.824  -2.099  1.00  0.00    -0.352 N 
ATOM     26  C   UNL     1       5.162   4.867  -2.697  1.00  0.00     0.251 C 
ATOM     27  H   UNL     1       4.361   3.038  -2.676  1.00  0.00     0.163 HD
ATOM     28  O   UNL     1       5.394   4.808  -3.903  1.00  0.00    -0.269 OA
BRANCH  26  29
ATOM     29  C   UNL     1       5.588   6.061  -1.927  1.00  0.00     0.039 A 
ATOM     30  C   UNL     1       5.526   7.312  -2.549  1.00  0.00     0.014 A 
ATOM     31  C   UNL     1       6.105   5.965  -0.632  1.00  0.00     0.014 A 
ATOM     32  C   UNL     1       5.944   8.459  -1.866  1.00  0.00     0.010 A 
ATOM     33  C   UNL     1       6.440   7.120   0.080  1.00  0.00     0.010 A 
ATOM     34  C   UNL     1       6.386   8.379  -0.535  1.00  0.00    -0.014 A 
BRANCH  34  35
ATOM     35  C   UNL     1       6.826   9.598   0.198  1.00  0.00     0.031 A 
ATOM     36  C   UNL     1       8.252   9.732   0.671  1.00  0.00     0.074 A 
ATOM     37  C   UNL     1       5.942  10.584   0.457  1.00  0.00     0.049 A 
ATOM     38  N   UNL     1       8.821  10.726   1.308  1.00  0.00    -0.248 NA
ATOM     39  C   UNL     1       9.152   8.596   0.415  1.00  0.00     0.031 C 
ATOM     40  C   UNL     1       4.523  10.566   0.091  1.00  0.00     0.029 A 
ATOM     41  N   UNL     1       6.106  11.796   1.082  1.00  0.00    -0.354 N 
ATOM     42  C   UNL     1      10.135  10.330   1.536  1.00  0.00     0.074 A 
ATOM     43  C   UNL     1      10.263   8.983   1.026  1.00  0.00     0.031 C 
ATOM     44  C   UNL     1       3.959  11.727   0.462  1.00  0.00     0.029 A 
ATOM     45  C   UNL     1       4.960  12.555   1.127  1.00  0.00     0.049 A 
ATOM     46  H   UNL     1       6.964  12.093   1.463  1.00  0.00     0.167 HD
ATOM     47  C   UNL     1      11.152  11.029   2.097  1.00  0.00     0.031 A 
ATOM     48  C   UNL     1       4.737  13.781   1.641  1.00  0.00     0.031 A 
ATOM     49  C   UNL     1      11.027  12.372   2.601  1.00  0.00     0.049 A 
ATOM     50  C   UNL     1       5.879  14.535   2.267  1.00  0.00     0.074 A 
ATOM     51  C   UNL     1      12.010  13.181   3.145  1.00  0.00     0.029 A 
ATOM     52  N   UNL     1       9.849  13.103   2.627  1.00  0.00    -0.354 N 
ATOM     53  N   UNL     1       7.130  14.166   2.415  1.00  0.00    -0.248 NA
ATOM     54  C   UNL     1       5.584  15.882   2.775  1.00  0.00     0.031 C 
ATOM     55  C   UNL     1      11.414  14.379   3.554  1.00  0.00     0.029 A 
ATOM     56  C   UNL     1      10.076  14.346   3.196  1.00  0.00     0.049 A 
ATOM     57  H   UNL     1       8.980  12.786   2.290  1.00  0.00     0.167 HD
ATOM     58  C   UNL     1       7.778  15.252   2.997  1.00  0.00     0.074 A 
ATOM     59  C   UNL     1       6.784  16.292   3.160  1.00  0.00     0.031 C 
ATOM     60  C   UNL     1       9.081  15.377   3.355  1.00  0.00     0.031 A 
BRANCH  47  61
ATOM     61  C   UNL     1      12.494  10.347   2.203  1.00  0.00    -0.014 A 
ATOM     62  C   UNL     1      13.253  10.047   1.056  1.00  0.00     0.010 A 
ATOM     63  C   UNL     1      13.023  10.036   3.469  1.00  0.00     0.010 A 
ATOM     64  C   UNL     1      14.491   9.410   1.171  1.00  0.00     0.020 A 
ATOM     65  C   UNL     1      14.277   9.429   3.590  1.00  0.00     0.020 A 
ATOM     66  C   UNL     1      14.995   9.103   2.438  1.00  0.00     0.054 A 
BRANCH  66  67
ATOM     67  S   UNL     1      16.614   8.294   2.557  1.00  0.00     0.124 S 
ATOM     68  O   UNL     1      16.317   6.952   2.062  1.00  0.00    -0.237 OA
ATOM     69  O   UNL     1      17.447   9.115   1.682  1.00  0.00    -0.237 OA
ATOM     70  O   UNL     1      16.940   8.374   3.978  1.00  0.00    -0.744 OA
ENDBRANCH  66  67
ENDBRANCH  47  61
BRANCH  48  71
ATOM     71  C   UNL     1       3.377  14.386   1.562  1.00  0.00    -0.014 A 
ATOM     72  C   UNL     1       3.131  15.500   0.739  1.00  0.00     0.010 A 
ATOM     73  C   UNL     1       2.316  13.848   2.314  1.00  0.00     0.010 A 
ATOM     74  C   UNL     1       1.860  16.079   0.688  1.00  0.00     0.020 A 
ATOM     75  C   UNL     1       1.035  14.404   2.240  1.00  0.00     0.020 A 
ATOM     76  C   UNL     1       0.818  15.525   1.437  1.00  0.00     0.054 A 
BRANCH  76  77
ATOM     77  S   UNL     1      -0.834  16.266   1.321  1.00  0.00     0.124 S 
ATOM     78  O   UNL     1      -0.655  17.522   2.042  1.00  0.00    -0.237 OA
ATOM     79  O   UNL     1      -1.024  16.385  -0.122  1.00  0.00    -0.237 OA
ATOM     80  O   UNL     1      -1.696  15.285   1.977  1.00  0.00    -0.744 OA
ENDBRANCH  76  77
ENDBRANCH  48  71
BRANCH  60  81
ATOM     81  C   UNL     1       9.525  16.708   3.905  1.00  0.00    -0.014 A 
ATOM     82  C   UNL     1       9.099  17.170   5.164  1.00  0.00     0.010 A 
ATOM     83  C   UNL     1      10.414  17.500   3.154  1.00  0.00     0.010 A 
ATOM     84  C   UNL     1       9.511  18.421   5.634  1.00  0.00     0.020 A 
ATOM     85  C   UNL     1      10.856  18.734   3.636  1.00  0.00     0.020 A 
ATOM     86  C   UNL     1      10.384  19.197   4.865  1.00  0.00     0.054 A 
BRANCH  86  87
ATOM     87  S   UNL     1      10.914  20.810   5.502  1.00  0.00     0.124 S 
ATOM     88  O   UNL     1       9.702  21.610   5.348  1.00  0.00    -0.237 OA
ATOM     89  O   UNL     1      11.293  20.501   6.879  1.00  0.00    -0.237 OA
ATOM     90  O   UNL     1      12.022  21.183   4.626  1.00  0.00    -0.744 OA
ENDBRANCH  86  87
ENDBRANCH  60  81
ENDBRANCH  34  35
ENDBRANCH  26  29
ENDBRANCH  24  25
ENDBRANCH   1  24
TORSDOF 16
