REMARK SMILES NC(=O)C[C@H](NC(=O)[C@@H]1CCC[NH2+]1)C(=O)NCCCNC(=O)c1ccc(-c2c3nc(c(-c4ccc(S(=O)(=O)[O-])cc4)c4ccc([nH]4)c(-c4ccc(S(=O)(=O)[O-])cc4)c4nc(c(-c5ccc(S(=O)(=O)[O-])cc5)c5ccc2[nH]5)C=C4)C=C3)cc1
REMARK SMILES IDX 18 1 17 2 16 3 14 4 15 5 5 7 4 8 2 9 1 10 3 13 6 14 7 15
REMARK SMILES IDX 8 17 9 18 10 19 13 20 11 21 12 22 19 25 20 26 21 27 22 29
REMARK SMILES IDX 23 30 24 31 82 32 25 33 81 34 26 35 27 36 28 37 75 38 29 39
REMARK SMILES IDX 80 40 74 41 76 42 30 43 79 44 73 45 72 46 31 48 61 49 42 50
REMARK SMILES IDX 60 51 43 52 46 53 59 54 77 55 44 56 45 57 58 59 78 60 47 61
REMARK SMILES IDX 32 62 33 63 41 64 34 65 40 66 35 67 36 68 37 69 38 70 39 71
REMARK SMILES IDX 62 72 63 73 71 74 64 75 70 76 65 77 66 78 67 79 68 80 69 81
REMARK SMILES IDX 48 82 49 83 57 84 50 85 56 86 51 87 52 88 53 89 54 90 55 91
REMARK H PARENT 16 6 1 11 1 12 6 16 13 23 13 24 20 28 76 47 46 58
REMARK Flexibility Score: inf
ROOT
ATOM      1  C   UNL     1       4.182  -0.579  -4.869  1.00  0.00     0.042 C 
ENDROOT
BRANCH   1   2
ATOM      2  C   UNL     1       4.486   0.586  -3.925  1.00  0.00     0.117 C 
BRANCH   2   3
ATOM      3  N   UNL     1       3.536   1.667  -4.119  1.00  0.00    -0.354 N 
ATOM      4  C   UNL     1       2.358   1.982  -3.526  1.00  0.00     0.243 C 
ATOM      5  O   UNL     1       1.687   2.848  -4.108  1.00  0.00    -0.273 OA
ATOM      6  H   UNL     1       3.802   2.300  -4.825  1.00  0.00     0.163 HD
BRANCH   4   7
ATOM      7  C   UNL     1       1.781   1.327  -2.242  1.00  0.00     0.180 C 
BRANCH   7   8
ATOM      8  C   UNL     1       2.732   1.151  -1.062  1.00  0.00     0.134 C 
BRANCH   8   9
ATOM      9  C   UNL     1       2.053   1.109   0.295  1.00  0.00     0.220 C 
ATOM     10  N   UNL     1       1.148   2.082   0.591  1.00  0.00    -0.370 N 
ATOM     11  H   UNL     1       0.692   2.080   1.464  1.00  0.00     0.159 HD
ATOM     12  H   UNL     1       0.949   2.786  -0.067  1.00  0.00     0.159 HD
ATOM     13  O   UNL     1       2.360   0.299   1.165  1.00  0.00    -0.275 OA
ENDBRANCH   8   9
ENDBRANCH   7   8
BRANCH   7  14
ATOM     14  N   UNL     1       0.738   0.314  -2.442  1.00  0.00    -0.339 N 
ATOM     15  C   UNL     1       0.734  -1.045  -2.527  1.00  0.00     0.278 C 
ATOM     16  H   UNL     1      -0.161   0.705  -2.536  1.00  0.00     0.164 HD
ATOM     17  O   UNL     1      -0.363  -1.605  -2.576  1.00  0.00    -0.268 OA
BRANCH  15  18
ATOM     18  C   UNL     1       2.041  -1.820  -2.558  1.00  0.00     0.272 C 
ATOM     19  C   UNL     1       1.983  -3.098  -3.376  1.00  0.00     0.081 C 
ATOM     20  N   UNL     1       2.453  -2.299  -1.225  1.00  0.00    -0.336 N 
ATOM     21  C   UNL     1       3.169  -3.900  -2.865  1.00  0.00     0.068 C 
ATOM     22  C   UNL     1       3.502  -3.290  -1.508  1.00  0.00     0.261 C 
ATOM     23  H   UNL     1       1.669  -2.732  -0.737  1.00  0.00     0.346 HD
ATOM     24  H   UNL     1       2.780  -1.544  -0.622  1.00  0.00     0.346 HD
ENDBRANCH  15  18
ENDBRANCH   7  14
ENDBRANCH   4   7
ENDBRANCH   2   3
ENDBRANCH   1   2
BRANCH   1  25
ATOM     25  C   UNL     1       4.915  -0.506  -6.200  1.00  0.00     0.118 C 
BRANCH  25  26
ATOM     26  N   UNL     1       6.230  -1.124  -6.106  1.00  0.00    -0.352 N 
ATOM     27  C   UNL     1       6.637  -2.415  -6.357  1.00  0.00     0.251 C 
ATOM     28  H   UNL     1       6.949  -0.517  -5.815  1.00  0.00     0.163 HD
ATOM     29  O   UNL     1       7.718  -2.783  -5.895  1.00  0.00    -0.269 OA
BRANCH  27  30
ATOM     30  C   UNL     1       5.822  -3.369  -7.154  1.00  0.00     0.039 A 
ATOM     31  C   UNL     1       5.910  -4.740  -6.872  1.00  0.00     0.014 A 
ATOM     32  C   UNL     1       5.059  -2.954  -8.246  1.00  0.00     0.014 A 
ATOM     33  C   UNL     1       5.212  -5.675  -7.652  1.00  0.00     0.010 A 
ATOM     34  C   UNL     1       4.293  -3.874  -8.964  1.00  0.00     0.010 A 
ATOM     35  C   UNL     1       4.378  -5.248  -8.695  1.00  0.00    -0.014 A 
BRANCH  35  36
ATOM     36  C   UNL     1       3.630  -6.195  -9.572  1.00  0.00     0.031 A 
ATOM     37  C   UNL     1       3.887  -6.187 -11.060  1.00  0.00     0.074 A 
ATOM     38  C   UNL     1       2.655  -6.979  -9.069  1.00  0.00     0.049 A 
ATOM     39  N   UNL     1       3.193  -6.735 -12.025  1.00  0.00    -0.248 NA
ATOM     40  C   UNL     1       5.060  -5.428 -11.526  1.00  0.00     0.031 C 
ATOM     41  C   UNL     1       2.289  -7.085  -7.655  1.00  0.00     0.029 A 
ATOM     42  N   UNL     1       1.770  -7.818  -9.703  1.00  0.00    -0.354 N 
ATOM     43  C   UNL     1       3.808  -6.338 -13.208  1.00  0.00     0.074 A 
ATOM     44  C   UNL     1       4.920  -5.489 -12.842  1.00  0.00     0.031 C 
ATOM     45  C   UNL     1       1.259  -7.938  -7.530  1.00  0.00     0.029 A 
ATOM     46  C   UNL     1       0.855  -8.399  -8.855  1.00  0.00     0.049 A 
ATOM     47  H   UNL     1       1.789  -7.988 -10.672  1.00  0.00     0.167 HD
ATOM     48  C   UNL     1       3.481  -6.655 -14.484  1.00  0.00     0.031 A 
ATOM     49  C   UNL     1      -0.207  -9.188  -9.113  1.00  0.00     0.031 A 
ATOM     50  C   UNL     1       2.415  -7.550 -14.846  1.00  0.00     0.049 A 
ATOM     51  C   UNL     1      -0.532  -9.552 -10.537  1.00  0.00     0.074 A 
ATOM     52  C   UNL     1       2.050  -7.985 -16.108  1.00  0.00     0.029 A 
ATOM     53  N   UNL     1       1.557  -8.162 -13.947  1.00  0.00    -0.354 N 
ATOM     54  N   UNL     1       0.074  -9.182 -11.640  1.00  0.00    -0.248 NA
ATOM     55  C   UNL     1      -1.682 -10.444 -10.752  1.00  0.00     0.031 C 
ATOM     56  C   UNL     1       0.951  -8.838 -15.975  1.00  0.00     0.029 A 
ATOM     57  C   UNL     1       0.660  -8.967 -14.627  1.00  0.00     0.049 A 
ATOM     58  H   UNL     1       1.581  -8.041 -12.970  1.00  0.00     0.167 HD
ATOM     59  C   UNL     1      -0.601  -9.822 -12.674  1.00  0.00     0.074 A 
ATOM     60  C   UNL     1      -1.657 -10.606 -12.069  1.00  0.00     0.031 C 
ATOM     61  C   UNL     1      -0.365  -9.765 -14.007  1.00  0.00     0.031 A 
BRANCH  48  62
ATOM     62  C   UNL     1       4.284  -6.029 -15.593  1.00  0.00    -0.014 A 
ATOM     63  C   UNL     1       5.605  -6.434 -15.856  1.00  0.00     0.010 A 
ATOM     64  C   UNL     1       3.686  -5.063 -16.423  1.00  0.00     0.010 A 
ATOM     65  C   UNL     1       6.324  -5.857 -16.906  1.00  0.00     0.020 A 
ATOM     66  C   UNL     1       4.394  -4.503 -17.490  1.00  0.00     0.020 A 
ATOM     67  C   UNL     1       5.716  -4.893 -17.715  1.00  0.00     0.054 A 
BRANCH  67  68
ATOM     68  S   UNL     1       6.659  -4.183 -19.092  1.00  0.00     0.124 S 
ATOM     69  O   UNL     1       7.564  -3.269 -18.394  1.00  0.00    -0.237 OA
ATOM     70  O   UNL     1       7.297  -5.359 -19.684  1.00  0.00    -0.237 OA
ATOM     71  O   UNL     1       5.644  -3.546 -19.918  1.00  0.00    -0.744 OA
ENDBRANCH  67  68
ENDBRANCH  48  62
BRANCH  49  72
ATOM     72  C   UNL     1      -1.057  -9.684  -7.996  1.00  0.00    -0.014 A 
ATOM     73  C   UNL     1      -1.016 -11.039  -7.621  1.00  0.00     0.010 A 
ATOM     74  C   UNL     1      -1.914  -8.809  -7.306  1.00  0.00     0.010 A 
ATOM     75  C   UNL     1      -1.837 -11.515  -6.595  1.00  0.00     0.020 A 
ATOM     76  C   UNL     1      -2.717  -9.275  -6.261  1.00  0.00     0.020 A 
ATOM     77  C   UNL     1      -2.684 -10.630  -5.922  1.00  0.00     0.054 A 
BRANCH  77  78
ATOM     78  S   UNL     1      -3.716 -11.261  -4.569  1.00  0.00     0.124 S 
ATOM     79  O   UNL     1      -4.785 -11.939  -5.295  1.00  0.00    -0.237 OA
ATOM     80  O   UNL     1      -2.792 -12.132  -3.845  1.00  0.00    -0.237 OA
ATOM     81  O   UNL     1      -4.112 -10.053  -3.851  1.00  0.00    -0.744 OA
ENDBRANCH  77  78
ENDBRANCH  49  72
BRANCH  61  82
ATOM     82  C   UNL     1      -1.217 -10.614 -14.909  1.00  0.00    -0.014 A 
ATOM     83  C   UNL     1      -2.532 -10.240 -15.234  1.00  0.00     0.010 A 
ATOM     84  C   UNL     1      -0.654 -11.752 -15.516  1.00  0.00     0.010 A 
ATOM     85  C   UNL     1      -3.274 -10.997 -16.146  1.00  0.00     0.020 A 
ATOM     86  C   UNL     1      -1.385 -12.498 -16.443  1.00  0.00     0.020 A 
ATOM     87  C   UNL     1      -2.694 -12.119 -16.748  1.00  0.00     0.054 A 
BRANCH  87  88
ATOM     88  S   UNL     1      -3.646 -13.037 -17.989  1.00  0.00     0.124 S 
ATOM     89  O   UNL     1      -4.584 -13.787 -17.159  1.00  0.00    -0.237 OA
ATOM     90  O   UNL     1      -4.235 -11.972 -18.797  1.00  0.00    -0.237 OA
ATOM     91  O   UNL     1      -2.637 -13.843 -18.673  1.00  0.00    -0.744 OA
ENDBRANCH  87  88
ENDBRANCH  61  82
ENDBRANCH  35  36
ENDBRANCH  27  30
ENDBRANCH  25  26
ENDBRANCH   1  25
TORSDOF 17
