REMARK SMILES Nc1cc(C(=O)NCCCNC(=O)c2ccc(-c3c4nc(c(-c5ccc(S(=O)(=O)[O-])cc5)c5ccc([nH]5)c(-c5ccc(S(=O)(=O)[O-])cc5)c5nc(c(-c6ccc(S(=O)(=O)[O-])cc6)c6ccc3[nH]6)C=C5)C=C4)cc2)nc2ccccc12
REMARK SMILES IDX 10 1 9 2 8 3 7 4 5 5 6 6 4 8 2 9 3 10 80 11 75 12 79 13
REMARK SMILES IDX 74 14 76 15 78 16 77 17 1 18 11 21 12 22 13 24 14 25 15 26
REMARK SMILES IDX 73 27 16 28 72 29 17 30 18 31 19 32 66 33 20 34 71 35 65 36
REMARK SMILES IDX 67 37 21 38 70 39 64 40 63 41 22 43 52 44 33 45 51 46 34 47
REMARK SMILES IDX 37 48 50 49 68 50 35 51 36 52 49 54 69 55 38 56 23 57 24 58
REMARK SMILES IDX 32 59 25 60 31 61 26 62 27 63 28 64 29 65 30 66 53 67 54 68
REMARK SMILES IDX 62 69 55 70 61 71 56 72 57 73 58 74 59 75 60 76 39 77 40 78
REMARK SMILES IDX 48 79 41 80 47 81 42 82 43 83 44 84 45 85 46 86
REMARK H PARENT 7 7 1 19 1 20 11 23 67 42 37 53
REMARK Flexibility Score: inf
ROOT
ATOM      1  C   UNL     1       2.961   5.393  -2.000  1.00  0.00     0.118 C 
ENDROOT
BRANCH   1   2
ATOM      2  C   UNL     1       2.621   4.063  -1.332  1.00  0.00     0.042 C 
BRANCH   2   3
ATOM      3  C   UNL     1       2.806   4.087   0.184  1.00  0.00     0.118 C 
BRANCH   3   4
ATOM      4  N   UNL     1       1.712   4.777   0.839  1.00  0.00    -0.351 N 
ATOM      5  C   UNL     1       0.527   4.359   1.402  1.00  0.00     0.269 C 
ATOM      6  O   UNL     1      -0.150   5.248   1.926  1.00  0.00    -0.268 OA
ATOM      7  H   UNL     1       1.845   5.752   0.893  1.00  0.00     0.163 HD
BRANCH   5   8
ATOM      8  C   UNL     1       0.040   2.930   1.433  1.00  0.00     0.130 A 
ATOM      9  C   UNL     1      -0.023   0.627   0.737  1.00  0.00     0.043 A 
ATOM     10  C   UNL     1       0.508   1.915   0.619  1.00  0.00     0.060 A 
ATOM     11  C   UNL     1      -1.034   0.388   1.696  1.00  0.00     0.023 A 
ATOM     12  C   UNL     1      -1.482   1.492   2.449  1.00  0.00     0.073 A 
ATOM     13  C   UNL     1      -1.627  -0.877   1.928  1.00  0.00     0.012 A 
ATOM     14  N   UNL     1      -0.955   2.717   2.331  1.00  0.00    -0.242 NA
ATOM     15  C   UNL     1      -2.515   1.313   3.360  1.00  0.00     0.029 A 
ATOM     16  C   UNL     1      -2.661  -1.033   2.852  1.00  0.00     0.001 A 
ATOM     17  C   UNL     1      -3.113   0.069   3.563  1.00  0.00     0.002 A 
BRANCH   9  18
ATOM     18  N   UNL     1       0.550  -0.394  -0.024  1.00  0.00    -0.398 N 
ATOM     19  H   UNL     1       1.252  -0.184  -0.681  1.00  0.00     0.156 HD
ATOM     20  H   UNL     1       0.252  -1.325   0.098  1.00  0.00     0.156 HD
ENDBRANCH   9  18
ENDBRANCH   5   8
ENDBRANCH   3   4
ENDBRANCH   2   3
ENDBRANCH   1   2
BRANCH   1  21
ATOM     21  N   UNL     1       4.396   5.647  -2.017  1.00  0.00    -0.352 N 
ATOM     22  C   UNL     1       5.247   5.840  -3.081  1.00  0.00     0.251 C 
ATOM     23  H   UNL     1       4.823   5.687  -1.130  1.00  0.00     0.163 HD
ATOM     24  O   UNL     1       6.457   5.831  -2.898  1.00  0.00    -0.269 OA
BRANCH  22  25
ATOM     25  C   UNL     1       4.700   6.031  -4.444  1.00  0.00     0.039 A 
ATOM     26  C   UNL     1       3.596   6.857  -4.662  1.00  0.00     0.014 A 
ATOM     27  C   UNL     1       5.307   5.376  -5.520  1.00  0.00     0.014 A 
ATOM     28  C   UNL     1       3.001   6.896  -5.918  1.00  0.00     0.010 A 
ATOM     29  C   UNL     1       4.755   5.483  -6.801  1.00  0.00     0.010 A 
ATOM     30  C   UNL     1       3.567   6.204  -7.001  1.00  0.00    -0.014 A 
BRANCH  30  31
ATOM     31  C   UNL     1       2.891   6.237  -8.324  1.00  0.00     0.031 A 
ATOM     32  C   UNL     1       2.301   4.982  -8.913  1.00  0.00     0.074 A 
ATOM     33  C   UNL     1       2.745   7.415  -8.962  1.00  0.00     0.049 A 
ATOM     34  N   UNL     1       1.642   4.832 -10.034  1.00  0.00    -0.248 NA
ATOM     35  C   UNL     1       2.468   3.734  -8.149  1.00  0.00     0.031 C 
ATOM     36  C   UNL     1       3.246   8.702  -8.473  1.00  0.00     0.029 A 
ATOM     37  N   UNL     1       2.104   7.733 -10.134  1.00  0.00    -0.354 N 
ATOM     38  C   UNL     1       1.322   3.482 -10.112  1.00  0.00     0.074 A 
ATOM     39  C   UNL     1       1.892   2.845  -8.946  1.00  0.00     0.031 C 
ATOM     40  C   UNL     1       2.837   9.675  -9.299  1.00  0.00     0.029 A 
ATOM     41  C   UNL     1       2.105   9.080 -10.414  1.00  0.00     0.049 A 
ATOM     42  H   UNL     1       1.683   7.061 -10.717  1.00  0.00     0.167 HD
ATOM     43  C   UNL     1       0.604   2.836 -11.060  1.00  0.00     0.031 A 
ATOM     44  C   UNL     1       1.584   9.766 -11.451  1.00  0.00     0.031 A 
ATOM     45  C   UNL     1       0.032   3.479 -12.214  1.00  0.00     0.049 A 
ATOM     46  C   UNL     1       0.847   9.017 -12.524  1.00  0.00     0.074 A 
ATOM     47  C   UNL     1      -0.711   2.907 -13.232  1.00  0.00     0.029 A 
ATOM     48  N   UNL     1       0.127   4.833 -12.501  1.00  0.00    -0.354 N 
ATOM     49  N   UNL     1       0.566   7.737 -12.584  1.00  0.00    -0.248 NA
ATOM     50  C   UNL     1       0.361   9.796 -13.671  1.00  0.00     0.031 C 
ATOM     51  C   UNL     1      -1.014   3.902 -14.164  1.00  0.00     0.029 A 
ATOM     52  C   UNL     1      -0.521   5.109 -13.693  1.00  0.00     0.049 A 
ATOM     53  H   UNL     1       0.588   5.498 -11.940  1.00  0.00     0.167 HD
ATOM     54  C   UNL     1      -0.137   7.559 -13.769  1.00  0.00     0.074 A 
ATOM     55  C   UNL     1      -0.258   8.864 -14.386  1.00  0.00     0.031 C 
ATOM     56  C   UNL     1      -0.632   6.413 -14.299  1.00  0.00     0.031 A 
BRANCH  43  57
ATOM     57  C   UNL     1       0.383   1.353 -10.904  1.00  0.00    -0.014 A 
ATOM     58  C   UNL     1       0.976   0.456 -11.812  1.00  0.00     0.010 A 
ATOM     59  C   UNL     1      -0.499   0.854  -9.929  1.00  0.00     0.010 A 
ATOM     60  C   UNL     1       0.673  -0.908 -11.765  1.00  0.00     0.020 A 
ATOM     61  C   UNL     1      -0.784  -0.514  -9.861  1.00  0.00     0.020 A 
ATOM     62  C   UNL     1      -0.212  -1.383 -10.794  1.00  0.00     0.054 A 
BRANCH  62  63
ATOM     63  S   UNL     1      -0.603  -3.154 -10.753  1.00  0.00     0.124 S 
ATOM     64  O   UNL     1      -1.533  -3.292 -11.869  1.00  0.00    -0.237 OA
ATOM     65  O   UNL     1       0.706  -3.776 -10.939  1.00  0.00    -0.237 OA
ATOM     66  O   UNL     1      -1.186  -3.343  -9.425  1.00  0.00    -0.744 OA
ENDBRANCH  62  63
ENDBRANCH  43  57
BRANCH  44  67
ATOM     67  C   UNL     1       1.739  11.246 -11.495  1.00  0.00    -0.014 A 
ATOM     68  C   UNL     1       3.014  11.825 -11.646  1.00  0.00     0.010 A 
ATOM     69  C   UNL     1       0.629  12.086 -11.295  1.00  0.00     0.010 A 
ATOM     70  C   UNL     1       3.186  13.206 -11.533  1.00  0.00     0.020 A 
ATOM     71  C   UNL     1       0.793  13.473 -11.215  1.00  0.00     0.020 A 
ATOM     72  C   UNL     1       2.075  14.020 -11.302  1.00  0.00     0.054 A 
BRANCH  72  73
ATOM     73  S   UNL     1       2.329  15.806 -11.105  1.00  0.00     0.124 S 
ATOM     74  O   UNL     1       2.844  15.884  -9.740  1.00  0.00    -0.237 OA
ATOM     75  O   UNL     1       3.292  16.111 -12.159  1.00  0.00    -0.237 OA
ATOM     76  O   UNL     1       0.994  16.364 -11.304  1.00  0.00    -0.744 OA
ENDBRANCH  72  73
ENDBRANCH  44  67
BRANCH  56  77
ATOM     77  C   UNL     1      -1.352   6.493 -15.618  1.00  0.00    -0.014 A 
ATOM     78  C   UNL     1      -2.735   6.238 -15.675  1.00  0.00     0.010 A 
ATOM     79  C   UNL     1      -0.639   6.679 -16.815  1.00  0.00     0.010 A 
ATOM     80  C   UNL     1      -3.385   6.125 -16.906  1.00  0.00     0.020 A 
ATOM     81  C   UNL     1      -1.292   6.595 -18.048  1.00  0.00     0.020 A 
ATOM     82  C   UNL     1      -2.655   6.290 -18.085  1.00  0.00     0.054 A 
BRANCH  82  83
ATOM     83  S   UNL     1      -3.506   6.093 -19.675  1.00  0.00     0.124 S 
ATOM     84  O   UNL     1      -3.627   4.642 -19.780  1.00  0.00    -0.237 OA
ATOM     85  O   UNL     1      -4.757   6.816 -19.463  1.00  0.00    -0.237 OA
ATOM     86  O   UNL     1      -2.591   6.714 -20.632  1.00  0.00    -0.744 OA
ENDBRANCH  82  83
ENDBRANCH  56  77
ENDBRANCH  30  31
ENDBRANCH  22  25
ENDBRANCH   1  21
TORSDOF 14
