REMARK SMILES CC[NH+]1CCN(c2ccc(NC(=O)C3CCCC3)c(C(=O)NCCCNC(=O)c3ccc(-c4c5nc(c(-c6ccc(S(=O)(=O)[O-])cc6)c6ccc([nH]6)c(-c6ccc(S(=O)(=O)[O-])cc6)c6nc(c(-c7ccc(S(=O)(=O)[O-])cc7)c7ccc4[nH]7)C=C6)C=C5)cc3)c2)CC1
REMARK SMILES IDX 24 1 23 2 22 3 20 4 21 5 19 7 7 8 8 9 89 10 9 11 10 12 6 13
REMARK SMILES IDX 3 14 4 15 91 16 5 18 90 19 2 20 1 21 11 22 12 23 13 25 14 26
REMARK SMILES IDX 15 27 18 28 16 29 17 30 25 31 26 32 27 33 28 35 29 36 30 37
REMARK SMILES IDX 88 38 31 39 87 40 32 41 33 42 34 43 81 44 35 45 86 46 80 47
REMARK SMILES IDX 82 48 36 49 85 50 79 51 78 52 37 54 67 55 48 56 66 57 49 58
REMARK SMILES IDX 52 59 65 60 83 61 50 62 51 63 64 65 84 66 53 67 38 68 39 69
REMARK SMILES IDX 47 70 40 71 46 72 41 73 42 74 43 75 44 76 45 77 68 78 69 79
REMARK SMILES IDX 77 80 70 81 76 82 71 83 72 84 73 85 74 86 75 87 54 88 55 89
REMARK SMILES IDX 63 90 56 91 62 92 57 93 58 94 59 95 60 96 61 97
REMARK H PARENT 22 6 3 17 11 24 26 34 82 53 52 64
REMARK Flexibility Score: inf
ROOT
ATOM      1  C   UNL     1       3.847   6.006   3.043  1.00  0.00     0.042 C 
ENDROOT
BRANCH   1   2
ATOM      2  C   UNL     1       2.559   6.344   2.322  1.00  0.00     0.118 C 
BRANCH   2   3
ATOM      3  N   UNL     1       2.597   7.541   1.491  1.00  0.00    -0.352 N 
ATOM      4  C   UNL     1       1.981   7.857   0.294  1.00  0.00     0.253 C 
ATOM      5  O   UNL     1       2.211   8.973  -0.178  1.00  0.00    -0.269 OA
ATOM      6  H   UNL     1       3.168   8.259   1.849  1.00  0.00     0.163 HD
BRANCH   4   7
ATOM      7  C   UNL     1       1.085   6.923  -0.464  1.00  0.00     0.065 A 
ATOM      8  C   UNL     1       0.033   4.744  -0.589  1.00  0.00     0.038 A 
ATOM      9  C   UNL     1      -0.377   5.026  -1.880  1.00  0.00     0.028 A 
ATOM     10  C   UNL     1       0.535   5.799   0.159  1.00  0.00     0.042 A 
ATOM     11  C   UNL     1      -0.102   6.267  -2.445  1.00  0.00     0.029 A 
ATOM     12  C   UNL     1       0.819   7.110  -1.843  1.00  0.00     0.054 A 
BRANCH   8  13
ATOM     13  N   UNL     1       0.061   3.455  -0.111  1.00  0.00    -0.360 N 
ATOM     14  N   UNL     1       1.195   1.393   1.659  1.00  0.00    -0.332 N 
ATOM     15  C   UNL     1       1.963   1.936   0.528  1.00  0.00     0.283 C 
ATOM     16  C   UNL     1       0.295   2.451   2.167  1.00  0.00     0.283 C 
ATOM     17  H   UNL     1       1.893   1.120   2.351  1.00  0.00     0.348 HD
ATOM     18  C   UNL     1       1.133   2.570  -0.614  1.00  0.00     0.178 C 
ATOM     19  C   UNL     1      -0.650   3.060   1.103  1.00  0.00     0.178 C 
BRANCH  14  20
ATOM     20  C   UNL     1       0.478   0.127   1.445  1.00  0.00     0.258 C 
ATOM     21  C   UNL     1       0.881  -0.756   0.268  1.00  0.00     0.071 C 
ENDBRANCH  14  20
ENDBRANCH   8  13
BRANCH  12  22
ATOM     22  N   UNL     1       1.484   8.097  -2.597  1.00  0.00    -0.325 N 
ATOM     23  C   UNL     1       1.756   8.255  -3.927  1.00  0.00     0.227 C 
ATOM     24  H   UNL     1       1.830   8.835  -2.045  1.00  0.00     0.169 HD
ATOM     25  O   UNL     1       2.298   9.327  -4.240  1.00  0.00    -0.274 OA
BRANCH  23  26
ATOM     26  C   UNL     1       1.407   7.253  -5.055  1.00  0.00     0.079 C 
ATOM     27  C   UNL     1       2.394   7.453  -6.224  1.00  0.00     0.013 C 
ATOM     28  C   UNL     1       1.524   5.741  -4.834  1.00  0.00     0.013 C 
ATOM     29  C   UNL     1       2.217   6.234  -7.112  1.00  0.00     0.001 C 
ATOM     30  C   UNL     1       1.926   5.096  -6.157  1.00  0.00     0.001 C 
ENDBRANCH  23  26
ENDBRANCH  12  22
ENDBRANCH   4   7
ENDBRANCH   2   3
ENDBRANCH   1   2
BRANCH   1  31
ATOM     31  C   UNL     1       4.299   7.023   4.070  1.00  0.00     0.118 C 
BRANCH  31  32
ATOM     32  N   UNL     1       3.395   7.135   5.210  1.00  0.00    -0.352 N 
ATOM     33  C   UNL     1       3.497   6.646   6.492  1.00  0.00     0.251 C 
ATOM     34  H   UNL     1       2.573   7.646   5.031  1.00  0.00     0.163 HD
ATOM     35  O   UNL     1       2.518   6.710   7.239  1.00  0.00    -0.269 OA
BRANCH  33  36
ATOM     36  C   UNL     1       4.750   6.021   6.970  1.00  0.00     0.039 A 
ATOM     37  C   UNL     1       4.688   4.904   7.809  1.00  0.00     0.014 A 
ATOM     38  C   UNL     1       5.992   6.533   6.598  1.00  0.00     0.014 A 
ATOM     39  C   UNL     1       5.867   4.258   8.193  1.00  0.00     0.010 A 
ATOM     40  C   UNL     1       7.148   5.810   6.860  1.00  0.00     0.010 A 
ATOM     41  C   UNL     1       7.105   4.676   7.679  1.00  0.00    -0.014 A 
BRANCH  41  42
ATOM     42  C   UNL     1       8.370   3.964   7.997  1.00  0.00     0.031 A 
ATOM     43  C   UNL     1       9.508   4.705   8.652  1.00  0.00     0.074 A 
ATOM     44  C   UNL     1       8.529   2.681   7.614  1.00  0.00     0.049 A 
ATOM     45  N   UNL     1      10.713   4.281   8.938  1.00  0.00    -0.248 NA
ATOM     46  C   UNL     1       9.277   6.119   8.992  1.00  0.00     0.031 C 
ATOM     47  C   UNL     1       7.530   1.877   6.906  1.00  0.00     0.029 A 
ATOM     48  N   UNL     1       9.597   1.831   7.754  1.00  0.00    -0.354 N 
ATOM     49  C   UNL     1      11.386   5.382   9.457  1.00  0.00     0.074 A 
ATOM     50  C   UNL     1      10.480   6.505   9.386  1.00  0.00     0.031 C 
ATOM     51  C   UNL     1       8.021   0.645   6.701  1.00  0.00     0.029 A 
ATOM     52  C   UNL     1       9.384   0.583   7.217  1.00  0.00     0.049 A 
ATOM     53  H   UNL     1      10.438   2.090   8.197  1.00  0.00     0.167 HD
ATOM     54  C   UNL     1      12.639   5.449   9.967  1.00  0.00     0.031 A 
ATOM     55  C   UNL     1      10.195  -0.490   7.137  1.00  0.00     0.031 A 
ATOM     56  C   UNL     1      13.528   4.322  10.049  1.00  0.00     0.049 A 
ATOM     57  C   UNL     1      11.572  -0.405   7.734  1.00  0.00     0.074 A 
ATOM     58  C   UNL     1      14.783   4.256  10.625  1.00  0.00     0.029 A 
ATOM     59  N   UNL     1      13.258   3.063   9.531  1.00  0.00    -0.354 N 
ATOM     60  N   UNL     1      12.157   0.618   8.311  1.00  0.00    -0.248 NA
ATOM     61  C   UNL     1      12.393  -1.622   7.683  1.00  0.00     0.031 C 
ATOM     62  C   UNL     1      15.300   2.977  10.395  1.00  0.00     0.029 A 
ATOM     63  C   UNL     1      14.338   2.223   9.741  1.00  0.00     0.049 A 
ATOM     64  H   UNL     1      12.421   2.806   9.080  1.00  0.00     0.167 HD
ATOM     65  C   UNL     1      13.409   0.164   8.710  1.00  0.00     0.074 A 
ATOM     66  C   UNL     1      13.486  -1.232   8.326  1.00  0.00     0.031 C 
ATOM     67  C   UNL     1      14.403   0.840   9.339  1.00  0.00     0.031 A 
BRANCH  54  68
ATOM     68  C   UNL     1      13.120   6.793  10.457  1.00  0.00    -0.014 A 
ATOM     69  C   UNL     1      12.536   7.422  11.572  1.00  0.00     0.010 A 
ATOM     70  C   UNL     1      14.181   7.435   9.793  1.00  0.00     0.010 A 
ATOM     71  C   UNL     1      12.959   8.693  11.973  1.00  0.00     0.020 A 
ATOM     72  C   UNL     1      14.632   8.690  10.213  1.00  0.00     0.020 A 
ATOM     73  C   UNL     1      14.001   9.322  11.286  1.00  0.00     0.054 A 
BRANCH  73  74
ATOM     74  S   UNL     1      14.526  10.971  11.825  1.00  0.00     0.124 S 
ATOM     75  O   UNL     1      13.407  11.802  11.386  1.00  0.00    -0.237 OA
ATOM     76  O   UNL     1      14.657  10.809  13.271  1.00  0.00    -0.237 OA
ATOM     77  O   UNL     1      15.781  11.188  11.109  1.00  0.00    -0.744 OA
ENDBRANCH  73  74
ENDBRANCH  54  68
BRANCH  55  78
ATOM     78  C   UNL     1       9.708  -1.730   6.473  1.00  0.00    -0.014 A 
ATOM     79  C   UNL     1       9.400  -2.877   7.224  1.00  0.00     0.010 A 
ATOM     80  C   UNL     1       9.495  -1.749   5.081  1.00  0.00     0.010 A 
ATOM     81  C   UNL     1       8.891  -4.020   6.598  1.00  0.00     0.020 A 
ATOM     82  C   UNL     1       8.958  -2.877   4.456  1.00  0.00     0.020 A 
ATOM     83  C   UNL     1       8.664  -4.009   5.218  1.00  0.00     0.054 A 
BRANCH  83  84
ATOM     84  S   UNL     1       7.921  -5.471   4.441  1.00  0.00     0.124 S 
ATOM     85  O   UNL     1       9.018  -6.433   4.492  1.00  0.00    -0.237 OA
ATOM     86  O   UNL     1       6.789  -5.754   5.320  1.00  0.00    -0.237 OA
ATOM     87  O   UNL     1       7.559  -5.003   3.105  1.00  0.00    -0.744 OA
ENDBRANCH  83  84
ENDBRANCH  55  78
BRANCH  67  88
ATOM     88  C   UNL     1      15.657   0.075   9.674  1.00  0.00    -0.014 A 
ATOM     89  C   UNL     1      16.554  -0.333   8.671  1.00  0.00     0.010 A 
ATOM     90  C   UNL     1      15.969  -0.187  11.021  1.00  0.00     0.010 A 
ATOM     91  C   UNL     1      17.723  -1.020   9.007  1.00  0.00     0.020 A 
ATOM     92  C   UNL     1      17.152  -0.844  11.363  1.00  0.00     0.020 A 
ATOM     93  C   UNL     1      18.015  -1.270  10.352  1.00  0.00     0.054 A 
BRANCH  93  94
ATOM     94  S   UNL     1      19.559  -2.127  10.764  1.00  0.00     0.124 S 
ATOM     95  O   UNL     1      19.276  -3.491  10.325  1.00  0.00    -0.237 OA
ATOM     96  O   UNL     1      20.548  -1.403   9.969  1.00  0.00    -0.237 OA
ATOM     97  O   UNL     1      19.679  -1.950  12.209  1.00  0.00    -0.744 OA
ENDBRANCH  93  94
ENDBRANCH  67  88
ENDBRANCH  41  42
ENDBRANCH  33  36
ENDBRANCH  31  32
ENDBRANCH   1  31
TORSDOF 17
