REMARK SMILES CC[N@@H+](C)Cc1cc2c(cc1Cl)C=C(C(=O)NCCCNC(=O)c1ccc(-c3c4nc(c(-c5ccc(S(=O)(=O)[O-])cc5)c5ccc([nH]5)c(-c5ccc(S(=O)(=O)[O-])cc5)c5nc(c(-c6ccc(S(=O)(=O)[O-])cc6)c6ccc3[nH]6)C=C5)C=C4)cc1)[C@@H](C(F)(F)F)O2
REMARK SMILES IDX 19 1 18 2 17 3 15 4 16 5 14 7 6 8 7 9 11 10 8 11 10 12 12 13
REMARK SMILES IDX 9 14 89 15 13 16 84 17 5 18 3 19 4 20 2 22 1 23 85 24 86 25
REMARK SMILES IDX 87 26 88 27 20 28 21 29 22 30 23 32 24 33 25 34 83 35 26 36
REMARK SMILES IDX 82 37 27 38 28 39 29 40 76 41 30 42 81 43 75 44 77 45 31 46
REMARK SMILES IDX 80 47 74 48 73 49 32 51 62 52 43 53 61 54 44 55 47 56 60 57
REMARK SMILES IDX 78 58 45 59 46 60 59 62 79 63 48 64 33 65 34 66 42 67 35 68
REMARK SMILES IDX 41 69 36 70 37 71 38 72 39 73 40 74 63 75 64 76 72 77 65 78
REMARK SMILES IDX 71 79 66 80 67 81 68 82 69 83 70 84 49 85 50 86 58 87 51 88
REMARK SMILES IDX 57 89 52 90 53 91 54 92 55 93 56 94
REMARK H PARENT 17 6 3 21 21 31 77 50 47 61
REMARK Flexibility Score: inf
ROOT
ATOM      1  C   UNL     1       4.154   5.569  -6.716  1.00  0.00     0.042 C 
ENDROOT
BRANCH   1   2
ATOM      2  C   UNL     1       3.142   4.561  -7.238  1.00  0.00     0.118 C 
BRANCH   2   3
ATOM      3  N   UNL     1       3.781   3.418  -7.871  1.00  0.00    -0.352 N 
ATOM      4  C   UNL     1       4.090   2.144  -7.535  1.00  0.00     0.251 C 
ATOM      5  O   UNL     1       4.645   1.484  -8.419  1.00  0.00    -0.270 OA
ATOM      6  H   UNL     1       4.065   3.627  -8.790  1.00  0.00     0.163 HD
BRANCH   4   7
ATOM      7  C   UNL     1       3.803   1.512  -6.217  1.00  0.00     0.067 C 
ATOM      8  C   UNL     1       3.080  -1.666  -2.396  1.00  0.00     0.029 A 
ATOM      9  C   UNL     1       3.165  -0.270  -2.511  1.00  0.00     0.058 A 
ATOM     10  C   UNL     1       3.498  -2.442  -3.493  1.00  0.00     0.050 A 
ATOM     11  C   UNL     1       3.510   0.322  -3.718  1.00  0.00     0.128 A 
ATOM     12  C   UNL     1       3.906  -1.836  -4.691  1.00  0.00     0.033 A 
ATOM     13  Cl  UNL     1       3.525  -4.170  -3.444  1.00  0.00    -0.084 Cl
ATOM     14  C   UNL     1       3.876  -0.448  -4.819  1.00  0.00     0.019 A 
ATOM     15  O   UNL     1       3.443   1.686  -3.775  1.00  0.00    -0.475 OA
ATOM     16  C   UNL     1       4.196   0.231  -6.071  1.00  0.00     0.025 C 
ATOM     17  C   UNL     1       3.086   2.201  -5.088  1.00  0.00     0.314 C 
BRANCH   8  18
ATOM     18  C   UNL     1       2.491  -2.245  -1.123  1.00  0.00     0.300 C 
BRANCH  18  19
ATOM     19  N   UNL     1       1.014  -2.244  -1.018  1.00  0.00    -0.334 N 
ATOM     20  C   UNL     1       0.387  -3.069  -2.051  1.00  0.00     0.333 C 
ATOM     21  H   UNL     1       0.852  -2.659  -0.101  1.00  0.00     0.348 HD
BRANCH  19  22
ATOM     22  C   UNL     1       0.370  -0.925  -0.958  1.00  0.00     0.258 C 
ATOM     23  C   UNL     1       0.749  -0.105   0.271  1.00  0.00     0.071 C 
ENDBRANCH  19  22
ENDBRANCH  18  19
ENDBRANCH   8  18
BRANCH  17  24
ATOM     24  C   UNL     1       1.551   2.186  -5.262  1.00  0.00     0.429 C 
ATOM     25  F   UNL     1       0.969   3.099  -4.445  1.00  0.00    -0.167 F 
ATOM     26  F   UNL     1       1.169   2.500  -6.524  1.00  0.00    -0.167 F 
ATOM     27  F   UNL     1       0.995   0.985  -4.982  1.00  0.00    -0.167 F 
ENDBRANCH  17  24
ENDBRANCH   4   7
ENDBRANCH   2   3
ENDBRANCH   1   2
BRANCH   1  28
ATOM     28  C   UNL     1       4.733   6.440  -7.823  1.00  0.00     0.118 C 
BRANCH  28  29
ATOM     29  N   UNL     1       3.729   7.324  -8.414  1.00  0.00    -0.352 N 
ATOM     30  C   UNL     1       3.633   8.695  -8.403  1.00  0.00     0.251 C 
ATOM     31  H   UNL     1       3.006   6.863  -8.898  1.00  0.00     0.163 HD
ATOM     32  O   UNL     1       2.594   9.234  -8.775  1.00  0.00    -0.269 OA
BRANCH  30  33
ATOM     33  C   UNL     1       4.767   9.511  -7.923  1.00  0.00     0.039 A 
ATOM     34  C   UNL     1       6.073   9.168  -8.268  1.00  0.00     0.014 A 
ATOM     35  C   UNL     1       4.525  10.622  -7.110  1.00  0.00     0.014 A 
ATOM     36  C   UNL     1       7.136   9.798  -7.638  1.00  0.00     0.010 A 
ATOM     37  C   UNL     1       5.601  11.329  -6.565  1.00  0.00     0.010 A 
ATOM     38  C   UNL     1       6.916  10.887  -6.779  1.00  0.00    -0.014 A 
BRANCH  38  39
ATOM     39  C   UNL     1       8.082  11.531  -6.120  1.00  0.00     0.031 A 
ATOM     40  C   UNL     1       8.231  11.508  -4.622  1.00  0.00     0.074 A 
ATOM     41  C   UNL     1       9.055  12.059  -6.890  1.00  0.00     0.049 A 
ATOM     42  N   UNL     1       9.214  11.968  -3.891  1.00  0.00    -0.248 NA
ATOM     43  C   UNL     1       7.144  10.895  -3.841  1.00  0.00     0.031 C 
ATOM     44  C   UNL     1       9.029  12.113  -8.354  1.00  0.00     0.029 A 
ATOM     45  N   UNL     1      10.272  12.601  -6.561  1.00  0.00    -0.354 N 
ATOM     46  C   UNL     1       8.856  11.722  -2.570  1.00  0.00     0.074 A 
ATOM     47  C   UNL     1       7.553  11.096  -2.595  1.00  0.00     0.031 C 
ATOM     48  C   UNL     1      10.207  12.572  -8.797  1.00  0.00     0.029 A 
ATOM     49  C   UNL     1      11.041  12.925  -7.654  1.00  0.00     0.049 A 
ATOM     50  H   UNL     1      10.566  12.744  -5.632  1.00  0.00     0.167 HD
ATOM     51  C   UNL     1       9.556  11.984  -1.442  1.00  0.00     0.031 A 
ATOM     52  C   UNL     1      12.279  13.452  -7.737  1.00  0.00     0.031 A 
ATOM     53  C   UNL     1      10.863  12.588  -1.429  1.00  0.00     0.049 A 
ATOM     54  C   UNL     1      13.023  13.763  -6.473  1.00  0.00     0.074 A 
ATOM     55  C   UNL     1      11.655  12.889  -0.335  1.00  0.00     0.029 A 
ATOM     56  N   UNL     1      11.574  12.973  -2.556  1.00  0.00    -0.354 N 
ATOM     57  N   UNL     1      12.656  13.539  -5.233  1.00  0.00    -0.248 NA
ATOM     58  C   UNL     1      14.337  14.402  -6.611  1.00  0.00     0.031 C 
ATOM     59  C   UNL     1      12.820  13.507  -0.797  1.00  0.00     0.029 A 
ATOM     60  C   UNL     1      12.785  13.529  -2.183  1.00  0.00     0.049 A 
ATOM     61  H   UNL     1      11.263  12.866  -3.484  1.00  0.00     0.167 HD
ATOM     62  C   UNL     1      13.696  14.009  -4.441  1.00  0.00     0.074 A 
ATOM     63  C   UNL     1      14.716  14.507  -5.342  1.00  0.00     0.031 C 
ATOM     64  C   UNL     1      13.789  14.030  -3.090  1.00  0.00     0.031 A 
BRANCH  51  65
ATOM     65  C   UNL     1       8.932  11.633  -0.116  1.00  0.00    -0.014 A 
ATOM     66  C   UNL     1       8.543  12.660   0.764  1.00  0.00     0.010 A 
ATOM     67  C   UNL     1       8.820  10.295   0.304  1.00  0.00     0.010 A 
ATOM     68  C   UNL     1       8.075  12.360   2.046  1.00  0.00     0.020 A 
ATOM     69  C   UNL     1       8.326   9.990   1.577  1.00  0.00     0.020 A 
ATOM     70  C   UNL     1       7.976  11.025   2.447  1.00  0.00     0.054 A 
BRANCH  70  71
ATOM     71  S   UNL     1       7.368  10.651   4.115  1.00  0.00     0.124 S 
ATOM     72  O   UNL     1       8.540  10.928   4.940  1.00  0.00    -0.237 OA
ATOM     73  O   UNL     1       6.253  11.583   4.267  1.00  0.00    -0.237 OA
ATOM     74  O   UNL     1       6.981   9.244   4.027  1.00  0.00    -0.744 OA
ENDBRANCH  70  71
ENDBRANCH  51  65
BRANCH  52  75
ATOM     75  C   UNL     1      12.870  13.687  -9.083  1.00  0.00    -0.014 A 
ATOM     76  C   UNL     1      12.312  14.652  -9.943  1.00  0.00     0.010 A 
ATOM     77  C   UNL     1      13.906  12.866  -9.558  1.00  0.00     0.010 A 
ATOM     78  C   UNL     1      12.725  14.740 -11.274  1.00  0.00     0.020 A 
ATOM     79  C   UNL     1      14.345  12.973 -10.882  1.00  0.00     0.020 A 
ATOM     80  C   UNL     1      13.725  13.884 -11.741  1.00  0.00     0.054 A 
BRANCH  80  81
ATOM     81  S   UNL     1      14.188  13.957 -13.493  1.00  0.00     0.124 S 
ATOM     82  O   UNL     1      13.086  13.232 -14.122  1.00  0.00    -0.237 OA
ATOM     83  O   UNL     1      14.227  15.393 -13.755  1.00  0.00    -0.237 OA
ATOM     84  O   UNL     1      15.483  13.284 -13.532  1.00  0.00    -0.744 OA
ENDBRANCH  80  81
ENDBRANCH  52  75
BRANCH  64  85
ATOM     85  C   UNL     1      15.031  14.617  -2.476  1.00  0.00    -0.014 A 
ATOM     86  C   UNL     1      15.935  13.780  -1.797  1.00  0.00     0.010 A 
ATOM     87  C   UNL     1      15.231  16.008  -2.453  1.00  0.00     0.010 A 
ATOM     88  C   UNL     1      16.997  14.325  -1.073  1.00  0.00     0.020 A 
ATOM     89  C   UNL     1      16.309  16.555  -1.751  1.00  0.00     0.020 A 
ATOM     90  C   UNL     1      17.169  15.711  -1.044  1.00  0.00     0.054 A 
BRANCH  90  91
ATOM     91  S   UNL     1      18.530  16.405  -0.067  1.00  0.00     0.124 S 
ATOM     92  O   UNL     1      18.006  16.320   1.293  1.00  0.00    -0.237 OA
ATOM     93  O   UNL     1      19.639  15.502  -0.371  1.00  0.00    -0.237 OA
ATOM     94  O   UNL     1      18.677  17.758  -0.597  1.00  0.00    -0.744 OA
ENDBRANCH  90  91
ENDBRANCH  64  85
ENDBRANCH  38  39
ENDBRANCH  30  33
ENDBRANCH  28  29
ENDBRANCH   1  28
TORSDOF 17
