REMARK SMILES CC(C)n1cncc1[C@@H](O)[C@H](C)C(=O)NCCCNC(=O)c1ccc(-c2c3nc(c(-c4ccc(S(=O)(=O)[O-])cc4)c4ccc([nH]4)c(-c4ccc(S(=O)(=O)[O-])cc4)c4nc(c(-c5ccc(S(=O)(=O)[O-])cc5)c5ccc2[nH]5)C=C4)C=C3)cc1
REMARK SMILES IDX 17 1 16 2 15 3 13 4 14 5 11 7 12 8 9 9 8 10 4 11 5 12 6 13
REMARK SMILES IDX 7 14 2 15 1 16 3 17 10 18 18 20 19 21 20 22 21 24 22 25
REMARK SMILES IDX 23 26 81 27 24 28 80 29 25 30 26 31 27 32 74 33 28 34 79 35
REMARK SMILES IDX 73 36 75 37 29 38 78 39 72 40 71 41 30 43 60 44 41 45 59 46
REMARK SMILES IDX 42 47 45 48 58 49 76 50 43 51 44 52 57 54 77 55 46 56 31 57
REMARK SMILES IDX 32 58 40 59 33 60 39 61 34 62 35 63 36 64 37 65 38 66 61 67
REMARK SMILES IDX 62 68 70 69 63 70 69 71 64 72 65 73 66 74 67 75 68 76 47 77
REMARK SMILES IDX 48 78 56 79 49 80 55 81 50 82 51 83 52 84 53 85 54 86
REMARK H PARENT 15 6 10 19 19 23 75 42 45 53
REMARK Flexibility Score: inf
ROOT
ATOM      1  C   UNL     1       2.136   3.450  -1.488  1.00  0.00     0.042 C 
ENDROOT
BRANCH   1   2
ATOM      2  C   UNL     1       1.296   3.660  -0.235  1.00  0.00     0.117 C 
BRANCH   2   3
ATOM      3  N   UNL     1       0.202   4.603  -0.382  1.00  0.00    -0.356 N 
ATOM      4  C   UNL     1      -1.136   4.386  -0.219  1.00  0.00     0.225 C 
ATOM      5  O   UNL     1      -1.879   5.369  -0.145  1.00  0.00    -0.275 OA
ATOM      6  H   UNL     1       0.459   5.520  -0.631  1.00  0.00     0.163 HD
BRANCH   4   7
ATOM      7  C   UNL     1      -1.725   2.981  -0.213  1.00  0.00     0.110 C 
ATOM      8  C   UNL     1      -1.596   2.356  -1.605  1.00  0.00     0.021 C 
BRANCH   7   9
ATOM      9  C   UNL     1      -1.383   2.122   1.028  1.00  0.00     0.175 C 
BRANCH   9  10
ATOM     10  C   UNL     1      -0.958   0.703   0.777  1.00  0.00     0.067 A 
ATOM     11  N   UNL     1      -1.554  -0.401   1.360  1.00  0.00    -0.330 N 
ATOM     12  C   UNL     1      -0.957  -1.515   0.838  1.00  0.00     0.199 A 
ATOM     13  N   UNL     1       0.033  -1.209   0.036  1.00  0.00    -0.245 NA
ATOM     14  C   UNL     1       0.047   0.156  -0.003  1.00  0.00     0.137 A 
BRANCH  11  15
ATOM     15  C   UNL     1      -2.616  -0.383   2.361  1.00  0.00     0.082 C 
ATOM     16  C   UNL     1      -3.982  -0.210   1.700  1.00  0.00     0.031 C 
ATOM     17  C   UNL     1      -2.605  -1.599   3.290  1.00  0.00     0.031 C 
ENDBRANCH  11  15
ENDBRANCH   9  10
BRANCH   9  18
ATOM     18  O   UNL     1      -0.406   2.687   1.894  1.00  0.00    -0.386 OA
ATOM     19  H   UNL     1       0.458   2.686   1.451  1.00  0.00     0.211 HD
ENDBRANCH   9  18
ENDBRANCH   7   9
ENDBRANCH   4   7
ENDBRANCH   2   3
ENDBRANCH   1   2
BRANCH   1  20
ATOM     20  C   UNL     1       3.062   4.615  -1.752  1.00  0.00     0.118 C 
BRANCH  20  21
ATOM     21  N   UNL     1       4.096   4.762  -0.724  1.00  0.00    -0.352 N 
ATOM     22  C   UNL     1       5.069   5.738  -0.645  1.00  0.00     0.251 C 
ATOM     23  H   UNL     1       4.096   4.087  -0.007  1.00  0.00     0.163 HD
ATOM     24  O   UNL     1       6.076   5.569   0.039  1.00  0.00    -0.269 OA
BRANCH  22  25
ATOM     25  C   UNL     1       4.870   6.978  -1.413  1.00  0.00     0.039 A 
ATOM     26  C   UNL     1       5.904   7.556  -2.148  1.00  0.00     0.014 A 
ATOM     27  C   UNL     1       3.581   7.508  -1.452  1.00  0.00     0.014 A 
ATOM     28  C   UNL     1       5.597   8.613  -3.000  1.00  0.00     0.010 A 
ATOM     29  C   UNL     1       3.248   8.412  -2.426  1.00  0.00     0.010 A 
ATOM     30  C   UNL     1       4.256   9.011  -3.164  1.00  0.00    -0.014 A 
BRANCH  30  31
ATOM     31  C   UNL     1       3.878   9.968  -4.197  1.00  0.00     0.031 A 
ATOM     32  C   UNL     1       4.401   9.633  -5.543  1.00  0.00     0.074 A 
ATOM     33  C   UNL     1       3.005  10.983  -4.019  1.00  0.00     0.049 A 
ATOM     34  N   UNL     1       5.463  10.119  -6.092  1.00  0.00    -0.248 NA
ATOM     35  C   UNL     1       3.813   8.505  -6.282  1.00  0.00     0.031 C 
ATOM     36  C   UNL     1       2.163  11.284  -2.856  1.00  0.00     0.029 A 
ATOM     37  N   UNL     1       2.625  11.938  -4.910  1.00  0.00    -0.354 N 
ATOM     38  C   UNL     1       5.520   9.563  -7.362  1.00  0.00     0.074 A 
ATOM     39  C   UNL     1       4.632   8.427  -7.335  1.00  0.00     0.031 C 
ATOM     40  C   UNL     1       1.223  12.197  -3.195  1.00  0.00     0.029 A 
ATOM     41  C   UNL     1       1.513  12.683  -4.531  1.00  0.00     0.049 A 
ATOM     42  H   UNL     1       3.101  12.091  -5.758  1.00  0.00     0.167 HD
ATOM     43  C   UNL     1       6.068  10.257  -8.399  1.00  0.00     0.031 A 
ATOM     44  C   UNL     1       0.882  13.635  -5.265  1.00  0.00     0.031 A 
ATOM     45  C   UNL     1       6.767  11.432  -7.931  1.00  0.00     0.049 A 
ATOM     46  C   UNL     1       1.862  14.120  -6.267  1.00  0.00     0.074 A 
ATOM     47  C   UNL     1       7.804  11.664  -7.049  1.00  0.00     0.029 A 
ATOM     48  N   UNL     1       6.102  12.631  -8.062  1.00  0.00    -0.354 N 
ATOM     49  N   UNL     1       2.939  14.782  -5.947  1.00  0.00    -0.248 NA
ATOM     50  C   UNL     1       1.892  13.471  -7.567  1.00  0.00     0.031 C 
ATOM     51  C   UNL     1       7.423  12.839  -6.336  1.00  0.00     0.029 A 
ATOM     52  C   UNL     1       6.229  13.316  -6.882  1.00  0.00     0.049 A 
ATOM     53  H   UNL     1       5.621  12.941  -8.862  1.00  0.00     0.167 HD
ATOM     54  C   UNL     1       3.928  14.262  -6.769  1.00  0.00     0.074 A 
ATOM     55  C   UNL     1       3.205  13.533  -7.812  1.00  0.00     0.031 C 
ATOM     56  C   UNL     1       5.235  14.237  -6.371  1.00  0.00     0.031 A 
BRANCH  43  57
ATOM     57  C   UNL     1       5.607  10.140  -9.832  1.00  0.00    -0.014 A 
ATOM     58  C   UNL     1       6.267  10.911 -10.812  1.00  0.00     0.010 A 
ATOM     59  C   UNL     1       4.393   9.533 -10.208  1.00  0.00     0.010 A 
ATOM     60  C   UNL     1       5.698  11.128 -12.072  1.00  0.00     0.020 A 
ATOM     61  C   UNL     1       3.839   9.706 -11.478  1.00  0.00     0.020 A 
ATOM     62  C   UNL     1       4.480  10.530 -12.392  1.00  0.00     0.054 A 
BRANCH  62  63
ATOM     63  S   UNL     1       3.718  10.880 -13.993  1.00  0.00     0.124 S 
ATOM     64  O   UNL     1       3.407  12.301 -13.874  1.00  0.00    -0.237 OA
ATOM     65  O   UNL     1       4.791  10.540 -14.923  1.00  0.00    -0.237 OA
ATOM     66  O   UNL     1       2.565   9.983 -14.025  1.00  0.00    -0.744 OA
ENDBRANCH  62  63
ENDBRANCH  43  57
BRANCH  44  67
ATOM     67  C   UNL     1      -0.565  13.952  -5.356  1.00  0.00    -0.014 A 
ATOM     68  C   UNL     1      -1.008  15.117  -6.015  1.00  0.00     0.010 A 
ATOM     69  C   UNL     1      -1.522  12.955  -5.079  1.00  0.00     0.010 A 
ATOM     70  C   UNL     1      -2.337  15.241  -6.457  1.00  0.00     0.020 A 
ATOM     71  C   UNL     1      -2.850  13.074  -5.512  1.00  0.00     0.020 A 
ATOM     72  C   UNL     1      -3.244  14.204  -6.226  1.00  0.00     0.054 A 
BRANCH  72  73
ATOM     73  S   UNL     1      -4.899  14.278  -6.981  1.00  0.00     0.124 S 
ATOM     74  O   UNL     1      -5.551  15.327  -6.203  1.00  0.00    -0.237 OA
ATOM     75  O   UNL     1      -4.601  14.615  -8.371  1.00  0.00    -0.237 OA
ATOM     76  O   UNL     1      -5.431  12.932  -6.776  1.00  0.00    -0.744 OA
ENDBRANCH  72  73
ENDBRANCH  44  67
BRANCH  56  77
ATOM     77  C   UNL     1       5.650  15.093  -5.194  1.00  0.00    -0.014 A 
ATOM     78  C   UNL     1       5.104  15.003  -3.898  1.00  0.00     0.010 A 
ATOM     79  C   UNL     1       6.737  15.961  -5.402  1.00  0.00     0.010 A 
ATOM     80  C   UNL     1       5.607  15.798  -2.854  1.00  0.00     0.020 A 
ATOM     81  C   UNL     1       7.255  16.736  -4.365  1.00  0.00     0.020 A 
ATOM     82  C   UNL     1       6.676  16.666  -3.099  1.00  0.00     0.054 A 
BRANCH  82  83
ATOM     83  S   UNL     1       7.324  17.701  -1.756  1.00  0.00     0.124 S 
ATOM     84  O   UNL     1       6.217  18.619  -1.501  1.00  0.00    -0.237 OA
ATOM     85  O   UNL     1       7.593  16.730  -0.698  1.00  0.00    -0.237 OA
ATOM     86  O   UNL     1       8.516  18.319  -2.335  1.00  0.00    -0.744 OA
ENDBRANCH  82  83
ENDBRANCH  56  77
ENDBRANCH  30  31
ENDBRANCH  22  25
ENDBRANCH  20  21
ENDBRANCH   1  20
TORSDOF 17
