REMARK SMILES O=C(NCCCNC(=O)[C@@H](Cc1ccc(O)cc1)Nc1c2ccccc2nc2ccccc12)c1ccc(-c2c3nc(c(-c4ccc(S(=O)(=O)[O-])cc4)c4ccc([nH]4)c(-c4ccc(S(=O)(=O)[O-])cc4)c4nc(c(-c5ccc(S(=O)(=O)[O-])cc5)c5ccc2[nH]5)C=C4)C=C3)cc1
REMARK SMILES IDX 5 1 4 2 3 3 1 4 2 5 34 7 35 8 93 9 36 10 92 11 37 12 38 13
REMARK SMILES IDX 39 14 86 15 40 16 91 17 85 18 87 19 41 20 90 21 84 22 83 23
REMARK SMILES IDX 42 25 72 26 53 27 71 28 54 29 57 30 70 31 88 32 55 33 56 34
REMARK SMILES IDX 69 36 89 37 58 38 43 39 44 40 52 41 45 42 51 43 46 44 47 45
REMARK SMILES IDX 48 46 49 47 50 48 73 49 74 50 82 51 75 52 81 53 76 54 77 55
REMARK SMILES IDX 78 56 79 57 80 58 59 59 60 60 68 61 61 62 67 63 62 64 63 65
REMARK SMILES IDX 64 66 65 67 66 68 6 69 7 70 8 71 9 73 10 74 11 75 12 76
REMARK SMILES IDX 13 77 18 78 14 79 17 80 15 81 16 82 19 84 20 86 21 87 33 88
REMARK SMILES IDX 22 89 26 90 28 91 32 92 23 93 25 94 27 95 29 96 31 97 24 98
REMARK SMILES IDX 30 99
REMARK H PARENT 3 6 87 24 57 35 7 72 16 83 19 85
REMARK Flexibility Score: inf
ROOT
ATOM      1  C   UNL     1       4.787   0.560  -2.269  1.00  0.00     0.042 C 
ENDROOT
BRANCH   1   2
ATOM      2  C   UNL     1       3.883   1.579  -1.587  1.00  0.00     0.118 C 
BRANCH   2   3
ATOM      3  N   UNL     1       2.666   0.976  -1.067  1.00  0.00    -0.352 N 
ATOM      4  O   UNL     1       1.180  -0.199   0.070  1.00  0.00    -0.269 OA
ATOM      5  C   UNL     1       2.308   0.306   0.077  1.00  0.00     0.251 C 
ATOM      6  H   UNL     1       1.910   1.071  -1.691  1.00  0.00     0.163 HD
BRANCH   5   7
ATOM      7  C   UNL     1       3.156   0.123   1.295  1.00  0.00     0.039 A 
ATOM      8  C   UNL     1       4.279   0.882   1.605  1.00  0.00     0.014 A 
ATOM      9  C   UNL     1       2.733  -0.830   2.246  1.00  0.00     0.014 A 
ATOM     10  C   UNL     1       5.006   0.647   2.778  1.00  0.00     0.010 A 
ATOM     11  C   UNL     1       3.403  -0.998   3.470  1.00  0.00     0.010 A 
ATOM     12  C   UNL     1       4.556  -0.259   3.749  1.00  0.00    -0.014 A 
BRANCH  12  13
ATOM     13  C   UNL     1       5.253  -0.318   5.068  1.00  0.00     0.031 A 
ATOM     14  C   UNL     1       5.913  -1.580   5.559  1.00  0.00     0.074 A 
ATOM     15  C   UNL     1       5.325   0.807   5.812  1.00  0.00     0.049 A 
ATOM     16  N   UNL     1       6.608  -1.770   6.653  1.00  0.00    -0.248 NA
ATOM     17  C   UNL     1       5.772  -2.783   4.725  1.00  0.00     0.031 C 
ATOM     18  C   UNL     1       4.710   2.091   5.458  1.00  0.00     0.029 A 
ATOM     19  N   UNL     1       5.969   1.072   6.996  1.00  0.00    -0.354 N 
ATOM     20  C   UNL     1       6.973  -3.112   6.649  1.00  0.00     0.074 A 
ATOM     21  C   UNL     1       6.397  -3.696   5.457  1.00  0.00     0.031 C 
ATOM     22  C   UNL     1       5.069   3.018   6.355  1.00  0.00     0.029 A 
ATOM     23  C   UNL     1       5.866   2.385   7.398  1.00  0.00     0.049 A 
ATOM     24  H   UNL     1       6.457   0.388   7.509  1.00  0.00     0.167 HD
ATOM     25  C   UNL     1       7.721  -3.792   7.553  1.00  0.00     0.031 A 
ATOM     26  C   UNL     1       6.340   3.016   8.491  1.00  0.00     0.031 A 
ATOM     27  C   UNL     1       8.286  -3.204   8.742  1.00  0.00     0.049 A 
ATOM     28  C   UNL     1       7.135   2.230   9.492  1.00  0.00     0.074 A 
ATOM     29  C   UNL     1       9.078  -3.806   9.706  1.00  0.00     0.029 A 
ATOM     30  N   UNL     1       8.115  -1.885   9.137  1.00  0.00    -0.354 N 
ATOM     31  N   UNL     1       7.494   0.969   9.448  1.00  0.00    -0.248 NA
ATOM     32  C   UNL     1       7.586   2.948  10.691  1.00  0.00     0.031 C 
ATOM     33  C   UNL     1       9.333  -2.869  10.713  1.00  0.00     0.029 A 
ATOM     34  C   UNL     1       8.761  -1.662  10.342  1.00  0.00     0.049 A 
ATOM     35  H   UNL     1       7.609  -1.207   8.634  1.00  0.00     0.167 HD
ATOM     36  C   UNL     1       8.228   0.746  10.606  1.00  0.00     0.074 A 
ATOM     37  C   UNL     1       8.282   2.008  11.316  1.00  0.00     0.031 C 
ATOM     38  C   UNL     1       8.802  -0.402  11.043  1.00  0.00     0.031 A 
BRANCH  25  39
ATOM     39  C   UNL     1       7.949  -5.264   7.311  1.00  0.00    -0.014 A 
ATOM     40  C   UNL     1       8.774  -5.717   6.265  1.00  0.00     0.010 A 
ATOM     41  C   UNL     1       7.368  -6.210   8.176  1.00  0.00     0.010 A 
ATOM     42  C   UNL     1       8.980  -7.086   6.065  1.00  0.00     0.020 A 
ATOM     43  C   UNL     1       7.595  -7.579   7.998  1.00  0.00     0.020 A 
ATOM     44  C   UNL     1       8.387  -8.008   6.932  1.00  0.00     0.054 A 
BRANCH  44  45
ATOM     45  S   UNL     1       8.690  -9.777   6.660  1.00  0.00     0.124 S 
ATOM     46  O   UNL     1       7.917 -10.031   5.447  1.00  0.00    -0.237 OA
ATOM     47  O   UNL     1      10.140  -9.833   6.505  1.00  0.00    -0.237 OA
ATOM     48  O   UNL     1       8.170 -10.409   7.872  1.00  0.00    -0.744 OA
ENDBRANCH  44  45
ENDBRANCH  25  39
BRANCH  26  49
ATOM     49  C   UNL     1       6.045   4.461   8.701  1.00  0.00    -0.014 A 
ATOM     50  C   UNL     1       7.069   5.423   8.657  1.00  0.00     0.010 A 
ATOM     51  C   UNL     1       4.721   4.885   8.927  1.00  0.00     0.010 A 
ATOM     52  C   UNL     1       6.776   6.778   8.847  1.00  0.00     0.020 A 
ATOM     53  C   UNL     1       4.420   6.240   9.082  1.00  0.00     0.020 A 
ATOM     54  C   UNL     1       5.452   7.178   9.053  1.00  0.00     0.054 A 
BRANCH  54  55
ATOM     55  S   UNL     1       5.089   8.945   9.243  1.00  0.00     0.124 S 
ATOM     56  O   UNL     1       5.615   9.222  10.575  1.00  0.00    -0.237 OA
ATOM     57  O   UNL     1       5.828   9.539   8.133  1.00  0.00    -0.237 OA
ATOM     58  O   UNL     1       3.634   9.010   9.117  1.00  0.00    -0.744 OA
ENDBRANCH  54  55
ENDBRANCH  26  49
BRANCH  38  59
ATOM     59  C   UNL     1       9.569  -0.339  12.337  1.00  0.00    -0.014 A 
ATOM     60  C   UNL     1       8.911  -0.187  13.571  1.00  0.00     0.010 A 
ATOM     61  C   UNL     1      10.969  -0.475  12.319  1.00  0.00     0.010 A 
ATOM     62  C   UNL     1       9.643  -0.139  14.760  1.00  0.00     0.020 A 
ATOM     63  C   UNL     1      11.701  -0.459  13.508  1.00  0.00     0.020 A 
ATOM     64  C   UNL     1      11.034  -0.276  14.720  1.00  0.00     0.054 A 
BRANCH  64  65
ATOM     65  S   UNL     1      11.958  -0.251  16.281  1.00  0.00     0.124 S 
ATOM     66  O   UNL     1      11.877   1.158  16.659  1.00  0.00    -0.237 OA
ATOM     67  O   UNL     1      11.194  -1.171  17.119  1.00  0.00    -0.237 OA
ATOM     68  O   UNL     1      13.289  -0.719  15.904  1.00  0.00    -0.744 OA
ENDBRANCH  64  65
ENDBRANCH  38  59
ENDBRANCH  12  13
ENDBRANCH   5   7
ENDBRANCH   2   3
ENDBRANCH   1   2
BRANCH   1  69
ATOM     69  C   UNL     1       4.261   0.005  -3.611  1.00  0.00     0.117 C 
BRANCH  69  70
ATOM     70  N   UNL     1       5.152   0.414  -4.685  1.00  0.00    -0.354 N 
ATOM     71  C   UNL     1       6.147  -0.195  -5.377  1.00  0.00     0.242 C 
ATOM     72  H   UNL     1       4.998   1.342  -4.976  1.00  0.00     0.163 HD
ATOM     73  O   UNL     1       6.978   0.596  -5.855  1.00  0.00    -0.273 OA
BRANCH  71  74
ATOM     74  C   UNL     1       6.319  -1.714  -5.659  1.00  0.00     0.173 C 
BRANCH  74  75
ATOM     75  C   UNL     1       7.039  -2.573  -4.588  1.00  0.00     0.070 C 
BRANCH  75  76
ATOM     76  C   UNL     1       6.247  -3.200  -3.468  1.00  0.00    -0.045 A 
ATOM     77  C   UNL     1       6.021  -2.480  -2.297  1.00  0.00     0.007 A 
ATOM     78  C   UNL     1       5.782  -4.522  -3.532  1.00  0.00     0.007 A 
ATOM     79  C   UNL     1       5.194  -2.979  -1.288  1.00  0.00     0.046 A 
ATOM     80  C   UNL     1       5.014  -5.056  -2.491  1.00  0.00     0.046 A 
ATOM     81  C   UNL     1       4.677  -4.260  -1.406  1.00  0.00     0.115 A 
BRANCH  81  82
ATOM     82  O   UNL     1       3.830  -4.770  -0.469  1.00  0.00    -0.508 OA
ATOM     83  H   UNL     1       3.587  -4.253   0.273  1.00  0.00     0.293 HD
ENDBRANCH  81  82
ENDBRANCH  75  76
ENDBRANCH  74  75
BRANCH  74  84
ATOM     84  N   UNL     1       5.124  -2.348  -6.229  1.00  0.00    -0.372 N 
ATOM     85  H   UNL     1       4.364  -2.467  -5.615  1.00  0.00     0.161 HD
BRANCH  84  86
ATOM     86  C   UNL     1       4.932  -2.806  -7.546  1.00  0.00     0.054 A 
ATOM     87  C   UNL     1       5.955  -3.408  -8.373  1.00  0.00     0.024 A 
ATOM     88  C   UNL     1       3.623  -2.635  -8.117  1.00  0.00     0.024 A 
ATOM     89  C   UNL     1       7.326  -3.634  -8.050  1.00  0.00     0.012 A 
ATOM     90  C   UNL     1       5.561  -3.867  -9.651  1.00  0.00     0.073 A 
ATOM     91  C   UNL     1       3.388  -3.159  -9.404  1.00  0.00     0.073 A 
ATOM     92  C   UNL     1       2.544  -1.949  -7.495  1.00  0.00     0.012 A 
ATOM     93  C   UNL     1       8.242  -4.218  -8.930  1.00  0.00     0.001 A 
ATOM     94  C   UNL     1       6.474  -4.475 -10.505  1.00  0.00     0.029 A 
ATOM     95  N   UNL     1       4.322  -3.766 -10.131  1.00  0.00    -0.248 NA
ATOM     96  C   UNL     1       2.135  -3.044  -9.989  1.00  0.00     0.029 A 
ATOM     97  C   UNL     1       1.294  -1.823  -8.108  1.00  0.00     0.001 A 
ATOM     98  C   UNL     1       7.811  -4.648 -10.167  1.00  0.00     0.002 A 
ATOM     99  C   UNL     1       1.084  -2.384  -9.357  1.00  0.00     0.002 A 
ENDBRANCH  84  86
ENDBRANCH  74  84
ENDBRANCH  71  74
ENDBRANCH  69  70
ENDBRANCH   1  69
TORSDOF 18
