REMARK SMILES CC(C)C[C@H](NC(=O)[C@H](Cc1ccccc1)NC(=O)CNC(=O)CNC(=O)OCc1ccccc1)C(=O)NCCCNC(=O)c1ccc(-c2c3nc(c(-c4ccc(S(=O)(=O)[O-])cc4)c4ccc([nH]4)c(-c4ccc(S(=O)(=O)[O-])cc4)c4nc(c(-c5ccc(S(=O)(=O)[O-])cc5)c5ccc2[nH]5)C=C4)C=C3)cc1
REMARK SMILES IDX 6 1 7 2 8 3 5 5 4 6 2 7 1 8 3 9 36 10 37 11 38 12 39 14
REMARK SMILES IDX 40 15 41 16 42 17 43 18 44 20 45 21 46 22 104 23 47 24
REMARK SMILES IDX 103 25 48 26 49 27 50 28 97 29 51 30 102 31 96 32 98 33
REMARK SMILES IDX 52 34 101 35 95 36 94 37 53 39 83 40 64 41 82 42 65 43 68 44
REMARK SMILES IDX 81 45 99 46 66 47 67 48 80 50 100 51 69 52 54 53 55 54 63 55
REMARK SMILES IDX 56 56 62 57 57 58 58 59 59 60 60 61 61 62 84 63 85 64 93 65
REMARK SMILES IDX 86 66 92 67 87 68 88 69 89 70 90 71 91 72 70 73 71 74 79 75
REMARK SMILES IDX 72 76 78 77 73 78 74 79 75 80 76 81 77 82 9 83 17 84 18 85
REMARK SMILES IDX 19 87 20 88 21 89 22 90 23 92 24 93 25 94 26 95 27 97 28 98
REMARK SMILES IDX 29 99 30 100 31 101 35 102 32 103 34 104 33 105 10 106
REMARK SMILES IDX 11 107 12 108 16 109 13 110 15 111 14 112
REMARK H PARENT 6 4 38 13 42 19 98 38 68 49 17 86 21 91 25 96
REMARK Flexibility Score: inf
ROOT
ATOM      1  N   UNL     1      -5.343  -5.238   5.594  1.00  0.00    -0.343 N 
ATOM      2  C   UNL     1      -4.066  -5.530   5.979  1.00  0.00     0.243 C 
ATOM      3  O   UNL     1      -3.756  -5.586   7.163  1.00  0.00    -0.273 OA
ATOM      4  H   UNL     1      -6.078  -5.554   6.168  1.00  0.00     0.164 HD
ENDROOT
BRANCH   1   5
ATOM      5  C   UNL     1      -5.693  -4.487   4.386  1.00  0.00     0.171 C 
BRANCH   5   6
ATOM      6  C   UNL     1      -5.535  -2.973   4.750  1.00  0.00     0.038 C 
BRANCH   6   7
ATOM      7  C   UNL     1      -4.101  -2.433   4.713  1.00  0.00    -0.015 C 
ATOM      8  C   UNL     1      -3.814  -2.193   3.268  1.00  0.00     0.007 C 
ATOM      9  C   UNL     1      -3.785  -1.158   5.492  1.00  0.00     0.007 C 
ENDBRANCH   6   7
ENDBRANCH   5   6
BRANCH   5  10
ATOM     10  C   UNL     1      -5.580  -5.130   2.871  1.00  0.00     0.242 C 
ATOM     11  O   UNL     1      -6.624  -5.071   2.189  1.00  0.00    -0.273 OA
ATOM     12  N   UNL     1      -4.605  -5.850   2.199  1.00  0.00    -0.354 N 
ATOM     13  H   UNL     1      -4.990  -6.711   1.919  1.00  0.00     0.163 HD
BRANCH  12  14
ATOM     14  C   UNL     1      -3.147  -5.794   1.733  1.00  0.00     0.117 C 
BRANCH  14  15
ATOM     15  C   UNL     1      -1.824  -6.452   2.339  1.00  0.00     0.042 C 
BRANCH  15  16
ATOM     16  C   UNL     1      -0.792  -7.279   1.549  1.00  0.00     0.118 C 
BRANCH  16  17
ATOM     17  N   UNL     1       0.611  -6.786   1.683  1.00  0.00    -0.352 N 
ATOM     18  C   UNL     1       1.784  -7.185   2.307  1.00  0.00     0.251 C 
ATOM     19  H   UNL     1       0.739  -5.943   1.192  1.00  0.00     0.163 HD
ATOM     20  O   UNL     1       2.741  -6.410   2.211  1.00  0.00    -0.269 OA
BRANCH  18  21
ATOM     21  C   UNL     1       1.983  -8.448   3.078  1.00  0.00     0.039 A 
ATOM     22  C   UNL     1       3.089  -8.596   3.941  1.00  0.00     0.014 A 
ATOM     23  C   UNL     1       1.139  -9.534   2.943  1.00  0.00     0.014 A 
ATOM     24  C   UNL     1       3.272  -9.772   4.699  1.00  0.00     0.010 A 
ATOM     25  C   UNL     1       1.231 -10.622   3.806  1.00  0.00     0.010 A 
ATOM     26  C   UNL     1       2.308 -10.786   4.670  1.00  0.00    -0.014 A 
BRANCH  26  27
ATOM     27  C   UNL     1       2.369 -12.019   5.505  1.00  0.00     0.031 A 
ATOM     28  C   UNL     1       2.321 -13.396   4.870  1.00  0.00     0.074 A 
ATOM     29  C   UNL     1       2.318 -11.901   6.848  1.00  0.00     0.049 A 
ATOM     30  N   UNL     1       2.414 -14.572   5.438  1.00  0.00    -0.248 NA
ATOM     31  C   UNL     1       2.073 -13.470   3.417  1.00  0.00     0.031 C 
ATOM     32  C   UNL     1       2.168 -10.641   7.583  1.00  0.00     0.029 A 
ATOM     33  N   UNL     1       2.382 -12.851   7.836  1.00  0.00    -0.354 N 
ATOM     34  C   UNL     1       2.226 -15.507   4.421  1.00  0.00     0.074 A 
ATOM     35  C   UNL     1       1.904 -14.768   3.225  1.00  0.00     0.031 C 
ATOM     36  C   UNL     1       2.211 -10.889   8.902  1.00  0.00     0.029 A 
ATOM     37  C   UNL     1       2.396 -12.321   9.107  1.00  0.00     0.049 A 
ATOM     38  H   UNL     1       2.413 -13.818   7.655  1.00  0.00     0.167 HD
ATOM     39  C   UNL     1       2.365 -16.855   4.461  1.00  0.00     0.031 A 
ATOM     40  C   UNL     1       2.598 -12.916  10.297  1.00  0.00     0.031 A 
ATOM     41  C   UNL     1       2.725 -17.568   5.656  1.00  0.00     0.049 A 
ATOM     42  C   UNL     1       2.915 -14.386  10.310  1.00  0.00     0.074 A 
ATOM     43  C   UNL     1       3.014 -18.911   5.816  1.00  0.00     0.029 A 
ATOM     44  N   UNL     1       2.856 -16.977   6.904  1.00  0.00    -0.354 N 
ATOM     45  N   UNL     1       2.901 -15.239   9.311  1.00  0.00    -0.248 NA
ATOM     46  C   UNL     1       3.333 -14.961  11.594  1.00  0.00     0.031 C 
ATOM     47  C   UNL     1       3.295 -19.135   7.170  1.00  0.00     0.029 A 
ATOM     48  C   UNL     1       3.222 -17.924   7.841  1.00  0.00     0.049 A 
ATOM     49  H   UNL     1       2.710 -16.022   7.094  1.00  0.00     0.167 HD
ATOM     50  C   UNL     1       3.338 -16.447   9.840  1.00  0.00     0.074 A 
ATOM     51  C   UNL     1       3.628 -16.205  11.241  1.00  0.00     0.031 C 
ATOM     52  C   UNL     1       3.489 -17.649   9.229  1.00  0.00     0.031 A 
BRANCH  39  53
ATOM     53  C   UNL     1       2.183 -17.621   3.170  1.00  0.00    -0.014 A 
ATOM     54  C   UNL     1       3.071 -17.439   2.091  1.00  0.00     0.010 A 
ATOM     55  C   UNL     1       1.134 -18.547   3.031  1.00  0.00     0.010 A 
ATOM     56  C   UNL     1       2.882 -18.119   0.885  1.00  0.00     0.020 A 
ATOM     57  C   UNL     1       0.960 -19.257   1.835  1.00  0.00     0.020 A 
ATOM     58  C   UNL     1       1.823 -19.022   0.762  1.00  0.00     0.054 A 
BRANCH  58  59
ATOM     59  S   UNL     1       1.614 -19.906  -0.809  1.00  0.00     0.124 S 
ATOM     60  O   UNL     1       1.076 -18.858  -1.674  1.00  0.00    -0.237 OA
ATOM     61  O   UNL     1       2.974 -20.337  -1.119  1.00  0.00    -0.237 OA
ATOM     62  O   UNL     1       0.682 -20.982  -0.480  1.00  0.00    -0.744 OA
ENDBRANCH  58  59
ENDBRANCH  39  53
BRANCH  40  63
ATOM     63  C   UNL     1       2.660 -12.091  11.536  1.00  0.00    -0.014 A 
ATOM     64  C   UNL     1       3.904 -11.791  12.122  1.00  0.00     0.010 A 
ATOM     65  C   UNL     1       1.493 -11.549  12.103  1.00  0.00     0.010 A 
ATOM     66  C   UNL     1       3.980 -10.979  13.258  1.00  0.00     0.020 A 
ATOM     67  C   UNL     1       1.567 -10.716  13.227  1.00  0.00     0.020 A 
ATOM     68  C   UNL     1       2.810 -10.444  13.802  1.00  0.00     0.054 A 
BRANCH  68  69
ATOM     69  S   UNL     1       2.942  -9.334  15.233  1.00  0.00     0.124 S 
ATOM     70  O   UNL     1       3.229 -10.269  16.317  1.00  0.00    -0.237 OA
ATOM     71  O   UNL     1       4.043  -8.453  14.851  1.00  0.00    -0.237 OA
ATOM     72  O   UNL     1       1.631  -8.692  15.290  1.00  0.00    -0.744 OA
ENDBRANCH  68  69
ENDBRANCH  40  63
BRANCH  52  73
ATOM     73  C   UNL     1       4.006 -18.776  10.077  1.00  0.00    -0.014 A 
ATOM     74  C   UNL     1       3.197 -19.369  11.062  1.00  0.00     0.010 A 
ATOM     75  C   UNL     1       5.314 -19.252   9.875  1.00  0.00     0.010 A 
ATOM     76  C   UNL     1       3.711 -20.381  11.874  1.00  0.00     0.020 A 
ATOM     77  C   UNL     1       5.820 -20.282  10.668  1.00  0.00     0.020 A 
ATOM     78  C   UNL     1       5.023 -20.823  11.679  1.00  0.00     0.054 A 
BRANCH  78  79
ATOM     79  S   UNL     1       5.672 -22.132  12.751  1.00  0.00     0.124 S 
ATOM     80  O   UNL     1       5.978 -21.396  13.974  1.00  0.00    -0.237 OA
ATOM     81  O   UNL     1       4.550 -23.063  12.841  1.00  0.00    -0.237 OA
ATOM     82  O   UNL     1       6.832 -22.634  12.017  1.00  0.00    -0.744 OA
ENDBRANCH  78  79
ENDBRANCH  52  73
ENDBRANCH  26  27
ENDBRANCH  18  21
ENDBRANCH  16  17
ENDBRANCH  15  16
ENDBRANCH  14  15
ENDBRANCH  12  14
ENDBRANCH   5  10
ENDBRANCH   1   5
BRANCH   2  83
ATOM     83  C   UNL     1      -3.162  -5.973   4.840  1.00  0.00     0.175 C 
BRANCH  83  84
ATOM     84  N   UNL     1      -1.785  -5.378   5.014  1.00  0.00    -0.342 N 
ATOM     85  C   UNL     1      -1.205  -4.177   4.602  1.00  0.00     0.240 C 
ATOM     86  H   UNL     1      -1.171  -5.955   5.523  1.00  0.00     0.164 HD
ATOM     87  O   UNL     1      -0.715  -3.537   5.556  1.00  0.00    -0.273 OA
BRANCH  85  88
ATOM     88  C   UNL     1      -0.999  -3.394   3.105  1.00  0.00     0.216 C 
BRANCH  88  89
ATOM     89  N   UNL     1      -1.090  -3.724   1.627  1.00  0.00    -0.346 N 
ATOM     90  C   UNL     1      -1.789  -3.454   0.479  1.00  0.00     0.239 C 
ATOM     91  H   UNL     1      -0.384  -4.375   1.413  1.00  0.00     0.164 HD
ATOM     92  O   UNL     1      -1.552  -4.241  -0.454  1.00  0.00    -0.273 OA
BRANCH  90  93
ATOM     93  C   UNL     1      -2.893  -2.388   0.259  1.00  0.00     0.219 C 
BRANCH  93  94
ATOM     94  N   UNL     1      -4.322  -2.727   0.318  1.00  0.00    -0.312 N 
ATOM     95  C   UNL     1      -5.340  -1.807   0.534  1.00  0.00     0.407 C 
ATOM     96  H   UNL     1      -4.575  -3.671   0.196  1.00  0.00     0.167 HD
ATOM     97  O   UNL     1      -6.508  -2.077   0.414  1.00  0.00    -0.225 OA
BRANCH  95  98
ATOM     98  O   UNL     1      -4.837  -0.617   0.958  1.00  0.00    -0.445 OA
BRANCH  98  99
ATOM     99  C   UNL     1      -5.668   0.470   1.423  1.00  0.00     0.270 C 
BRANCH  99 100
ATOM    100  C   UNL     1      -6.609   0.270   2.601  1.00  0.00    -0.011 A 
ATOM    101  C   UNL     1      -6.239   0.644   3.905  1.00  0.00     0.007 A 
ATOM    102  C   UNL     1      -7.914  -0.196   2.405  1.00  0.00     0.007 A 
ATOM    103  C   UNL     1      -7.124   0.510   4.982  1.00  0.00     0.000 A 
ATOM    104  C   UNL     1      -8.811  -0.305   3.475  1.00  0.00     0.000 A 
ATOM    105  C   UNL     1      -8.414   0.037   4.766  1.00  0.00     0.000 A 
ENDBRANCH  99 100
ENDBRANCH  98  99
ENDBRANCH  95  98
ENDBRANCH  93  94
ENDBRANCH  90  93
ENDBRANCH  88  89
ENDBRANCH  85  88
ENDBRANCH  83  84
BRANCH  83 106
ATOM    106  C   UNL     1      -3.556  -7.588   4.848  1.00  0.00     0.070 C 
BRANCH 106 107
ATOM    107  C   UNL     1      -3.359  -8.655   3.749  1.00  0.00    -0.045 A 
ATOM    108  C   UNL     1      -4.056  -8.665   2.525  1.00  0.00     0.004 A 
ATOM    109  C   UNL     1      -2.459  -9.706   3.938  1.00  0.00     0.004 A 
ATOM    110  C   UNL     1      -3.647  -9.446   1.432  1.00  0.00     0.000 A 
ATOM    111  C   UNL     1      -2.159 -10.596   2.892  1.00  0.00     0.000 A 
ATOM    112  C   UNL     1      -2.669 -10.405   1.613  1.00  0.00     0.000 A 
ENDBRANCH 106 107
ENDBRANCH  83 106
ENDBRANCH   2  83
TORSDOF 27
