REMARK SMILES COc1ccc(C(=O)N[C@H](C(=O)NCCCNC(=O)c2ccc(-c3c4nc(c(-c5ccc(S(=O)(=O)[O-])cc5)c5ccc([nH]5)c(-c5ccc(S(=O)(=O)[O-])cc5)c5nc(c(-c6ccc(S(=O)(=O)[O-])cc6)c6ccc3[nH]6)C=C5)C=C4)cc2)C2=C(C)N=N[C@H]2C)c(F)c1F
REMARK SMILES IDX 15 1 14 2 13 3 11 4 12 5 10 7 9 8 7 9 8 10 6 12 3 13 4 14
REMARK SMILES IDX 89 15 5 16 87 17 90 18 88 19 2 20 1 21 80 22 81 23 85 24
REMARK SMILES IDX 82 25 83 26 84 27 86 28 16 29 17 30 18 31 19 33 20 34 21 35
REMARK SMILES IDX 79 36 22 37 78 38 23 39 24 40 25 41 72 42 26 43 77 44 71 45
REMARK SMILES IDX 73 46 27 47 76 48 70 49 69 50 28 52 58 53 39 54 57 55 40 56
REMARK SMILES IDX 43 57 56 58 74 59 41 60 42 61 55 63 75 64 44 65 29 66 30 67
REMARK SMILES IDX 38 68 31 69 37 70 32 71 33 72 34 73 35 74 36 75 59 76 60 77
REMARK SMILES IDX 68 78 61 79 67 80 62 81 63 82 64 83 65 84 66 85 45 86 46 87
REMARK SMILES IDX 54 88 47 89 53 90 48 91 49 92 50 93 51 94 52 95
REMARK H PARENT 13 6 9 11 17 32 73 51 43 62
REMARK Flexibility Score: inf
ROOT
ATOM      1  C   UNL     1       1.183   4.498  -0.701  1.00  0.00     0.042 C 
ENDROOT
BRANCH   1   2
ATOM      2  C   UNL     1       0.641   5.708  -1.454  1.00  0.00     0.117 C 
BRANCH   2   3
ATOM      3  N   UNL     1       1.251   5.802  -2.769  1.00  0.00    -0.354 N 
ATOM      4  C   UNL     1       0.653   5.765  -3.996  1.00  0.00     0.247 C 
ATOM      5  O   UNL     1       1.355   5.420  -4.947  1.00  0.00    -0.272 OA
ATOM      6  H   UNL     1       2.230   5.906  -2.776  1.00  0.00     0.163 HD
BRANCH   4   7
ATOM      7  C   UNL     1      -0.871   6.040  -4.117  1.00  0.00     0.202 C 
BRANCH   7   8
ATOM      8  N   UNL     1      -1.415   7.187  -3.386  1.00  0.00    -0.336 N 
ATOM      9  C   UNL     1      -0.988   8.465  -3.134  1.00  0.00     0.255 C 
ATOM     10  O   UNL     1      -1.796   9.242  -2.621  1.00  0.00    -0.269 OA
ATOM     11  H   UNL     1      -2.292   6.996  -2.982  1.00  0.00     0.165 HD
BRANCH   9  12
ATOM     12  C   UNL     1       0.406   8.930  -3.280  1.00  0.00     0.078 A 
ATOM     13  C   UNL     1       3.075   9.832  -3.351  1.00  0.00     0.157 A 
ATOM     14  C   UNL     1       2.274  10.117  -2.245  1.00  0.00     0.050 A 
ATOM     15  C   UNL     1       2.510   9.165  -4.439  1.00  0.00     0.201 A 
ATOM     16  C   UNL     1       0.948   9.665  -2.210  1.00  0.00     0.021 A 
ATOM     17  C   UNL     1       1.185   8.738  -4.410  1.00  0.00     0.175 A 
ATOM     18  F   UNL     1       3.251   8.915  -5.529  1.00  0.00    -0.200 F 
ATOM     19  F   UNL     1       0.683   8.147  -5.497  1.00  0.00    -0.203 F 
BRANCH  13  20
ATOM     20  O   UNL     1       4.386  10.200  -3.479  1.00  0.00    -0.494 OA
ATOM     21  C   UNL     1       5.111  10.365  -2.264  1.00  0.00     0.278 C 
ENDBRANCH  13  20
ENDBRANCH   9  12
ENDBRANCH   7   8
BRANCH   7  22
ATOM     22  C   UNL     1      -1.429   5.929  -5.500  1.00  0.00     0.011 C 
ATOM     23  C   UNL     1      -1.602   4.804  -6.211  1.00  0.00     0.064 C 
ATOM     24  C   UNL     1      -1.847   7.025  -6.425  1.00  0.00     0.156 C 
ATOM     25  C   UNL     1      -1.290   3.395  -5.833  1.00  0.00     0.069 C 
ATOM     26  N   UNL     1      -2.100   5.039  -7.467  1.00  0.00    -0.160 NA
ATOM     27  N   UNL     1      -2.256   6.274  -7.649  1.00  0.00    -0.181 NA
ATOM     28  C   UNL     1      -3.043   7.864  -5.994  1.00  0.00     0.040 C 
ENDBRANCH   7  22
ENDBRANCH   4   7
ENDBRANCH   2   3
ENDBRANCH   1   2
BRANCH   1  29
ATOM     29  C   UNL     1       2.662   4.609  -0.349  1.00  0.00     0.118 C 
BRANCH  29  30
ATOM     30  N   UNL     1       2.925   5.619   0.664  1.00  0.00    -0.352 N 
ATOM     31  C   UNL     1       3.751   5.524   1.762  1.00  0.00     0.251 C 
ATOM     32  H   UNL     1       2.454   6.476   0.551  1.00  0.00     0.163 HD
ATOM     33  O   UNL     1       3.763   6.407   2.603  1.00  0.00    -0.269 OA
BRANCH  31  34
ATOM     34  C   UNL     1       4.599   4.320   1.913  1.00  0.00     0.039 A 
ATOM     35  C   UNL     1       4.569   3.618   3.119  1.00  0.00     0.014 A 
ATOM     36  C   UNL     1       5.385   3.870   0.848  1.00  0.00     0.014 A 
ATOM     37  C   UNL     1       5.292   2.429   3.240  1.00  0.00     0.010 A 
ATOM     38  C   UNL     1       6.047   2.651   0.948  1.00  0.00     0.010 A 
ATOM     39  C   UNL     1       6.015   1.922   2.147  1.00  0.00    -0.014 A 
BRANCH  39  40
ATOM     40  C   UNL     1       6.764   0.644   2.242  1.00  0.00     0.031 A 
ATOM     41  C   UNL     1       8.264   0.644   2.116  1.00  0.00     0.074 A 
ATOM     42  C   UNL     1       6.097  -0.519   2.381  1.00  0.00     0.049 A 
ATOM     43  N   UNL     1       9.092  -0.368   2.108  1.00  0.00    -0.248 NA
ATOM     44  C   UNL     1       8.915   1.954   1.950  1.00  0.00     0.031 C 
ATOM     45  C   UNL     1       4.642  -0.658   2.476  1.00  0.00     0.029 A 
ATOM     46  N   UNL     1       6.558  -1.810   2.461  1.00  0.00    -0.354 N 
ATOM     47  C   UNL     1      10.355   0.179   1.917  1.00  0.00     0.074 A 
ATOM     48  C   UNL     1      10.179   1.606   1.761  1.00  0.00     0.031 C 
ATOM     49  C   UNL     1       4.333  -1.957   2.629  1.00  0.00     0.029 A 
ATOM     50  C   UNL     1       5.561  -2.745   2.606  1.00  0.00     0.049 A 
ATOM     51  H   UNL     1       7.514  -2.043   2.419  1.00  0.00     0.167 HD
ATOM     52  C   UNL     1      11.557  -0.445   1.894  1.00  0.00     0.031 A 
ATOM     53  C   UNL     1       5.628  -4.087   2.708  1.00  0.00     0.031 A 
ATOM     54  C   UNL     1      11.732  -1.862   2.064  1.00  0.00     0.049 A 
ATOM     55  C   UNL     1       6.974  -4.759   2.684  1.00  0.00     0.074 A 
ATOM     56  C   UNL     1      12.910  -2.586   2.104  1.00  0.00     0.029 A 
ATOM     57  N   UNL     1      10.697  -2.771   2.229  1.00  0.00    -0.354 N 
ATOM     58  N   UNL     1       8.162  -4.218   2.555  1.00  0.00    -0.248 NA
ATOM     59  C   UNL     1       6.989  -6.220   2.837  1.00  0.00     0.031 C 
ATOM     60  C   UNL     1      12.587  -3.939   2.254  1.00  0.00     0.029 A 
ATOM     61  C   UNL     1      11.209  -4.051   2.360  1.00  0.00     0.049 A 
ATOM     62  H   UNL     1       9.741  -2.541   2.251  1.00  0.00     0.167 HD
ATOM     63  C   UNL     1       9.068  -5.270   2.643  1.00  0.00     0.074 A 
ATOM     64  C   UNL     1       8.290  -6.475   2.845  1.00  0.00     0.031 C 
ATOM     65  C   UNL     1      10.421  -5.239   2.568  1.00  0.00     0.031 A 
BRANCH  52  66
ATOM     66  C   UNL     1      12.776   0.411   1.673  1.00  0.00    -0.014 A 
ATOM     67  C   UNL     1      13.219   1.309   2.662  1.00  0.00     0.010 A 
ATOM     68  C   UNL     1      13.499   0.306   0.471  1.00  0.00     0.010 A 
ATOM     69  C   UNL     1      14.331   2.123   2.433  1.00  0.00     0.020 A 
ATOM     70  C   UNL     1      14.630   1.097   0.250  1.00  0.00     0.020 A 
ATOM     71  C   UNL     1      15.026   2.016   1.225  1.00  0.00     0.054 A 
BRANCH  71  72
ATOM     72  S   UNL     1      16.470   3.080   0.956  1.00  0.00     0.124 S 
ATOM     73  O   UNL     1      15.844   4.375   0.699  1.00  0.00    -0.237 OA
ATOM     74  O   UNL     1      17.189   2.972   2.223  1.00  0.00    -0.237 OA
ATOM     75  O   UNL     1      17.139   2.472  -0.191  1.00  0.00    -0.744 OA
ENDBRANCH  71  72
ENDBRANCH  52  66
BRANCH  53  76
ATOM     76  C   UNL     1       4.381  -4.883   2.873  1.00  0.00    -0.014 A 
ATOM     77  C   UNL     1       4.080  -5.482   4.109  1.00  0.00     0.010 A 
ATOM     78  C   UNL     1       3.482  -5.033   1.802  1.00  0.00     0.010 A 
ATOM     79  C   UNL     1       2.910  -6.232   4.266  1.00  0.00     0.020 A 
ATOM     80  C   UNL     1       2.299  -5.760   1.963  1.00  0.00     0.020 A 
ATOM     81  C   UNL     1       2.026  -6.365   3.192  1.00  0.00     0.054 A 
BRANCH  81  82
ATOM     82  S   UNL     1       0.486  -7.294   3.435  1.00  0.00     0.124 S 
ATOM     83  O   UNL     1       0.962  -8.674   3.437  1.00  0.00    -0.237 OA
ATOM     84  O   UNL     1       0.010  -6.786   4.719  1.00  0.00    -0.237 OA
ATOM     85  O   UNL     1      -0.327  -6.912   2.283  1.00  0.00    -0.744 OA
ENDBRANCH  81  82
ENDBRANCH  53  76
BRANCH  65  86
ATOM     86  C   UNL     1      11.155  -6.540   2.752  1.00  0.00    -0.014 A 
ATOM     87  C   UNL     1      11.158  -7.526   1.751  1.00  0.00     0.010 A 
ATOM     88  C   UNL     1      11.899  -6.750   3.928  1.00  0.00     0.010 A 
ATOM     89  C   UNL     1      11.867  -8.716   1.937  1.00  0.00     0.020 A 
ATOM     90  C   UNL     1      12.631  -7.927   4.105  1.00  0.00     0.020 A 
ATOM     91  C   UNL     1      12.598  -8.909   3.114  1.00  0.00     0.054 A 
BRANCH  91  92
ATOM     92  S   UNL     1      13.547 -10.442   3.313  1.00  0.00     0.124 S 
ATOM     93  O   UNL     1      12.496 -11.412   3.611  1.00  0.00    -0.237 OA
ATOM     94  O   UNL     1      14.191 -10.594   2.011  1.00  0.00    -0.237 OA
ATOM     95  O   UNL     1      14.454 -10.146   4.419  1.00  0.00    -0.744 OA
ENDBRANCH  91  92
ENDBRANCH  65  86
ENDBRANCH  39  40
ENDBRANCH  31  34
ENDBRANCH  29  30
ENDBRANCH   1  29
TORSDOF 17
