REMARK SMILES O=C(NCCCNC(=O)[C@H]1SC=C[C@@H]1S(=O)(=O)NCCC1=c2ccccc2=NC1)c1ccc(-c2c3nc(c(-c4ccc(S(=O)(=O)[O-])cc4)c4ccc([nH]4)c(-c4ccc(S(=O)(=O)[O-])cc4)c4nc(c(-c5ccc(S(=O)(=O)[O-])cc5)c5ccc2[nH]5)C=C4)C=C3)cc1
REMARK SMILES IDX 6 1 5 2 4 3 3 4 1 5 2 6 30 8 31 9 89 10 32 11 88 12 33 13
REMARK SMILES IDX 34 14 35 15 82 16 36 17 87 18 81 19 83 20 37 21 86 22 80 23
REMARK SMILES IDX 79 24 38 26 68 27 49 28 67 29 50 30 53 31 66 32 84 33 51 34
REMARK SMILES IDX 52 35 65 37 85 38 54 39 39 40 40 41 48 42 41 43 47 44 42 45
REMARK SMILES IDX 43 46 44 47 45 48 46 49 69 50 70 51 78 52 71 53 77 54 72 55
REMARK SMILES IDX 73 56 74 57 75 58 76 59 55 60 56 61 64 62 57 63 63 64 58 65
REMARK SMILES IDX 59 66 60 67 61 68 62 69 7 70 8 71 9 73 10 74 11 75 14 76
REMARK SMILES IDX 12 77 13 78 15 79 16 80 17 81 18 82 19 84 20 85 21 86 22 87
REMARK SMILES IDX 29 88 23 89 27 90 28 91 24 92 26 93 25 94
REMARK H PARENT 3 7 83 25 53 36 7 72 18 83
REMARK Flexibility Score: inf
ROOT
ATOM      1  C   UNL     1       4.158  -2.522   2.429  1.00  0.00     0.117 C 
ENDROOT
BRANCH   1   2
ATOM      2  C   UNL     1       4.784  -1.311   1.757  1.00  0.00     0.042 C 
BRANCH   2   3
ATOM      3  C   UNL     1       4.463  -1.241   0.274  1.00  0.00     0.118 C 
BRANCH   3   4
ATOM      4  N   UNL     1       3.029  -1.121   0.047  1.00  0.00    -0.352 N 
ATOM      5  O   UNL     1       1.055  -0.058  -0.008  1.00  0.00    -0.269 OA
ATOM      6  C   UNL     1       2.265  -0.011  -0.209  1.00  0.00     0.251 C 
ATOM      7  H   UNL     1       2.530  -1.969   0.083  1.00  0.00     0.163 HD
BRANCH   6   8
ATOM      8  C   UNL     1       2.882   1.216  -0.755  1.00  0.00     0.039 A 
ATOM      9  C   UNL     1       2.324   2.461  -0.445  1.00  0.00     0.014 A 
ATOM     10  C   UNL     1       3.937   1.134  -1.666  1.00  0.00     0.014 A 
ATOM     11  C   UNL     1       2.821   3.616  -1.054  1.00  0.00     0.010 A 
ATOM     12  C   UNL     1       4.501   2.289  -2.187  1.00  0.00     0.010 A 
ATOM     13  C   UNL     1       3.909   3.534  -1.935  1.00  0.00    -0.014 A 
BRANCH  13  14
ATOM     14  C   UNL     1       4.368   4.691  -2.737  1.00  0.00     0.031 A 
ATOM     15  C   UNL     1       4.242   4.615  -4.238  1.00  0.00     0.074 A 
ATOM     16  C   UNL     1       4.944   5.755  -2.148  1.00  0.00     0.049 A 
ATOM     17  N   UNL     1       4.746   5.406  -5.146  1.00  0.00    -0.248 NA
ATOM     18  C   UNL     1       3.477   3.481  -4.792  1.00  0.00     0.031 C 
ATOM     19  C   UNL     1       5.105   5.938  -0.706  1.00  0.00     0.029 A 
ATOM     20  N   UNL     1       5.516   6.878  -2.694  1.00  0.00    -0.354 N 
ATOM     21  C   UNL     1       4.384   4.852  -6.368  1.00  0.00     0.074 A 
ATOM     22  C   UNL     1       3.665   3.631  -6.095  1.00  0.00     0.031 C 
ATOM     23  C   UNL     1       5.725   7.108  -0.481  1.00  0.00     0.029 A 
ATOM     24  C   UNL     1       6.061   7.729  -1.761  1.00  0.00     0.049 A 
ATOM     25  H   UNL     1       5.535   7.056  -3.662  1.00  0.00     0.167 HD
ATOM     26  C   UNL     1       4.606   5.339  -7.608  1.00  0.00     0.031 A 
ATOM     27  C   UNL     1       6.772   8.865  -1.918  1.00  0.00     0.031 A 
ATOM     28  C   UNL     1       5.266   6.590  -7.860  1.00  0.00     0.049 A 
ATOM     29  C   UNL     1       7.029   9.375  -3.313  1.00  0.00     0.074 A 
ATOM     30  C   UNL     1       5.490   7.199  -9.081  1.00  0.00     0.029 A 
ATOM     31  N   UNL     1       5.783   7.429  -6.886  1.00  0.00    -0.354 N 
ATOM     32  N   UNL     1       6.651   8.857  -4.457  1.00  0.00    -0.248 NA
ATOM     33  C   UNL     1       7.798  10.622  -3.446  1.00  0.00     0.031 C 
ATOM     34  C   UNL     1       6.211   8.369  -8.851  1.00  0.00     0.029 A 
ATOM     35  C   UNL     1       6.353   8.537  -7.482  1.00  0.00     0.049 A 
ATOM     36  H   UNL     1       5.749   7.261  -5.917  1.00  0.00     0.167 HD
ATOM     37  C   UNL     1       7.107   9.728  -5.441  1.00  0.00     0.074 A 
ATOM     38  C   UNL     1       7.780  10.813  -4.760  1.00  0.00     0.031 C 
ATOM     39  C   UNL     1       6.984   9.632  -6.786  1.00  0.00     0.031 A 
BRANCH  26  40
ATOM     40  C   UNL     1       4.104   4.570  -8.800  1.00  0.00    -0.014 A 
ATOM     41  C   UNL     1       5.025   4.068  -9.740  1.00  0.00     0.010 A 
ATOM     42  C   UNL     1       2.729   4.513  -9.090  1.00  0.00     0.010 A 
ATOM     43  C   UNL     1       4.586   3.593 -10.977  1.00  0.00     0.020 A 
ATOM     44  C   UNL     1       2.284   4.006 -10.313  1.00  0.00     0.020 A 
ATOM     45  C   UNL     1       3.219   3.586 -11.263  1.00  0.00     0.054 A 
BRANCH  45  46
ATOM     46  S   UNL     1       2.678   3.073 -12.916  1.00  0.00     0.124 S 
ATOM     47  O   UNL     1       3.136   4.181 -13.748  1.00  0.00    -0.237 OA
ATOM     48  O   UNL     1       3.384   1.808 -13.102  1.00  0.00    -0.237 OA
ATOM     49  O   UNL     1       1.227   2.952 -12.781  1.00  0.00    -0.744 OA
ENDBRANCH  45  46
ENDBRANCH  26  40
BRANCH  27  50
ATOM     50  C   UNL     1       7.277   9.587  -0.715  1.00  0.00    -0.014 A 
ATOM     51  C   UNL     1       8.223   8.982   0.135  1.00  0.00     0.010 A 
ATOM     52  C   UNL     1       6.772  10.854  -0.373  1.00  0.00     0.010 A 
ATOM     53  C   UNL     1       8.613   9.602   1.325  1.00  0.00     0.020 A 
ATOM     54  C   UNL     1       7.189  11.497   0.798  1.00  0.00     0.020 A 
ATOM     55  C   UNL     1       8.085  10.852   1.654  1.00  0.00     0.054 A 
BRANCH  55  56
ATOM     56  S   UNL     1       8.582  11.619   3.221  1.00  0.00     0.124 S 
ATOM     57  O   UNL     1       7.845  10.816   4.193  1.00  0.00    -0.237 OA
ATOM     58  O   UNL     1      10.030  11.433   3.221  1.00  0.00    -0.237 OA
ATOM     59  O   UNL     1       8.134  13.002   3.083  1.00  0.00    -0.744 OA
ENDBRANCH  55  56
ENDBRANCH  27  50
BRANCH  39  60
ATOM     60  C   UNL     1       7.553  10.722  -7.657  1.00  0.00    -0.014 A 
ATOM     61  C   UNL     1       6.679  11.499  -8.444  1.00  0.00     0.010 A 
ATOM     62  C   UNL     1       8.937  10.807  -7.879  1.00  0.00     0.010 A 
ATOM     63  C   UNL     1       7.174  12.277  -9.492  1.00  0.00     0.020 A 
ATOM     64  C   UNL     1       9.438  11.613  -8.905  1.00  0.00     0.020 A 
ATOM     65  C   UNL     1       8.550  12.309  -9.730  1.00  0.00     0.054 A 
BRANCH  65  66
ATOM     66  S   UNL     1       9.161  13.221 -11.174  1.00  0.00     0.124 S 
ATOM     67  O   UNL     1       8.715  12.380 -12.281  1.00  0.00    -0.237 OA
ATOM     68  O   UNL     1       8.483  14.509 -11.047  1.00  0.00    -0.237 OA
ATOM     69  O   UNL     1      10.607  13.264 -10.967  1.00  0.00    -0.744 OA
ENDBRANCH  65  66
ENDBRANCH  39  60
ENDBRANCH  13  14
ENDBRANCH   6   8
ENDBRANCH   3   4
ENDBRANCH   2   3
ENDBRANCH   1   2
BRANCH   1  70
ATOM     70  N   UNL     1       4.863  -3.747   2.091  1.00  0.00    -0.355 N 
ATOM     71  C   UNL     1       5.598  -4.642   2.786  1.00  0.00     0.235 C 
ATOM     72  H   UNL     1       4.787  -3.978   1.136  1.00  0.00     0.163 HD
ATOM     73  O   UNL     1       6.130  -5.521   2.087  1.00  0.00    -0.274 OA
BRANCH  71  74
ATOM     74  C   UNL     1       5.870  -4.665   4.288  1.00  0.00     0.163 C 
ATOM     75  S   UNL     1       4.880  -3.583   5.364  1.00  0.00    -0.119 SA
ATOM     76  C   UNL     1       5.541  -6.081   4.782  1.00  0.00     0.170 C 
ATOM     77  C   UNL     1       3.680  -4.795   5.609  1.00  0.00     0.038 C 
ATOM     78  C   UNL     1       4.114  -6.019   5.297  1.00  0.00     0.002 C 
BRANCH  76  79
ATOM     79  S   UNL     1       6.603  -6.606   6.153  1.00  0.00     0.219 S 
ATOM     80  O   UNL     1       6.901  -5.496   7.031  1.00  0.00    -0.212 OA
ATOM     81  O   UNL     1       6.061  -7.830   6.705  1.00  0.00    -0.212 OA
BRANCH  79  82
ATOM     82  N   UNL     1       8.039  -7.090   5.459  1.00  0.00    -0.214 NA
ATOM     83  H   UNL     1       7.786  -7.834   4.810  1.00  0.00     0.141 HD
BRANCH  82  84
ATOM     84  C   UNL     1       8.963  -6.226   4.717  1.00  0.00     0.103 C 
BRANCH  84  85
ATOM     85  C   UNL     1       9.420  -4.939   5.413  1.00  0.00     0.050 C 
BRANCH  85  86
ATOM     86  C   UNL     1      10.348  -5.120   6.571  1.00  0.00    -0.038 C 
ATOM     87  C   UNL     1      11.627  -4.763   6.647  1.00  0.00     0.001 A 
ATOM     88  C   UNL     1       9.875  -5.657   7.890  1.00  0.00     0.174 C 
ATOM     89  C   UNL     1      12.564  -4.146   5.764  1.00  0.00     0.010 A 
ATOM     90  C   UNL     1      11.991  -5.137   8.023  1.00  0.00     0.065 A 
ATOM     91  N   UNL     1      11.072  -5.663   8.771  1.00  0.00    -0.280 NA
ATOM     92  C   UNL     1      13.814  -3.927   6.202  1.00  0.00     0.001 A 
ATOM     93  C   UNL     1      13.390  -4.883   8.426  1.00  0.00     0.028 A 
ATOM     94  C   UNL     1      14.227  -4.312   7.542  1.00  0.00     0.002 A 
ENDBRANCH  85  86
ENDBRANCH  84  85
ENDBRANCH  82  84
ENDBRANCH  79  82
ENDBRANCH  76  79
ENDBRANCH  71  74
ENDBRANCH   1  70
TORSDOF 18
