REMARK SMILES Cc1cc(C)c2c(c1)C=C(C(=O)NCCCNC(=O)c1ccc(-c3c4nc(c(-c5ccc(S(=O)(=O)[O-])cc5)c5ccc([nH]5)c(-c5ccc(S(=O)(=O)[O-])cc5)c5nc(c(-c6ccc(S(=O)(=O)[O-])cc6)c6ccc3[nH]6)C=C5)C=C4)cc1)[C@@H](C(F)(F)F)O2
REMARK SMILES IDX 16 1 15 2 14 3 13 4 11 5 12 6 10 8 1 9 2 10 3 11 8 12 4 13
REMARK SMILES IDX 7 14 5 15 6 16 9 17 85 18 80 19 81 20 82 21 83 22 84 23
REMARK SMILES IDX 17 24 18 25 19 27 20 28 21 29 79 30 22 31 78 32 23 33 24 34
REMARK SMILES IDX 25 35 72 36 26 37 77 38 71 39 73 40 27 41 76 42 70 43 69 44
REMARK SMILES IDX 28 46 58 47 39 48 57 49 40 50 43 51 56 52 74 53 41 54 42 55
REMARK SMILES IDX 55 57 75 58 44 59 29 60 30 61 38 62 31 63 37 64 32 65 33 66
REMARK SMILES IDX 34 67 35 68 36 69 59 70 60 71 68 72 61 73 67 74 62 75 63 76
REMARK SMILES IDX 64 77 65 78 66 79 45 80 46 81 54 82 47 83 53 84 48 85 49 86
REMARK SMILES IDX 50 87 51 88 52 89
REMARK H PARENT 13 7 17 26 73 45 43 56
REMARK Flexibility Score: inf
ROOT
ATOM      1  C   UNL     1      -1.875  -5.610   9.443  1.00  0.00     0.118 C 
ENDROOT
BRANCH   1   2
ATOM      2  C   UNL     1      -1.368  -5.668   8.008  1.00  0.00     0.042 C 
BRANCH   2   3
ATOM      3  C   UNL     1      -2.397  -5.149   7.016  1.00  0.00     0.118 C 
BRANCH   3   4
ATOM      4  N   UNL     1      -2.439  -3.694   6.981  1.00  0.00    -0.352 N 
ATOM      5  C   UNL     1      -2.066  -2.711   6.130  1.00  0.00     0.251 C 
ATOM      6  O   UNL     1      -2.320  -1.562   6.507  1.00  0.00    -0.270 OA
ATOM      7  H   UNL     1      -2.849  -3.327   7.797  1.00  0.00     0.163 HD
BRANCH   5   8
ATOM      8  C   UNL     1      -1.396  -2.926   4.814  1.00  0.00     0.067 C 
ATOM      9  C   UNL     1       0.906   0.194  -0.015  1.00  0.00     0.044 C 
ATOM     10  C   UNL     1       0.582  -0.995   0.840  1.00  0.00    -0.050 A 
ATOM     11  C   UNL     1       0.974  -2.275   0.422  1.00  0.00     0.010 A 
ATOM     12  C   UNL     1      -0.077  -0.844   2.068  1.00  0.00     0.015 A 
ATOM     13  C   UNL     1       0.715  -3.399   1.214  1.00  0.00    -0.008 A 
ATOM     14  C   UNL     1      -0.347  -1.958   2.867  1.00  0.00     0.018 A 
ATOM     15  C   UNL     1       1.141  -4.769   0.769  1.00  0.00     0.048 C 
ATOM     16  C   UNL     1       0.051  -3.225   2.434  1.00  0.00     0.130 A 
ATOM     17  C   UNL     1      -0.997  -1.817   4.166  1.00  0.00     0.025 C 
ATOM     18  O   UNL     1      -0.138  -4.343   3.196  1.00  0.00    -0.475 OA
ATOM     19  C   UNL     1      -1.184  -4.277   4.195  1.00  0.00     0.314 C 
BRANCH  19  20
ATOM     20  C   UNL     1      -2.479  -4.870   3.608  1.00  0.00     0.429 C 
ATOM     21  F   UNL     1      -2.344  -6.206   3.413  1.00  0.00    -0.167 F 
ATOM     22  F   UNL     1      -3.546  -4.712   4.429  1.00  0.00    -0.167 F 
ATOM     23  F   UNL     1      -2.819  -4.320   2.421  1.00  0.00    -0.167 F 
ENDBRANCH  19  20
ENDBRANCH   5   8
ENDBRANCH   3   4
ENDBRANCH   2   3
ENDBRANCH   1   2
BRANCH   1  24
ATOM     24  N   UNL     1      -3.031  -6.482   9.644  1.00  0.00    -0.352 N 
ATOM     25  C   UNL     1      -3.125  -7.692  10.282  1.00  0.00     0.251 C 
ATOM     26  H   UNL     1      -3.874  -6.149   9.260  1.00  0.00     0.163 HD
ATOM     27  O   UNL     1      -4.110  -8.404  10.094  1.00  0.00    -0.269 OA
BRANCH  25  28
ATOM     28  C   UNL     1      -2.048  -8.134  11.188  1.00  0.00     0.039 A 
ATOM     29  C   UNL     1      -1.655  -9.475  11.188  1.00  0.00     0.014 A 
ATOM     30  C   UNL     1      -1.442  -7.223  12.055  1.00  0.00     0.014 A 
ATOM     31  C   UNL     1      -0.607  -9.883  12.015  1.00  0.00     0.010 A 
ATOM     32  C   UNL     1      -0.336  -7.607  12.799  1.00  0.00     0.010 A 
ATOM     33  C   UNL     1       0.083  -8.944  12.800  1.00  0.00    -0.014 A 
BRANCH  33  34
ATOM     34  C   UNL     1       1.226  -9.341  13.656  1.00  0.00     0.031 A 
ATOM     35  C   UNL     1       1.132  -9.176  15.149  1.00  0.00     0.074 A 
ATOM     36  C   UNL     1       2.359  -9.796  13.085  1.00  0.00     0.049 A 
ATOM     37  N   UNL     1       2.039  -9.412  16.060  1.00  0.00    -0.248 NA
ATOM     38  C   UNL     1      -0.136  -8.653  15.689  1.00  0.00     0.031 C 
ATOM     39  C   UNL     1       2.578  -9.958  11.645  1.00  0.00     0.029 A 
ATOM     40  N   UNL     1       3.541 -10.207  13.647  1.00  0.00    -0.354 N 
ATOM     41  C   UNL     1       1.458  -9.058  17.271  1.00  0.00     0.074 A 
ATOM     42  C   UNL     1       0.145  -8.532  16.978  1.00  0.00     0.031 C 
ATOM     43  C   UNL     1       3.801 -10.474  11.442  1.00  0.00     0.029 A 
ATOM     44  C   UNL     1       4.470 -10.637  12.728  1.00  0.00     0.049 A 
ATOM     45  H   UNL     1       3.709 -10.195  14.617  1.00  0.00     0.167 HD
ATOM     46  C   UNL     1       1.960  -9.190  18.521  1.00  0.00     0.031 A 
ATOM     47  C   UNL     1       5.718 -11.111  12.904  1.00  0.00     0.031 A 
ATOM     48  C   UNL     1       3.256  -9.739  18.807  1.00  0.00     0.049 A 
ATOM     49  C   UNL     1       6.260 -11.230  14.303  1.00  0.00     0.074 A 
ATOM     50  C   UNL     1       3.840  -9.962  20.041  1.00  0.00     0.029 A 
ATOM     51  N   UNL     1       4.166 -10.158  17.849  1.00  0.00    -0.354 N 
ATOM     52  N   UNL     1       5.672 -10.941  15.440  1.00  0.00    -0.248 NA
ATOM     53  C   UNL     1       7.629 -11.745  14.445  1.00  0.00     0.031 C 
ATOM     54  C   UNL     1       5.124 -10.469  19.828  1.00  0.00     0.029 A 
ATOM     55  C   UNL     1       5.317 -10.618  18.463  1.00  0.00     0.049 A 
ATOM     56  H   UNL     1       4.016 -10.132  16.876  1.00  0.00     0.167 HD
ATOM     57  C   UNL     1       6.591 -11.261  16.433  1.00  0.00     0.074 A 
ATOM     58  C   UNL     1       7.766 -11.781  15.764  1.00  0.00     0.031 C 
ATOM     59  C   UNL     1       6.473 -11.135  17.777  1.00  0.00     0.031 A 
BRANCH  46  60
ATOM     60  C   UNL     1       1.098  -8.754  19.675  1.00  0.00    -0.014 A 
ATOM     61  C   UNL     1      -0.044  -9.491  20.039  1.00  0.00     0.010 A 
ATOM     62  C   UNL     1       1.469  -7.639  20.448  1.00  0.00     0.010 A 
ATOM     63  C   UNL     1      -0.812  -9.108  21.141  1.00  0.00     0.020 A 
ATOM     64  C   UNL     1       0.719  -7.270  21.569  1.00  0.00     0.020 A 
ATOM     65  C   UNL     1      -0.422  -8.003  21.902  1.00  0.00     0.054 A 
BRANCH  65  66
ATOM     66  S   UNL     1      -1.409  -7.567  23.360  1.00  0.00     0.124 S 
ATOM     67  O   UNL     1      -2.646  -7.082  22.753  1.00  0.00    -0.237 OA
ATOM     68  O   UNL     1      -1.513  -8.841  24.066  1.00  0.00    -0.237 OA
ATOM     69  O   UNL     1      -0.607  -6.548  24.032  1.00  0.00    -0.744 OA
ENDBRANCH  65  66
ENDBRANCH  46  60
BRANCH  47  70
ATOM     70  C   UNL     1       6.530 -11.529  11.728  1.00  0.00    -0.014 A 
ATOM     71  C   UNL     1       6.817 -12.887  11.508  1.00  0.00     0.010 A 
ATOM     72  C   UNL     1       7.009 -10.573  10.813  1.00  0.00     0.010 A 
ATOM     73  C   UNL     1       7.583 -13.282  10.407  1.00  0.00     0.020 A 
ATOM     74  C   UNL     1       7.752 -10.966   9.695  1.00  0.00     0.020 A 
ATOM     75  C   UNL     1       8.043 -12.318   9.506  1.00  0.00     0.054 A 
BRANCH  75  76
ATOM     76  S   UNL     1       8.999 -12.860   8.062  1.00  0.00     0.124 S 
ATOM     77  O   UNL     1      10.259 -13.277   8.670  1.00  0.00    -0.237 OA
ATOM     78  O   UNL     1       8.170 -13.934   7.522  1.00  0.00    -0.237 OA
ATOM     79  O   UNL     1       9.072 -11.661   7.230  1.00  0.00    -0.744 OA
ENDBRANCH  75  76
ENDBRANCH  47  70
BRANCH  59  80
ATOM     80  C   UNL     1       7.633 -11.581  18.625  1.00  0.00    -0.014 A 
ATOM     81  C   UNL     1       8.810 -10.817  18.698  1.00  0.00     0.010 A 
ATOM     82  C   UNL     1       7.501 -12.725  19.434  1.00  0.00     0.010 A 
ATOM     83  C   UNL     1       9.842 -11.198  19.558  1.00  0.00     0.020 A 
ATOM     84  C   UNL     1       8.520 -13.092  20.315  1.00  0.00     0.020 A 
ATOM     85  C   UNL     1       9.688 -12.329  20.366  1.00  0.00     0.054 A 
BRANCH  85  86
ATOM     86  S   UNL     1      11.015 -12.755  21.526  1.00  0.00     0.124 S 
ATOM     87  O   UNL     1      12.070 -13.213  20.626  1.00  0.00    -0.237 OA
ATOM     88  O   UNL     1      11.271 -11.483  22.198  1.00  0.00    -0.237 OA
ATOM     89  O   UNL     1      10.422 -13.791  22.369  1.00  0.00    -0.744 OA
ENDBRANCH  85  86
ENDBRANCH  59  80
ENDBRANCH  33  34
ENDBRANCH  25  28
ENDBRANCH   1  24
TORSDOF 14
