REMARK SMILES Cn1c(C[NH+]2CCC3(CC2)NC(=O)C[C@@H]3C(=O)NCCCNC(=O)c2ccc(-c3c4nc(c(-c5ccc(S(=O)(=O)[O-])cc5)c5ccc([nH]5)c(-c5ccc(S(=O)(=O)[O-])cc5)c5nc(c(-c6ccc(S(=O)(=O)[O-])cc6)c6ccc3[nH]6)C=C5)C=C4)cc2)nc2ccccc21
REMARK SMILES IDX 20 1 19 2 18 3 16 4 17 5 15 7 5 8 6 9 10 10 7 12 9 13 8 14
REMARK SMILES IDX 11 15 12 16 14 18 13 19 4 20 3 21 1 22 2 23 91 24 85 25
REMARK SMILES IDX 86 26 90 27 87 28 89 29 88 30 21 31 22 32 23 33 24 35 25 36
REMARK SMILES IDX 26 37 84 38 27 39 83 40 28 41 29 42 30 43 77 44 31 45 82 46
REMARK SMILES IDX 76 47 78 48 32 49 81 50 75 51 74 52 33 54 63 55 44 56 62 57
REMARK SMILES IDX 45 58 48 59 61 60 79 61 46 62 47 63 60 65 80 66 49 67 34 68
REMARK SMILES IDX 35 69 43 70 36 71 42 72 37 73 38 74 39 75 40 76 41 77 64 78
REMARK SMILES IDX 65 79 73 80 66 81 72 82 67 83 68 84 69 85 70 86 71 87 50 88
REMARK SMILES IDX 51 89 59 90 52 91 58 92 53 93 54 94 55 95 56 96 57 97
REMARK H PARENT 18 6 5 11 11 17 22 34 78 53 48 64
REMARK Flexibility Score: inf
ROOT
ATOM      1  C   UNL     1      -4.287  -5.642  -2.863  1.00  0.00     0.042 C 
ENDROOT
BRANCH   1   2
ATOM      2  C   UNL     1      -3.171  -5.295  -3.854  1.00  0.00     0.117 C 
BRANCH   2   3
ATOM      3  N   UNL     1      -3.278  -3.966  -4.440  1.00  0.00    -0.356 N 
ATOM      4  C   UNL     1      -2.357  -2.988  -4.647  1.00  0.00     0.226 C 
ATOM      5  O   UNL     1      -2.701  -2.045  -5.363  1.00  0.00    -0.275 OA
ATOM      6  H   UNL     1      -4.185  -3.733  -4.743  1.00  0.00     0.163 HD
BRANCH   4   7
ATOM      7  C   UNL     1      -0.986  -3.041  -4.001  1.00  0.00     0.114 C 
ATOM      8  N   UNL     1      -3.181  -1.925  -0.839  1.00  0.00    -0.328 N 
ATOM      9  C   UNL     1      -3.107  -1.132  -2.058  1.00  0.00     0.265 C 
ATOM     10  C   UNL     1      -2.386  -3.142  -0.888  1.00  0.00     0.265 C 
ATOM     11  H   UNL     1      -4.154  -2.230  -0.839  1.00  0.00     0.348 HD
ATOM     12  C   UNL     1      -1.698  -0.923  -2.620  1.00  0.00     0.091 C 
ATOM     13  C   UNL     1      -0.970  -3.057  -1.434  1.00  0.00     0.091 C 
ATOM     14  C   UNL     1      -0.831  -2.199  -2.698  1.00  0.00     0.063 C 
ATOM     15  N   UNL     1       0.567  -1.785  -2.788  1.00  0.00    -0.349 N 
ATOM     16  C   UNL     1       1.118  -1.896  -4.037  1.00  0.00     0.221 C 
ATOM     17  H   UNL     1       1.073  -1.452  -2.012  1.00  0.00     0.164 HD
ATOM     18  C   UNL     1       0.075  -2.456  -4.957  1.00  0.00     0.116 C 
ATOM     19  O   UNL     1       2.248  -1.566  -4.340  1.00  0.00    -0.275 OA
BRANCH   8  20
ATOM     20  C   UNL     1      -3.129  -1.202   0.442  1.00  0.00     0.339 C 
BRANCH  20  21
ATOM     21  C   UNL     1      -1.800  -0.585   0.744  1.00  0.00     0.165 A 
ATOM     22  C   UNL     1      -2.336   1.820   0.160  1.00  0.00     0.152 C 
ATOM     23  N   UNL     1      -1.459   0.730   0.511  1.00  0.00    -0.326 N 
ATOM     24  C   UNL     1      -0.082   0.798   0.470  1.00  0.00     0.068 A 
ATOM     25  N   UNL     1      -0.739  -1.268   1.135  1.00  0.00    -0.227 NA
ATOM     26  C   UNL     1       0.332  -0.471   0.854  1.00  0.00     0.089 A 
ATOM     27  C   UNL     1       0.818   1.797   0.085  1.00  0.00     0.028 A 
ATOM     28  C   UNL     1       1.693  -0.803   0.825  1.00  0.00     0.030 A 
ATOM     29  C   UNL     1       2.172   1.442   0.035  1.00  0.00     0.002 A 
ATOM     30  C   UNL     1       2.604   0.161   0.386  1.00  0.00     0.002 A 
ENDBRANCH  20  21
ENDBRANCH   8  20
ENDBRANCH   4   7
ENDBRANCH   2   3
ENDBRANCH   1   2
BRANCH   1  31
ATOM     31  C   UNL     1      -5.700  -5.333  -3.328  1.00  0.00     0.118 C 
BRANCH  31  32
ATOM     32  N   UNL     1      -6.209  -6.366  -4.207  1.00  0.00    -0.352 N 
ATOM     33  C   UNL     1      -7.094  -7.379  -3.924  1.00  0.00     0.251 C 
ATOM     34  H   UNL     1      -5.875  -6.339  -5.133  1.00  0.00     0.163 HD
ATOM     35  O   UNL     1      -7.175  -8.333  -4.693  1.00  0.00    -0.269 OA
BRANCH  33  36
ATOM     36  C   UNL     1      -7.928  -7.338  -2.697  1.00  0.00     0.039 A 
ATOM     37  C   UNL     1      -8.161  -8.526  -2.000  1.00  0.00     0.014 A 
ATOM     38  C   UNL     1      -8.517  -6.151  -2.252  1.00  0.00     0.014 A 
ATOM     39  C   UNL     1      -8.942  -8.514  -0.839  1.00  0.00     0.010 A 
ATOM     40  C   UNL     1      -9.213  -6.122  -1.044  1.00  0.00     0.010 A 
ATOM     41  C   UNL     1      -9.452  -7.306  -0.332  1.00  0.00    -0.014 A 
BRANCH  41  42
ATOM     42  C   UNL     1     -10.255  -7.271   0.921  1.00  0.00     0.031 A 
ATOM     43  C   UNL     1     -11.686  -6.798   0.893  1.00  0.00     0.074 A 
ATOM     44  C   UNL     1      -9.690  -7.629   2.091  1.00  0.00     0.049 A 
ATOM     45  N   UNL     1     -12.530  -6.663   1.885  1.00  0.00    -0.248 NA
ATOM     46  C   UNL     1     -12.236  -6.404  -0.415  1.00  0.00     0.031 C 
ATOM     47  C   UNL     1      -8.306  -8.079   2.262  1.00  0.00     0.029 A 
ATOM     48  N   UNL     1     -10.210  -7.673   3.362  1.00  0.00    -0.354 N 
ATOM     49  C   UNL     1     -13.700  -6.163   1.325  1.00  0.00     0.074 A 
ATOM     50  C   UNL     1     -13.440  -5.960  -0.083  1.00  0.00     0.031 C 
ATOM     51  C   UNL     1      -8.101  -8.392   3.551  1.00  0.00     0.029 A 
ATOM     52  C   UNL     1      -9.317  -8.118   4.310  1.00  0.00     0.049 A 
ATOM     53  H   UNL     1     -11.134  -7.411   3.574  1.00  0.00     0.167 HD
ATOM     54  C   UNL     1     -14.893  -5.917   1.919  1.00  0.00     0.031 A 
ATOM     55  C   UNL     1      -9.457  -8.284   5.640  1.00  0.00     0.031 A 
ATOM     56  C   UNL     1     -15.154  -6.123   3.320  1.00  0.00     0.049 A 
ATOM     57  C   UNL     1     -10.780  -7.968   6.284  1.00  0.00     0.074 A 
ATOM     58  C   UNL     1     -16.340  -5.939   4.009  1.00  0.00     0.029 A 
ATOM     59  N   UNL     1     -14.218  -6.559   4.245  1.00  0.00    -0.354 N 
ATOM     60  N   UNL     1     -11.888  -7.541   5.726  1.00  0.00    -0.248 NA
ATOM     61  C   UNL     1     -10.873  -8.166   7.737  1.00  0.00     0.031 C 
ATOM     62  C   UNL     1     -16.105  -6.205   5.362  1.00  0.00     0.029 A 
ATOM     63  C   UNL     1     -14.792  -6.625   5.504  1.00  0.00     0.049 A 
ATOM     64  H   UNL     1     -13.283  -6.787   4.039  1.00  0.00     0.167 HD
ATOM     65  C   UNL     1     -12.820  -7.452   6.755  1.00  0.00     0.074 A 
ATOM     66  C   UNL     1     -12.149  -7.883   7.965  1.00  0.00     0.031 C 
ATOM     67  C   UNL     1     -14.115  -7.053   6.702  1.00  0.00     0.031 A 
BRANCH  54  68
ATOM     68  C   UNL     1     -16.011  -5.392   1.054  1.00  0.00    -0.014 A 
ATOM     69  C   UNL     1     -16.611  -6.201   0.070  1.00  0.00     0.010 A 
ATOM     70  C   UNL     1     -16.505  -4.090   1.257  1.00  0.00     0.010 A 
ATOM     71  C   UNL     1     -17.652  -5.706  -0.718  1.00  0.00     0.020 A 
ATOM     72  C   UNL     1     -17.569  -3.602   0.493  1.00  0.00     0.020 A 
ATOM     73  C   UNL     1     -18.125  -4.408  -0.502  1.00  0.00     0.054 A 
BRANCH  73  74
ATOM     74  S   UNL     1     -19.498  -3.804  -1.522  1.00  0.00     0.124 S 
ATOM     75  O   UNL     1     -18.857  -3.645  -2.825  1.00  0.00    -0.237 OA
ATOM     76  O   UNL     1     -20.468  -4.891  -1.427  1.00  0.00    -0.237 OA
ATOM     77  O   UNL     1     -19.895  -2.559  -0.869  1.00  0.00    -0.744 OA
ENDBRANCH  73  74
ENDBRANCH  54  68
BRANCH  55  78
ATOM     78  C   UNL     1      -8.316  -8.792   6.451  1.00  0.00    -0.014 A 
ATOM     79  C   UNL     1      -8.366 -10.072   7.032  1.00  0.00     0.010 A 
ATOM     80  C   UNL     1      -7.166  -8.003   6.640  1.00  0.00     0.010 A 
ATOM     81  C   UNL     1      -7.298 -10.545   7.800  1.00  0.00     0.020 A 
ATOM     82  C   UNL     1      -6.083  -8.486   7.380  1.00  0.00     0.020 A 
ATOM     83  C   UNL     1      -6.161  -9.750   7.965  1.00  0.00     0.054 A 
BRANCH  83  84
ATOM     84  S   UNL     1      -4.767 -10.409   8.922  1.00  0.00     0.124 S 
ATOM     85  O   UNL     1      -5.294 -10.385  10.283  1.00  0.00    -0.237 OA
ATOM     86  O   UNL     1      -4.584 -11.735   8.337  1.00  0.00    -0.237 OA
ATOM     87  O   UNL     1      -3.688  -9.461   8.651  1.00  0.00    -0.744 OA
ENDBRANCH  83  84
ENDBRANCH  55  78
BRANCH  67  88
ATOM     88  C   UNL     1     -14.911  -7.100   7.980  1.00  0.00    -0.014 A 
ATOM     89  C   UNL     1     -14.665  -6.199   9.032  1.00  0.00     0.010 A 
ATOM     90  C   UNL     1     -15.962  -8.028   8.106  1.00  0.00     0.010 A 
ATOM     91  C   UNL     1     -15.432  -6.250  10.199  1.00  0.00     0.020 A 
ATOM     92  C   UNL     1     -16.753  -8.059   9.258  1.00  0.00     0.020 A 
ATOM     93  C   UNL     1     -16.473  -7.178  10.303  1.00  0.00     0.054 A 
BRANCH  93  94
ATOM     94  S   UNL     1     -17.481  -7.192  11.811  1.00  0.00     0.124 S 
ATOM     95  O   UNL     1     -16.554  -7.750  12.792  1.00  0.00    -0.237 OA
ATOM     96  O   UNL     1     -17.809  -5.780  11.989  1.00  0.00    -0.237 OA
ATOM     97  O   UNL     1     -18.612  -8.050  11.465  1.00  0.00    -0.744 OA
ENDBRANCH  93  94
ENDBRANCH  67  88
ENDBRANCH  41  42
ENDBRANCH  33  36
ENDBRANCH  31  32
ENDBRANCH   1  31
TORSDOF 15
