REMARK SMILES Cc1cc([N+](=O)[O-])ccc1-c1ccc(/C=C/C(=O)Nc2ccc(O)c(C(=O)NCCCNC(=O)c3ccc(-c4c5nc(c(-c6ccc(S(=O)(=O)[O-])cc6)c6ccc([nH]6)c(-c6ccc(S(=O)(=O)[O-])cc6)c6nc(c(-c7ccc(S(=O)(=O)[O-])cc7)c7ccc4[nH]7)C=C6)C=C5)cc3)c2)o1
REMARK SMILES IDX 29 1 28 2 26 3 27 4 25 6 20 7 21 8 95 9 22 10 23 11 19 12
REMARK SMILES IDX 17 13 18 14 16 16 15 17 14 18 11 19 12 20 96 21 13 22 10 23
REMARK SMILES IDX 1 24 2 25 3 26 4 27 9 28 8 29 5 30 6 31 7 32 24 33 30 35
REMARK SMILES IDX 31 36 32 37 33 38 34 40 35 41 36 42 94 43 37 44 93 45 38 46
REMARK SMILES IDX 39 47 40 48 87 49 41 50 92 51 86 52 88 53 42 54 91 55 85 56
REMARK SMILES IDX 84 57 43 59 73 60 54 61 72 62 55 63 58 64 71 65 89 66 56 67
REMARK SMILES IDX 57 68 70 70 90 71 59 72 44 73 45 74 53 75 46 76 52 77 47 78
REMARK SMILES IDX 48 79 49 80 50 81 51 82 74 83 75 84 83 85 76 86 82 87 77 88
REMARK SMILES IDX 78 89 79 90 80 91 81 92 60 93 61 94 69 95 62 96 68 97 63 98
REMARK SMILES IDX 64 99 65 100 66 101 67 102
REMARK H PARENT 28 5 19 15 24 34 32 39 88 58 58 69
REMARK Flexibility Score: inf
ROOT
ATOM      1  C   UNL     1       6.347   7.885  -2.498  1.00  0.00     0.118 C 
ENDROOT
BRANCH   1   2
ATOM      2  N   UNL     1       6.968   7.921  -1.171  1.00  0.00    -0.352 N 
ATOM      3  C   UNL     1       6.405   7.897   0.088  1.00  0.00     0.255 C 
ATOM      4  O   UNL     1       7.113   8.041   1.081  1.00  0.00    -0.269 OA
ATOM      5  H   UNL     1       7.951   7.970  -1.179  1.00  0.00     0.163 HD
BRANCH   3   6
ATOM      6  C   UNL     1       4.942   7.710   0.267  1.00  0.00     0.083 A 
ATOM      7  C   UNL     1       2.940   8.030   1.562  1.00  0.00     0.042 A 
ATOM      8  C   UNL     1       2.168   7.657   0.462  1.00  0.00     0.030 A 
ATOM      9  C   UNL     1       4.314   8.229   1.408  1.00  0.00     0.043 A 
ATOM     10  C   UNL     1       2.790   7.084  -0.632  1.00  0.00     0.049 A 
ATOM     11  C   UNL     1       4.169   6.957  -0.615  1.00  0.00     0.128 A 
BRANCH   7  12
ATOM     12  N   UNL     1       2.391   8.014   2.857  1.00  0.00    -0.322 N 
ATOM     13  C   UNL     1       1.474   7.112   3.363  1.00  0.00     0.248 C 
ATOM     14  O   UNL     1       0.960   7.291   4.466  1.00  0.00    -0.270 OA
ATOM     15  H   UNL     1       2.692   8.723   3.470  1.00  0.00     0.170 HD
BRANCH  13  16
ATOM     16  C   UNL     1       1.119   5.879   2.588  1.00  0.00     0.075 C 
ATOM     17  C   UNL     1       2.068   5.073   2.084  1.00  0.00     0.053 C 
BRANCH  17  18
ATOM     18  C   UNL     1       1.775   4.051   1.136  1.00  0.00     0.127 A 
ATOM     19  C   UNL     1       0.906   2.256   0.169  1.00  0.00     0.135 A 
ATOM     20  C   UNL     1       1.828   2.742  -0.723  1.00  0.00     0.051 A 
ATOM     21  O   UNL     1       0.798   3.082   1.252  1.00  0.00    -0.457 OA
ATOM     22  C   UNL     1       2.437   3.820  -0.065  1.00  0.00     0.051 A 
BRANCH  19  23
ATOM     23  C   UNL     1       0.159   1.015   0.198  1.00  0.00     0.021 A 
ATOM     24  C   UNL     1       2.336  -0.354   0.151  1.00  0.00     0.045 C 
ATOM     25  C   UNL     1       0.832  -0.230   0.170  1.00  0.00    -0.033 A 
ATOM     26  C   UNL     1       0.079  -1.414   0.115  1.00  0.00     0.089 A 
ATOM     27  C   UNL     1      -1.320  -1.357   0.111  1.00  0.00     0.269 A 
ATOM     28  C   UNL     1      -1.242   1.055   0.203  1.00  0.00     0.019 A 
ATOM     29  C   UNL     1      -1.986  -0.127   0.158  1.00  0.00     0.086 A 
BRANCH  27  30
ATOM     30  N   UNL     1      -2.092  -2.603   0.054  1.00  0.00     0.062 N 
ATOM     31  O   UNL     1      -1.466  -3.673   0.044  1.00  0.00    -0.258 OA
ATOM     32  O   UNL     1      -3.328  -2.516   0.021  1.00  0.00    -0.258 OA
ENDBRANCH  27  30
ENDBRANCH  19  23
ENDBRANCH  17  18
ENDBRANCH  13  16
ENDBRANCH   7  12
BRANCH  11  33
ATOM     33  O   UNL     1       4.685   5.987  -1.435  1.00  0.00    -0.507 OA
ATOM     34  H   UNL     1       4.119   5.510  -2.009  1.00  0.00     0.293 HD
ENDBRANCH  11  33
ENDBRANCH   3   6
ENDBRANCH   1   2
BRANCH   1  35
ATOM     35  C   UNL     1       6.629   9.099  -3.340  1.00  0.00     0.042 C 
BRANCH  35  36
ATOM     36  C   UNL     1       7.868   8.905  -4.183  1.00  0.00     0.118 C 
BRANCH  36  37
ATOM     37  N   UNL     1       7.544   8.367  -5.506  1.00  0.00    -0.352 N 
ATOM     38  C   UNL     1       8.190   8.586  -6.712  1.00  0.00     0.251 C 
ATOM     39  H   UNL     1       6.762   7.770  -5.543  1.00  0.00     0.163 HD
ATOM     40  O   UNL     1       7.750   8.183  -7.773  1.00  0.00    -0.269 OA
BRANCH  38  41
ATOM     41  C   UNL     1       9.493   9.271  -6.637  1.00  0.00     0.039 A 
ATOM     42  C   UNL     1      10.632   8.467  -6.731  1.00  0.00     0.014 A 
ATOM     43  C   UNL     1       9.533  10.531  -6.053  1.00  0.00     0.014 A 
ATOM     44  C   UNL     1      11.771   8.829  -6.023  1.00  0.00     0.010 A 
ATOM     45  C   UNL     1      10.609  10.810  -5.239  1.00  0.00     0.010 A 
ATOM     46  C   UNL     1      11.710   9.937  -5.189  1.00  0.00    -0.014 A 
BRANCH  46  47
ATOM     47  C   UNL     1      12.721  10.274  -4.194  1.00  0.00     0.031 A 
ATOM     48  C   UNL     1      13.477  11.534  -4.371  1.00  0.00     0.074 A 
ATOM     49  C   UNL     1      12.885   9.527  -3.079  1.00  0.00     0.049 A 
ATOM     50  N   UNL     1      14.488  11.889  -3.659  1.00  0.00    -0.248 NA
ATOM     51  C   UNL     1      13.180  12.482  -5.448  1.00  0.00     0.031 C 
ATOM     52  C   UNL     1      13.543   9.919  -1.834  1.00  0.00     0.029 A 
ATOM     53  N   UNL     1      12.694   8.158  -2.938  1.00  0.00    -0.354 N 
ATOM     54  C   UNL     1      14.741  13.209  -3.943  1.00  0.00     0.074 A 
ATOM     55  C   UNL     1      13.991  13.493  -5.137  1.00  0.00     0.031 C 
ATOM     56  C   UNL     1      13.910   8.815  -1.164  1.00  0.00     0.029 A 
ATOM     57  C   UNL     1      13.652   7.678  -2.029  1.00  0.00     0.049 A 
ATOM     58  H   UNL     1      12.009   7.619  -3.395  1.00  0.00     0.167 HD
ATOM     59  C   UNL     1      15.428  13.948  -3.032  1.00  0.00     0.031 A 
ATOM     60  C   UNL     1      14.617   6.800  -2.441  1.00  0.00     0.031 A 
ATOM     61  C   UNL     1      16.167  13.080  -2.113  1.00  0.00     0.049 A 
ATOM     62  C   UNL     1      16.024   7.369  -2.400  1.00  0.00     0.074 A 
ATOM     63  C   UNL     1      16.026  12.726  -0.783  1.00  0.00     0.029 A 
ATOM     64  N   UNL     1      17.072  12.170  -2.663  1.00  0.00    -0.354 N 
ATOM     65  N   UNL     1      16.307   8.633  -2.227  1.00  0.00    -0.248 NA
ATOM     66  C   UNL     1      17.227   6.556  -2.559  1.00  0.00     0.031 C 
ATOM     67  C   UNL     1      16.745  11.508  -0.580  1.00  0.00     0.029 A 
ATOM     68  C   UNL     1      17.360  11.157  -1.770  1.00  0.00     0.049 A 
ATOM     69  H   UNL     1      17.453  12.242  -3.568  1.00  0.00     0.167 HD
ATOM     70  C   UNL     1      17.664   8.823  -2.276  1.00  0.00     0.074 A 
ATOM     71  C   UNL     1      18.197   7.483  -2.456  1.00  0.00     0.031 C 
ATOM     72  C   UNL     1      18.238  10.061  -2.179  1.00  0.00     0.031 A 
BRANCH  59  73
ATOM     73  C   UNL     1      15.207  15.438  -2.851  1.00  0.00    -0.014 A 
ATOM     74  C   UNL     1      15.745  16.099  -1.729  1.00  0.00     0.010 A 
ATOM     75  C   UNL     1      14.360  16.219  -3.669  1.00  0.00     0.010 A 
ATOM     76  C   UNL     1      15.430  17.440  -1.431  1.00  0.00     0.020 A 
ATOM     77  C   UNL     1      14.053  17.558  -3.399  1.00  0.00     0.020 A 
ATOM     78  C   UNL     1      14.577  18.160  -2.268  1.00  0.00     0.054 A 
BRANCH  78  79
ATOM     79  S   UNL     1      14.131  19.867  -1.861  1.00  0.00     0.124 S 
ATOM     80  O   UNL     1      13.400  19.709  -0.607  1.00  0.00    -0.237 OA
ATOM     81  O   UNL     1      15.432  20.520  -1.759  1.00  0.00    -0.237 OA
ATOM     82  O   UNL     1      13.315  20.294  -2.998  1.00  0.00    -0.744 OA
ENDBRANCH  78  79
ENDBRANCH  59  73
BRANCH  60  83
ATOM     83  C   UNL     1      14.096   5.778  -3.400  1.00  0.00    -0.014 A 
ATOM     84  C   UNL     1      13.159   4.854  -2.883  1.00  0.00     0.010 A 
ATOM     85  C   UNL     1      14.119   6.012  -4.786  1.00  0.00     0.010 A 
ATOM     86  C   UNL     1      12.131   4.357  -3.688  1.00  0.00     0.020 A 
ATOM     87  C   UNL     1      13.097   5.495  -5.601  1.00  0.00     0.020 A 
ATOM     88  C   UNL     1      12.066   4.747  -5.024  1.00  0.00     0.054 A 
BRANCH  88  89
ATOM     89  S   UNL     1      10.502   4.463  -5.910  1.00  0.00     0.124 S 
ATOM     90  O   UNL     1      10.336   3.017  -5.804  1.00  0.00    -0.237 OA
ATOM     91  O   UNL     1       9.563   5.261  -5.119  1.00  0.00    -0.237 OA
ATOM     92  O   UNL     1      10.773   4.968  -7.252  1.00  0.00    -0.744 OA
ENDBRANCH  88  89
ENDBRANCH  60  83
BRANCH  72  93
ATOM     93  C   UNL     1      19.701  10.378  -2.422  1.00  0.00    -0.014 A 
ATOM     94  C   UNL     1      20.574   9.578  -3.176  1.00  0.00     0.010 A 
ATOM     95  C   UNL     1      20.210  11.622  -1.972  1.00  0.00     0.010 A 
ATOM     96  C   UNL     1      21.904   9.964  -3.409  1.00  0.00     0.020 A 
ATOM     97  C   UNL     1      21.517  12.040  -2.242  1.00  0.00     0.020 A 
ATOM     98  C   UNL     1      22.368  11.191  -2.937  1.00  0.00     0.054 A 
BRANCH  98  99
ATOM     99  S   UNL     1      24.064  11.714  -3.300  1.00  0.00     0.124 S 
ATOM    100  O   UNL     1      24.799  11.154  -2.169  1.00  0.00    -0.237 OA
ATOM    101  O   UNL     1      24.333  11.088  -4.593  1.00  0.00    -0.237 OA
ATOM    102  O   UNL     1      23.971  13.171  -3.330  1.00  0.00    -0.744 OA
ENDBRANCH  98  99
ENDBRANCH  72  93
ENDBRANCH  46  47
ENDBRANCH  38  41
ENDBRANCH  36  37
ENDBRANCH  35  36
ENDBRANCH   1  35
TORSDOF 19
