REMARK SMILES Cc1ccc(S(=O)(=O)N[C@@H](C)C(=O)Oc2csc(C(=O)NCCCNC(=O)c3ccc(-c4c5nc(c(-c6ccc(S(=O)(=O)[O-])cc6)c6ccc([nH]6)c(-c6ccc(S(=O)(=O)[O-])cc6)c6nc(c(-c7ccc(S(=O)(=O)[O-])cc7)c7ccc4[nH]7)C=C6)C=C5)cc3)c2C)cc1
REMARK SMILES IDX 19 1 20 2 21 3 18 5 15 6 16 7 88 8 17 9 89 10 14 11 12 12
REMARK SMILES IDX 13 13 10 14 11 15 9 16 6 18 7 19 8 20 5 21 1 22 2 23 3 24
REMARK SMILES IDX 91 25 4 26 90 27 22 28 23 29 24 30 25 31 26 32 27 34 28 35
REMARK SMILES IDX 29 36 87 37 30 38 86 39 31 40 32 41 33 42 80 43 34 44 85 45
REMARK SMILES IDX 79 46 81 47 35 48 84 49 78 50 77 51 36 53 66 54 47 55 65 56
REMARK SMILES IDX 48 57 51 58 64 59 82 60 49 61 50 62 63 64 83 65 52 66 37 67
REMARK SMILES IDX 38 68 46 69 39 70 45 71 40 72 41 73 42 74 43 75 44 76 67 77
REMARK SMILES IDX 68 78 76 79 69 80 75 81 70 82 71 83 72 84 73 85 74 86 53 87
REMARK SMILES IDX 54 88 62 89 55 90 61 91 56 92 57 93 58 94 59 95 60 96
REMARK H PARENT 21 4 9 17 25 33 81 52 51 63
REMARK Flexibility Score: inf
ROOT
ATOM      1  C   UNL     1      -6.046   8.242  -2.381  1.00  0.00     0.261 C 
ATOM      2  O   UNL     1      -6.889   9.134  -2.508  1.00  0.00    -0.268 OA
ATOM      3  N   UNL     1      -4.778   8.487  -2.885  1.00  0.00    -0.351 N 
ATOM      4  H   UNL     1      -4.734   9.272  -3.478  1.00  0.00     0.163 HD
ENDROOT
BRANCH   1   5
ATOM      5  C   UNL     1      -6.339   6.997  -1.673  1.00  0.00     0.099 A 
ATOM      6  C   UNL     1      -6.288   4.842  -0.805  1.00  0.00     0.145 A 
ATOM      7  C   UNL     1      -7.256   5.386  -0.004  1.00  0.00     0.113 A 
ATOM      8  C   UNL     1      -5.923   5.693  -1.889  1.00  0.00     0.015 A 
ATOM      9  S   UNL     1      -7.511   7.033  -0.397  1.00  0.00    -0.134 S 
ATOM     10  C   UNL     1      -5.176   5.170  -3.054  1.00  0.00     0.050 C 
BRANCH   6  11
ATOM     11  O   UNL     1      -5.826   3.577  -0.660  1.00  0.00    -0.424 OA
BRANCH  11  12
ATOM     12  C   UNL     1      -4.457   3.481  -0.578  1.00  0.00     0.329 C 
ATOM     13  O   UNL     1      -3.714   4.319  -0.070  1.00  0.00    -0.250 OA
BRANCH  12  14
ATOM     14  C   UNL     1      -3.949   2.132  -1.084  1.00  0.00     0.177 C 
ATOM     15  C   UNL     1      -4.550   1.714  -2.412  1.00  0.00     0.038 C 
BRANCH  14  16
ATOM     16  N   UNL     1      -4.186   1.191   0.015  1.00  0.00    -0.197 NA
ATOM     17  H   UNL     1      -3.872   1.670   0.859  1.00  0.00     0.142 HD
BRANCH  16  18
ATOM     18  S   UNL     1      -3.539  -0.329   0.098  1.00  0.00     0.241 S 
ATOM     19  O   UNL     1      -3.853  -1.021  -1.116  1.00  0.00    -0.207 OA
ATOM     20  O   UNL     1      -3.978  -0.846   1.395  1.00  0.00    -0.207 OA
BRANCH  18  21
ATOM     21  C   UNL     1      -1.779  -0.161   0.195  1.00  0.00     0.082 A 
ATOM     22  C   UNL     1       2.513   0.000  -0.005  1.00  0.00     0.044 C 
ATOM     23  C   UNL     1       1.016  -0.045   0.080  1.00  0.00    -0.051 A 
ATOM     24  C   UNL     1       0.356  -1.273  -0.043  1.00  0.00     0.005 A 
ATOM     25  C   UNL     1       0.266   1.119   0.296  1.00  0.00     0.005 A 
ATOM     26  C   UNL     1      -1.036  -1.330  -0.001  1.00  0.00     0.022 A 
ATOM     27  C   UNL     1      -1.130   1.061   0.376  1.00  0.00     0.022 A 
ENDBRANCH  18  21
ENDBRANCH  16  18
ENDBRANCH  14  16
ENDBRANCH  12  14
ENDBRANCH  11  12
ENDBRANCH   6  11
ENDBRANCH   1   5
BRANCH   3  28
ATOM     28  C   UNL     1      -3.474   7.802  -2.710  1.00  0.00     0.118 C 
BRANCH  28  29
ATOM     29  C   UNL     1      -2.886   6.954  -3.967  1.00  0.00     0.042 C 
BRANCH  29  30
ATOM     30  C   UNL     1      -1.757   7.714  -4.744  1.00  0.00     0.118 C 
BRANCH  30  31
ATOM     31  N   UNL     1      -0.689   7.361  -6.063  1.00  0.00    -0.352 N 
ATOM     32  C   UNL     1      -0.054   7.726  -7.500  1.00  0.00     0.251 C 
ATOM     33  H   UNL     1      -0.251   6.517  -5.808  1.00  0.00     0.163 HD
ATOM     34  O   UNL     1       1.160   7.410  -7.499  1.00  0.00    -0.269 OA
BRANCH  32  35
ATOM     35  C   UNL     1      -0.471   8.578  -9.001  1.00  0.00     0.039 A 
ATOM     36  C   UNL     1       0.242   9.695  -9.536  1.00  0.00     0.014 A 
ATOM     37  C   UNL     1      -1.611   8.463  -9.770  1.00  0.00     0.014 A 
ATOM     38  C   UNL     1      -0.491  10.918  -9.852  1.00  0.00     0.010 A 
ATOM     39  C   UNL     1      -2.367   9.638 -10.014  1.00  0.00     0.010 A 
ATOM     40  C   UNL     1      -1.877  10.903  -9.730  1.00  0.00    -0.014 A 
BRANCH  40  41
ATOM     41  C   UNL     1      -2.842  12.022  -9.359  1.00  0.00     0.031 A 
ATOM     42  C   UNL     1      -3.535  12.645 -10.474  1.00  0.00     0.074 A 
ATOM     43  C   UNL     1      -3.298  12.475  -8.143  1.00  0.00     0.049 A 
ATOM     44  N   UNL     1      -3.497  13.893 -10.792  1.00  0.00    -0.248 NA
ATOM     45  C   UNL     1      -4.294  11.807 -11.389  1.00  0.00     0.031 C 
ATOM     46  C   UNL     1      -4.226  13.565  -7.750  1.00  0.00     0.029 A 
ATOM     47  N   UNL     1      -2.894  12.089  -6.881  1.00  0.00    -0.354 N 
ATOM     48  C   UNL     1      -4.513  14.037 -11.712  1.00  0.00     0.074 A 
ATOM     49  C   UNL     1      -4.700  12.720 -12.264  1.00  0.00     0.031 C 
ATOM     50  C   UNL     1      -3.926  13.985  -6.494  1.00  0.00     0.029 A 
ATOM     51  C   UNL     1      -2.783  13.217  -6.064  1.00  0.00     0.049 A 
ATOM     52  H   UNL     1      -2.712  11.164  -6.600  1.00  0.00     0.167 HD
ATOM     53  C   UNL     1      -5.334  15.127 -11.678  1.00  0.00     0.031 A 
ATOM     54  C   UNL     1      -1.526  13.673  -5.763  1.00  0.00     0.031 A 
ATOM     55  C   UNL     1      -4.988  16.021 -10.553  1.00  0.00     0.049 A 
ATOM     56  C   UNL     1      -1.208  14.974  -6.427  1.00  0.00     0.074 A 
ATOM     57  C   UNL     1      -5.636  16.348  -9.371  1.00  0.00     0.029 A 
ATOM     58  N   UNL     1      -3.667  16.429 -10.374  1.00  0.00    -0.354 N 
ATOM     59  N   UNL     1      -1.984  15.515  -7.315  1.00  0.00    -0.248 NA
ATOM     60  C   UNL     1       0.010  15.740  -6.204  1.00  0.00     0.031 C 
ATOM     61  C   UNL     1      -4.671  16.884  -8.463  1.00  0.00     0.029 A 
ATOM     62  C   UNL     1      -3.446  16.939  -9.104  1.00  0.00     0.049 A 
ATOM     63  H   UNL     1      -2.972  16.363 -11.069  1.00  0.00     0.167 HD
ATOM     64  C   UNL     1      -1.434  16.662  -7.791  1.00  0.00     0.074 A 
ATOM     65  C   UNL     1      -0.165  16.748  -7.078  1.00  0.00     0.031 C 
ATOM     66  C   UNL     1      -2.102  17.404  -8.726  1.00  0.00     0.031 A 
BRANCH  53  67
ATOM     67  C   UNL     1      -6.641  15.207 -12.464  1.00  0.00    -0.014 A 
ATOM     68  C   UNL     1      -7.554  16.249 -12.220  1.00  0.00     0.010 A 
ATOM     69  C   UNL     1      -7.035  14.297 -13.472  1.00  0.00     0.010 A 
ATOM     70  C   UNL     1      -8.782  16.346 -12.907  1.00  0.00     0.020 A 
ATOM     71  C   UNL     1      -8.264  14.354 -14.139  1.00  0.00     0.020 A 
ATOM     72  C   UNL     1      -9.134  15.389 -13.858  1.00  0.00     0.054 A 
BRANCH  72  73
ATOM     73  S   UNL     1     -10.695  15.532 -14.762  1.00  0.00     0.124 S 
ATOM     74  O   UNL     1     -11.687  15.473 -13.693  1.00  0.00    -0.237 OA
ATOM     75  O   UNL     1     -10.554  16.826 -15.425  1.00  0.00    -0.237 OA
ATOM     76  O   UNL     1     -10.688  14.378 -15.661  1.00  0.00    -0.744 OA
ENDBRANCH  72  73
ENDBRANCH  53  67
BRANCH  54  77
ATOM     77  C   UNL     1      -0.535  12.563  -5.594  1.00  0.00    -0.014 A 
ATOM     78  C   UNL     1      -0.879  11.644  -4.619  1.00  0.00     0.010 A 
ATOM     79  C   UNL     1      -0.053  11.961  -6.740  1.00  0.00     0.010 A 
ATOM     80  C   UNL     1      -1.346  10.374  -5.011  1.00  0.00     0.020 A 
ATOM     81  C   UNL     1      -0.534  10.660  -7.061  1.00  0.00     0.020 A 
ATOM     82  C   UNL     1      -1.503   9.980  -6.344  1.00  0.00     0.054 A 
BRANCH  82  83
ATOM     83  S   UNL     1      -3.132   8.733  -7.096  1.00  0.00     0.124 S 
ATOM     84  O   UNL     1      -3.957   8.343  -5.963  1.00  0.00    -0.237 OA
ATOM     85  O   UNL     1      -3.915   9.617  -7.935  1.00  0.00    -0.237 OA
ATOM     86  O   UNL     1      -2.580   7.537  -7.731  1.00  0.00    -0.744 OA
ENDBRANCH  82  83
ENDBRANCH  54  77
BRANCH  66  87
ATOM     87  C   UNL     1      -1.577  18.655  -9.384  1.00  0.00    -0.014 A 
ATOM     88  C   UNL     1      -0.471  19.387  -8.939  1.00  0.00     0.010 A 
ATOM     89  C   UNL     1      -2.255  19.168 -10.517  1.00  0.00     0.010 A 
ATOM     90  C   UNL     1      -0.007  20.507  -9.634  1.00  0.00     0.020 A 
ATOM     91  C   UNL     1      -1.814  20.289 -11.215  1.00  0.00     0.020 A 
ATOM     92  C   UNL     1      -0.676  20.944 -10.774  1.00  0.00     0.054 A 
BRANCH  92  93
ATOM     93  S   UNL     1      -0.056  22.401 -11.630  1.00  0.00     0.124 S 
ATOM     94  O   UNL     1      -0.082  23.410 -10.573  1.00  0.00    -0.237 OA
ATOM     95  O   UNL     1       1.274  21.966 -12.049  1.00  0.00    -0.237 OA
ATOM     96  O   UNL     1      -1.014  22.609 -12.712  1.00  0.00    -0.744 OA
ENDBRANCH  92  93
ENDBRANCH  66  87
ENDBRANCH  40  41
ENDBRANCH  32  35
ENDBRANCH  30  31
ENDBRANCH  29  30
ENDBRANCH  28  29
ENDBRANCH   3  28
TORSDOF 19
