REMARK SMILES Cc1ccc(C(c2ccccc2)(c2ccccc2)n2cnc(C[C@H]([NH3+])C(=O)NCCCNC(=O)c3ccc(-c4c5nc(c(-c6ccc(S(=O)(=O)[O-])cc6)c6ccc([nH]6)c(-c6ccc(S(=O)(=O)[O-])cc6)c6nc(c(-c7ccc(S(=O)(=O)[O-])cc7)c7ccc4[nH]7)C=C6)C=C5)cc3)c2)cc1
REMARK SMILES IDX 29 1 28 2 26 3 27 4 24 6 23 7 22 8 19 9 20 10 95 11 21 12
REMARK SMILES IDX 6 13 5 14 1 15 2 16 3 17 97 18 4 19 96 20 7 21 8 22 12 23
REMARK SMILES IDX 9 24 11 25 10 26 13 27 14 28 18 29 15 30 17 31 16 32 25 33
REMARK SMILES IDX 30 37 31 38 32 39 33 40 34 42 35 43 36 44 94 45 37 46 93 47
REMARK SMILES IDX 38 48 39 49 40 50 87 51 41 52 92 53 86 54 88 55 42 56 91 57
REMARK SMILES IDX 85 58 84 59 43 61 73 62 54 63 72 64 55 65 58 66 71 67 89 68
REMARK SMILES IDX 56 69 57 70 70 72 90 73 59 74 44 75 45 76 53 77 46 78 52 79
REMARK SMILES IDX 47 80 48 81 49 82 50 83 51 84 74 85 75 86 83 87 76 88 82 89
REMARK SMILES IDX 77 90 78 91 79 92 80 93 81 94 60 95 61 96 69 97 62 98 68 99
REMARK SMILES IDX 63 100 64 101 65 102 66 103 67 104
REMARK H PARENT 28 5 25 34 25 35 25 36 32 41 88 60 58 71
REMARK Flexibility Score: inf
ROOT
ATOM      1  C   UNL     1      -5.465  -7.416   1.085  1.00  0.00     0.118 C 
ENDROOT
BRANCH   1   2
ATOM      2  N   UNL     1      -6.716  -6.848   1.554  1.00  0.00    -0.351 N 
ATOM      3  C   UNL     1      -7.307  -5.631   1.387  1.00  0.00     0.278 C 
ATOM      4  O   UNL     1      -8.348  -5.427   2.026  1.00  0.00    -0.268 OA
ATOM      5  H   UNL     1      -7.245  -7.468   2.106  1.00  0.00     0.163 HD
BRANCH   3   6
ATOM      6  C   UNL     1      -6.695  -4.494   0.535  1.00  0.00     0.276 C 
BRANCH   6   7
ATOM      7  C   UNL     1      -6.351  -4.804  -0.925  1.00  0.00     0.133 C 
BRANCH   7   8
ATOM      8  C   UNL     1      -7.474  -5.284  -1.771  1.00  0.00     0.065 A 
ATOM      9  N   UNL     1      -8.818  -5.653  -3.470  1.00  0.00    -0.319 N 
ATOM     10  C   UNL     1      -9.408  -6.033  -2.285  1.00  0.00     0.201 A 
ATOM     11  C   UNL     1      -7.534  -5.280  -3.146  1.00  0.00     0.112 A 
ATOM     12  N   UNL     1      -8.631  -5.792  -1.255  1.00  0.00    -0.241 NA
BRANCH   9  13
ATOM     13  C   UNL     1      -9.497  -5.560  -4.807  1.00  0.00     0.121 C 
BRANCH  13  14
ATOM     14  C   UNL     1      -9.602  -7.000  -5.450  1.00  0.00    -0.013 A 
ATOM     15  C   UNL     1      -9.968 -10.901  -7.341  1.00  0.00     0.044 C 
ATOM     16  C   UNL     1      -9.832  -9.548  -6.709  1.00  0.00    -0.051 A 
ATOM     17  C   UNL     1      -9.306  -9.430  -5.420  1.00  0.00     0.004 A 
ATOM     18  C   UNL     1     -10.222  -8.393  -7.385  1.00  0.00     0.004 A 
ATOM     19  C   UNL     1      -9.191  -8.178  -4.800  1.00  0.00     0.007 A 
ATOM     20  C   UNL     1     -10.098  -7.143  -6.771  1.00  0.00     0.007 A 
ENDBRANCH  13  14
BRANCH  13  21
ATOM     21  C   UNL     1     -10.940  -4.932  -4.551  1.00  0.00    -0.013 A 
ATOM     22  C   UNL     1     -11.103  -3.794  -3.723  1.00  0.00     0.007 A 
ATOM     23  C   UNL     1     -12.135  -5.510  -5.030  1.00  0.00     0.007 A 
ATOM     24  C   UNL     1     -12.357  -3.231  -3.459  1.00  0.00     0.000 A 
ATOM     25  C   UNL     1     -13.393  -4.953  -4.762  1.00  0.00     0.000 A 
ATOM     26  C   UNL     1     -13.503  -3.806  -3.989  1.00  0.00     0.000 A 
ENDBRANCH  13  21
BRANCH  13  27
ATOM     27  C   UNL     1      -8.577  -4.632  -5.730  1.00  0.00    -0.013 A 
ATOM     28  C   UNL     1      -7.609  -5.200  -6.597  1.00  0.00     0.007 A 
ATOM     29  C   UNL     1      -8.524  -3.230  -5.585  1.00  0.00     0.007 A 
ATOM     30  C   UNL     1      -6.668  -4.419  -7.278  1.00  0.00     0.000 A 
ATOM     31  C   UNL     1      -7.562  -2.451  -6.243  1.00  0.00     0.000 A 
ATOM     32  C   UNL     1      -6.636  -3.045  -7.090  1.00  0.00     0.000 A 
ENDBRANCH  13  27
ENDBRANCH   9  13
ENDBRANCH   7   8
ENDBRANCH   6   7
BRANCH   6  33
ATOM     33  N   UNL     1      -5.525  -3.901   1.242  1.00  0.00    -0.347 N 
ATOM     34  H   UNL     1      -4.783  -4.596   1.314  1.00  0.00     0.345 HD
ATOM     35  H   UNL     1      -5.807  -3.606   2.177  1.00  0.00     0.345 HD
ATOM     36  H   UNL     1      -5.185  -3.094   0.719  1.00  0.00     0.345 HD
ENDBRANCH   6  33
ENDBRANCH   3   6
ENDBRANCH   1   2
BRANCH   1  37
ATOM     37  C   UNL     1      -4.328  -7.217   2.079  1.00  0.00     0.042 C 
BRANCH  37  38
ATOM     38  C   UNL     1      -4.422  -8.176   3.255  1.00  0.00     0.118 C 
BRANCH  38  39
ATOM     39  N   UNL     1      -3.394  -9.207   3.255  1.00  0.00    -0.352 N 
ATOM     40  C   UNL     1      -3.152 -10.158   4.231  1.00  0.00     0.251 C 
ATOM     41  H   UNL     1      -2.802  -9.231   2.469  1.00  0.00     0.163 HD
ATOM     42  O   UNL     1      -2.120 -10.808   4.253  1.00  0.00    -0.269 OA
BRANCH  40  43
ATOM     43  C   UNL     1      -4.248 -10.441   5.183  1.00  0.00     0.039 A 
ATOM     44  C   UNL     1      -4.850 -11.703   5.111  1.00  0.00     0.014 A 
ATOM     45  C   UNL     1      -4.835  -9.409   5.908  1.00  0.00     0.014 A 
ATOM     46  C   UNL     1      -6.132 -11.882   5.628  1.00  0.00     0.010 A 
ATOM     47  C   UNL     1      -6.147  -9.557   6.316  1.00  0.00     0.010 A 
ATOM     48  C   UNL     1      -6.813 -10.781   6.147  1.00  0.00    -0.014 A 
BRANCH  48  49
ATOM     49  C   UNL     1      -8.239 -10.778   6.466  1.00  0.00     0.031 A 
ATOM     50  C   UNL     1      -8.696 -10.659   7.874  1.00  0.00     0.074 A 
ATOM     51  C   UNL     1      -9.169 -10.771   5.483  1.00  0.00     0.049 A 
ATOM     52  N   UNL     1      -9.858 -11.033   8.303  1.00  0.00    -0.248 NA
ATOM     53  C   UNL     1      -7.836 -10.147   8.936  1.00  0.00     0.031 C 
ATOM     54  C   UNL     1     -10.574 -10.394   5.627  1.00  0.00     0.029 A 
ATOM     55  N   UNL     1      -9.097 -11.303   4.195  1.00  0.00    -0.354 N 
ATOM     56  C   UNL     1     -10.015 -10.511   9.568  1.00  0.00     0.074 A 
ATOM     57  C   UNL     1      -8.697 -10.061   9.952  1.00  0.00     0.031 C 
ATOM     58  C   UNL     1     -11.276 -10.969   4.641  1.00  0.00     0.029 A 
ATOM     59  C   UNL     1     -10.366 -11.837   3.916  1.00  0.00     0.049 A 
ATOM     60  H   UNL     1      -8.313 -11.304   3.600  1.00  0.00     0.167 HD
ATOM     61  C   UNL     1     -11.264 -10.363  10.099  1.00  0.00     0.031 A 
ATOM     62  C   UNL     1     -10.613 -13.137   3.586  1.00  0.00     0.031 A 
ATOM     63  C   UNL     1     -12.304 -10.913   9.230  1.00  0.00     0.049 A 
ATOM     64  C   UNL     1     -11.632 -13.802   4.483  1.00  0.00     0.074 A 
ATOM     65  C   UNL     1     -13.238 -10.330   8.388  1.00  0.00     0.029 A 
ATOM     66  N   UNL     1     -12.325 -12.276   8.955  1.00  0.00    -0.354 N 
ATOM     67  N   UNL     1     -12.032 -13.307   5.620  1.00  0.00    -0.248 NA
ATOM     68  C   UNL     1     -12.234 -15.103   4.205  1.00  0.00     0.031 C 
ATOM     69  C   UNL     1     -13.802 -11.349   7.580  1.00  0.00     0.029 A 
ATOM     70  C   UNL     1     -13.217 -12.552   7.936  1.00  0.00     0.049 A 
ATOM     71  H   UNL     1     -11.780 -12.950   9.421  1.00  0.00     0.167 HD
ATOM     72  C   UNL     1     -12.891 -14.183   6.233  1.00  0.00     0.074 A 
ATOM     73  C   UNL     1     -13.002 -15.284   5.294  1.00  0.00     0.031 C 
ATOM     74  C   UNL     1     -13.412 -13.920   7.469  1.00  0.00     0.031 A 
BRANCH  61  75
ATOM     75  C   UNL     1     -11.565  -9.439  11.267  1.00  0.00    -0.014 A 
ATOM     76  C   UNL     1     -12.843  -8.850  11.382  1.00  0.00     0.010 A 
ATOM     77  C   UNL     1     -10.627  -9.057  12.243  1.00  0.00     0.010 A 
ATOM     78  C   UNL     1     -13.127  -7.854  12.330  1.00  0.00     0.020 A 
ATOM     79  C   UNL     1     -10.881  -8.034  13.172  1.00  0.00     0.020 A 
ATOM     80  C   UNL     1     -12.129  -7.426  13.199  1.00  0.00     0.054 A 
BRANCH  80  81
ATOM     81  S   UNL     1     -12.475  -6.070  14.349  1.00  0.00     0.124 S 
ATOM     82  O   UNL     1     -12.930  -5.005  13.458  1.00  0.00    -0.237 OA
ATOM     83  O   UNL     1     -13.499  -6.648  15.215  1.00  0.00    -0.237 OA
ATOM     84  O   UNL     1     -11.185  -5.824  14.993  1.00  0.00    -0.744 OA
ENDBRANCH  80  81
ENDBRANCH  61  75
BRANCH  62  85
ATOM     85  C   UNL     1      -9.478 -13.834   2.928  1.00  0.00    -0.014 A 
ATOM     86  C   UNL     1      -9.168 -13.452   1.607  1.00  0.00     0.010 A 
ATOM     87  C   UNL     1      -8.495 -14.469   3.708  1.00  0.00     0.010 A 
ATOM     88  C   UNL     1      -7.855 -13.527   1.141  1.00  0.00     0.020 A 
ATOM     89  C   UNL     1      -7.177 -14.548   3.239  1.00  0.00     0.020 A 
ATOM     90  C   UNL     1      -6.858 -14.007   1.990  1.00  0.00     0.054 A 
BRANCH  90  91
ATOM     91  S   UNL     1      -5.127 -13.713   1.520  1.00  0.00     0.124 S 
ATOM     92  O   UNL     1      -5.049 -14.329   0.199  1.00  0.00    -0.237 OA
ATOM     93  O   UNL     1      -5.058 -12.252   1.538  1.00  0.00    -0.237 OA
ATOM     94  O   UNL     1      -4.373 -14.385   2.574  1.00  0.00    -0.744 OA
ENDBRANCH  90  91
ENDBRANCH  62  85
BRANCH  74  95
ATOM     95  C   UNL     1     -14.219 -14.863   8.337  1.00  0.00    -0.014 A 
ATOM     96  C   UNL     1     -14.292 -16.253   8.159  1.00  0.00     0.010 A 
ATOM     97  C   UNL     1     -14.877 -14.340   9.480  1.00  0.00     0.010 A 
ATOM     98  C   UNL     1     -15.030 -17.068   9.033  1.00  0.00     0.020 A 
ATOM     99  C   UNL     1     -15.579 -15.146  10.381  1.00  0.00     0.020 A 
ATOM    100  C   UNL     1     -15.673 -16.510  10.136  1.00  0.00     0.054 A 
BRANCH 100 101
ATOM    101  S   UNL     1     -16.568 -17.578  11.293  1.00  0.00     0.124 S 
ATOM    102  O   UNL     1     -17.895 -17.634  10.687  1.00  0.00    -0.237 OA
ATOM    103  O   UNL     1     -15.806 -18.825  11.245  1.00  0.00    -0.237 OA
ATOM    104  O   UNL     1     -16.484 -16.857  12.560  1.00  0.00    -0.744 OA
ENDBRANCH 100 101
ENDBRANCH  74  95
ENDBRANCH  48  49
ENDBRANCH  40  43
ENDBRANCH  38  39
ENDBRANCH  37  38
ENDBRANCH   1  37
TORSDOF 20
