REMARK SMILES C[C@H]1CC[C@H](CNC(=O)NCc2ccc(C(=O)NCCCNC(=O)c3ccc(-c4c5nc(c(-c6ccc(S(=O)(=O)[O-])cc6)c6ccc([nH]6)c(-c6ccc(S(=O)(=O)[O-])cc6)c6nc(c(-c7ccc(S(=O)(=O)[O-])cc7)c7ccc4[nH]7)C=C6)C=C5)cc3)o2)CC1
REMARK SMILES IDX 19 1 18 2 16 3 17 4 15 6 12 7 13 8 85 9 14 10 11 11 10 12
REMARK SMILES IDX 7 13 8 14 9 16 6 18 5 19 1 20 2 21 87 22 3 23 86 24 4 25
REMARK SMILES IDX 20 26 21 27 22 28 23 29 24 31 25 32 26 33 84 34 27 35 83 36
REMARK SMILES IDX 28 37 29 38 30 39 77 40 31 41 82 42 76 43 78 44 32 45 81 46
REMARK SMILES IDX 75 47 74 48 33 50 63 51 44 52 62 53 45 54 48 55 61 56 79 57
REMARK SMILES IDX 46 58 47 59 60 61 80 62 49 63 34 64 35 65 43 66 36 67 42 68
REMARK SMILES IDX 37 69 38 70 39 71 40 72 41 73 64 74 65 75 73 76 66 77 72 78
REMARK SMILES IDX 67 79 68 80 69 81 70 82 71 83 50 84 51 85 59 86 52 87 58 88
REMARK SMILES IDX 53 89 54 90 55 91 56 92 57 93
REMARK H PARENT 18 5 7 15 10 17 22 30 78 49 48 60
REMARK Flexibility Score: inf
ROOT
ATOM      1  C   UNL     1      -9.012  -5.297   2.027  1.00  0.00     0.118 C 
ENDROOT
BRANCH   1   2
ATOM      2  N   UNL     1      -9.099  -3.875   2.298  1.00  0.00    -0.349 N 
ATOM      3  C   UNL     1      -8.394  -2.819   1.768  1.00  0.00     0.286 C 
ATOM      4  O   UNL     1      -8.831  -1.694   2.039  1.00  0.00    -0.266 OA
ATOM      5  H   UNL     1      -9.772  -3.624   2.972  1.00  0.00     0.163 HD
BRANCH   3   6
ATOM      6  C   UNL     1      -7.223  -3.031   0.938  1.00  0.00     0.191 A 
ATOM      7  C   UNL     1      -5.746  -2.385  -0.590  1.00  0.00     0.124 A 
ATOM      8  C   UNL     1      -5.349  -3.635  -0.167  1.00  0.00     0.048 A 
ATOM      9  O   UNL     1      -6.885  -2.023   0.068  1.00  0.00    -0.454 OA
ATOM     10  C   UNL     1      -6.281  -4.039   0.821  1.00  0.00     0.056 A 
BRANCH   7  11
ATOM     11  C   UNL     1      -5.183  -1.439  -1.593  1.00  0.00     0.193 C 
BRANCH  11  12
ATOM     12  N   UNL     1      -5.739  -0.115  -1.443  1.00  0.00    -0.331 N 
ATOM     13  N   UNL     1      -4.106   1.150  -0.304  1.00  0.00    -0.338 N 
ATOM     14  C   UNL     1      -5.244   1.044  -1.002  1.00  0.00     0.315 C 
ATOM     15  H   UNL     1      -3.744   2.065  -0.281  1.00  0.00     0.165 HD
ATOM     16  O   UNL     1      -5.859   2.081  -1.261  1.00  0.00    -0.249 OA
ATOM     17  H   UNL     1      -6.680  -0.053  -1.725  1.00  0.00     0.165 HD
BRANCH  13  18
ATOM     18  C   UNL     1      -3.300   0.190   0.427  1.00  0.00     0.121 C 
BRANCH  18  19
ATOM     19  C   UNL     1      -1.871   0.112  -0.137  1.00  0.00     0.008 C 
ATOM     20  C   UNL     1       2.518  -0.076  -0.181  1.00  0.00     0.007 C 
ATOM     21  C   UNL     1       1.074   0.004   0.311  1.00  0.00    -0.014 C 
ATOM     22  C   UNL     1       0.281  -1.237  -0.114  1.00  0.00     0.003 C 
ATOM     23  C   UNL     1       0.394   1.276  -0.206  1.00  0.00     0.003 C 
ATOM     24  C   UNL     1      -1.171  -1.162   0.359  1.00  0.00     0.006 C 
ATOM     25  C   UNL     1      -1.060   1.362   0.251  1.00  0.00     0.006 C 
ENDBRANCH  18  19
ENDBRANCH  13  18
ENDBRANCH  11  12
ENDBRANCH   7  11
ENDBRANCH   3   6
ENDBRANCH   1   2
BRANCH   1  26
ATOM     26  C   UNL     1      -8.343  -6.066   3.164  1.00  0.00     0.042 C 
BRANCH  26  27
ATOM     27  C   UNL     1      -9.233  -6.263   4.393  1.00  0.00     0.118 C 
BRANCH  27  28
ATOM     28  N   UNL     1     -10.362  -7.142   4.120  1.00  0.00    -0.352 N 
ATOM     29  C   UNL     1     -10.746  -8.322   4.707  1.00  0.00     0.251 C 
ATOM     30  H   UNL     1     -10.949  -6.838   3.391  1.00  0.00     0.163 HD
ATOM     31  O   UNL     1     -11.620  -8.992   4.160  1.00  0.00    -0.269 OA
BRANCH  29  32
ATOM     32  C   UNL     1     -10.133  -8.804   5.967  1.00  0.00     0.039 A 
ATOM     33  C   UNL     1      -9.935 -10.180   6.126  1.00  0.00     0.014 A 
ATOM     34  C   UNL     1      -9.825  -7.937   7.019  1.00  0.00     0.014 A 
ATOM     35  C   UNL     1      -9.391 -10.679   7.313  1.00  0.00     0.010 A 
ATOM     36  C   UNL     1      -9.224  -8.429   8.181  1.00  0.00     0.010 A 
ATOM     37  C   UNL     1      -9.007  -9.806   8.343  1.00  0.00    -0.014 A 
BRANCH  37  38
ATOM     38  C   UNL     1      -8.378 -10.324   9.586  1.00  0.00     0.031 A 
ATOM     39  C   UNL     1      -9.084 -10.207  10.912  1.00  0.00     0.074 A 
ATOM     40  C   UNL     1      -7.147 -10.868   9.529  1.00  0.00     0.049 A 
ATOM     41  N   UNL     1      -8.680 -10.590  12.097  1.00  0.00    -0.248 NA
ATOM     42  C   UNL     1     -10.405  -9.559  10.908  1.00  0.00     0.031 C 
ATOM     43  C   UNL     1      -6.338 -11.005   8.315  1.00  0.00     0.029 A 
ATOM     44  N   UNL     1      -6.359 -11.409  10.514  1.00  0.00    -0.354 N 
ATOM     45  C   UNL     1      -9.686 -10.216  12.981  1.00  0.00     0.074 A 
ATOM     46  C   UNL     1     -10.700  -9.539  12.200  1.00  0.00     0.031 C 
ATOM     47  C   UNL     1      -5.183 -11.617   8.623  1.00  0.00     0.029 A 
ATOM     48  C   UNL     1      -5.155 -11.889  10.057  1.00  0.00     0.049 A 
ATOM     49  H   UNL     1      -6.631 -11.450  11.460  1.00  0.00     0.167 HD
ATOM     50  C   UNL     1      -9.769 -10.430  14.317  1.00  0.00     0.031 A 
ATOM     51  C   UNL     1      -4.141 -12.484  10.713  1.00  0.00     0.031 A 
ATOM     52  C   UNL     1      -8.766 -11.111  15.094  1.00  0.00     0.049 A 
ATOM     53  C   UNL     1      -4.262 -12.725  12.192  1.00  0.00     0.074 A 
ATOM     54  C   UNL     1      -8.781 -11.418  16.444  1.00  0.00     0.029 A 
ATOM     55  N   UNL     1      -7.567 -11.593  14.590  1.00  0.00    -0.354 N 
ATOM     56  N   UNL     1      -5.246 -12.410  12.999  1.00  0.00    -0.248 NA
ATOM     57  C   UNL     1      -3.141 -13.416  12.842  1.00  0.00     0.031 C 
ATOM     58  C   UNL     1      -7.574 -12.052  16.763  1.00  0.00     0.029 A 
ATOM     59  C   UNL     1      -6.829 -12.182  15.603  1.00  0.00     0.049 A 
ATOM     60  H   UNL     1      -7.283 -11.526  13.649  1.00  0.00     0.167 HD
ATOM     61  C   UNL     1      -4.872 -12.884  14.252  1.00  0.00     0.074 A 
ATOM     62  C   UNL     1      -3.581 -13.523  14.089  1.00  0.00     0.031 C 
ATOM     63  C   UNL     1      -5.540 -12.802  15.429  1.00  0.00     0.031 A 
BRANCH  50  64
ATOM     64  C   UNL     1     -10.994  -9.911  15.025  1.00  0.00    -0.014 A 
ATOM     65  C   UNL     1     -12.252 -10.511  14.833  1.00  0.00     0.010 A 
ATOM     66  C   UNL     1     -10.884  -8.822  15.909  1.00  0.00     0.010 A 
ATOM     67  C   UNL     1     -13.385 -10.002  15.472  1.00  0.00     0.020 A 
ATOM     68  C   UNL     1     -12.012  -8.325  16.571  1.00  0.00     0.020 A 
ATOM     69  C   UNL     1     -13.259  -8.906  16.331  1.00  0.00     0.054 A 
BRANCH  69  70
ATOM     70  S   UNL     1     -14.745  -8.264  17.150  1.00  0.00     0.124 S 
ATOM     71  O   UNL     1     -15.398  -7.541  16.061  1.00  0.00    -0.237 OA
ATOM     72  O   UNL     1     -15.423  -9.481  17.590  1.00  0.00    -0.237 OA
ATOM     73  O   UNL     1     -14.215  -7.428  18.224  1.00  0.00    -0.744 OA
ENDBRANCH  69  70
ENDBRANCH  50  64
BRANCH  51  74
ATOM     74  C   UNL     1      -2.935 -12.925   9.964  1.00  0.00    -0.014 A 
ATOM     75  C   UNL     1      -2.715 -14.290   9.712  1.00  0.00     0.010 A 
ATOM     76  C   UNL     1      -2.015 -11.980   9.475  1.00  0.00     0.010 A 
ATOM     77  C   UNL     1      -1.590 -14.704   8.993  1.00  0.00     0.020 A 
ATOM     78  C   UNL     1      -0.902 -12.389   8.735  1.00  0.00     0.020 A 
ATOM     79  C   UNL     1      -0.693 -13.750   8.506  1.00  0.00     0.054 A 
BRANCH  79  80
ATOM     80  S   UNL     1       0.723 -14.303   7.514  1.00  0.00     0.124 S 
ATOM     81  O   UNL     1       1.626 -14.822   8.536  1.00  0.00    -0.237 OA
ATOM     82  O   UNL     1       0.122 -15.302   6.633  1.00  0.00    -0.237 OA
ATOM     83  O   UNL     1       1.166 -13.082   6.845  1.00  0.00    -0.744 OA
ENDBRANCH  79  80
ENDBRANCH  51  74
BRANCH  63  84
ATOM     84  C   UNL     1      -4.890 -13.440  16.628  1.00  0.00    -0.014 A 
ATOM     85  C   UNL     1      -3.765 -12.860  17.241  1.00  0.00     0.010 A 
ATOM     86  C   UNL     1      -5.424 -14.629  17.157  1.00  0.00     0.010 A 
ATOM     87  C   UNL     1      -3.156 -13.484  18.333  1.00  0.00     0.020 A 
ATOM     88  C   UNL     1      -4.833 -15.242  18.264  1.00  0.00     0.020 A 
ATOM     89  C   UNL     1      -3.690 -14.677  18.832  1.00  0.00     0.054 A 
BRANCH  89  90
ATOM     90  S   UNL     1      -2.892 -15.466  20.257  1.00  0.00     0.124 S 
ATOM     91  O   UNL     1      -1.734 -16.105  19.639  1.00  0.00    -0.237 OA
ATOM     92  O   UNL     1      -2.593 -14.333  21.130  1.00  0.00    -0.237 OA
ATOM     93  O   UNL     1      -3.914 -16.380  20.762  1.00  0.00    -0.744 OA
ENDBRANCH  89  90
ENDBRANCH  63  84
ENDBRANCH  37  38
ENDBRANCH  29  32
ENDBRANCH  27  28
ENDBRANCH  26  27
ENDBRANCH   1  26
TORSDOF 17
