REMARK SMILES O=C(Cc1ccccc1Nc1c(F)cccc1C(F)(F)F)NCCCNC(=O)c1ccc(-c2c3nc(c(-c4ccc(S(=O)(=O)[O-])cc4)c4ccc([nH]4)c(-c4ccc(S(=O)(=O)[O-])cc4)c4nc(c(-c5ccc(S(=O)(=O)[O-])cc5)c5ccc2[nH]5)C=C4)C=C3)cc1
REMARK SMILES IDX 23 1 22 2 1 3 2 4 3 6 4 7 5 8 9 9 6 10 8 11 7 12 10 13 11 15
REMARK SMILES IDX 12 16 17 17 13 18 14 19 16 20 15 21 18 22 19 23 20 24 21 25
REMARK SMILES IDX 24 26 25 27 26 28 27 29 28 31 29 32 30 33 88 34 31 35 87 36
REMARK SMILES IDX 32 37 33 38 34 39 81 40 35 41 86 42 80 43 82 44 36 45 85 46
REMARK SMILES IDX 79 47 78 48 37 50 67 51 48 52 66 53 49 54 52 55 65 56 83 57
REMARK SMILES IDX 50 58 51 59 64 61 84 62 53 63 38 64 39 65 47 66 40 67 46 68
REMARK SMILES IDX 41 69 42 70 43 71 44 72 45 73 68 74 69 75 77 76 70 77 76 78
REMARK SMILES IDX 71 79 72 80 73 81 74 82 75 83 54 84 55 85 63 86 56 87 62 88
REMARK SMILES IDX 57 89 58 90 59 91 60 92 61 93
REMARK H PARENT 22 5 10 14 26 30 82 49 52 60
REMARK Flexibility Score: inf
ROOT
ATOM      1  C   UNL     1       2.248  -0.545  -2.396  1.00  0.00     0.117 C 
ENDROOT
BRANCH   1   2
ATOM      2  N   UNL     1       2.916  -0.335  -1.128  1.00  0.00    -0.356 N 
ATOM      3  O   UNL     1       1.020   0.121   0.090  1.00  0.00    -0.275 OA
ATOM      4  C   UNL     1       2.236  -0.030   0.031  1.00  0.00     0.224 C 
ATOM      5  H   UNL     1       3.897  -0.414  -1.093  1.00  0.00     0.163 HD
BRANCH   4   6
ATOM      6  C   UNL     1       3.129   0.132   1.250  1.00  0.00     0.137 C 
BRANCH   6   7
ATOM      7  C   UNL     1       3.908  -1.111   1.646  1.00  0.00    -0.015 A 
ATOM      8  C   UNL     1       3.347  -2.387   1.428  1.00  0.00     0.006 A 
ATOM      9  C   UNL     1       5.168  -1.014   2.280  1.00  0.00     0.042 A 
ATOM     10  C   UNL     1       4.039  -3.546   1.770  1.00  0.00     0.000 A 
ATOM     11  C   UNL     1       5.838  -2.197   2.630  1.00  0.00     0.026 A 
ATOM     12  C   UNL     1       5.287  -3.452   2.370  1.00  0.00     0.002 A 
BRANCH   9  13
ATOM     13  N   UNL     1       5.753   0.249   2.516  1.00  0.00    -0.352 N 
ATOM     14  H   UNL     1       5.128   1.008   2.460  1.00  0.00     0.167 HD
BRANCH  13  15
ATOM     15  C   UNL     1       7.084   0.607   2.821  1.00  0.00     0.087 A 
ATOM     16  C   UNL     1       7.289   1.411   3.962  1.00  0.00     0.147 A 
ATOM     17  C   UNL     1       8.215   0.163   2.113  1.00  0.00     0.082 A 
ATOM     18  F   UNL     1       6.221   1.869   4.636  1.00  0.00    -0.205 F 
ATOM     19  C   UNL     1       8.556   1.737   4.431  1.00  0.00     0.041 A 
ATOM     20  C   UNL     1       9.502   0.480   2.613  1.00  0.00     0.015 A 
ATOM     21  C   UNL     1       9.671   1.256   3.761  1.00  0.00     0.004 A 
BRANCH  17  22
ATOM     22  C   UNL     1       8.146  -0.608   0.815  1.00  0.00     0.418 C 
ATOM     23  F   UNL     1       9.178  -0.286  -0.023  1.00  0.00    -0.166 F 
ATOM     24  F   UNL     1       8.255  -1.954   1.001  1.00  0.00    -0.166 F 
ATOM     25  F   UNL     1       7.023  -0.406   0.072  1.00  0.00    -0.166 F 
ENDBRANCH  17  22
ENDBRANCH  13  15
ENDBRANCH   9  13
ENDBRANCH   6   7
ENDBRANCH   4   6
ENDBRANCH   1   2
BRANCH   1  26
ATOM     26  C   UNL     1       2.520   0.578  -3.388  1.00  0.00     0.042 C 
BRANCH  26  27
ATOM     27  C   UNL     1       3.990   0.741  -3.766  1.00  0.00     0.118 C 
BRANCH  27  28
ATOM     28  N   UNL     1       4.532  -0.410  -4.477  1.00  0.00    -0.352 N 
ATOM     29  C   UNL     1       5.207  -0.462  -5.673  1.00  0.00     0.251 C 
ATOM     30  H   UNL     1       4.394  -1.279  -4.035  1.00  0.00     0.163 HD
ATOM     31  O   UNL     1       5.470  -1.550  -6.179  1.00  0.00    -0.269 OA
BRANCH  29  32
ATOM     32  C   UNL     1       5.590   0.788  -6.365  1.00  0.00     0.039 A 
ATOM     33  C   UNL     1       5.342   0.907  -7.736  1.00  0.00     0.014 A 
ATOM     34  C   UNL     1       6.185   1.842  -5.667  1.00  0.00     0.014 A 
ATOM     35  C   UNL     1       5.611   2.114  -8.389  1.00  0.00     0.010 A 
ATOM     36  C   UNL     1       6.390   3.063  -6.303  1.00  0.00     0.010 A 
ATOM     37  C   UNL     1       6.097   3.216  -7.668  1.00  0.00    -0.014 A 
BRANCH  37  38
ATOM     38  C   UNL     1       6.296   4.545  -8.302  1.00  0.00     0.031 A 
ATOM     39  C   UNL     1       7.673   5.148  -8.366  1.00  0.00     0.074 A 
ATOM     40  C   UNL     1       5.230   5.254  -8.724  1.00  0.00     0.049 A 
ATOM     41  N   UNL     1       8.030   6.354  -8.724  1.00  0.00    -0.248 NA
ATOM     42  C   UNL     1       8.791   4.289  -7.944  1.00  0.00     0.031 C 
ATOM     43  C   UNL     1       3.839   4.795  -8.699  1.00  0.00     0.029 A 
ATOM     44  N   UNL     1       5.148   6.525  -9.239  1.00  0.00    -0.354 N 
ATOM     45  C   UNL     1       9.407   6.410  -8.543  1.00  0.00     0.074 A 
ATOM     46  C   UNL     1       9.815   5.127  -8.011  1.00  0.00     0.031 C 
ATOM     47  C   UNL     1       3.046   5.764  -9.184  1.00  0.00     0.029 A 
ATOM     48  C   UNL     1       3.861   6.930  -9.508  1.00  0.00     0.049 A 
ATOM     49  H   UNL     1       5.936   7.093  -9.399  1.00  0.00     0.167 HD
ATOM     50  C   UNL     1      10.256   7.433  -8.803  1.00  0.00     0.031 A 
ATOM     51  C   UNL     1       3.386   8.113  -9.946  1.00  0.00     0.031 A 
ATOM     52  C   UNL     1       9.850   8.701  -9.348  1.00  0.00     0.049 A 
ATOM     53  C   UNL     1       4.347   9.237 -10.222  1.00  0.00     0.074 A 
ATOM     54  C   UNL     1      10.643   9.784  -9.688  1.00  0.00     0.029 A 
ATOM     55  N   UNL     1       8.542   9.056  -9.636  1.00  0.00    -0.354 N 
ATOM     56  N   UNL     1       5.650   9.259 -10.077  1.00  0.00    -0.248 NA
ATOM     57  C   UNL     1       3.775  10.493 -10.727  1.00  0.00     0.031 C 
ATOM     58  C   UNL     1       9.809  10.809 -10.145  1.00  0.00     0.029 A 
ATOM     59  C   UNL     1       8.503  10.345 -10.139  1.00  0.00     0.049 A 
ATOM     60  H   UNL     1       7.756   8.478  -9.503  1.00  0.00     0.167 HD
ATOM     61  C   UNL     1       6.057  10.517 -10.508  1.00  0.00     0.074 A 
ATOM     62  C   UNL     1       4.864  11.226 -10.919  1.00  0.00     0.031 C 
ATOM     63  C   UNL     1       7.309  11.033 -10.562  1.00  0.00     0.031 A 
BRANCH  50  64
ATOM     64  C   UNL     1      11.714   7.223  -8.489  1.00  0.00    -0.014 A 
ATOM     65  C   UNL     1      12.506   6.352  -9.258  1.00  0.00     0.010 A 
ATOM     66  C   UNL     1      12.309   7.934  -7.431  1.00  0.00     0.010 A 
ATOM     67  C   UNL     1      13.854   6.160  -8.947  1.00  0.00     0.020 A 
ATOM     68  C   UNL     1      13.664   7.766  -7.133  1.00  0.00     0.020 A 
ATOM     69  C   UNL     1      14.423   6.864  -7.881  1.00  0.00     0.054 A 
BRANCH  69  70
ATOM     70  S   UNL     1      16.179   6.606  -7.506  1.00  0.00     0.124 S 
ATOM     71  O   UNL     1      16.159   5.291  -6.869  1.00  0.00    -0.237 OA
ATOM     72  O   UNL     1      16.802   6.655  -8.826  1.00  0.00    -0.237 OA
ATOM     73  O   UNL     1      16.512   7.720  -6.622  1.00  0.00    -0.744 OA
ENDBRANCH  69  70
ENDBRANCH  50  64
BRANCH  51  74
ATOM     74  C   UNL     1       1.924   8.292 -10.160  1.00  0.00    -0.014 A 
ATOM     75  C   UNL     1       1.401   8.373 -11.462  1.00  0.00     0.010 A 
ATOM     76  C   UNL     1       1.045   8.366  -9.064  1.00  0.00     0.010 A 
ATOM     77  C   UNL     1       0.029   8.543 -11.665  1.00  0.00     0.020 A 
ATOM     78  C   UNL     1      -0.331   8.509  -9.264  1.00  0.00     0.020 A 
ATOM     79  C   UNL     1      -0.829   8.609 -10.564  1.00  0.00     0.054 A 
BRANCH  79  80
ATOM     80  S   UNL     1      -2.613   8.777 -10.853  1.00  0.00     0.124 S 
ATOM     81  O   UNL     1      -2.726  10.179 -11.242  1.00  0.00    -0.237 OA
ATOM     82  O   UNL     1      -2.854   7.804 -11.916  1.00  0.00    -0.237 OA
ATOM     83  O   UNL     1      -3.201   8.434  -9.560  1.00  0.00    -0.744 OA
ENDBRANCH  79  80
ENDBRANCH  51  74
BRANCH  63  84
ATOM     84  C   UNL     1       7.473  12.413 -11.140  1.00  0.00    -0.014 A 
ATOM     85  C   UNL     1       7.110  13.560 -10.413  1.00  0.00     0.010 A 
ATOM     86  C   UNL     1       8.078  12.562 -12.402  1.00  0.00     0.010 A 
ATOM     87  C   UNL     1       7.337  14.832 -10.945  1.00  0.00     0.020 A 
ATOM     88  C   UNL     1       8.327  13.832 -12.927  1.00  0.00     0.020 A 
ATOM     89  C   UNL     1       7.948  14.960 -12.198  1.00  0.00     0.054 A 
BRANCH  89  90
ATOM     90  S   UNL     1       8.297  16.622 -12.836  1.00  0.00     0.124 S 
ATOM     91  O   UNL     1       6.971  17.075 -13.246  1.00  0.00    -0.237 OA
ATOM     92  O   UNL     1       8.862  17.301 -11.672  1.00  0.00    -0.237 OA
ATOM     93  O   UNL     1       9.239  16.383 -13.927  1.00  0.00    -0.744 OA
ENDBRANCH  89  90
ENDBRANCH  63  84
ENDBRANCH  37  38
ENDBRANCH  29  32
ENDBRANCH  27  28
ENDBRANCH  26  27
ENDBRANCH   1  26
TORSDOF 17
