REMARK SMILES Cc1nsc(Nc2ccccc2C(C)C)c1C(=O)NCCCNC(=O)c1ccc(-c2c3nc(c(-c4ccc(S(=O)(=O)[O-])cc4)c4ccc([nH]4)c(-c4ccc(S(=O)(=O)[O-])cc4)c4nc(c(-c5ccc(S(=O)(=O)[O-])cc5)c5ccc2[nH]5)C=C4)C=C3)cc1
REMARK SMILES IDX 21 1 20 2 19 3 17 4 18 5 16 7 1 8 2 9 3 10 4 11 5 12 6 13
REMARK SMILES IDX 7 15 8 16 12 17 9 18 11 19 10 20 13 21 14 22 15 23 22 24
REMARK SMILES IDX 23 25 24 26 25 28 26 29 27 30 85 31 28 32 84 33 29 34 30 35
REMARK SMILES IDX 31 36 78 37 32 38 83 39 77 40 79 41 33 42 82 43 76 44 75 45
REMARK SMILES IDX 34 47 64 48 45 49 63 50 46 51 49 52 62 53 80 54 47 55 48 56
REMARK SMILES IDX 61 58 81 59 50 60 35 61 36 62 44 63 37 64 43 65 38 66 39 67
REMARK SMILES IDX 40 68 41 69 42 70 65 71 66 72 74 73 67 74 73 75 68 76 69 77
REMARK SMILES IDX 70 78 71 79 72 80 51 81 52 82 60 83 53 84 59 85 54 86 55 87
REMARK SMILES IDX 56 88 57 89 58 90
REMARK H PARENT 19 6 6 14 23 27 79 46 49 57
REMARK Flexibility Score: inf
ROOT
ATOM      1  C   UNL     1       2.057   1.910   0.683  1.00  0.00     0.042 C 
ENDROOT
BRANCH   1   2
ATOM      2  C   UNL     1       0.556   1.963   0.397  1.00  0.00     0.118 C 
BRANCH   2   3
ATOM      3  N   UNL     1       0.220   2.390  -0.939  1.00  0.00    -0.352 N 
ATOM      4  C   UNL     1      -0.052   1.780  -2.132  1.00  0.00     0.256 C 
ATOM      5  O   UNL     1      -0.546   2.559  -2.959  1.00  0.00    -0.269 OA
ATOM      6  H   UNL     1       0.174   3.371  -1.010  1.00  0.00     0.163 HD
BRANCH   4   7
ATOM      7  C   UNL     1       0.249   0.386  -2.511  1.00  0.00     0.097 A 
ATOM      8  C   UNL     1       0.666  -1.124  -0.334  1.00  0.00     0.069 C 
ATOM      9  C   UNL     1       0.631  -0.824  -1.788  1.00  0.00     0.066 A 
ATOM     10  N   UNL     1       0.974  -1.879  -2.531  1.00  0.00    -0.195 NA
ATOM     11  S   UNL     1       0.760  -1.532  -4.112  1.00  0.00    -0.018 S 
ATOM     12  C   UNL     1       0.087   0.025  -3.865  1.00  0.00     0.127 A 
BRANCH  12  13
ATOM     13  N   UNL     1      -0.464   0.767  -4.871  1.00  0.00    -0.345 N 
ATOM     14  H   UNL     1      -0.489   1.744  -4.748  1.00  0.00     0.167 HD
BRANCH  13  15
ATOM     15  C   UNL     1      -1.000   0.255  -6.070  1.00  0.00     0.043 A 
ATOM     16  C   UNL     1      -0.415   0.690  -7.271  1.00  0.00     0.026 A 
ATOM     17  C   UNL     1      -2.129  -0.599  -6.118  1.00  0.00    -0.022 A 
ATOM     18  C   UNL     1      -0.861   0.217  -8.504  1.00  0.00     0.002 A 
ATOM     19  C   UNL     1      -2.555  -1.074  -7.376  1.00  0.00     0.006 A 
ATOM     20  C   UNL     1      -1.920  -0.680  -8.555  1.00  0.00     0.000 A 
BRANCH  17  21
ATOM     21  C   UNL     1      -2.917  -0.995  -4.872  1.00  0.00     0.015 C 
ATOM     22  C   UNL     1      -4.368  -0.500  -4.939  1.00  0.00     0.012 C 
ATOM     23  C   UNL     1      -2.890  -2.507  -4.629  1.00  0.00     0.012 C 
ENDBRANCH  17  21
ENDBRANCH  13  15
ENDBRANCH  12  13
ENDBRANCH   4   7
ENDBRANCH   2   3
ENDBRANCH   1   2
BRANCH   1  24
ATOM     24  C   UNL     1       2.547   3.188   1.350  1.00  0.00     0.118 C 
BRANCH  24  25
ATOM     25  N   UNL     1       1.955   3.378   2.682  1.00  0.00    -0.352 N 
ATOM     26  C   UNL     1       1.988   4.497   3.492  1.00  0.00     0.251 C 
ATOM     27  H   UNL     1       1.469   2.603   3.047  1.00  0.00     0.163 HD
ATOM     28  O   UNL     1       1.698   4.421   4.681  1.00  0.00    -0.269 OA
BRANCH  26  29
ATOM     29  C   UNL     1       2.408   5.772   2.893  1.00  0.00     0.039 A 
ATOM     30  C   UNL     1       3.412   6.544   3.475  1.00  0.00     0.014 A 
ATOM     31  C   UNL     1       1.884   6.096   1.647  1.00  0.00     0.014 A 
ATOM     32  C   UNL     1       3.984   7.567   2.721  1.00  0.00     0.010 A 
ATOM     33  C   UNL     1       2.569   6.980   0.848  1.00  0.00     0.010 A 
ATOM     34  C   UNL     1       3.602   7.747   1.378  1.00  0.00    -0.014 A 
BRANCH  34  35
ATOM     35  C   UNL     1       4.356   8.652   0.508  1.00  0.00     0.031 A 
ATOM     36  C   UNL     1       5.839   8.607   0.655  1.00  0.00     0.074 A 
ATOM     37  C   UNL     1       3.822   9.401  -0.482  1.00  0.00     0.049 A 
ATOM     38  N   UNL     1       6.581   9.477   1.256  1.00  0.00    -0.248 NA
ATOM     39  C   UNL     1       6.569   7.414   0.203  1.00  0.00     0.031 C 
ATOM     40  C   UNL     1       2.447   9.428  -0.996  1.00  0.00     0.029 A 
ATOM     41  N   UNL     1       4.461  10.267  -1.315  1.00  0.00    -0.354 N 
ATOM     42  C   UNL     1       7.896   9.063   1.076  1.00  0.00     0.074 A 
ATOM     43  C   UNL     1       7.819   7.714   0.569  1.00  0.00     0.031 C 
ATOM     44  C   UNL     1       2.413  10.072  -2.183  1.00  0.00     0.029 A 
ATOM     45  C   UNL     1       3.708  10.682  -2.404  1.00  0.00     0.049 A 
ATOM     46  H   UNL     1       5.383  10.574  -1.158  1.00  0.00     0.167 HD
ATOM     47  C   UNL     1       8.937   9.941   1.152  1.00  0.00     0.031 A 
ATOM     48  C   UNL     1       4.106  11.498  -3.408  1.00  0.00     0.031 A 
ATOM     49  C   UNL     1       8.527  11.207   1.711  1.00  0.00     0.049 A 
ATOM     50  C   UNL     1       5.226  12.311  -2.880  1.00  0.00     0.074 A 
ATOM     51  C   UNL     1       7.955  11.607   2.903  1.00  0.00     0.029 A 
ATOM     52  N   UNL     1       8.314  12.242   0.830  1.00  0.00    -0.354 N 
ATOM     53  N   UNL     1       5.076  13.196  -1.934  1.00  0.00    -0.248 NA
ATOM     54  C   UNL     1       6.585  11.845  -3.087  1.00  0.00     0.031 C 
ATOM     55  C   UNL     1       7.009  12.611   2.536  1.00  0.00     0.029 A 
ATOM     56  C   UNL     1       7.111  12.815   1.158  1.00  0.00     0.049 A 
ATOM     57  H   UNL     1       8.913  12.520   0.099  1.00  0.00     0.167 HD
ATOM     58  C   UNL     1       6.209  13.068  -1.146  1.00  0.00     0.074 A 
ATOM     59  C   UNL     1       7.150  12.306  -1.967  1.00  0.00     0.031 C 
ATOM     60  C   UNL     1       6.180  13.358   0.190  1.00  0.00     0.031 A 
BRANCH  47  61
ATOM     61  C   UNL     1      10.223   9.802   0.373  1.00  0.00    -0.014 A 
ATOM     62  C   UNL     1      11.253  10.743   0.585  1.00  0.00     0.010 A 
ATOM     63  C   UNL     1      10.350   8.958  -0.748  1.00  0.00     0.010 A 
ATOM     64  C   UNL     1      12.311  10.884  -0.324  1.00  0.00     0.020 A 
ATOM     65  C   UNL     1      11.424   9.060  -1.636  1.00  0.00     0.020 A 
ATOM     66  C   UNL     1      12.378  10.049  -1.439  1.00  0.00     0.054 A 
BRANCH  66  67
ATOM     67  S   UNL     1      13.678  10.315  -2.670  1.00  0.00     0.124 S 
ATOM     68  O   UNL     1      13.308  11.616  -3.219  1.00  0.00    -0.237 OA
ATOM     69  O   UNL     1      14.888  10.293  -1.851  1.00  0.00    -0.237 OA
ATOM     70  O   UNL     1      13.525   9.182  -3.578  1.00  0.00    -0.744 OA
ENDBRANCH  66  67
ENDBRANCH  47  61
BRANCH  48  71
ATOM     71  C   UNL     1       3.765  11.427  -4.846  1.00  0.00    -0.014 A 
ATOM     72  C   UNL     1       4.114  12.479  -5.712  1.00  0.00     0.010 A 
ATOM     73  C   UNL     1       3.386  10.196  -5.419  1.00  0.00     0.010 A 
ATOM     74  C   UNL     1       4.179  12.277  -7.099  1.00  0.00     0.020 A 
ATOM     75  C   UNL     1       3.441   9.990  -6.802  1.00  0.00     0.020 A 
ATOM     76  C   UNL     1       3.872  11.023  -7.633  1.00  0.00     0.054 A 
BRANCH  76  77
ATOM     77  S   UNL     1       4.185  10.706  -9.395  1.00  0.00     0.124 S 
ATOM     78  O   UNL     1       3.131  11.481 -10.042  1.00  0.00    -0.237 OA
ATOM     79  O   UNL     1       5.543  11.215  -9.571  1.00  0.00    -0.237 OA
ATOM     80  O   UNL     1       4.051   9.255  -9.512  1.00  0.00    -0.744 OA
ENDBRANCH  76  77
ENDBRANCH  48  71
BRANCH  60  81
ATOM     81  C   UNL     1       4.977  14.098   0.739  1.00  0.00    -0.014 A 
ATOM     82  C   UNL     1       3.650  13.633   0.636  1.00  0.00     0.010 A 
ATOM     83  C   UNL     1       5.215  15.261   1.493  1.00  0.00     0.010 A 
ATOM     84  C   UNL     1       2.591  14.338   1.229  1.00  0.00     0.020 A 
ATOM     85  C   UNL     1       4.168  15.956   2.104  1.00  0.00     0.020 A 
ATOM     86  C   UNL     1       2.858  15.502   1.956  1.00  0.00     0.054 A 
BRANCH  86  87
ATOM     87  S   UNL     1       1.488  16.405   2.731  1.00  0.00     0.124 S 
ATOM     88  O   UNL     1       0.766  16.938   1.579  1.00  0.00    -0.237 OA
ATOM     89  O   UNL     1       0.792  15.362   3.482  1.00  0.00    -0.237 OA
ATOM     90  O   UNL     1       2.156  17.409   3.559  1.00  0.00    -0.744 OA
ENDBRANCH  86  87
ENDBRANCH  60  81
ENDBRANCH  34  35
ENDBRANCH  26  29
ENDBRANCH  24  25
ENDBRANCH   1  24
TORSDOF 16
