REMARK SMILES O=C(NCCCNC(=O)c1cc(Cl)c2c(c1)[C@H]1C=CC[C@H]1[C@H](c1ccc(S(=O)(=O)N3CCOCC3)cc1)N2)c1ccc(-c2c3nc(c(-c4ccc(S(=O)(=O)[O-])cc4)c4ccc([nH]4)c(-c4ccc(S(=O)(=O)[O-])cc4)c4nc(c(-c5ccc(S(=O)(=O)[O-])cc5)c5ccc2[nH]5)C=C4)C=C3)cc1
REMARK SMILES IDX 5 1 4 2 3 3 1 4 2 5 39 7 40 8 98 9 41 10 97 11 42 12 43 13
REMARK SMILES IDX 44 14 91 15 45 16 96 17 90 18 92 19 46 20 95 21 89 22 88 23
REMARK SMILES IDX 47 25 77 26 58 27 76 28 59 29 62 30 75 31 93 32 60 33 61 34
REMARK SMILES IDX 74 36 94 37 63 38 48 39 49 40 57 41 50 42 56 43 51 44 52 45
REMARK SMILES IDX 53 46 54 47 55 48 78 49 79 50 87 51 80 52 86 53 81 54 82 55
REMARK SMILES IDX 83 56 84 57 85 58 64 59 65 60 73 61 66 62 72 63 67 64 68 65
REMARK SMILES IDX 69 66 70 67 71 68 6 69 7 70 8 71 9 73 10 74 11 75 16 76
REMARK SMILES IDX 12 77 15 78 13 79 14 80 17 81 38 82 18 83 21 84 22 85 19 87
REMARK SMILES IDX 20 88 23 89 24 90 37 91 25 92 36 93 26 94 27 95 28 96 29 97
REMARK SMILES IDX 30 98 31 99 35 100 32 101 34 102 33 103
REMARK H PARENT 3 6 92 24 62 35 7 72 38 86
REMARK Flexibility Score: inf
ROOT
ATOM      1  C   UNL     1       4.939   0.593  -2.250  1.00  0.00     0.042 C 
ENDROOT
BRANCH   1   2
ATOM      2  C   UNL     1       4.479   0.908  -0.833  1.00  0.00     0.118 C 
BRANCH   2   3
ATOM      3  N   UNL     1       3.030   0.866  -0.703  1.00  0.00    -0.352 N 
ATOM      4  O   UNL     1       1.027  -0.036  -0.221  1.00  0.00    -0.269 OA
ATOM      5  C   UNL     1       2.237  -0.018  -0.014  1.00  0.00     0.251 C 
ATOM      6  H   UNL     1       2.546   1.577  -1.180  1.00  0.00     0.163 HD
BRANCH   5   7
ATOM      7  C   UNL     1       2.839  -0.946   0.965  1.00  0.00     0.039 A 
ATOM      8  C   UNL     1       3.796  -0.493   1.877  1.00  0.00     0.014 A 
ATOM      9  C   UNL     1       2.402  -2.273   1.005  1.00  0.00     0.014 A 
ATOM     10  C   UNL     1       4.399  -1.391   2.750  1.00  0.00     0.010 A 
ATOM     11  C   UNL     1       2.961  -3.160   1.929  1.00  0.00     0.010 A 
ATOM     12  C   UNL     1       3.979  -2.730   2.791  1.00  0.00    -0.014 A 
BRANCH  12  13
ATOM     13  C   UNL     1       4.566  -3.630   3.810  1.00  0.00     0.031 A 
ATOM     14  C   UNL     1       5.504  -4.734   3.427  1.00  0.00     0.074 A 
ATOM     15  C   UNL     1       4.273  -3.406   5.105  1.00  0.00     0.049 A 
ATOM     16  N   UNL     1       6.207  -5.513   4.207  1.00  0.00    -0.248 NA
ATOM     17  C   UNL     1       5.676  -5.005   1.991  1.00  0.00     0.031 C 
ATOM     18  C   UNL     1       3.352  -2.374   5.589  1.00  0.00     0.029 A 
ATOM     19  N   UNL     1       4.735  -4.006   6.248  1.00  0.00    -0.354 N 
ATOM     20  C   UNL     1       6.902  -6.369   3.363  1.00  0.00     0.074 A 
ATOM     21  C   UNL     1       6.516  -6.032   2.009  1.00  0.00     0.031 C 
ATOM     22  C   UNL     1       3.353  -2.381   6.930  1.00  0.00     0.029 A 
ATOM     23  C   UNL     1       4.249  -3.435   7.399  1.00  0.00     0.049 A 
ATOM     24  H   UNL     1       5.354  -4.771   6.244  1.00  0.00     0.167 HD
ATOM     25  C   UNL     1       7.787  -7.339   3.691  1.00  0.00     0.031 A 
ATOM     26  C   UNL     1       4.499  -3.715   8.692  1.00  0.00     0.031 A 
ATOM     27  C   UNL     1       8.164  -7.667   5.040  1.00  0.00     0.049 A 
ATOM     28  C   UNL     1       5.475  -4.799   9.034  1.00  0.00     0.074 A 
ATOM     29  C   UNL     1       9.101  -8.592   5.466  1.00  0.00     0.029 A 
ATOM     30  N   UNL     1       7.616  -7.095   6.178  1.00  0.00    -0.354 N 
ATOM     31  N   UNL     1       6.180  -5.547   8.220  1.00  0.00    -0.248 NA
ATOM     32  C   UNL     1       5.697  -5.077  10.458  1.00  0.00     0.031 C 
ATOM     33  C   UNL     1       9.084  -8.614   6.864  1.00  0.00     0.029 A 
ATOM     34  C   UNL     1       8.170  -7.671   7.308  1.00  0.00     0.049 A 
ATOM     35  H   UNL     1       6.934  -6.385   6.182  1.00  0.00     0.167 HD
ATOM     36  C   UNL     1       6.938  -6.380   9.032  1.00  0.00     0.074 A 
ATOM     37  C   UNL     1       6.609  -6.042  10.402  1.00  0.00     0.031 C 
ATOM     38  C   UNL     1       7.828  -7.333   8.667  1.00  0.00     0.031 A 
BRANCH  25  39
ATOM     39  C   UNL     1       8.404  -8.132   2.573  1.00  0.00    -0.014 A 
ATOM     40  C   UNL     1       9.411  -7.577   1.763  1.00  0.00     0.010 A 
ATOM     41  C   UNL     1       8.020  -9.470   2.372  1.00  0.00     0.010 A 
ATOM     42  C   UNL     1      10.003  -8.339   0.753  1.00  0.00     0.020 A 
ATOM     43  C   UNL     1       8.623 -10.241   1.374  1.00  0.00     0.020 A 
ATOM     44  C   UNL     1       9.605  -9.667   0.565  1.00  0.00     0.054 A 
BRANCH  44  45
ATOM     45  S   UNL     1      10.399 -10.627  -0.753  1.00  0.00     0.124 S 
ATOM     46  O   UNL     1      10.014  -9.878  -1.948  1.00  0.00    -0.237 OA
ATOM     47  O   UNL     1      11.812 -10.549  -0.393  1.00  0.00    -0.237 OA
ATOM     48  O   UNL     1       9.796 -11.952  -0.633  1.00  0.00    -0.744 OA
ENDBRANCH  44  45
ENDBRANCH  25  39
BRANCH  26  49
ATOM     49  C   UNL     1       3.814  -2.910   9.735  1.00  0.00    -0.014 A 
ATOM     50  C   UNL     1       4.486  -1.851  10.367  1.00  0.00     0.010 A 
ATOM     51  C   UNL     1       2.445  -3.112   9.993  1.00  0.00     0.010 A 
ATOM     52  C   UNL     1       3.792  -0.986  11.217  1.00  0.00     0.020 A 
ATOM     53  C   UNL     1       1.746  -2.239  10.830  1.00  0.00     0.020 A 
ATOM     54  C   UNL     1       2.422  -1.174  11.427  1.00  0.00     0.054 A 
BRANCH  54  55
ATOM     55  S   UNL     1       1.526   0.038  12.437  1.00  0.00     0.124 S 
ATOM     56  O   UNL     1       2.174  -0.105  13.737  1.00  0.00    -0.237 OA
ATOM     57  O   UNL     1       1.796   1.287  11.729  1.00  0.00    -0.237 OA
ATOM     58  O   UNL     1       0.140  -0.419  12.377  1.00  0.00    -0.744 OA
ENDBRANCH  54  55
ENDBRANCH  26  49
BRANCH  38  59
ATOM     59  C   UNL     1       8.528  -8.100   9.752  1.00  0.00    -0.014 A 
ATOM     60  C   UNL     1       7.893  -9.182  10.385  1.00  0.00     0.010 A 
ATOM     61  C   UNL     1       9.882  -7.834  10.027  1.00  0.00     0.010 A 
ATOM     62  C   UNL     1       8.609 -10.000  11.263  1.00  0.00     0.020 A 
ATOM     63  C   UNL     1      10.604  -8.659  10.893  1.00  0.00     0.020 A 
ATOM     64  C   UNL     1       9.964  -9.743  11.498  1.00  0.00     0.054 A 
BRANCH  64  65
ATOM     65  S   UNL     1      10.891 -10.886  12.559  1.00  0.00     0.124 S 
ATOM     66  O   UNL     1      10.205 -10.741  13.841  1.00  0.00    -0.237 OA
ATOM     67  O   UNL     1      10.698 -12.167  11.885  1.00  0.00    -0.237 OA
ATOM     68  O   UNL     1      12.256 -10.366  12.525  1.00  0.00    -0.744 OA
ENDBRANCH  64  65
ENDBRANCH  38  59
ENDBRANCH  12  13
ENDBRANCH   5   7
ENDBRANCH   2   3
ENDBRANCH   1   2
BRANCH   1  69
ATOM     69  C   UNL     1       4.387   1.537  -3.308  1.00  0.00     0.118 C 
BRANCH  69  70
ATOM     70  N   UNL     1       4.771   2.923  -3.077  1.00  0.00    -0.352 N 
ATOM     71  C   UNL     1       5.484   3.771  -3.883  1.00  0.00     0.251 C 
ATOM     72  H   UNL     1       4.476   3.305  -2.219  1.00  0.00     0.163 HD
ATOM     73  O   UNL     1       5.863   4.861  -3.469  1.00  0.00    -0.269 OA
BRANCH  71  74
ATOM     74  C   UNL     1       5.814   3.356  -5.257  1.00  0.00     0.041 A 
ATOM     75  C   UNL     1       4.825   2.887  -6.119  1.00  0.00     0.036 A 
ATOM     76  C   UNL     1       7.133   3.472  -5.690  1.00  0.00     0.020 A 
ATOM     77  C   UNL     1       5.189   2.425  -7.379  1.00  0.00     0.065 A 
ATOM     78  C   UNL     1       7.492   3.048  -6.978  1.00  0.00    -0.015 A 
ATOM     79  Cl  UNL     1       3.947   1.777  -8.397  1.00  0.00    -0.082 Cl
ATOM     80  C   UNL     1       6.529   2.461  -7.814  1.00  0.00     0.057 A 
ATOM     81  C   UNL     1       8.894   3.284  -7.460  1.00  0.00     0.049 C 
ATOM     82  N   UNL     1       6.874   2.015  -9.081  1.00  0.00    -0.376 N 
ATOM     83  C   UNL     1       9.946   2.395  -6.850  1.00  0.00    -0.023 C 
ATOM     84  C   UNL     1       9.112   3.048  -8.970  1.00  0.00     0.031 C 
ATOM     85  C   UNL     1       8.270   1.834  -9.445  1.00  0.00     0.114 C 
ATOM     86  H   UNL     1       6.168   1.819  -9.739  1.00  0.00     0.161 HD
ATOM     87  C   UNL     1      10.927   2.155  -7.730  1.00  0.00    -0.030 C 
ATOM     88  C   UNL     1      10.639   2.831  -9.033  1.00  0.00     0.034 C 
BRANCH  85  89
ATOM     89  C   UNL     1       8.361   1.600 -10.949  1.00  0.00    -0.025 A 
ATOM     90  C   UNL     1       7.413   2.082 -11.873  1.00  0.00     0.007 A 
ATOM     91  C   UNL     1       9.444   0.866 -11.440  1.00  0.00     0.007 A 
ATOM     92  C   UNL     1       7.558   1.847 -13.247  1.00  0.00     0.022 A 
ATOM     93  C   UNL     1       9.610   0.672 -12.804  1.00  0.00     0.022 A 
ATOM     94  C   UNL     1       8.675   1.151 -13.711  1.00  0.00     0.082 A 
BRANCH  94  95
ATOM     95  S   UNL     1       8.889   0.904 -15.459  1.00  0.00     0.243 S 
ATOM     96  O   UNL     1       8.088  -0.252 -15.810  1.00  0.00    -0.207 OA
ATOM     97  O   UNL     1       8.681   2.190 -16.085  1.00  0.00    -0.207 OA
BRANCH  95  98
ATOM     98  N   UNL     1      10.505   0.498 -15.652  1.00  0.00    -0.193 NA
ATOM     99  C   UNL     1      10.988  -0.898 -15.584  1.00  0.00     0.131 C 
ATOM    100  C   UNL     1      11.547   1.525 -15.827  1.00  0.00     0.131 C 
ATOM    101  C   UNL     1      12.252  -1.033 -14.714  1.00  0.00     0.177 C 
ATOM    102  C   UNL     1      12.690   1.291 -14.840  1.00  0.00     0.177 C 
ATOM    103  O   UNL     1      13.234  -0.027 -14.992  1.00  0.00    -0.379 OA
ENDBRANCH  95  98
ENDBRANCH  94  95
ENDBRANCH  85  89
ENDBRANCH  71  74
ENDBRANCH  69  70
ENDBRANCH   1  69
TORSDOF 16
