REMARK SMILES CC[C@@H](Oc1ccccc1)C(=O)NCCCNC(=O)c1ccc(-c2c3nc(c(-c4ccc(S(=O)(=O)[O-])cc4)c4ccc([nH]4)c(-c4ccc(S(=O)(=O)[O-])cc4)c4nc(c(-c5ccc(S(=O)(=O)[O-])cc5)c5ccc2[nH]5)C=C4)C=C3)cc1
REMARK SMILES IDX 15 1 14 2 13 3 11 4 12 5 3 7 2 8 1 9 4 10 5 11 6 12 10 13
REMARK SMILES IDX 7 14 9 15 8 16 16 17 17 18 18 19 19 21 20 22 21 23 79 24
REMARK SMILES IDX 22 25 78 26 23 27 24 28 25 29 72 30 26 31 77 32 71 33 73 34
REMARK SMILES IDX 27 35 76 36 70 37 69 38 28 40 58 41 39 42 57 43 40 44 43 45
REMARK SMILES IDX 56 46 74 47 41 48 42 49 55 51 75 52 44 53 29 54 30 55 38 56
REMARK SMILES IDX 31 57 37 58 32 59 33 60 34 61 35 62 36 63 59 64 60 65 68 66
REMARK SMILES IDX 61 67 67 68 62 69 63 70 64 71 65 72 66 73 45 74 46 75 54 76
REMARK SMILES IDX 47 77 53 78 48 79 49 80 50 81 51 82 52 83
REMARK H PARENT 13 6 17 20 73 39 43 50
REMARK Flexibility Score: inf
ROOT
ATOM      1  C   UNL     1      -2.720   2.643  -0.784  1.00  0.00     0.042 C 
ENDROOT
BRANCH   1   2
ATOM      2  C   UNL     1      -1.875   2.358  -2.018  1.00  0.00     0.118 C 
BRANCH   2   3
ATOM      3  N   UNL     1      -0.705   3.220  -2.117  1.00  0.00    -0.353 N 
ATOM      4  C   UNL     1       0.625   2.894  -2.052  1.00  0.00     0.261 C 
ATOM      5  O   UNL     1       1.451   3.792  -2.240  1.00  0.00    -0.271 OA
ATOM      6  H   UNL     1      -0.898   4.176  -2.250  1.00  0.00     0.163 HD
BRANCH   4   7
ATOM      7  C   UNL     1       1.069   1.468  -1.678  1.00  0.00     0.261 C 
BRANCH   7   8
ATOM      8  C   UNL     1       0.760   1.260  -0.183  1.00  0.00     0.052 C 
ATOM      9  C   UNL     1       1.824   0.440   0.536  1.00  0.00     0.008 C 
ENDBRANCH   7   8
BRANCH   7  10
ATOM     10  O   UNL     1       0.368   0.609  -2.587  1.00  0.00    -0.481 OA
BRANCH  10  11
ATOM     11  C   UNL     1       0.761  -0.691  -2.614  1.00  0.00     0.120 A 
ATOM     12  C   UNL     1       1.563  -1.126  -3.665  1.00  0.00     0.046 A 
ATOM     13  C   UNL     1       0.201  -1.608  -1.727  1.00  0.00     0.046 A 
ATOM     14  C   UNL     1       1.852  -2.485  -3.793  1.00  0.00     0.004 A 
ATOM     15  C   UNL     1       0.509  -2.961  -1.841  1.00  0.00     0.004 A 
ATOM     16  C   UNL     1       1.335  -3.400  -2.874  1.00  0.00     0.000 A 
ENDBRANCH  10  11
ENDBRANCH   7  10
ENDBRANCH   4   7
ENDBRANCH   2   3
ENDBRANCH   1   2
BRANCH   1  17
ATOM     17  C   UNL     1      -3.453   3.976  -0.830  1.00  0.00     0.118 C 
BRANCH  17  18
ATOM     18  N   UNL     1      -4.420   4.045  -1.918  1.00  0.00    -0.352 N 
ATOM     19  C   UNL     1      -5.782   4.211  -1.896  1.00  0.00     0.251 C 
ATOM     20  H   UNL     1      -4.031   3.958  -2.818  1.00  0.00     0.163 HD
ATOM     21  O   UNL     1      -6.419   4.044  -2.933  1.00  0.00    -0.269 OA
BRANCH  19  22
ATOM     22  C   UNL     1      -6.489   4.569  -0.646  1.00  0.00     0.039 A 
ATOM     23  C   UNL     1      -7.741   3.998  -0.396  1.00  0.00     0.014 A 
ATOM     24  C   UNL     1      -5.956   5.491   0.258  1.00  0.00     0.014 A 
ATOM     25  C   UNL     1      -8.424   4.304   0.783  1.00  0.00     0.010 A 
ATOM     26  C   UNL     1      -6.598   5.732   1.471  1.00  0.00     0.010 A 
ATOM     27  C   UNL     1      -7.843   5.148   1.743  1.00  0.00    -0.014 A 
BRANCH  27  28
ATOM     28  C   UNL     1      -8.527   5.430   3.032  1.00  0.00     0.031 A 
ATOM     29  C   UNL     1      -8.963   6.830   3.373  1.00  0.00     0.074 A 
ATOM     30  C   UNL     1      -8.711   4.432   3.919  1.00  0.00     0.049 A 
ATOM     31  N   UNL     1      -9.535   7.272   4.464  1.00  0.00    -0.248 NA
ATOM     32  C   UNL     1      -8.703   7.874   2.368  1.00  0.00     0.031 C 
ATOM     33  C   UNL     1      -8.291   3.041   3.729  1.00  0.00     0.029 A 
ATOM     34  N   UNL     1      -9.293   4.435   5.162  1.00  0.00    -0.354 N 
ATOM     35  C   UNL     1      -9.693   8.641   4.282  1.00  0.00     0.074 A 
ATOM     36  C   UNL     1      -9.108   8.966   2.999  1.00  0.00     0.031 C 
ATOM     37  C   UNL     1      -8.652   2.322   4.805  1.00  0.00     0.029 A 
ATOM     38  C   UNL     1      -9.293   3.204   5.774  1.00  0.00     0.049 A 
ATOM     39  H   UNL     1      -9.675   5.243   5.576  1.00  0.00     0.167 HD
ATOM     40  C   UNL     1     -10.292   9.544   5.095  1.00  0.00     0.031 A 
ATOM     41  C   UNL     1      -9.753   2.825   6.982  1.00  0.00     0.031 A 
ATOM     42  C   UNL     1     -10.880   9.220   6.368  1.00  0.00     0.049 A 
ATOM     43  C   UNL     1     -10.414   3.845   7.868  1.00  0.00     0.074 A 
ATOM     44  C   UNL     1     -11.545  10.056   7.248  1.00  0.00     0.029 A 
ATOM     45  N   UNL     1     -10.876   7.958   6.943  1.00  0.00    -0.354 N 
ATOM     46  N   UNL     1     -10.604   5.125   7.652  1.00  0.00    -0.248 NA
ATOM     47  C   UNL     1     -10.937   3.365   9.155  1.00  0.00     0.031 C 
ATOM     48  C   UNL     1     -11.906   9.309   8.374  1.00  0.00     0.029 A 
ATOM     49  C   UNL     1     -11.514   7.995   8.171  1.00  0.00     0.049 A 
ATOM     50  H   UNL     1     -10.479   7.154   6.537  1.00  0.00     0.167 HD
ATOM     51  C   UNL     1     -11.289   5.599   8.765  1.00  0.00     0.074 A 
ATOM     52  C   UNL     1     -11.497   4.464   9.642  1.00  0.00     0.031 C 
ATOM     53  C   UNL     1     -11.709   6.859   9.036  1.00  0.00     0.031 A 
BRANCH  40  54
ATOM     54  C   UNL     1     -10.342  10.975   4.625  1.00  0.00    -0.014 A 
ATOM     55  C   UNL     1     -11.163  11.353   3.547  1.00  0.00     0.010 A 
ATOM     56  C   UNL     1      -9.588  11.961   5.289  1.00  0.00     0.010 A 
ATOM     57  C   UNL     1     -11.197  12.681   3.113  1.00  0.00     0.020 A 
ATOM     58  C   UNL     1      -9.641  13.295   4.875  1.00  0.00     0.020 A 
ATOM     59  C   UNL     1     -10.431  13.643   3.778  1.00  0.00     0.054 A 
BRANCH  59  60
ATOM     60  S   UNL     1     -10.509  15.362   3.204  1.00  0.00     0.124 S 
ATOM     61  O   UNL     1      -9.735  15.301   1.967  1.00  0.00    -0.237 OA
ATOM     62  O   UNL     1     -11.943  15.581   3.036  1.00  0.00    -0.237 OA
ATOM     63  O   UNL     1      -9.889  16.119   4.289  1.00  0.00    -0.744 OA
ENDBRANCH  59  60
ENDBRANCH  40  54
BRANCH  41  64
ATOM     64  C   UNL     1      -9.614   1.409   7.418  1.00  0.00    -0.014 A 
ATOM     65  C   UNL     1     -10.741   0.572   7.502  1.00  0.00     0.010 A 
ATOM     66  C   UNL     1      -8.348   0.887   7.738  1.00  0.00     0.010 A 
ATOM     67  C   UNL     1     -10.606  -0.755   7.920  1.00  0.00     0.020 A 
ATOM     68  C   UNL     1      -8.206  -0.447   8.129  1.00  0.00     0.020 A 
ATOM     69  C   UNL     1      -9.339  -1.257   8.230  1.00  0.00     0.054 A 
BRANCH  69  70
ATOM     70  S   UNL     1      -9.180  -2.996   8.721  1.00  0.00     0.124 S 
ATOM     71  O   UNL     1      -9.687  -2.973  10.089  1.00  0.00    -0.237 OA
ATOM     72  O   UNL     1     -10.023  -3.680   7.744  1.00  0.00    -0.237 OA
ATOM     73  O   UNL     1      -7.748  -3.258   8.587  1.00  0.00    -0.744 OA
ENDBRANCH  69  70
ENDBRANCH  41  64
BRANCH  53  74
ATOM     74  C   UNL     1     -12.463   7.073  10.321  1.00  0.00    -0.014 A 
ATOM     75  C   UNL     1     -11.809   7.034  11.565  1.00  0.00     0.010 A 
ATOM     76  C   UNL     1     -13.841   7.355  10.279  1.00  0.00     0.010 A 
ATOM     77  C   UNL     1     -12.527   7.236  12.747  1.00  0.00     0.020 A 
ATOM     78  C   UNL     1     -14.556   7.585  11.456  1.00  0.00     0.020 A 
ATOM     79  C   UNL     1     -13.898   7.506  12.685  1.00  0.00     0.054 A 
BRANCH  79  80
ATOM     80  S   UNL     1     -14.803   7.794  14.230  1.00  0.00     0.124 S 
ATOM     81  O   UNL     1     -14.917   6.443  14.771  1.00  0.00    -0.237 OA
ATOM     82  O   UNL     1     -13.912   8.691  14.962  1.00  0.00    -0.237 OA
ATOM     83  O   UNL     1     -16.058   8.398  13.788  1.00  0.00    -0.744 OA
ENDBRANCH  79  80
ENDBRANCH  53  74
ENDBRANCH  27  28
ENDBRANCH  19  22
ENDBRANCH  17  18
ENDBRANCH   1  17
TORSDOF 16
