REMARK SMILES O=C(NCCCNC(=O)c1ccc(-c2c3nc(c(-c4ccc(S(=O)(=O)[O-])cc4)c4ccc([nH]4)c(-c4ccc(S(=O)(=O)[O-])cc4)c4nc(c(-c5ccc(S(=O)(=O)[O-])cc5)c5ccc2[nH]5)C=C4)C=C3)cc1)c1ccc(/C=C/c2ccnc(-c3cccc([N+](=O)[O-])c3)[n+]2[O-])cc1
REMARK SMILES IDX 4 1 3 2 1 3 2 4 70 6 71 7 93 8 72 9 92 10 73 11 74 12 75 13
REMARK SMILES IDX 76 14 77 15 90 16 78 17 80 18 91 19 79 20 81 21 82 22 89 23
REMARK SMILES IDX 83 24 85 25 84 26 86 27 87 28 88 29 5 30 6 31 7 32 8 33 9 35
REMARK SMILES IDX 10 36 11 37 69 38 12 39 68 40 13 41 14 42 15 43 62 44 16 45
REMARK SMILES IDX 67 46 61 47 63 48 17 49 66 50 60 51 59 52 18 54 48 55 29 56
REMARK SMILES IDX 47 57 30 58 33 59 46 60 64 61 31 62 32 63 45 65 65 66 34 67
REMARK SMILES IDX 19 68 20 69 28 70 21 71 27 72 22 73 23 74 24 75 25 76 26 77
REMARK SMILES IDX 49 78 50 79 58 80 51 81 57 82 52 83 53 84 54 85 55 86 56 87
REMARK SMILES IDX 35 88 36 89 44 90 37 91 43 92 38 93 39 94 40 95 41 96 42 97
REMARK H PARENT 3 5 7 34 63 53 33 64
REMARK Flexibility Score: inf
ROOT
ATOM      1  C   UNL     1       4.470  -0.801  -0.940  1.00  0.00     0.118 C 
ENDROOT
BRANCH   1   2
ATOM      2  N   UNL     1       3.030  -0.589  -0.870  1.00  0.00    -0.352 N 
ATOM      3  O   UNL     1       1.073   0.094   0.033  1.00  0.00    -0.269 OA
ATOM      4  C   UNL     1       2.300   0.138   0.038  1.00  0.00     0.251 C 
ATOM      5  H   UNL     1       2.505  -1.031  -1.575  1.00  0.00     0.163 HD
BRANCH   4   6
ATOM      6  C   UNL     1       2.998   0.967   1.038  1.00  0.00     0.039 A 
ATOM      7  C   UNL     1       3.926   1.930   0.638  1.00  0.00     0.014 A 
ATOM      8  C   UNL     1       2.714   0.784   2.391  1.00  0.00     0.014 A 
ATOM      9  C   UNL     1       4.650   2.635   1.599  1.00  0.00     0.009 A 
ATOM     10  C   UNL     1       3.434   1.502   3.350  1.00  0.00     0.009 A 
ATOM     11  C   UNL     1       4.437   2.407   2.966  1.00  0.00    -0.025 A 
BRANCH  11  12
ATOM     12  C   UNL     1       5.191   3.118   4.011  1.00  0.00     0.012 C 
ATOM     13  C   UNL     1       6.410   3.653   3.834  1.00  0.00     0.053 C 
BRANCH  13  14
ATOM     14  C   UNL     1       7.104   4.409   4.885  1.00  0.00     0.134 A 
ATOM     15  C   UNL     1       7.368   5.760   4.659  1.00  0.00     0.100 A 
ATOM     16  N   UNL     1       7.504   3.792   6.082  1.00  0.00    -0.228 N 
ATOM     17  C   UNL     1       7.998   6.468   5.651  1.00  0.00     0.259 A 
ATOM     18  C   UNL     1       8.167   4.582   7.024  1.00  0.00     0.333 A 
ATOM     19  O   UNL     1       7.266   2.553   6.296  1.00  0.00    -0.710 OA
ATOM     20  N   UNL     1       8.388   5.921   6.814  1.00  0.00    -0.049 NA
BRANCH  18  21
ATOM     21  C   UNL     1       8.701   4.017   8.266  1.00  0.00     0.076 A 
ATOM     22  C   UNL     1       8.361   4.581   9.511  1.00  0.00     0.017 A 
ATOM     23  C   UNL     1       9.618   2.952   8.247  1.00  0.00     0.102 A 
ATOM     24  C   UNL     1       8.905   4.093  10.703  1.00  0.00     0.008 A 
ATOM     25  C   UNL     1      10.181   2.481   9.442  1.00  0.00     0.270 A 
ATOM     26  C   UNL     1       9.822   3.044  10.672  1.00  0.00     0.085 A 
BRANCH  25  27
ATOM     27  N   UNL     1      11.192   1.418   9.400  1.00  0.00     0.062 N 
ATOM     28  O   UNL     1      11.620   0.990  10.482  1.00  0.00    -0.258 OA
ATOM     29  O   UNL     1      11.583   1.039   8.287  1.00  0.00    -0.258 OA
ENDBRANCH  25  27
ENDBRANCH  18  21
ENDBRANCH  13  14
ENDBRANCH  11  12
ENDBRANCH   4   6
ENDBRANCH   1   2
BRANCH   1  30
ATOM     30  C   UNL     1       4.879  -2.220  -0.568  1.00  0.00     0.042 C 
BRANCH  30  31
ATOM     31  C   UNL     1       4.355  -3.301  -1.505  1.00  0.00     0.118 C 
BRANCH  31  32
ATOM     32  N   UNL     1       4.776  -3.110  -2.886  1.00  0.00    -0.352 N 
ATOM     33  C   UNL     1       5.515  -3.908  -3.724  1.00  0.00     0.251 C 
ATOM     34  H   UNL     1       4.479  -2.262  -3.289  1.00  0.00     0.163 HD
ATOM     35  O   UNL     1       5.883  -3.448  -4.803  1.00  0.00    -0.269 OA
BRANCH  33  36
ATOM     36  C   UNL     1       5.890  -5.290  -3.346  1.00  0.00     0.039 A 
ATOM     37  C   UNL     1       7.148  -5.768  -3.730  1.00  0.00     0.014 A 
ATOM     38  C   UNL     1       5.012  -6.136  -2.665  1.00  0.00     0.014 A 
ATOM     39  C   UNL     1       7.545  -7.060  -3.374  1.00  0.00     0.010 A 
ATOM     40  C   UNL     1       5.439  -7.393  -2.238  1.00  0.00     0.010 A 
ATOM     41  C   UNL     1       6.707  -7.872  -2.592  1.00  0.00    -0.014 A 
BRANCH  41  42
ATOM     42  C   UNL     1       7.155  -9.213  -2.133  1.00  0.00     0.031 A 
ATOM     43  C   UNL     1       6.431 -10.458  -2.576  1.00  0.00     0.074 A 
ATOM     44  C   UNL     1       8.186  -9.307  -1.269  1.00  0.00     0.049 A 
ATOM     45  N   UNL     1       6.672 -11.706  -2.261  1.00  0.00    -0.248 NA
ATOM     46  C   UNL     1       5.274 -10.280  -3.468  1.00  0.00     0.031 C 
ATOM     47  C   UNL     1       8.932  -8.174  -0.713  1.00  0.00     0.029 A 
ATOM     48  N   UNL     1       8.784 -10.405  -0.704  1.00  0.00    -0.354 N 
ATOM     49  C   UNL     1       5.688 -12.456  -2.894  1.00  0.00     0.074 A 
ATOM     50  C   UNL     1       4.821 -11.521  -3.578  1.00  0.00     0.031 C 
ATOM     51  C   UNL     1       9.904  -8.638   0.088  1.00  0.00     0.029 A 
ATOM     52  C   UNL     1       9.833 -10.095   0.129  1.00  0.00     0.049 A 
ATOM     53  H   UNL     1       8.489 -11.328  -0.878  1.00  0.00     0.167 HD
ATOM     54  C   UNL     1       5.529 -13.801  -2.921  1.00  0.00     0.031 A 
ATOM     55  C   UNL     1      10.650 -10.891   0.846  1.00  0.00     0.031 A 
ATOM     56  C   UNL     1       6.406 -14.733  -2.263  1.00  0.00     0.049 A 
ATOM     57  C   UNL     1      10.475 -12.382   0.770  1.00  0.00     0.074 A 
ATOM     58  C   UNL     1       6.371 -16.116  -2.296  1.00  0.00     0.029 A 
ATOM     59  N   UNL     1       7.475 -14.379  -1.455  1.00  0.00    -0.354 N 
ATOM     60  N   UNL     1       9.586 -13.073   0.098  1.00  0.00    -0.248 NA
ATOM     61  C   UNL     1      11.424 -13.200   1.538  1.00  0.00     0.031 C 
ATOM     62  C   UNL     1       7.394 -16.599  -1.473  1.00  0.00     0.029 A 
ATOM     63  C   UNL     1       8.095 -15.517  -0.967  1.00  0.00     0.049 A 
ATOM     64  H   UNL     1       7.752 -13.455  -1.257  1.00  0.00     0.167 HD
ATOM     65  C   UNL     1       9.881 -14.409   0.347  1.00  0.00     0.074 A 
ATOM     66  C   UNL     1      11.042 -14.427   1.213  1.00  0.00     0.031 C 
ATOM     67  C   UNL     1       9.245 -15.520  -0.100  1.00  0.00     0.031 A 
BRANCH  54  68
ATOM     68  C   UNL     1       4.359 -14.351  -3.695  1.00  0.00    -0.014 A 
ATOM     69  C   UNL     1       4.342 -14.322  -5.101  1.00  0.00     0.010 A 
ATOM     70  C   UNL     1       3.288 -14.952  -3.010  1.00  0.00     0.010 A 
ATOM     71  C   UNL     1       3.259 -14.852  -5.807  1.00  0.00     0.020 A 
ATOM     72  C   UNL     1       2.214 -15.506  -3.713  1.00  0.00     0.020 A 
ATOM     73  C   UNL     1       2.200 -15.439  -5.108  1.00  0.00     0.054 A 
BRANCH  73  74
ATOM     74  S   UNL     1       0.822 -16.150  -6.050  1.00  0.00     0.124 S 
ATOM     75  O   UNL     1       0.110 -14.953  -6.490  1.00  0.00    -0.237 OA
ATOM     76  O   UNL     1       1.505 -16.896  -7.104  1.00  0.00    -0.237 OA
ATOM     77  O   UNL     1       0.117 -16.970  -5.068  1.00  0.00    -0.744 OA
ENDBRANCH  73  74
ENDBRANCH  54  68
BRANCH  55  78
ATOM     78  C   UNL     1      11.725 -10.292   1.681  1.00  0.00    -0.014 A 
ATOM     79  C   UNL     1      13.072 -10.400   1.292  1.00  0.00     0.010 A 
ATOM     80  C   UNL     1      11.406  -9.602   2.864  1.00  0.00     0.010 A 
ATOM     81  C   UNL     1      14.083  -9.848   2.084  1.00  0.00     0.020 A 
ATOM     82  C   UNL     1      12.413  -9.027   3.645  1.00  0.00     0.020 A 
ATOM     83  C   UNL     1      13.747  -9.165   3.256  1.00  0.00     0.054 A 
BRANCH  83  84
ATOM     84  S   UNL     1      15.071  -8.417   4.245  1.00  0.00     0.124 S 
ATOM     85  O   UNL     1      15.637  -9.579   4.922  1.00  0.00    -0.237 OA
ATOM     86  O   UNL     1      15.919  -7.802   3.226  1.00  0.00    -0.237 OA
ATOM     87  O   UNL     1      14.361  -7.472   5.104  1.00  0.00    -0.744 OA
ENDBRANCH  83  84
ENDBRANCH  55  78
BRANCH  67  88
ATOM     88  C   UNL     1       9.808 -16.849   0.324  1.00  0.00    -0.014 A 
ATOM     89  C   UNL     1       9.656 -17.314   1.643  1.00  0.00     0.010 A 
ATOM     90  C   UNL     1      10.471 -17.657  -0.618  1.00  0.00     0.010 A 
ATOM     91  C   UNL     1      10.194 -18.547   2.022  1.00  0.00     0.020 A 
ATOM     92  C   UNL     1      10.987 -18.901  -0.248  1.00  0.00     0.020 A 
ATOM     93  C   UNL     1      10.861 -19.330   1.075  1.00  0.00     0.054 A 
BRANCH  93  94
ATOM     94  S   UNL     1      11.531 -20.938   1.583  1.00  0.00     0.124 S 
ATOM     95  O   UNL     1      12.737 -20.548   2.307  1.00  0.00    -0.237 OA
ATOM     96  O   UNL     1      10.456 -21.491   2.403  1.00  0.00    -0.237 OA
ATOM     97  O   UNL     1      11.759 -21.632   0.317  1.00  0.00    -0.744 OA
ENDBRANCH  93  94
ENDBRANCH  67  88
ENDBRANCH  41  42
ENDBRANCH  33  36
ENDBRANCH  31  32
ENDBRANCH  30  31
ENDBRANCH   1  30
TORSDOF 17
