REMARK SMILES CC[C@H](Oc1ccccc1/C=C1\SC(N)=[NH+]C1=O)C(=O)NCCCNC(=O)c1ccc(-c2c3nc(c(-c4ccc(S(=O)(=O)[O-])cc4)c4ccc([nH]4)c(-c4ccc(S(=O)(=O)[O-])cc4)c4nc(c(-c5ccc(S(=O)(=O)[O-])cc5)c5ccc2[nH]5)C=C4)C=C3)cc1
REMARK SMILES IDX 23 1 22 2 21 3 19 4 20 5 3 7 2 8 1 9 4 10 5 11 6 12 10 13
REMARK SMILES IDX 7 14 9 15 8 16 11 17 12 18 13 19 17 20 14 21 16 22 18 23
REMARK SMILES IDX 15 24 24 28 25 29 26 30 27 32 28 33 29 34 87 35 30 36 86 37
REMARK SMILES IDX 31 38 32 39 33 40 80 41 34 42 85 43 79 44 81 45 35 46 84 47
REMARK SMILES IDX 78 48 77 49 36 51 66 52 47 53 65 54 48 55 51 56 64 57 82 58
REMARK SMILES IDX 49 59 50 60 63 62 83 63 52 64 37 65 38 66 46 67 39 68 45 69
REMARK SMILES IDX 40 70 41 71 42 72 43 73 44 74 67 75 68 76 76 77 69 78 75 79
REMARK SMILES IDX 70 80 71 81 72 82 73 83 74 84 53 85 54 86 62 87 55 88 61 89
REMARK SMILES IDX 56 90 57 91 58 92 59 93 60 94
REMARK H PARENT 21 6 16 25 15 26 15 27 25 31 81 50 51 61
REMARK Flexibility Score: inf
ROOT
ATOM      1  C   UNL     1      -3.203  -2.221  -1.567  1.00  0.00     0.042 C 
ENDROOT
BRANCH   1   2
ATOM      2  C   UNL     1      -2.087  -3.049  -0.930  1.00  0.00     0.118 C 
BRANCH   2   3
ATOM      3  N   UNL     1      -0.994  -3.358  -1.832  1.00  0.00    -0.353 N 
ATOM      4  C   UNL     1       0.333  -3.062  -1.788  1.00  0.00     0.261 C 
ATOM      5  O   UNL     1       1.021  -3.506  -2.716  1.00  0.00    -0.271 OA
ATOM      6  H   UNL     1      -1.262  -3.879  -2.623  1.00  0.00     0.163 HD
BRANCH   4   7
ATOM      7  C   UNL     1       0.994  -2.298  -0.621  1.00  0.00     0.261 C 
BRANCH   7   8
ATOM      8  C   UNL     1       1.009  -3.165   0.646  1.00  0.00     0.052 C 
ATOM      9  C   UNL     1       2.008  -2.695   1.695  1.00  0.00     0.008 C 
ENDBRANCH   7   8
BRANCH   7  10
ATOM     10  O   UNL     1       0.723  -0.902  -0.609  1.00  0.00    -0.480 OA
BRANCH  10  11
ATOM     11  C   UNL     1      -0.101  -0.158   0.171  1.00  0.00     0.127 A 
ATOM     12  C   UNL     1      -0.617  -0.541   1.411  1.00  0.00     0.047 A 
ATOM     13  C   UNL     1      -0.375   1.153  -0.289  1.00  0.00     0.018 A 
ATOM     14  C   UNL     1      -1.383   0.334   2.189  1.00  0.00     0.004 A 
ATOM     15  C   UNL     1      -1.139   2.027   0.510  1.00  0.00     0.012 A 
ATOM     16  C   UNL     1      -1.641   1.620   1.742  1.00  0.00     0.001 A 
BRANCH  13  17
ATOM     17  C   UNL     1       0.128   1.736  -1.552  1.00  0.00     0.036 C 
ATOM     18  C   UNL     1      -0.100   1.317  -2.805  1.00  0.00     0.110 C 
ATOM     19  S   UNL     1      -0.979  -0.053  -3.327  1.00  0.00     0.006 SA
ATOM     20  C   UNL     1       0.343   2.091  -4.011  1.00  0.00     0.346 C 
ATOM     21  C   UNL     1      -0.817   0.462  -4.973  1.00  0.00     0.314 C 
ATOM     22  N   UNL     1      -0.138   1.532  -5.183  1.00  0.00    -0.200 N 
ATOM     23  O   UNL     1       1.035   3.093  -3.947  1.00  0.00    -0.240 OA
ATOM     24  N   UNL     1      -1.427  -0.297  -5.904  1.00  0.00    -0.281 N 
ATOM     25  H   UNL     1       0.023   1.912  -6.077  1.00  0.00     0.316 HD
ATOM     26  H   UNL     1      -1.925  -1.103  -5.634  1.00  0.00     0.302 HD
ATOM     27  H   UNL     1      -1.374  -0.047  -6.855  1.00  0.00     0.302 HD
ENDBRANCH  13  17
ENDBRANCH  10  11
ENDBRANCH   7  10
ENDBRANCH   4   7
ENDBRANCH   2   3
ENDBRANCH   1   2
BRANCH   1  28
ATOM     28  C   UNL     1      -3.762  -2.785  -2.871  1.00  0.00     0.118 C 
BRANCH  28  29
ATOM     29  N   UNL     1      -4.726  -3.846  -2.626  1.00  0.00    -0.352 N 
ATOM     30  C   UNL     1      -6.091  -3.825  -2.796  1.00  0.00     0.251 C 
ATOM     31  H   UNL     1      -4.352  -4.693  -2.292  1.00  0.00     0.163 HD
ATOM     32  O   UNL     1      -6.783  -4.689  -2.264  1.00  0.00    -0.269 OA
BRANCH  30  33
ATOM     33  C   UNL     1      -6.726  -2.758  -3.604  1.00  0.00     0.039 A 
ATOM     34  C   UNL     1      -7.865  -2.118  -3.108  1.00  0.00     0.014 A 
ATOM     35  C   UNL     1      -6.217  -2.402  -4.857  1.00  0.00     0.014 A 
ATOM     36  C   UNL     1      -8.447  -1.073  -3.833  1.00  0.00     0.010 A 
ATOM     37  C   UNL     1      -6.763  -1.320  -5.551  1.00  0.00     0.010 A 
ATOM     38  C   UNL     1      -7.877  -0.635  -5.040  1.00  0.00    -0.014 A 
BRANCH  38  39
ATOM     39  C   UNL     1      -8.394   0.573  -5.740  1.00  0.00     0.031 A 
ATOM     40  C   UNL     1      -8.995   0.471  -7.118  1.00  0.00     0.074 A 
ATOM     41  C   UNL     1      -8.258   1.781  -5.154  1.00  0.00     0.049 A 
ATOM     42  N   UNL     1      -9.434   1.429  -7.895  1.00  0.00    -0.248 NA
ATOM     43  C   UNL     1      -9.105  -0.873  -7.707  1.00  0.00     0.031 C 
ATOM     44  C   UNL     1      -7.660   2.021  -3.837  1.00  0.00     0.029 A 
ATOM     45  N   UNL     1      -8.598   3.039  -5.592  1.00  0.00    -0.354 N 
ATOM     46  C   UNL     1      -9.854   0.810  -9.067  1.00  0.00     0.074 A 
ATOM     47  C   UNL     1      -9.593  -0.604  -8.912  1.00  0.00     0.031 C 
ATOM     48  C   UNL     1      -7.690   3.336  -3.570  1.00  0.00     0.029 A 
ATOM     49  C   UNL     1      -8.258   4.042  -4.713  1.00  0.00     0.049 A 
ATOM     50  H   UNL     1      -9.042   3.206  -6.455  1.00  0.00     0.167 HD
ATOM     51  C   UNL     1     -10.412   1.370 -10.166  1.00  0.00     0.031 A 
ATOM     52  C   UNL     1      -8.364   5.382  -4.820  1.00  0.00     0.031 A 
ATOM     53  C   UNL     1     -10.686   2.777 -10.310  1.00  0.00     0.049 A 
ATOM     54  C   UNL     1      -8.957   5.974  -6.072  1.00  0.00     0.074 A 
ATOM     55  C   UNL     1     -11.326   3.421 -11.357  1.00  0.00     0.029 A 
ATOM     56  N   UNL     1     -10.326   3.757  -9.400  1.00  0.00    -0.354 N 
ATOM     57  N   UNL     1      -9.445   5.358  -7.122  1.00  0.00    -0.248 NA
ATOM     58  C   UNL     1      -9.014   7.441  -6.152  1.00  0.00     0.031 C 
ATOM     59  C   UNL     1     -11.284   4.797 -11.114  1.00  0.00     0.029 A 
ATOM     60  C   UNL     1     -10.682   5.005  -9.885  1.00  0.00     0.049 A 
ATOM     61  H   UNL     1      -9.883   3.591  -8.537  1.00  0.00     0.167 HD
ATOM     62  C   UNL     1      -9.882   6.364  -7.978  1.00  0.00     0.074 A 
ATOM     63  C   UNL     1      -9.631   7.623  -7.311  1.00  0.00     0.031 C 
ATOM     64  C   UNL     1     -10.431   6.253  -9.212  1.00  0.00     0.031 A 
BRANCH  51  65
ATOM     65  C   UNL     1     -10.766   0.476 -11.327  1.00  0.00    -0.014 A 
ATOM     66  C   UNL     1     -11.868  -0.395 -11.267  1.00  0.00     0.010 A 
ATOM     67  C   UNL     1     -10.062   0.607 -12.540  1.00  0.00     0.010 A 
ATOM     68  C   UNL     1     -12.254  -1.124 -12.395  1.00  0.00     0.020 A 
ATOM     69  C   UNL     1     -10.461  -0.101 -13.677  1.00  0.00     0.020 A 
ATOM     70  C   UNL     1     -11.553  -0.966 -13.596  1.00  0.00     0.054 A 
BRANCH  70  71
ATOM     71  S   UNL     1     -12.131  -1.864 -15.063  1.00  0.00     0.124 S 
ATOM     72  O   UNL     1     -11.796  -3.244 -14.722  1.00  0.00    -0.237 OA
ATOM     73  O   UNL     1     -13.557  -1.551 -15.086  1.00  0.00    -0.237 OA
ATOM     74  O   UNL     1     -11.350  -1.287 -16.154  1.00  0.00    -0.744 OA
ENDBRANCH  70  71
ENDBRANCH  51  65
BRANCH  52  75
ATOM     75  C   UNL     1      -7.860   6.269  -3.733  1.00  0.00    -0.014 A 
ATOM     76  C   UNL     1      -8.742   7.080  -2.996  1.00  0.00     0.010 A 
ATOM     77  C   UNL     1      -6.481   6.340  -3.459  1.00  0.00     0.010 A 
ATOM     78  C   UNL     1      -8.252   7.972  -2.037  1.00  0.00     0.020 A 
ATOM     79  C   UNL     1      -5.991   7.203  -2.475  1.00  0.00     0.020 A 
ATOM     80  C   UNL     1      -6.879   8.030  -1.786  1.00  0.00     0.054 A 
BRANCH  80  81
ATOM     81  S   UNL     1      -6.265   9.188  -0.531  1.00  0.00     0.124 S 
ATOM     82  O   UNL     1      -6.413  10.473  -1.208  1.00  0.00    -0.237 OA
ATOM     83  O   UNL     1      -7.175   8.951   0.587  1.00  0.00    -0.237 OA
ATOM     84  O   UNL     1      -4.889   8.750  -0.307  1.00  0.00    -0.744 OA
ENDBRANCH  80  81
ENDBRANCH  52  75
BRANCH  64  85
ATOM     85  C   UNL     1     -10.813   7.525  -9.922  1.00  0.00    -0.014 A 
ATOM     86  C   UNL     1      -9.831   8.393 -10.432  1.00  0.00     0.010 A 
ATOM     87  C   UNL     1     -12.171   7.822 -10.143  1.00  0.00     0.010 A 
ATOM     88  C   UNL     1     -10.200   9.547 -11.129  1.00  0.00     0.020 A 
ATOM     89  C   UNL     1     -12.543   8.957 -10.867  1.00  0.00     0.020 A 
ATOM     90  C   UNL     1     -11.554   9.818 -11.347  1.00  0.00     0.054 A 
BRANCH  90  91
ATOM     91  S   UNL     1     -12.001  11.289 -12.310  1.00  0.00     0.124 S 
ATOM     92  O   UNL     1     -11.666  12.371 -11.388  1.00  0.00    -0.237 OA
ATOM     93  O   UNL     1     -11.141  11.175 -13.485  1.00  0.00    -0.237 OA
ATOM     94  O   UNL     1     -13.428  11.113 -12.571  1.00  0.00    -0.744 OA
ENDBRANCH  90  91
ENDBRANCH  64  85
ENDBRANCH  38  39
ENDBRANCH  30  33
ENDBRANCH  28  29
ENDBRANCH   1  28
TORSDOF 17
