REMARK SMILES O=C(CC1(NS(=O)(=O)C[C@H]2CCCO2)CCC1)NCCCNC(=O)c1ccc(-c2c3nc(c(-c4ccc(S(=O)(=O)[O-])cc4)c4ccc([nH]4)c(-c4ccc(S(=O)(=O)[O-])cc4)c4nc(c(-c5ccc(S(=O)(=O)[O-])cc5)c5ccc2[nH]5)C=C4)C=C3)cc1
REMARK SMILES IDX 19 1 18 2 1 3 2 4 3 6 4 7 15 8 17 9 16 10 5 11 6 13 7 14
REMARK SMILES IDX 8 15 9 16 10 17 11 18 14 19 12 20 13 21 20 22 21 23 22 24
REMARK SMILES IDX 23 25 24 27 25 28 26 29 84 30 27 31 83 32 28 33 29 34 30 35
REMARK SMILES IDX 77 36 31 37 82 38 76 39 78 40 32 41 81 42 75 43 74 44 33 46
REMARK SMILES IDX 63 47 44 48 62 49 45 50 48 51 61 52 79 53 46 54 47 55 60 57
REMARK SMILES IDX 80 58 49 59 34 60 35 61 43 62 36 63 42 64 37 65 38 66 39 67
REMARK SMILES IDX 40 68 41 69 64 70 65 71 73 72 66 73 72 74 67 75 68 76 69 77
REMARK SMILES IDX 70 78 71 79 50 80 51 81 59 82 52 83 58 84 53 85 54 86 55 87
REMARK SMILES IDX 56 88 57 89
REMARK H PARENT 18 5 5 12 22 26 78 45 48 56
REMARK Flexibility Score: inf
ROOT
ATOM      1  C   UNL     1       8.368  -0.358   0.140  1.00  0.00     0.117 C 
ENDROOT
BRANCH   1   2
ATOM      2  N   UNL     1       7.785   0.522  -0.856  1.00  0.00    -0.356 N 
ATOM      3  O   UNL     1       9.467   2.092  -0.784  1.00  0.00    -0.275 OA
ATOM      4  C   UNL     1       8.417   1.677  -1.264  1.00  0.00     0.221 C 
ATOM      5  H   UNL     1       6.914   0.288  -1.251  1.00  0.00     0.163 HD
BRANCH   4   6
ATOM      6  C   UNL     1       7.703   2.416  -2.370  1.00  0.00     0.123 C 
BRANCH   6   7
ATOM      7  C   UNL     1       7.665   1.715  -3.738  1.00  0.00     0.042 C 
ATOM      8  C   UNL     1       8.561   2.399  -4.826  1.00  0.00     0.024 C 
ATOM      9  C   UNL     1       8.622   0.474  -3.908  1.00  0.00     0.024 C 
ATOM     10  C   UNL     1       9.014   1.008  -5.290  1.00  0.00     0.004 C 
BRANCH   7  11
ATOM     11  N   UNL     1       6.228   1.437  -4.152  1.00  0.00    -0.208 NA
ATOM     12  H   UNL     1       5.835   0.916  -3.368  1.00  0.00     0.141 HD
BRANCH  11  13
ATOM     13  S   UNL     1       5.022   2.524  -4.578  1.00  0.00     0.214 S 
ATOM     14  O   UNL     1       5.657   3.643  -5.236  1.00  0.00    -0.212 OA
ATOM     15  O   UNL     1       4.023   1.744  -5.278  1.00  0.00    -0.212 OA
BRANCH  13  16
ATOM     16  C   UNL     1       4.321   3.125  -3.054  1.00  0.00     0.185 C 
BRANCH  16  17
ATOM     17  C   UNL     1       3.803   2.106  -2.051  1.00  0.00     0.134 C 
ATOM     18  C   UNL     1       2.479   1.439  -2.395  1.00  0.00     0.035 C 
ATOM     19  O   UNL     1       4.748   1.068  -1.750  1.00  0.00    -0.377 OA
ATOM     20  C   UNL     1       2.862   0.026  -2.739  1.00  0.00     0.031 C 
ATOM     21  C   UNL     1       4.096  -0.200  -1.903  1.00  0.00     0.160 C 
ENDBRANCH  16  17
ENDBRANCH  13  16
ENDBRANCH  11  13
ENDBRANCH   7  11
ENDBRANCH   6   7
ENDBRANCH   4   6
ENDBRANCH   1   2
BRANCH   1  22
ATOM     22  C   UNL     1       7.338  -0.929   1.108  1.00  0.00     0.042 C 
BRANCH  22  23
ATOM     23  C   UNL     1       6.394  -1.961   0.501  1.00  0.00     0.118 C 
BRANCH  23  24
ATOM     24  N   UNL     1       7.048  -3.193   0.091  1.00  0.00    -0.352 N 
ATOM     25  C   UNL     1       6.772  -4.500   0.413  1.00  0.00     0.251 C 
ATOM     26  H   UNL     1       7.813  -3.071  -0.517  1.00  0.00     0.163 HD
ATOM     27  O   UNL     1       7.520  -5.386   0.007  1.00  0.00    -0.269 OA
BRANCH  25  28
ATOM     28  C   UNL     1       5.613  -4.852   1.267  1.00  0.00     0.039 A 
ATOM     29  C   UNL     1       5.798  -5.806   2.274  1.00  0.00     0.014 A 
ATOM     30  C   UNL     1       4.353  -4.278   1.082  1.00  0.00     0.014 A 
ATOM     31  C   UNL     1       4.745  -6.124   3.137  1.00  0.00     0.010 A 
ATOM     32  C   UNL     1       3.326  -4.541   1.989  1.00  0.00     0.010 A 
ATOM     33  C   UNL     1       3.511  -5.463   3.031  1.00  0.00    -0.014 A 
BRANCH  33  34
ATOM     34  C   UNL     1       2.422  -5.710   4.016  1.00  0.00     0.031 A 
ATOM     35  C   UNL     1       1.108  -6.302   3.578  1.00  0.00     0.074 A 
ATOM     36  C   UNL     1       2.597  -5.353   5.305  1.00  0.00     0.049 A 
ATOM     37  N   UNL     1       0.037  -6.546   4.289  1.00  0.00    -0.248 NA
ATOM     38  C   UNL     1       0.973  -6.645   2.154  1.00  0.00     0.031 C 
ATOM     39  C   UNL     1       3.809  -4.741   5.857  1.00  0.00     0.029 A 
ATOM     40  N   UNL     1       1.756  -5.449   6.387  1.00  0.00    -0.354 N 
ATOM     41  C   UNL     1      -0.901  -7.060   3.401  1.00  0.00     0.074 A 
ATOM     42  C   UNL     1      -0.289  -7.044   2.089  1.00  0.00     0.031 C 
ATOM     43  C   UNL     1       3.643  -4.544   7.174  1.00  0.00     0.029 A 
ATOM     44  C   UNL     1       2.300  -4.968   7.556  1.00  0.00     0.049 A 
ATOM     45  H   UNL     1       0.848  -5.826   6.331  1.00  0.00     0.167 HD
ATOM     46  C   UNL     1      -2.151  -7.519   3.654  1.00  0.00     0.031 A 
ATOM     47  C   UNL     1       1.778  -4.868   8.795  1.00  0.00     0.031 A 
ATOM     48  C   UNL     1      -2.759  -7.534   4.959  1.00  0.00     0.049 A 
ATOM     49  C   UNL     1       0.377  -5.355   9.044  1.00  0.00     0.074 A 
ATOM     50  C   UNL     1      -4.002  -8.025   5.322  1.00  0.00     0.029 A 
ATOM     51  N   UNL     1      -2.177  -7.033   6.114  1.00  0.00    -0.354 N 
ATOM     52  N   UNL     1      -0.470  -5.897   8.201  1.00  0.00    -0.248 NA
ATOM     53  C   UNL     1      -0.137  -5.228  10.415  1.00  0.00     0.031 C 
ATOM     54  C   UNL     1      -4.197  -7.762   6.682  1.00  0.00     0.029 A 
ATOM     55  C   UNL     1      -3.047  -7.174   7.183  1.00  0.00     0.049 A 
ATOM     56  H   UNL     1      -1.278  -6.636   6.166  1.00  0.00     0.167 HD
ATOM     57  C   UNL     1      -1.603  -6.202   8.947  1.00  0.00     0.074 A 
ATOM     58  C   UNL     1      -1.328  -5.800  10.311  1.00  0.00     0.031 C 
ATOM     59  C   UNL     1      -2.766  -6.769   8.538  1.00  0.00     0.031 A 
BRANCH  46  60
ATOM     60  C   UNL     1      -2.958  -8.033   2.487  1.00  0.00    -0.014 A 
ATOM     61  C   UNL     1      -2.606  -9.223   1.825  1.00  0.00     0.010 A 
ATOM     62  C   UNL     1      -4.113  -7.341   2.078  1.00  0.00     0.010 A 
ATOM     63  C   UNL     1      -3.367  -9.688   0.749  1.00  0.00     0.020 A 
ATOM     64  C   UNL     1      -4.896  -7.820   1.023  1.00  0.00     0.020 A 
ATOM     65  C   UNL     1      -4.507  -8.982   0.354  1.00  0.00     0.054 A 
BRANCH  65  66
ATOM     66  S   UNL     1      -5.486  -9.620  -1.033  1.00  0.00     0.124 S 
ATOM     67  O   UNL     1      -4.605  -9.358  -2.168  1.00  0.00    -0.237 OA
ATOM     68  O   UNL     1      -5.657 -11.028  -0.682  1.00  0.00    -0.237 OA
ATOM     69  O   UNL     1      -6.707  -8.818  -0.996  1.00  0.00    -0.744 OA
ENDBRANCH  65  66
ENDBRANCH  46  60
BRANCH  47  70
ATOM     70  C   UNL     1       2.590  -4.284   9.899  1.00  0.00    -0.014 A 
ATOM     71  C   UNL     1       3.041  -5.088  10.961  1.00  0.00     0.010 A 
ATOM     72  C   UNL     1       2.923  -2.916   9.891  1.00  0.00     0.010 A 
ATOM     73  C   UNL     1       3.791  -4.532  12.002  1.00  0.00     0.020 A 
ATOM     74  C   UNL     1       3.700  -2.364  10.912  1.00  0.00     0.020 A 
ATOM     75  C   UNL     1       4.119  -3.174  11.969  1.00  0.00     0.054 A 
BRANCH  75  76
ATOM     76  S   UNL     1       5.135  -2.487  13.306  1.00  0.00     0.124 S 
ATOM     77  O   UNL     1       4.201  -2.485  14.427  1.00  0.00    -0.237 OA
ATOM     78  O   UNL     1       6.230  -3.450  13.395  1.00  0.00    -0.237 OA
ATOM     79  O   UNL     1       5.514  -1.168  12.804  1.00  0.00    -0.744 OA
ENDBRANCH  75  76
ENDBRANCH  47  70
BRANCH  59  80
ATOM     80  C   UNL     1      -3.822  -7.026   9.582  1.00  0.00    -0.014 A 
ATOM     81  C   UNL     1      -4.534  -5.972  10.181  1.00  0.00     0.010 A 
ATOM     82  C   UNL     1      -4.143  -8.352   9.929  1.00  0.00     0.010 A 
ATOM     83  C   UNL     1      -5.525  -6.238  11.131  1.00  0.00     0.020 A 
ATOM     84  C   UNL     1      -5.155  -8.623  10.853  1.00  0.00     0.020 A 
ATOM     85  C   UNL     1      -5.830  -7.563  11.460  1.00  0.00     0.054 A 
BRANCH  85  86
ATOM     86  S   UNL     1      -7.152  -7.882  12.661  1.00  0.00     0.124 S 
ATOM     87  O   UNL     1      -6.532  -7.459  13.914  1.00  0.00    -0.237 OA
ATOM     88  O   UNL     1      -8.236  -7.031  12.176  1.00  0.00    -0.237 OA
ATOM     89  O   UNL     1      -7.393  -9.318  12.539  1.00  0.00    -0.744 OA
ENDBRANCH  85  86
ENDBRANCH  59  80
ENDBRANCH  33  34
ENDBRANCH  25  28
ENDBRANCH  23  24
ENDBRANCH  22  23
ENDBRANCH   1  22
TORSDOF 18
