REMARK SMILES Cc1c(Cl)cc2c(c1C)O[C@H](C(F)(F)F)C(C(=O)NCCCNC(=O)c1ccc(-c3c4nc(c(-c5ccc(S(=O)(=O)[O-])cc5)c5ccc([nH]5)c(-c5ccc(S(=O)(=O)[O-])cc5)c5nc(c(-c6ccc(S(=O)(=O)[O-])cc6)c6ccc3[nH]6)C=C5)C=C4)cc1)=C2
REMARK SMILES IDX 22 1 21 2 20 3 19 4 17 5 18 6 16 8 1 9 2 10 3 11 8 12 4 13
REMARK SMILES IDX 5 14 7 15 9 16 6 17 10 18 86 19 11 20 12 21 13 22 14 23
REMARK SMILES IDX 15 24 23 25 24 26 25 28 26 29 27 30 85 31 28 32 84 33 29 34
REMARK SMILES IDX 30 35 31 36 78 37 32 38 83 39 77 40 79 41 33 42 82 43 76 44
REMARK SMILES IDX 75 45 34 47 64 48 45 49 63 50 46 51 49 52 62 53 80 54 47 55
REMARK SMILES IDX 48 56 61 58 81 59 50 60 35 61 36 62 44 63 37 64 43 65 38 66
REMARK SMILES IDX 39 67 40 68 41 69 42 70 65 71 66 72 74 73 67 74 73 75 68 76
REMARK SMILES IDX 69 77 70 78 71 79 72 80 51 81 52 82 60 83 53 84 59 85 54 86
REMARK SMILES IDX 55 87 56 88 57 89 58 90
REMARK H PARENT 19 7 23 27 79 46 49 57
REMARK Flexibility Score: inf
ROOT
ATOM      1  C   UNL     1       0.707 -11.038   0.621  1.00  0.00     0.118 C 
ENDROOT
BRANCH   1   2
ATOM      2  C   UNL     1       1.174  -9.600   0.809  1.00  0.00     0.042 C 
BRANCH   2   3
ATOM      3  C   UNL     1       1.588  -8.958  -0.507  1.00  0.00     0.118 C 
BRANCH   3   4
ATOM      4  N   UNL     1       0.435  -8.564  -1.304  1.00  0.00    -0.352 N 
ATOM      5  C   UNL     1      -0.196  -7.415  -1.638  1.00  0.00     0.251 C 
ATOM      6  O   UNL     1      -1.185  -7.551  -2.366  1.00  0.00    -0.270 OA
ATOM      7  H   UNL     1      -0.004  -9.345  -1.711  1.00  0.00     0.163 HD
BRANCH   5   8
ATOM      8  C   UNL     1       0.219  -6.050  -1.207  1.00  0.00     0.067 C 
ATOM      9  C   UNL     1       0.966   0.349  -0.121  1.00  0.00     0.046 C 
ATOM     10  C   UNL     1       0.550  -1.046  -0.511  1.00  0.00    -0.026 A 
ATOM     11  C   UNL     1      -0.482  -1.279  -1.444  1.00  0.00     0.045 A 
ATOM     12  C   UNL     1       1.181  -2.162   0.091  1.00  0.00    -0.004 A 
ATOM     13  Cl  UNL     1      -1.355   0.010  -2.202  1.00  0.00    -0.084 Cl
ATOM     14  C   UNL     1      -0.858  -2.580  -1.801  1.00  0.00     0.032 A 
ATOM     15  C   UNL     1       0.802  -3.459  -0.302  1.00  0.00     0.131 A 
ATOM     16  C   UNL     1       2.280  -2.027   1.118  1.00  0.00     0.049 C 
ATOM     17  C   UNL     1      -0.209  -3.675  -1.238  1.00  0.00     0.019 A 
ATOM     18  O   UNL     1       1.440  -4.506   0.308  1.00  0.00    -0.475 OA
ATOM     19  C   UNL     1      -0.586  -5.041  -1.588  1.00  0.00     0.025 C 
ATOM     20  C   UNL     1       1.469  -5.755  -0.430  1.00  0.00     0.314 C 
BRANCH  20  21
ATOM     21  C   UNL     1       2.737  -5.803  -1.305  1.00  0.00     0.429 C 
ATOM     22  F   UNL     1       3.848  -5.884  -0.531  1.00  0.00    -0.167 F 
ATOM     23  F   UNL     1       2.763  -6.879  -2.127  1.00  0.00    -0.167 F 
ATOM     24  F   UNL     1       2.872  -4.711  -2.092  1.00  0.00    -0.167 F 
ENDBRANCH  20  21
ENDBRANCH   5   8
ENDBRANCH   3   4
ENDBRANCH   2   3
ENDBRANCH   1   2
BRANCH   1  25
ATOM     25  N   UNL     1       1.796 -11.906   0.178  1.00  0.00    -0.352 N 
ATOM     26  C   UNL     1       2.571 -12.783   0.894  1.00  0.00     0.251 C 
ATOM     27  H   UNL     1       2.006 -11.852  -0.782  1.00  0.00     0.163 HD
ATOM     28  O   UNL     1       3.625 -13.194   0.412  1.00  0.00    -0.269 OA
BRANCH  26  29
ATOM     29  C   UNL     1       2.142 -13.226   2.235  1.00  0.00     0.039 A 
ATOM     30  C   UNL     1       3.089 -13.361   3.252  1.00  0.00     0.014 A 
ATOM     31  C   UNL     1       0.802 -13.535   2.477  1.00  0.00     0.014 A 
ATOM     32  C   UNL     1       2.676 -13.747   4.529  1.00  0.00     0.010 A 
ATOM     33  C   UNL     1       0.379 -13.818   3.768  1.00  0.00     0.010 A 
ATOM     34  C   UNL     1       1.313 -13.947   4.803  1.00  0.00    -0.014 A 
BRANCH  34  35
ATOM     35  C   UNL     1       0.845 -14.331   6.156  1.00  0.00     0.031 A 
ATOM     36  C   UNL     1       0.175 -15.662   6.365  1.00  0.00     0.074 A 
ATOM     37  C   UNL     1       0.986 -13.470   7.182  1.00  0.00     0.049 A 
ATOM     38  N   UNL     1      -0.323 -16.171   7.462  1.00  0.00    -0.248 NA
ATOM     39  C   UNL     1       0.021 -16.525   5.181  1.00  0.00     0.031 C 
ATOM     40  C   UNL     1       1.592 -12.140   7.094  1.00  0.00     0.029 A 
ATOM     41  N   UNL     1       0.642 -13.592   8.504  1.00  0.00    -0.354 N 
ATOM     42  C   UNL     1      -0.846 -17.406   7.100  1.00  0.00     0.074 A 
ATOM     43  C   UNL     1      -0.679 -17.536   5.670  1.00  0.00     0.031 C 
ATOM     44  C   UNL     1       1.634 -11.595   8.320  1.00  0.00     0.029 A 
ATOM     45  C   UNL     1       1.021 -12.516   9.272  1.00  0.00     0.049 A 
ATOM     46  H   UNL     1       0.170 -14.375   8.868  1.00  0.00     0.167 HD
ATOM     47  C   UNL     1      -1.382 -18.366   7.889  1.00  0.00     0.031 A 
ATOM     48  C   UNL     1       0.901 -12.304  10.596  1.00  0.00     0.031 A 
ATOM     49  C   UNL     1      -1.541 -18.236   9.310  1.00  0.00     0.049 A 
ATOM     50  C   UNL     1       0.255 -13.359  11.449  1.00  0.00     0.074 A 
ATOM     51  C   UNL     1      -2.049 -19.155  10.209  1.00  0.00     0.029 A 
ATOM     52  N   UNL     1      -1.188 -17.110  10.041  1.00  0.00    -0.354 N 
ATOM     53  N   UNL     1      -0.200 -14.537  11.094  1.00  0.00    -0.248 NA
ATOM     54  C   UNL     1       0.104 -13.057  12.879  1.00  0.00     0.031 C 
ATOM     55  C   UNL     1      -2.042 -18.569  11.479  1.00  0.00     0.029 A 
ATOM     56  C   UNL     1      -1.486 -17.303  11.378  1.00  0.00     0.049 A 
ATOM     57  H   UNL     1      -0.784 -16.296   9.664  1.00  0.00     0.167 HD
ATOM     58  C   UNL     1      -0.677 -15.126  12.259  1.00  0.00     0.074 A 
ATOM     59  C   UNL     1      -0.445 -14.178  13.332  1.00  0.00     0.031 C 
ATOM     60  C   UNL     1      -1.254 -16.340  12.426  1.00  0.00     0.031 A 
BRANCH  47  61
ATOM     61  C   UNL     1      -1.816 -19.641   7.216  1.00  0.00    -0.014 A 
ATOM     62  C   UNL     1      -0.864 -20.526   6.676  1.00  0.00     0.010 A 
ATOM     63  C   UNL     1      -3.182 -19.958   7.111  1.00  0.00     0.010 A 
ATOM     64  C   UNL     1      -1.270 -21.672   5.989  1.00  0.00     0.020 A 
ATOM     65  C   UNL     1      -3.592 -21.120   6.450  1.00  0.00     0.020 A 
ATOM     66  C   UNL     1      -2.633 -21.956   5.872  1.00  0.00     0.054 A 
BRANCH  66  67
ATOM     67  S   UNL     1      -3.131 -23.442   4.959  1.00  0.00     0.124 S 
ATOM     68  O   UNL     1      -2.856 -23.052   3.579  1.00  0.00    -0.237 OA
ATOM     69  O   UNL     1      -2.248 -24.467   5.509  1.00  0.00    -0.237 OA
ATOM     70  O   UNL     1      -4.545 -23.597   5.292  1.00  0.00    -0.744 OA
ENDBRANCH  66  67
ENDBRANCH  47  61
BRANCH  48  71
ATOM     71  C   UNL     1       1.462 -11.063  11.194  1.00  0.00    -0.014 A 
ATOM     72  C   UNL     1       2.649 -11.124  11.945  1.00  0.00     0.010 A 
ATOM     73  C   UNL     1       0.857  -9.813  10.969  1.00  0.00     0.010 A 
ATOM     74  C   UNL     1       3.226  -9.957  12.454  1.00  0.00     0.020 A 
ATOM     75  C   UNL     1       1.443  -8.641  11.458  1.00  0.00     0.020 A 
ATOM     76  C   UNL     1       2.624  -8.722  12.199  1.00  0.00     0.054 A 
BRANCH  76  77
ATOM     77  S   UNL     1       3.443  -7.216  12.796  1.00  0.00     0.124 S 
ATOM     78  O   UNL     1       3.244  -7.314  14.239  1.00  0.00    -0.237 OA
ATOM     79  O   UNL     1       4.815  -7.400  12.331  1.00  0.00    -0.237 OA
ATOM     80  O   UNL     1       2.708  -6.141  12.134  1.00  0.00    -0.744 OA
ENDBRANCH  76  77
ENDBRANCH  48  71
BRANCH  60  81
ATOM     81  C   UNL     1      -1.683 -16.725  13.815  1.00  0.00    -0.014 A 
ATOM     82  C   UNL     1      -2.850 -16.182  14.380  1.00  0.00     0.010 A 
ATOM     83  C   UNL     1      -0.977 -17.722  14.512  1.00  0.00     0.010 A 
ATOM     84  C   UNL     1      -3.304 -16.631  15.621  1.00  0.00     0.020 A 
ATOM     85  C   UNL     1      -1.442 -18.189  15.744  1.00  0.00     0.020 A 
ATOM     86  C   UNL     1      -2.603 -17.639  16.291  1.00  0.00     0.054 A 
BRANCH  86  87
ATOM     87  S   UNL     1      -3.271 -18.268  17.855  1.00  0.00     0.124 S 
ATOM     88  O   UNL     1      -3.025 -17.152  18.763  1.00  0.00    -0.237 OA
ATOM     89  O   UNL     1      -4.673 -18.514  17.526  1.00  0.00    -0.237 OA
ATOM     90  O   UNL     1      -2.479 -19.468  18.114  1.00  0.00    -0.744 OA
ENDBRANCH  86  87
ENDBRANCH  60  81
ENDBRANCH  34  35
ENDBRANCH  26  29
ENDBRANCH   1  25
TORSDOF 14
