REMARK SMILES CS(=O)(=O)N(Cc1ccc(Cl)cc1)c1ccc(C(=O)Nc2ccccc2C(=O)NCCCNC(=O)c2ccc(-c3c4nc(c(-c5ccc(S(=O)(=O)[O-])cc5)c5ccc([nH]5)c(-c5ccc(S(=O)(=O)[O-])cc5)c5nc(c(-c6ccc(S(=O)(=O)[O-])cc6)c6ccc3[nH]6)C=C5)C=C4)cc2)cc1
REMARK SMILES IDX 30 1 29 2 27 3 28 4 26 6 21 7 22 8 23 9 25 10 24 11 20 12
REMARK SMILES IDX 18 13 19 14 17 16 14 17 15 18 97 19 16 20 96 21 5 22 2 23
REMARK SMILES IDX 1 24 3 25 4 26 6 27 7 28 8 29 13 30 9 31 12 32 10 33 11 34
REMARK SMILES IDX 31 35 32 36 33 37 34 38 35 40 36 41 37 42 95 43 38 44 94 45
REMARK SMILES IDX 39 46 40 47 41 48 88 49 42 50 93 51 87 52 89 53 43 54 92 55
REMARK SMILES IDX 86 56 85 57 44 59 74 60 55 61 73 62 56 63 59 64 72 65 90 66
REMARK SMILES IDX 57 67 58 68 71 70 91 71 60 72 45 73 46 74 54 75 47 76 53 77
REMARK SMILES IDX 48 78 49 79 50 80 51 81 52 82 75 83 76 84 84 85 77 86 83 87
REMARK SMILES IDX 78 88 79 89 80 90 81 91 82 92 61 93 62 94 70 95 63 96 69 97
REMARK SMILES IDX 64 98 65 99 66 100 67 101 68 102
REMARK H PARENT 29 5 20 15 33 39 89 58 59 69
REMARK Flexibility Score: inf
ROOT
ATOM      1  C   UNL     1      -1.538  -8.070  -4.482  1.00  0.00     0.118 C 
ENDROOT
BRANCH   1   2
ATOM      2  N   UNL     1      -1.607  -6.619  -4.484  1.00  0.00    -0.352 N 
ATOM      3  C   UNL     1      -2.342  -5.750  -3.729  1.00  0.00     0.253 C 
ATOM      4  O   UNL     1      -2.182  -4.545  -3.930  1.00  0.00    -0.269 OA
ATOM      5  H   UNL     1      -1.021  -6.186  -5.146  1.00  0.00     0.163 HD
BRANCH   3   6
ATOM      6  C   UNL     1      -3.374  -6.189  -2.753  1.00  0.00     0.063 A 
ATOM      7  C   UNL     1      -3.286  -7.242  -1.825  1.00  0.00     0.054 A 
ATOM      8  C   UNL     1      -4.438  -7.601  -1.100  1.00  0.00     0.027 A 
ATOM      9  C   UNL     1      -5.605  -6.840  -1.166  1.00  0.00     0.002 A 
ATOM     10  C   UNL     1      -4.559  -5.421  -2.798  1.00  0.00     0.016 A 
ATOM     11  C   UNL     1      -5.656  -5.728  -1.994  1.00  0.00     0.001 A 
BRANCH   7  12
ATOM     12  N   UNL     1      -2.145  -7.981  -1.458  1.00  0.00    -0.321 N 
ATOM     13  C   UNL     1      -0.819  -7.658  -1.285  1.00  0.00     0.255 C 
ATOM     14  O   UNL     1      -0.022  -8.587  -1.138  1.00  0.00    -0.269 OA
ATOM     15  H   UNL     1      -2.338  -8.931  -1.290  1.00  0.00     0.170 HD
BRANCH  13  16
ATOM     16  C   UNL     1      -0.308  -6.268  -1.180  1.00  0.00     0.040 A 
ATOM     17  C   UNL     1       0.781  -3.664  -1.032  1.00  0.00     0.052 A 
ATOM     18  C   UNL     1       1.603  -4.768  -1.278  1.00  0.00     0.028 A 
ATOM     19  C   UNL     1      -0.582  -3.888  -0.827  1.00  0.00     0.028 A 
ATOM     20  C   UNL     1       1.062  -6.054  -1.380  1.00  0.00     0.016 A 
ATOM     21  C   UNL     1      -1.104  -5.183  -0.820  1.00  0.00     0.016 A 
BRANCH  17  22
ATOM     22  N   UNL     1       1.339  -2.325  -1.164  1.00  0.00    -0.266 N 
BRANCH  22  23
ATOM     23  S   UNL     1       0.603  -1.138  -0.181  1.00  0.00     0.232 S 
ATOM     24  C   UNL     1       1.849   0.125  -0.081  1.00  0.00     0.183 C 
ATOM     25  O   UNL     1       0.443  -1.667   1.155  1.00  0.00    -0.207 OA
ATOM     26  O   UNL     1      -0.530  -0.583  -0.900  1.00  0.00    -0.207 OA
ENDBRANCH  22  23
BRANCH  22  27
ATOM     27  C   UNL     1       1.619  -1.914  -2.579  1.00  0.00     0.170 C 
BRANCH  27  28
ATOM     28  C   UNL     1       3.034  -2.280  -3.002  1.00  0.00    -0.027 A 
ATOM     29  C   UNL     1       3.275  -3.428  -3.774  1.00  0.00     0.007 A 
ATOM     30  C   UNL     1       4.132  -1.530  -2.550  1.00  0.00     0.007 A 
ATOM     31  C   UNL     1       4.582  -3.854  -4.031  1.00  0.00     0.021 A 
ATOM     32  C   UNL     1       5.438  -1.946  -2.824  1.00  0.00     0.021 A 
ATOM     33  C   UNL     1       5.658  -3.115  -3.547  1.00  0.00     0.041 A 
ATOM     34  Cl  UNL     1       7.267  -3.657  -3.822  1.00  0.00    -0.084 Cl
ENDBRANCH  27  28
ENDBRANCH  22  27
ENDBRANCH  17  22
ENDBRANCH  13  16
ENDBRANCH   7  12
ENDBRANCH   3   6
ENDBRANCH   1   2
BRANCH   1  35
ATOM     35  C   UNL     1      -1.138  -8.658  -5.827  1.00  0.00     0.042 C 
BRANCH  35  36
ATOM     36  C   UNL     1       0.202  -8.156  -6.357  1.00  0.00     0.118 C 
BRANCH  36  37
ATOM     37  N   UNL     1       1.355  -8.538  -5.547  1.00  0.00    -0.352 N 
ATOM     38  C   UNL     1       2.312  -9.511  -5.739  1.00  0.00     0.251 C 
ATOM     39  H   UNL     1       1.469  -8.010  -4.724  1.00  0.00     0.163 HD
ATOM     40  O   UNL     1       3.176  -9.699  -4.888  1.00  0.00    -0.269 OA
BRANCH  38  41
ATOM     41  C   UNL     1       2.262 -10.369  -6.941  1.00  0.00     0.039 A 
ATOM     42  C   UNL     1       2.354 -11.756  -6.796  1.00  0.00     0.014 A 
ATOM     43  C   UNL     1       2.055  -9.813  -8.199  1.00  0.00     0.014 A 
ATOM     44  C   UNL     1       2.093 -12.585  -7.892  1.00  0.00     0.010 A 
ATOM     45  C   UNL     1       1.672 -10.633  -9.251  1.00  0.00     0.010 A 
ATOM     46  C   UNL     1       1.667 -12.031  -9.108  1.00  0.00    -0.014 A 
BRANCH  46  47
ATOM     47  C   UNL     1       1.186 -12.855 -10.252  1.00  0.00     0.031 A 
ATOM     48  C   UNL     1       1.796 -12.653 -11.615  1.00  0.00     0.074 A 
ATOM     49  C   UNL     1       0.108 -13.656 -10.110  1.00  0.00     0.049 A 
ATOM     50  N   UNL     1       1.350 -13.028 -12.785  1.00  0.00    -0.248 NA
ATOM     51  C   UNL     1       3.043 -11.869 -11.671  1.00  0.00     0.031 C 
ATOM     52  C   UNL     1      -0.614 -13.909  -8.860  1.00  0.00     0.029 A 
ATOM     53  N   UNL     1      -0.590 -14.386 -11.042  1.00  0.00    -0.354 N 
ATOM     54  C   UNL     1       2.216 -12.465 -13.716  1.00  0.00     0.074 A 
ATOM     55  C   UNL     1       3.196 -11.700 -12.976  1.00  0.00     0.031 C 
ATOM     56  C   UNL     1      -1.637 -14.746  -9.099  1.00  0.00     0.029 A 
ATOM     57  C   UNL     1      -1.683 -15.044 -10.526  1.00  0.00     0.049 A 
ATOM     58  H   UNL     1      -0.332 -14.434 -11.991  1.00  0.00     0.167 HD
ATOM     59  C   UNL     1       2.203 -12.582 -15.064  1.00  0.00     0.031 A 
ATOM     60  C   UNL     1      -2.634 -15.782 -11.132  1.00  0.00     0.031 A 
ATOM     61  C   UNL     1       1.279 -13.410 -15.787  1.00  0.00     0.049 A 
ATOM     62  C   UNL     1      -2.580 -15.964 -12.625  1.00  0.00     0.074 A 
ATOM     63  C   UNL     1       1.240 -13.672 -17.145  1.00  0.00     0.029 A 
ATOM     64  N   UNL     1       0.247 -14.133 -15.209  1.00  0.00    -0.354 N 
ATOM     65  N   UNL     1      -1.732 -15.451 -13.484  1.00  0.00    -0.248 NA
ATOM     66  C   UNL     1      -3.607 -16.825 -13.230  1.00  0.00     0.031 C 
ATOM     67  C   UNL     1       0.170 -14.536 -17.392  1.00  0.00     0.029 A 
ATOM     68  C   UNL     1      -0.433 -14.842 -16.182  1.00  0.00     0.049 A 
ATOM     69  H   UNL     1       0.031 -14.140 -14.248  1.00  0.00     0.167 HD
ATOM     70  C   UNL     1      -2.106 -15.951 -14.726  1.00  0.00     0.074 A 
ATOM     71  C   UNL     1      -3.250 -16.810 -14.508  1.00  0.00     0.031 C 
ATOM     72  C   UNL     1      -1.550 -15.717 -15.939  1.00  0.00     0.031 A 
BRANCH  59  73
ATOM     73  C   UNL     1       3.227 -11.803 -15.845  1.00  0.00    -0.014 A 
ATOM     74  C   UNL     1       4.588 -12.155 -15.815  1.00  0.00     0.010 A 
ATOM     75  C   UNL     1       2.815 -10.726 -16.651  1.00  0.00     0.010 A 
ATOM     76  C   UNL     1       5.525 -11.415 -16.540  1.00  0.00     0.020 A 
ATOM     77  C   UNL     1       3.746 -10.001 -17.401  1.00  0.00     0.020 A 
ATOM     78  C   UNL     1       5.099 -10.340 -17.325  1.00  0.00     0.054 A 
BRANCH  78  79
ATOM     79  S   UNL     1       6.333  -9.411 -18.275  1.00  0.00     0.124 S 
ATOM     80  O   UNL     1       6.960  -8.598 -17.237  1.00  0.00    -0.237 OA
ATOM     81  O   UNL     1       7.171 -10.469 -18.835  1.00  0.00    -0.237 OA
ATOM     82  O   UNL     1       5.535  -8.671 -19.250  1.00  0.00    -0.744 OA
ENDBRANCH  78  79
ENDBRANCH  59  73
BRANCH  60  83
ATOM     83  C   UNL     1      -3.720 -16.410 -10.331  1.00  0.00    -0.014 A 
ATOM     84  C   UNL     1      -3.727 -17.799 -10.114  1.00  0.00     0.010 A 
ATOM     85  C   UNL     1      -4.749 -15.627  -9.778  1.00  0.00     0.010 A 
ATOM     86  C   UNL     1      -4.756 -18.398  -9.381  1.00  0.00     0.020 A 
ATOM     87  C   UNL     1      -5.766 -16.219  -9.023  1.00  0.00     0.020 A 
ATOM     88  C   UNL     1      -5.771 -17.604  -8.842  1.00  0.00     0.054 A 
BRANCH  88  89
ATOM     89  S   UNL     1      -7.076 -18.395  -7.859  1.00  0.00     0.124 S 
ATOM     90  O   UNL     1      -7.918 -18.986  -8.895  1.00  0.00    -0.237 OA
ATOM     91  O   UNL     1      -6.327 -19.340  -7.035  1.00  0.00    -0.237 OA
ATOM     92  O   UNL     1      -7.672 -17.280  -7.127  1.00  0.00    -0.744 OA
ENDBRANCH  88  89
ENDBRANCH  60  83
BRANCH  72  93
ATOM     93  C   UNL     1      -2.125 -16.438 -17.125  1.00  0.00    -0.014 A 
ATOM     94  C   UNL     1      -3.321 -16.008 -17.725  1.00  0.00     0.010 A 
ATOM     95  C   UNL     1      -1.396 -17.489 -17.711  1.00  0.00     0.010 A 
ATOM     96  C   UNL     1      -3.779 -16.621 -18.893  1.00  0.00     0.020 A 
ATOM     97  C   UNL     1      -1.841 -18.090 -18.889  1.00  0.00     0.020 A 
ATOM     98  C   UNL     1      -3.033 -17.654 -19.472  1.00  0.00     0.054 A 
BRANCH  98  99
ATOM     99  S   UNL     1      -3.599 -18.370 -21.040  1.00  0.00     0.124 S 
ATOM    100  O   UNL     1      -4.706 -19.216 -20.605  1.00  0.00    -0.237 OA
ATOM    101  O   UNL     1      -3.976 -17.190 -21.814  1.00  0.00    -0.237 OA
ATOM    102  O   UNL     1      -2.425 -19.084 -21.537  1.00  0.00    -0.744 OA
ENDBRANCH  98  99
ENDBRANCH  72  93
ENDBRANCH  46  47
ENDBRANCH  38  41
ENDBRANCH  36  37
ENDBRANCH  35  36
ENDBRANCH   1  35
TORSDOF 19
