REMARK SMILES Cc1ccccc1NC(=O)NC[C@@H]1CC[C@@H](C(=O)NCCCNC(=O)c2ccc(-c3c4nc(c(-c5ccc(S(=O)(=O)[O-])cc5)c5ccc([nH]5)c(-c5ccc(S(=O)(=O)[O-])cc5)c5nc(c(-c6ccc(S(=O)(=O)[O-])cc6)c6ccc3[nH]6)C=C5)C=C4)cc2)O1
REMARK SMILES IDX 21 1 20 2 19 3 17 4 18 5 16 7 13 8 14 9 86 10 15 11 12 12
REMARK SMILES IDX 11 13 8 14 9 15 10 17 7 19 1 20 2 21 3 22 4 23 6 24 5 25
REMARK SMILES IDX 22 26 23 27 24 28 25 30 26 31 27 32 85 33 28 34 84 35 29 36
REMARK SMILES IDX 30 37 31 38 78 39 32 40 83 41 77 42 79 43 33 44 82 45 76 46
REMARK SMILES IDX 75 47 34 49 64 50 45 51 63 52 46 53 49 54 62 55 80 56 47 57
REMARK SMILES IDX 48 58 61 60 81 61 50 62 35 63 36 64 44 65 37 66 43 67 38 68
REMARK SMILES IDX 39 69 40 70 41 71 42 72 65 73 66 74 74 75 67 76 73 77 68 78
REMARK SMILES IDX 69 79 70 80 71 81 72 82 51 83 52 84 60 85 53 86 59 87 54 88
REMARK SMILES IDX 55 89 56 90 57 91 58 92
REMARK H PARENT 19 6 8 16 11 18 23 29 79 48 49 59
REMARK Flexibility Score: inf
ROOT
ATOM      1  C   UNL     1      -7.157   0.985   3.951  1.00  0.00     0.042 C 
ENDROOT
BRANCH   1   2
ATOM      2  C   UNL     1      -7.679   2.253   3.269  1.00  0.00     0.117 C 
BRANCH   2   3
ATOM      3  N   UNL     1      -6.824   3.413   3.494  1.00  0.00    -0.354 N 
ATOM      4  C   UNL     1      -5.812   3.941   2.732  1.00  0.00     0.249 C 
ATOM      5  O   UNL     1      -5.277   4.979   3.126  1.00  0.00    -0.272 OA
ATOM      6  H   UNL     1      -7.002   3.899   4.331  1.00  0.00     0.163 HD
BRANCH   4   7
ATOM      7  C   UNL     1      -5.396   3.276   1.394  1.00  0.00     0.207 C 
ATOM      8  C   UNL     1      -3.191   2.837   0.711  1.00  0.00     0.138 C 
ATOM      9  C   UNL     1      -4.010   1.585   0.491  1.00  0.00     0.037 C 
ATOM     10  O   UNL     1      -4.203   3.866   0.793  1.00  0.00    -0.363 OA
ATOM     11  C   UNL     1      -5.081   1.793   1.521  1.00  0.00     0.045 C 
BRANCH   8  12
ATOM     12  C   UNL     1      -2.141   3.089  -0.388  1.00  0.00     0.149 C 
BRANCH  12  13
ATOM     13  N   UNL     1      -0.926   3.689   0.162  1.00  0.00    -0.335 N 
ATOM     14  N   UNL     1       0.930   2.154   0.142  1.00  0.00    -0.308 N 
ATOM     15  C   UNL     1       0.360   3.359   0.291  1.00  0.00     0.319 C 
ATOM     16  H   UNL     1       1.904   2.247   0.032  1.00  0.00     0.171 HD
ATOM     17  O   UNL     1       1.140   4.293   0.525  1.00  0.00    -0.249 OA
ATOM     18  H   UNL     1      -1.106   4.580   0.540  1.00  0.00     0.165 HD
BRANCH  14  19
ATOM     19  C   UNL     1       0.559   0.798   0.097  1.00  0.00     0.045 A 
ATOM     20  C   UNL     1       2.982   0.070  -0.423  1.00  0.00     0.046 C 
ATOM     21  C   UNL     1       1.506  -0.188  -0.265  1.00  0.00    -0.027 A 
ATOM     22  C   UNL     1       1.099  -1.536  -0.381  1.00  0.00     0.005 A 
ATOM     23  C   UNL     1      -0.212  -1.917  -0.121  1.00  0.00     0.000 A 
ATOM     24  C   UNL     1      -0.702   0.365   0.479  1.00  0.00     0.026 A 
ATOM     25  C   UNL     1      -1.108  -0.966   0.338  1.00  0.00     0.002 A 
ENDBRANCH  14  19
ENDBRANCH  12  13
ENDBRANCH   8  12
ENDBRANCH   4   7
ENDBRANCH   2   3
ENDBRANCH   1   2
BRANCH   1  26
ATOM     26  C   UNL     1      -7.580   0.861   5.410  1.00  0.00     0.118 C 
BRANCH  26  27
ATOM     27  N   UNL     1      -8.220  -0.423   5.710  1.00  0.00    -0.352 N 
ATOM     28  C   UNL     1      -8.539  -0.921   6.959  1.00  0.00     0.251 C 
ATOM     29  H   UNL     1      -8.448  -0.991   4.939  1.00  0.00     0.163 HD
ATOM     30  O   UNL     1      -9.022  -2.032   7.137  1.00  0.00    -0.269 OA
BRANCH  28  31
ATOM     31  C   UNL     1      -8.319  -0.003   8.088  1.00  0.00     0.039 A 
ATOM     32  C   UNL     1      -9.417   0.746   8.524  1.00  0.00     0.014 A 
ATOM     33  C   UNL     1      -7.010   0.370   8.382  1.00  0.00     0.014 A 
ATOM     34  C   UNL     1      -9.198   1.991   9.101  1.00  0.00     0.010 A 
ATOM     35  C   UNL     1      -6.799   1.640   8.884  1.00  0.00     0.010 A 
ATOM     36  C   UNL     1      -7.891   2.472   9.181  1.00  0.00    -0.014 A 
BRANCH  36  37
ATOM     37  C   UNL     1      -7.570   3.864   9.479  1.00  0.00     0.031 A 
ATOM     38  C   UNL     1      -7.017   4.220  10.804  1.00  0.00     0.074 A 
ATOM     39  C   UNL     1      -7.713   4.827   8.540  1.00  0.00     0.049 A 
ATOM     40  N   UNL     1      -7.033   5.407  11.313  1.00  0.00    -0.248 NA
ATOM     41  C   UNL     1      -6.468   3.216  11.708  1.00  0.00     0.031 C 
ATOM     42  C   UNL     1      -7.157   6.177   8.587  1.00  0.00     0.029 A 
ATOM     43  N   UNL     1      -8.592   4.864   7.454  1.00  0.00    -0.354 N 
ATOM     44  C   UNL     1      -6.216   5.388  12.421  1.00  0.00     0.074 A 
ATOM     45  C   UNL     1      -6.005   3.986  12.695  1.00  0.00     0.031 C 
ATOM     46  C   UNL     1      -7.908   6.975   7.814  1.00  0.00     0.029 A 
ATOM     47  C   UNL     1      -9.050   6.194   7.373  1.00  0.00     0.049 A 
ATOM     48  H   UNL     1      -8.841   4.115   6.866  1.00  0.00     0.167 HD
ATOM     49  C   UNL     1      -5.690   6.557  12.888  1.00  0.00     0.031 A 
ATOM     50  C   UNL     1     -10.359   6.557   7.519  1.00  0.00     0.031 A 
ATOM     51  C   UNL     1      -6.293   7.729  12.245  1.00  0.00     0.049 A 
ATOM     52  C   UNL     1     -10.605   7.532   8.659  1.00  0.00     0.074 A 
ATOM     53  C   UNL     1      -5.860   8.684  11.339  1.00  0.00     0.029 A 
ATOM     54  N   UNL     1      -7.665   7.904  12.350  1.00  0.00    -0.354 N 
ATOM     55  N   UNL     1      -9.677   7.995   9.449  1.00  0.00    -0.248 NA
ATOM     56  C   UNL     1     -11.942   7.974   9.064  1.00  0.00     0.031 C 
ATOM     57  C   UNL     1      -6.997   9.424  10.893  1.00  0.00     0.029 A 
ATOM     58  C   UNL     1      -8.114   8.927  11.539  1.00  0.00     0.049 A 
ATOM     59  H   UNL     1      -8.248   7.364  12.931  1.00  0.00     0.167 HD
ATOM     60  C   UNL     1     -10.252   8.708  10.466  1.00  0.00     0.074 A 
ATOM     61  C   UNL     1     -11.673   8.685  10.173  1.00  0.00     0.031 C 
ATOM     62  C   UNL     1      -9.537   9.219  11.508  1.00  0.00     0.031 A 
BRANCH  49  63
ATOM     63  C   UNL     1      -4.452   6.628  13.768  1.00  0.00    -0.014 A 
ATOM     64  C   UNL     1      -3.709   7.825  13.839  1.00  0.00     0.010 A 
ATOM     65  C   UNL     1      -3.916   5.540  14.482  1.00  0.00     0.010 A 
ATOM     66  C   UNL     1      -2.466   7.899  14.494  1.00  0.00     0.020 A 
ATOM     67  C   UNL     1      -2.670   5.588  15.122  1.00  0.00     0.020 A 
ATOM     68  C   UNL     1      -1.940   6.766  15.109  1.00  0.00     0.054 A 
BRANCH  68  69
ATOM     69  S   UNL     1      -0.301   6.834  15.875  1.00  0.00     0.124 S 
ATOM     70  O   UNL     1       0.553   7.228  14.757  1.00  0.00    -0.237 OA
ATOM     71  O   UNL     1      -0.482   7.839  16.918  1.00  0.00    -0.237 OA
ATOM     72  O   UNL     1      -0.088   5.471  16.360  1.00  0.00    -0.744 OA
ENDBRANCH  68  69
ENDBRANCH  49  63
BRANCH  50  73
ATOM     73  C   UNL     1     -11.328   5.528   7.052  1.00  0.00    -0.014 A 
ATOM     74  C   UNL     1     -11.388   5.281   5.664  1.00  0.00     0.010 A 
ATOM     75  C   UNL     1     -11.829   4.561   7.940  1.00  0.00     0.010 A 
ATOM     76  C   UNL     1     -11.773   4.028   5.184  1.00  0.00     0.020 A 
ATOM     77  C   UNL     1     -12.222   3.305   7.458  1.00  0.00     0.020 A 
ATOM     78  C   UNL     1     -12.126   3.029   6.090  1.00  0.00     0.054 A 
BRANCH  78  79
ATOM     79  S   UNL     1     -12.231   1.323   5.471  1.00  0.00     0.124 S 
ATOM     80  O   UNL     1     -13.376   1.388   4.571  1.00  0.00    -0.237 OA
ATOM     81  O   UNL     1     -10.929   1.157   4.823  1.00  0.00    -0.237 OA
ATOM     82  O   UNL     1     -12.423   0.537   6.686  1.00  0.00    -0.744 OA
ENDBRANCH  78  79
ENDBRANCH  50  73
BRANCH  62  83
ATOM     83  C   UNL     1     -10.152  10.013  12.625  1.00  0.00    -0.014 A 
ATOM     84  C   UNL     1     -11.070  11.050  12.389  1.00  0.00     0.010 A 
ATOM     85  C   UNL     1      -9.714   9.818  13.953  1.00  0.00     0.010 A 
ATOM     86  C   UNL     1     -11.568  11.826  13.445  1.00  0.00     0.020 A 
ATOM     87  C   UNL     1     -10.191  10.598  15.010  1.00  0.00     0.020 A 
ATOM     88  C   UNL     1     -11.130  11.589  14.751  1.00  0.00     0.054 A 
BRANCH  88  89
ATOM     89  S   UNL     1     -11.752  12.628  16.100  1.00  0.00     0.124 S 
ATOM     90  O   UNL     1     -11.737  13.965  15.511  1.00  0.00    -0.237 OA
ATOM     91  O   UNL     1     -13.078  12.060  16.329  1.00  0.00    -0.237 OA
ATOM     92  O   UNL     1     -10.787  12.416  17.175  1.00  0.00    -0.744 OA
ENDBRANCH  88  89
ENDBRANCH  62  83
ENDBRANCH  36  37
ENDBRANCH  28  31
ENDBRANCH  26  27
ENDBRANCH   1  26
TORSDOF 16
