REMARK SMILES CCCCc1nc(C[N@H+]2CC[NH2+][C@H](C(=O)NCCCNC(=O)c3ccc(-c4c5nc(c(-c6ccc(S(=O)(=O)[O-])cc6)c6ccc([nH]6)c(-c6ccc(S(=O)(=O)[O-])cc6)c6nc(c(-c7ccc(S(=O)(=O)[O-])cc7)c7ccc4[nH]7)C=C6)C=C5)cc3)C2)c(Cl)[nH]1
REMARK SMILES IDX 17 1 16 2 14 3 15 4 13 6 9 7 10 8 83 9 11 11 12 12 8 15 7 16
REMARK SMILES IDX 5 17 6 18 86 19 84 20 85 22 4 23 3 24 2 25 1 26 18 27 19 28
REMARK SMILES IDX 20 29 21 30 22 32 23 33 24 34 82 35 25 36 81 37 26 38 27 39
REMARK SMILES IDX 28 40 75 41 29 42 80 43 74 44 76 45 30 46 79 47 73 48 72 49
REMARK SMILES IDX 31 51 61 52 42 53 60 54 43 55 46 56 59 57 77 58 44 59 45 60
REMARK SMILES IDX 58 62 78 63 47 64 32 65 33 66 41 67 34 68 40 69 35 70 36 71
REMARK SMILES IDX 37 72 38 73 39 74 62 75 63 76 71 77 64 78 70 79 65 80 66 81
REMARK SMILES IDX 67 82 68 83 69 84 48 85 49 86 57 87 50 88 56 89 51 90 52 91
REMARK SMILES IDX 53 92 54 93 55 94
REMARK H PARENT 16 5 9 10 12 13 12 14 86 21 20 31 76 50 46 61
REMARK Flexibility Score: inf
ROOT
ATOM      1  C   UNL     1       0.395  -5.192  -4.751  1.00  0.00     0.118 C 
ENDROOT
BRANCH   1   2
ATOM      2  N   UNL     1       0.361  -6.045  -3.577  1.00  0.00    -0.351 N 
ATOM      3  C   UNL     1      -0.674  -6.296  -2.715  1.00  0.00     0.284 C 
ATOM      4  O   UNL     1      -0.545  -7.256  -1.950  1.00  0.00    -0.268 OA
ATOM      5  H   UNL     1       1.204  -6.511  -3.371  1.00  0.00     0.163 HD
BRANCH   3   6
ATOM      6  C   UNL     1      -1.875  -5.334  -2.624  1.00  0.00     0.328 C 
ATOM      7  N   UNL     1      -4.261  -5.156  -1.646  1.00  0.00    -0.320 N 
ATOM      8  C   UNL     1      -4.634  -4.526  -2.918  1.00  0.00     0.324 C 
ATOM      9  C   UNL     1      -3.008  -5.946  -1.749  1.00  0.00     0.339 C 
ATOM     10  H   UNL     1      -5.006  -5.827  -1.460  1.00  0.00     0.348 HD
ATOM     11  C   UNL     1      -3.472  -3.958  -3.759  1.00  0.00     0.323 C 
ATOM     12  N   UNL     1      -2.404  -4.942  -3.962  1.00  0.00    -0.327 N 
ATOM     13  H   UNL     1      -1.657  -4.531  -4.521  1.00  0.00     0.347 HD
ATOM     14  H   UNL     1      -2.765  -5.760  -4.452  1.00  0.00     0.347 HD
BRANCH   7  15
ATOM     15  C   UNL     1      -4.312  -4.267  -0.469  1.00  0.00     0.323 C 
BRANCH  15  16
ATOM     16  C   UNL     1      -3.296  -3.177  -0.477  1.00  0.00     0.132 A 
ATOM     17  C   UNL     1      -1.291  -2.354  -0.476  1.00  0.00     0.107 A 
ATOM     18  N   UNL     1      -1.979  -3.435  -0.154  1.00  0.00    -0.231 NA
ATOM     19  N   UNL     1      -2.151  -1.340  -0.821  1.00  0.00    -0.333 N 
ATOM     20  C   UNL     1      -3.409  -1.859  -0.832  1.00  0.00     0.135 A 
ATOM     21  H   UNL     1      -1.903  -0.409  -1.023  1.00  0.00     0.169 HD
ATOM     22  Cl  UNL     1      -4.686  -0.885  -1.362  1.00  0.00    -0.062 Cl
BRANCH  17  23
ATOM     23  C   UNL     1       0.202  -2.301  -0.547  1.00  0.00     0.075 C 
BRANCH  23  24
ATOM     24  C   UNL     1       0.804  -1.266  -1.502  1.00  0.00     0.008 C 
BRANCH  24  25
ATOM     25  C   UNL     1       0.792   0.194  -1.038  1.00  0.00    -0.003 C 
ATOM     26  C   UNL     1       1.282   0.404   0.384  1.00  0.00     0.004 C 
ENDBRANCH  24  25
ENDBRANCH  23  24
ENDBRANCH  17  23
ENDBRANCH  15  16
ENDBRANCH   7  15
ENDBRANCH   3   6
ENDBRANCH   1   2
BRANCH   1  27
ATOM     27  C   UNL     1       0.766  -3.736  -4.464  1.00  0.00     0.042 C 
BRANCH  27  28
ATOM     28  C   UNL     1       2.262  -3.517  -4.616  1.00  0.00     0.118 C 
BRANCH  28  29
ATOM     29  N   UNL     1       2.705  -3.747  -6.002  1.00  0.00    -0.352 N 
ATOM     30  C   UNL     1       3.976  -3.793  -6.547  1.00  0.00     0.251 C 
ATOM     31  H   UNL     1       1.976  -3.893  -6.647  1.00  0.00     0.163 HD
ATOM     32  O   UNL     1       4.137  -3.708  -7.752  1.00  0.00    -0.269 OA
BRANCH  30  33
ATOM     33  C   UNL     1       5.126  -3.953  -5.641  1.00  0.00     0.039 A 
ATOM     34  C   UNL     1       6.354  -3.321  -5.868  1.00  0.00     0.014 A 
ATOM     35  C   UNL     1       4.933  -4.741  -4.517  1.00  0.00     0.014 A 
ATOM     36  C   UNL     1       7.356  -3.452  -4.908  1.00  0.00     0.010 A 
ATOM     37  C   UNL     1       5.799  -4.645  -3.474  1.00  0.00     0.010 A 
ATOM     38  C   UNL     1       7.056  -4.114  -3.710  1.00  0.00    -0.014 A 
BRANCH  38  39
ATOM     39  C   UNL     1       7.983  -4.201  -2.595  1.00  0.00     0.031 A 
ATOM     40  C   UNL     1       8.272  -2.878  -1.989  1.00  0.00     0.074 A 
ATOM     41  C   UNL     1       8.245  -5.385  -1.994  1.00  0.00     0.049 A 
ATOM     42  N   UNL     1       9.347  -2.173  -2.108  1.00  0.00    -0.248 NA
ATOM     43  C   UNL     1       7.146  -2.141  -1.379  1.00  0.00     0.031 C 
ATOM     44  C   UNL     1       7.674  -6.707  -2.304  1.00  0.00     0.029 A 
ATOM     45  N   UNL     1       8.972  -5.646  -0.879  1.00  0.00    -0.354 N 
ATOM     46  C   UNL     1       9.125  -1.042  -1.329  1.00  0.00     0.074 A 
ATOM     47  C   UNL     1       7.697  -0.942  -1.187  1.00  0.00     0.031 C 
ATOM     48  C   UNL     1       7.879  -7.547  -1.264  1.00  0.00     0.029 A 
ATOM     49  C   UNL     1       8.726  -6.885  -0.289  1.00  0.00     0.049 A 
ATOM     50  H   UNL     1       9.625  -5.006  -0.513  1.00  0.00     0.167 HD
ATOM     51  C   UNL     1      10.121  -0.507  -0.565  1.00  0.00     0.031 A 
ATOM     52  C   UNL     1       9.155  -7.306   0.931  1.00  0.00     0.031 A 
ATOM     53  C   UNL     1      11.402  -1.071  -0.924  1.00  0.00     0.049 A 
ATOM     54  C   UNL     1      10.263  -6.398   1.327  1.00  0.00     0.074 A 
ATOM     55  C   UNL     1      12.135  -1.159  -2.091  1.00  0.00     0.029 A 
ATOM     56  N   UNL     1      11.896  -2.049  -0.088  1.00  0.00    -0.354 N 
ATOM     57  N   UNL     1      11.398  -6.332   0.687  1.00  0.00    -0.248 NA
ATOM     58  C   UNL     1       9.919  -5.219   2.107  1.00  0.00     0.031 C 
ATOM     59  C   UNL     1      12.695  -2.471  -2.075  1.00  0.00     0.029 A 
ATOM     60  C   UNL     1      12.369  -3.077  -0.860  1.00  0.00     0.049 A 
ATOM     61  H   UNL     1      11.906  -2.015   0.895  1.00  0.00     0.167 HD
ATOM     62  C   UNL     1      11.685  -4.975   0.613  1.00  0.00     0.074 A 
ATOM     63  C   UNL     1      10.785  -4.346   1.583  1.00  0.00     0.031 C 
ATOM     64  C   UNL     1      12.399  -4.463  -0.434  1.00  0.00     0.031 A 
BRANCH  51  65
ATOM     65  C   UNL     1       9.891   0.135   0.790  1.00  0.00    -0.014 A 
ATOM     66  C   UNL     1      11.016   0.580   1.516  1.00  0.00     0.010 A 
ATOM     67  C   UNL     1       8.671   0.079   1.495  1.00  0.00     0.010 A 
ATOM     68  C   UNL     1      10.941   0.851   2.888  1.00  0.00     0.020 A 
ATOM     69  C   UNL     1       8.574   0.388   2.852  1.00  0.00     0.020 A 
ATOM     70  C   UNL     1       9.720   0.736   3.550  1.00  0.00     0.054 A 
BRANCH  70  71
ATOM     71  S   UNL     1       9.648   0.992   5.337  1.00  0.00     0.124 S 
ATOM     72  O   UNL     1      10.446  -0.125   5.830  1.00  0.00    -0.237 OA
ATOM     73  O   UNL     1      10.246   2.316   5.480  1.00  0.00    -0.237 OA
ATOM     74  O   UNL     1       8.219   0.924   5.633  1.00  0.00    -0.744 OA
ENDBRANCH  70  71
ENDBRANCH  51  65
BRANCH  52  75
ATOM     75  C   UNL     1       8.480  -8.207   1.908  1.00  0.00    -0.014 A 
ATOM     76  C   UNL     1       9.167  -8.717   3.029  1.00  0.00     0.010 A 
ATOM     77  C   UNL     1       7.075  -8.334   1.900  1.00  0.00     0.010 A 
ATOM     78  C   UNL     1       8.472  -9.267   4.125  1.00  0.00     0.020 A 
ATOM     79  C   UNL     1       6.377  -8.885   2.985  1.00  0.00     0.020 A 
ATOM     80  C   UNL     1       7.077  -9.326   4.106  1.00  0.00     0.054 A 
BRANCH  80  81
ATOM     81  S   UNL     1       6.175  -9.857   5.596  1.00  0.00     0.124 S 
ATOM     82  O   UNL     1       6.471 -11.286   5.648  1.00  0.00    -0.237 OA
ATOM     83  O   UNL     1       6.788  -9.048   6.646  1.00  0.00    -0.237 OA
ATOM     84  O   UNL     1       4.784  -9.523   5.294  1.00  0.00    -0.744 OA
ENDBRANCH  80  81
ENDBRANCH  52  75
BRANCH  64  85
ATOM     85  C   UNL     1      13.134  -5.420  -1.347  1.00  0.00    -0.014 A 
ATOM     86  C   UNL     1      12.514  -6.407  -2.141  1.00  0.00     0.010 A 
ATOM     87  C   UNL     1      14.511  -5.197  -1.515  1.00  0.00     0.010 A 
ATOM     88  C   UNL     1      13.265  -7.165  -3.056  1.00  0.00     0.020 A 
ATOM     89  C   UNL     1      15.258  -5.932  -2.436  1.00  0.00     0.020 A 
ATOM     90  C   UNL     1      14.635  -6.922  -3.194  1.00  0.00     0.054 A 
BRANCH  90  91
ATOM     91  S   UNL     1      15.606  -7.882  -4.390  1.00  0.00     0.124 S 
ATOM     92  O   UNL     1      15.597  -9.220  -3.806  1.00  0.00    -0.237 OA
ATOM     93  O   UNL     1      14.844  -7.730  -5.627  1.00  0.00    -0.237 OA
ATOM     94  O   UNL     1      16.910  -7.219  -4.393  1.00  0.00    -0.744 OA
ENDBRANCH  90  91
ENDBRANCH  64  85
ENDBRANCH  38  39
ENDBRANCH  30  33
ENDBRANCH  28  29
ENDBRANCH  27  28
ENDBRANCH   1  27
TORSDOF 18
