REMARK SMILES Cc1nc2nc(CNC(=O)OC(C)(C)C)nn2c(C)c1CCC(=O)NCCCNC(=O)c1ccc(-c2c3nc(c(-c4ccc(S(=O)(=O)[O-])cc4)c4ccc([nH]4)c(-c4ccc(S(=O)(=O)[O-])cc4)c4nc(c(-c5ccc(S(=O)(=O)[O-])cc5)c5ccc2[nH]5)C=C4)C=C3)cc1
REMARK SMILES IDX 23 1 24 2 25 3 22 5 21 6 20 7 1 8 2 9 3 10 4 11 18 12 5 13
REMARK SMILES IDX 17 14 19 15 6 16 16 17 7 18 8 19 9 20 10 22 11 23 12 24
REMARK SMILES IDX 13 25 14 26 15 27 26 28 27 29 28 30 29 31 30 32 31 34 32 35
REMARK SMILES IDX 33 36 91 37 34 38 90 39 35 40 36 41 37 42 84 43 38 44 89 45
REMARK SMILES IDX 83 46 85 47 39 48 88 49 82 50 81 51 40 53 70 54 51 55 69 56
REMARK SMILES IDX 52 57 55 58 68 59 86 60 53 61 54 62 67 64 87 65 56 66 41 67
REMARK SMILES IDX 42 68 50 69 43 70 49 71 44 72 45 73 46 74 47 75 48 76 71 77
REMARK SMILES IDX 72 78 80 79 73 80 79 81 74 82 75 83 76 84 77 85 78 86 57 87
REMARK SMILES IDX 58 88 66 89 59 90 65 91 60 92 61 93 62 94 63 95 64 96
REMARK H PARENT 25 4 8 21 29 33 85 52 55 63
REMARK Flexibility Score: inf
ROOT
ATOM      1  C   UNL     1       2.361  -3.626   2.868  1.00  0.00     0.220 C 
ATOM      2  O   UNL     1       2.129  -4.839   2.885  1.00  0.00    -0.275 OA
ATOM      3  N   UNL     1       2.549  -2.984   4.066  1.00  0.00    -0.356 N 
ATOM      4  H   UNL     1       2.386  -3.575   4.837  1.00  0.00     0.163 HD
ENDROOT
BRANCH   1   5
ATOM      5  C   UNL     1       2.399  -2.908   1.526  1.00  0.00     0.105 C 
BRANCH   5   6
ATOM      6  C   UNL     1       1.023  -2.843   0.816  1.00  0.00     0.049 C 
BRANCH   6   7
ATOM      7  C   UNL     1      -0.007  -2.206   1.706  1.00  0.00    -0.005 A 
ATOM      8  C   UNL     1       0.555   0.129   0.655  1.00  0.00     0.067 C 
ATOM      9  C   UNL     1      -0.091  -0.695   1.767  1.00  0.00     0.046 A 
ATOM     10  N   UNL     1      -0.695  -0.059   2.727  1.00  0.00    -0.216 NA
ATOM     11  C   UNL     1      -1.067  -0.825   3.803  1.00  0.00     0.252 A 
ATOM     12  C   UNL     1      -0.732  -2.887   2.637  1.00  0.00     0.048 A 
ATOM     13  N   UNL     1      -1.057  -0.474   5.054  1.00  0.00    -0.192 NA
ATOM     14  N   UNL     1      -1.099  -2.209   3.810  1.00  0.00    -0.201 N 
ATOM     15  C   UNL     1      -1.011  -4.349   2.642  1.00  0.00     0.067 C 
ATOM     16  C   UNL     1      -0.977  -1.577   5.901  1.00  0.00     0.172 A 
ATOM     17  N   UNL     1      -1.132  -2.696   5.145  1.00  0.00    -0.148 NA
BRANCH  16  18
ATOM     18  C   UNL     1      -0.863  -1.484   7.622  1.00  0.00     0.199 C 
BRANCH  18  19
ATOM     19  N   UNL     1      -0.411  -0.194   8.604  1.00  0.00    -0.314 N 
ATOM     20  C   UNL     1      -0.694   1.027   9.300  1.00  0.00     0.408 C 
ATOM     21  H   UNL     1       0.536  -0.368   8.805  1.00  0.00     0.167 HD
ATOM     22  O   UNL     1       0.204   1.453  10.051  1.00  0.00    -0.225 OA
BRANCH  20  23
ATOM     23  O   UNL     1      -1.853   1.747   9.161  1.00  0.00    -0.444 OA
BRANCH  23  24
ATOM     24  C   UNL     1      -2.367   3.057   9.744  1.00  0.00     0.106 C 
ATOM     25  C   UNL     1      -2.326   3.092  11.276  1.00  0.00     0.056 C 
ATOM     26  C   UNL     1      -1.651   4.279   9.155  1.00  0.00     0.056 C 
ATOM     27  C   UNL     1      -3.877   3.256   9.366  1.00  0.00     0.056 C 
ENDBRANCH  23  24
ENDBRANCH  20  23
ENDBRANCH  18  19
ENDBRANCH  16  18
ENDBRANCH   6   7
ENDBRANCH   5   6
ENDBRANCH   1   5
BRANCH   3  28
ATOM     28  C   UNL     1       2.943  -1.595   4.484  1.00  0.00     0.117 C 
BRANCH  28  29
ATOM     29  C   UNL     1       1.751  -0.612   4.762  1.00  0.00     0.042 C 
BRANCH  29  30
ATOM     30  C   UNL     1       1.325   0.010   6.187  1.00  0.00     0.118 C 
BRANCH  30  31
ATOM     31  N   UNL     1       0.028   1.115   6.318  1.00  0.00    -0.352 N 
ATOM     32  C   UNL     1      -1.504   1.348   6.508  1.00  0.00     0.251 C 
ATOM     33  H   UNL     1       0.429   2.011   6.238  1.00  0.00     0.163 HD
ATOM     34  O   UNL     1      -1.807   2.550   6.407  1.00  0.00    -0.269 OA
BRANCH  32  35
ATOM     35  C   UNL     1      -2.831   0.308   6.870  1.00  0.00     0.039 A 
ATOM     36  C   UNL     1      -3.451   0.126   8.122  1.00  0.00     0.014 A 
ATOM     37  C   UNL     1      -3.436  -0.570   5.977  1.00  0.00     0.014 A 
ATOM     38  C   UNL     1      -3.966  -1.107   8.607  1.00  0.00     0.010 A 
ATOM     39  C   UNL     1      -3.870  -1.866   6.421  1.00  0.00     0.010 A 
ATOM     40  C   UNL     1      -3.988  -2.212   7.777  1.00  0.00    -0.014 A 
BRANCH  40  41
ATOM     41  C   UNL     1      -4.598  -3.491   8.247  1.00  0.00     0.031 A 
ATOM     42  C   UNL     1      -6.052  -3.321   8.070  1.00  0.00     0.074 A 
ATOM     43  C   UNL     1      -4.176  -4.703   8.707  1.00  0.00     0.049 A 
ATOM     44  N   UNL     1      -6.866  -2.863   8.963  1.00  0.00    -0.248 NA
ATOM     45  C   UNL     1      -6.553  -3.299   6.689  1.00  0.00     0.031 C 
ATOM     46  C   UNL     1      -2.829  -5.267   8.835  1.00  0.00     0.029 A 
ATOM     47  N   UNL     1      -4.956  -5.776   9.111  1.00  0.00    -0.354 N 
ATOM     48  C   UNL     1      -8.040  -2.670   8.264  1.00  0.00     0.074 A 
ATOM     49  C   UNL     1      -7.672  -2.603   6.873  1.00  0.00     0.031 C 
ATOM     50  C   UNL     1      -2.908  -6.614   9.025  1.00  0.00     0.029 A 
ATOM     51  C   UNL     1      -4.302  -7.013   9.158  1.00  0.00     0.049 A 
ATOM     52  H   UNL     1      -5.906  -5.674   9.348  1.00  0.00     0.167 HD
ATOM     53  C   UNL     1      -9.249  -2.959   8.806  1.00  0.00     0.031 A 
ATOM     54  C   UNL     1      -4.862  -8.260   9.262  1.00  0.00     0.031 A 
ATOM     55  C   UNL     1      -9.177  -3.150  10.231  1.00  0.00     0.049 A 
ATOM     56  C   UNL     1      -6.214  -8.089   9.848  1.00  0.00     0.074 A 
ATOM     57  C   UNL     1      -8.713  -2.393  11.289  1.00  0.00     0.029 A 
ATOM     58  N   UNL     1      -9.255  -4.445  10.692  1.00  0.00    -0.354 N 
ATOM     59  N   UNL     1      -6.420  -7.742  11.085  1.00  0.00    -0.248 NA
ATOM     60  C   UNL     1      -7.330  -7.879   8.941  1.00  0.00     0.031 C 
ATOM     61  C   UNL     1      -8.111  -3.324  12.181  1.00  0.00     0.029 A 
ATOM     62  C   UNL     1      -8.298  -4.605  11.660  1.00  0.00     0.049 A 
ATOM     63  H   UNL     1      -9.886  -5.134  10.381  1.00  0.00     0.167 HD
ATOM     64  C   UNL     1      -7.482  -6.854  11.019  1.00  0.00     0.074 A 
ATOM     65  C   UNL     1      -8.055  -7.042   9.687  1.00  0.00     0.031 C 
ATOM     66  C   UNL     1      -7.620  -5.853  11.936  1.00  0.00     0.031 A 
BRANCH  53  67
ATOM     67  C   UNL     1     -10.368  -3.506   7.963  1.00  0.00    -0.014 A 
ATOM     68  C   UNL     1     -11.645  -3.618   8.528  1.00  0.00     0.010 A 
ATOM     69  C   UNL     1     -10.154  -4.139   6.716  1.00  0.00     0.010 A 
ATOM     70  C   UNL     1     -12.644  -4.362   7.891  1.00  0.00     0.020 A 
ATOM     71  C   UNL     1     -11.153  -4.829   6.045  1.00  0.00     0.020 A 
ATOM     72  C   UNL     1     -12.387  -4.963   6.655  1.00  0.00     0.054 A 
BRANCH  72  73
ATOM     73  S   UNL     1     -13.653  -5.987   5.880  1.00  0.00     0.124 S 
ATOM     74  O   UNL     1     -13.766  -7.088   6.831  1.00  0.00    -0.237 OA
ATOM     75  O   UNL     1     -14.790  -5.072   5.824  1.00  0.00    -0.237 OA
ATOM     76  O   UNL     1     -13.070  -6.332   4.585  1.00  0.00    -0.744 OA
ENDBRANCH  72  73
ENDBRANCH  53  67
BRANCH  54  77
ATOM     77  C   UNL     1      -4.457  -9.580   8.667  1.00  0.00    -0.014 A 
ATOM     78  C   UNL     1      -5.151 -10.782   8.961  1.00  0.00     0.010 A 
ATOM     79  C   UNL     1      -3.582  -9.615   7.566  1.00  0.00     0.010 A 
ATOM     80  C   UNL     1      -5.031 -11.931   8.145  1.00  0.00     0.020 A 
ATOM     81  C   UNL     1      -3.453 -10.755   6.753  1.00  0.00     0.020 A 
ATOM     82  C   UNL     1      -4.199 -11.900   7.026  1.00  0.00     0.054 A 
BRANCH  82  83
ATOM     83  S   UNL     1      -4.184 -13.302   5.859  1.00  0.00     0.124 S 
ATOM     84  O   UNL     1      -3.555 -14.361   6.642  1.00  0.00    -0.237 OA
ATOM     85  O   UNL     1      -5.602 -13.491   5.566  1.00  0.00    -0.237 OA
ATOM     86  O   UNL     1      -3.387 -12.807   4.737  1.00  0.00    -0.744 OA
ENDBRANCH  82  83
ENDBRANCH  54  77
BRANCH  66  87
ATOM     87  C   UNL     1      -6.833  -5.916  13.225  1.00  0.00    -0.014 A 
ATOM     88  C   UNL     1      -5.428  -5.976  13.300  1.00  0.00     0.010 A 
ATOM     89  C   UNL     1      -7.559  -5.735  14.418  1.00  0.00     0.010 A 
ATOM     90  C   UNL     1      -4.772  -5.866  14.537  1.00  0.00     0.020 A 
ATOM     91  C   UNL     1      -6.912  -5.603  15.647  1.00  0.00     0.020 A 
ATOM     92  C   UNL     1      -5.521  -5.672  15.703  1.00  0.00     0.054 A 
BRANCH  92  93
ATOM     93  S   UNL     1      -4.669  -5.462  17.292  1.00  0.00     0.124 S 
ATOM     94  O   UNL     1      -4.056  -6.770  17.500  1.00  0.00    -0.237 OA
ATOM     95  O   UNL     1      -3.740  -4.367  17.017  1.00  0.00    -0.237 OA
ATOM     96  O   UNL     1      -5.746  -5.129  18.224  1.00  0.00    -0.744 OA
ENDBRANCH  92  93
ENDBRANCH  66  87
ENDBRANCH  40  41
ENDBRANCH  32  35
ENDBRANCH  30  31
ENDBRANCH  29  30
ENDBRANCH  28  29
ENDBRANCH   3  28
TORSDOF 19
