REMARK SMILES Cc1ncccc1C(=O)NCCOCC(=O)NCCCNC(=O)c1ccc(-c2c3nc(c(-c4ccc(S(=O)(=O)[O-])cc4)c4ccc([nH]4)c(-c4ccc(S(=O)(=O)[O-])cc4)c4nc(c(-c5ccc(S(=O)(=O)[O-])cc5)c5ccc2[nH]5)C=C4)C=C3)cc1
REMARK SMILES IDX 18 1 17 2 15 3 16 4 14 6 13 7 12 8 11 9 10 10 8 11 9 12 7 14
REMARK SMILES IDX 1 15 2 16 3 17 4 18 6 19 5 20 19 21 20 22 21 23 22 24 23 26
REMARK SMILES IDX 24 27 25 28 83 29 26 30 82 31 27 32 28 33 29 34 76 35 30 36
REMARK SMILES IDX 81 37 75 38 77 39 31 40 80 41 74 42 73 43 32 45 62 46 43 47
REMARK SMILES IDX 61 48 44 49 47 50 60 51 78 52 45 53 46 54 59 56 79 57 48 58
REMARK SMILES IDX 33 59 34 60 42 61 35 62 41 63 36 64 37 65 38 66 39 67 40 68
REMARK SMILES IDX 63 69 64 70 72 71 65 72 71 73 66 74 67 75 68 76 69 77 70 78
REMARK SMILES IDX 49 79 50 80 58 81 51 82 57 83 52 84 53 85 54 86 55 87 56 88
REMARK H PARENT 17 5 10 13 21 25 77 44 47 55
REMARK Flexibility Score: inf
ROOT
ATOM      1  C   UNL     1       5.594  -4.056   4.179  1.00  0.00     0.117 C 
ENDROOT
BRANCH   1   2
ATOM      2  N   UNL     1       4.192  -4.347   3.940  1.00  0.00    -0.354 N 
ATOM      3  C   UNL     1       3.553  -4.512   2.745  1.00  0.00     0.245 C 
ATOM      4  O   UNL     1       2.358  -4.809   2.743  1.00  0.00    -0.272 OA
ATOM      5  H   UNL     1       3.630  -4.437   4.743  1.00  0.00     0.163 HD
BRANCH   3   6
ATOM      6  C   UNL     1       4.335  -4.299   1.441  1.00  0.00     0.260 C 
BRANCH   6   7
ATOM      7  O   UNL     1       4.901  -3.026   1.171  1.00  0.00    -0.370 OA
BRANCH   7   8
ATOM      8  C   UNL     1       4.109  -1.903   1.561  1.00  0.00     0.182 C 
BRANCH   8   9
ATOM      9  C   UNL     1       3.217  -1.337   0.455  1.00  0.00     0.144 C 
BRANCH   9  10
ATOM     10  N   UNL     1       2.246  -2.262  -0.095  1.00  0.00    -0.350 N 
ATOM     11  C   UNL     1       0.948  -2.091  -0.494  1.00  0.00     0.253 C 
ATOM     12  O   UNL     1       0.360  -3.053  -0.992  1.00  0.00    -0.269 OA
ATOM     13  H   UNL     1       2.581  -3.181  -0.201  1.00  0.00     0.163 HD
BRANCH  11  14
ATOM     14  C   UNL     1       0.193  -0.831  -0.308  1.00  0.00     0.061 A 
ATOM     15  C   UNL     1       1.868   0.734  -1.448  1.00  0.00     0.067 C 
ATOM     16  C   UNL     1       0.585   0.440  -0.736  1.00  0.00     0.050 A 
ATOM     17  N   UNL     1      -0.207   1.538  -0.563  1.00  0.00    -0.261 NA
ATOM     18  C   UNL     1      -1.435   1.365  -0.028  1.00  0.00     0.111 A 
ATOM     19  C   UNL     1      -1.101  -0.971   0.219  1.00  0.00     0.017 A 
ATOM     20  C   UNL     1      -1.931   0.137   0.359  1.00  0.00     0.021 A 
ENDBRANCH  11  14
ENDBRANCH   9  10
ENDBRANCH   8   9
ENDBRANCH   7   8
ENDBRANCH   6   7
ENDBRANCH   3   6
ENDBRANCH   1   2
BRANCH   1  21
ATOM     21  C   UNL     1       5.825  -2.675   4.786  1.00  0.00     0.042 C 
BRANCH  21  22
ATOM     22  C   UNL     1       5.095  -2.418   6.102  1.00  0.00     0.118 C 
BRANCH  22  23
ATOM     23  N   UNL     1       5.410  -3.409   7.120  1.00  0.00    -0.352 N 
ATOM     24  C   UNL     1       6.018  -3.278   8.339  1.00  0.00     0.251 C 
ATOM     25  H   UNL     1       5.139  -4.328   6.894  1.00  0.00     0.163 HD
ATOM     26  O   UNL     1       6.369  -4.303   8.935  1.00  0.00    -0.269 OA
BRANCH  24  27
ATOM     27  C   UNL     1       6.268  -1.955   8.950  1.00  0.00     0.039 A 
ATOM     28  C   UNL     1       7.441  -1.770   9.688  1.00  0.00     0.014 A 
ATOM     29  C   UNL     1       5.331  -0.920   8.872  1.00  0.00     0.014 A 
ATOM     30  C   UNL     1       7.691  -0.546  10.313  1.00  0.00     0.010 A 
ATOM     31  C   UNL     1       5.616   0.326   9.431  1.00  0.00     0.010 A 
ATOM     32  C   UNL     1       6.789   0.521  10.174  1.00  0.00    -0.014 A 
BRANCH  32  33
ATOM     33  C   UNL     1       7.051   1.831  10.826  1.00  0.00     0.031 A 
ATOM     34  C   UNL     1       6.138   2.337  11.912  1.00  0.00     0.074 A 
ATOM     35  C   UNL     1       8.092   2.583  10.418  1.00  0.00     0.049 A 
ATOM     36  N   UNL     1       6.198   3.459  12.585  1.00  0.00    -0.248 NA
ATOM     37  C   UNL     1       4.993   1.484  12.273  1.00  0.00     0.031 C 
ATOM     38  C   UNL     1       9.026   2.228   9.346  1.00  0.00     0.029 A 
ATOM     39  N   UNL     1       8.540   3.804  10.857  1.00  0.00    -0.354 N 
ATOM     40  C   UNL     1       5.095   3.454  13.432  1.00  0.00     0.074 A 
ATOM     41  C   UNL     1       4.355   2.242  13.152  1.00  0.00     0.031 C 
ATOM     42  C   UNL     1       9.953   3.193   9.234  1.00  0.00     0.029 A 
ATOM     43  C   UNL     1       9.664   4.248  10.200  1.00  0.00     0.049 A 
ATOM     44  H   UNL     1       8.100   4.313  11.575  1.00  0.00     0.167 HD
ATOM     45  C   UNL     1       4.738   4.363  14.372  1.00  0.00     0.031 A 
ATOM     46  C   UNL     1      10.383   5.375  10.359  1.00  0.00     0.031 A 
ATOM     47  C   UNL     1       5.483   5.560  14.661  1.00  0.00     0.049 A 
ATOM     48  C   UNL     1       9.981   6.359  11.423  1.00  0.00     0.074 A 
ATOM     49  C   UNL     1       5.235   6.517  15.630  1.00  0.00     0.029 A 
ATOM     50  N   UNL     1       6.625   5.963  13.986  1.00  0.00    -0.354 N 
ATOM     51  N   UNL     1       8.967   6.306  12.253  1.00  0.00    -0.248 NA
ATOM     52  C   UNL     1      10.833   7.544  11.582  1.00  0.00     0.031 C 
ATOM     53  C   UNL     1       6.204   7.520  15.513  1.00  0.00     0.029 A 
ATOM     54  C   UNL     1       7.085   7.161  14.506  1.00  0.00     0.049 A 
ATOM     55  H   UNL     1       7.047   5.470  13.246  1.00  0.00     0.167 HD
ATOM     56  C   UNL     1       9.074   7.440  13.051  1.00  0.00     0.074 A 
ATOM     57  C   UNL     1      10.261   8.147  12.616  1.00  0.00     0.031 C 
ATOM     58  C   UNL     1       8.263   7.858  14.056  1.00  0.00     0.031 A 
BRANCH  45  59
ATOM     59  C   UNL     1       3.479   4.093  15.154  1.00  0.00    -0.014 A 
ATOM     60  C   UNL     1       3.418   3.049  16.095  1.00  0.00     0.010 A 
ATOM     61  C   UNL     1       2.348   4.908  14.965  1.00  0.00     0.010 A 
ATOM     62  C   UNL     1       2.236   2.794  16.796  1.00  0.00     0.020 A 
ATOM     63  C   UNL     1       1.172   4.675  15.684  1.00  0.00     0.020 A 
ATOM     64  C   UNL     1       1.118   3.605  16.581  1.00  0.00     0.054 A 
BRANCH  64  65
ATOM     65  S   UNL     1      -0.401   3.259  17.511  1.00  0.00     0.124 S 
ATOM     66  O   UNL     1      -0.902   2.066  16.833  1.00  0.00    -0.237 OA
ATOM     67  O   UNL     1       0.094   3.048  18.869  1.00  0.00    -0.237 OA
ATOM     68  O   UNL     1      -1.204   4.465  17.324  1.00  0.00    -0.744 OA
ENDBRANCH  64  65
ENDBRANCH  45  59
BRANCH  46  69
ATOM     69  C   UNL     1      11.580   5.617   9.508  1.00  0.00    -0.014 A 
ATOM     70  C   UNL     1      12.873   5.521  10.053  1.00  0.00     0.010 A 
ATOM     71  C   UNL     1      11.433   5.928   8.145  1.00  0.00     0.010 A 
ATOM     72  C   UNL     1      13.996   5.750   9.254  1.00  0.00     0.020 A 
ATOM     73  C   UNL     1      12.555   6.132   7.337  1.00  0.00     0.020 A 
ATOM     74  C   UNL     1      13.830   6.053   7.899  1.00  0.00     0.054 A 
BRANCH  74  75
ATOM     75  S   UNL     1      15.303   6.290   6.867  1.00  0.00     0.124 S 
ATOM     76  O   UNL     1      15.749   7.618   7.276  1.00  0.00    -0.237 OA
ATOM     77  O   UNL     1      16.160   5.180   7.277  1.00  0.00    -0.237 OA
ATOM     78  O   UNL     1      14.783   6.194   5.505  1.00  0.00    -0.744 OA
ENDBRANCH  74  75
ENDBRANCH  46  69
BRANCH  58  79
ATOM     79  C   UNL     1       8.655   9.124  14.769  1.00  0.00    -0.014 A 
ATOM     80  C   UNL     1       8.536  10.379  14.147  1.00  0.00     0.010 A 
ATOM     81  C   UNL     1       9.133   9.055  16.090  1.00  0.00     0.010 A 
ATOM     82  C   UNL     1       8.937  11.539  14.816  1.00  0.00     0.020 A 
ATOM     83  C   UNL     1       9.508  10.216  16.772  1.00  0.00     0.020 A 
ATOM     84  C   UNL     1       9.428  11.448  16.122  1.00  0.00     0.054 A 
BRANCH  84  85
ATOM     85  S   UNL     1       9.934  12.967  16.974  1.00  0.00     0.124 S 
ATOM     86  O   UNL     1      11.227  13.245  16.355  1.00  0.00    -0.237 OA
ATOM     87  O   UNL     1       8.862  13.900  16.637  1.00  0.00    -0.237 OA
ATOM     88  O   UNL     1       9.988  12.572  18.380  1.00  0.00    -0.744 OA
ENDBRANCH  84  85
ENDBRANCH  58  79
ENDBRANCH  32  33
ENDBRANCH  24  27
ENDBRANCH  22  23
ENDBRANCH  21  22
ENDBRANCH   1  21
TORSDOF 18
