REMARK SMILES CCCn1ccnc1C[N@@H+]1C[C@@H](C(=O)NCCCNC(=O)c2ccc(-c3c4nc(c(-c5ccc(S(=O)(=O)[O-])cc5)c5ccc([nH]5)c(-c5ccc(S(=O)(=O)[O-])cc5)c5nc(c(-c6ccc(S(=O)(=O)[O-])cc6)c6ccc3[nH]6)C=C5)C=C4)cc2)[C@H](c2ccccc2)C1
REMARK SMILES IDX 16 1 15 2 13 3 14 4 12 6 10 7 11 8 89 9 82 11 9 12 8 13 4 14
REMARK SMILES IDX 5 15 6 16 7 17 3 18 2 19 1 20 83 21 84 22 88 23 85 24 87 25
REMARK SMILES IDX 86 26 17 27 18 28 19 29 20 30 21 32 22 33 23 34 81 35 24 36
REMARK SMILES IDX 80 37 25 38 26 39 27 40 74 41 28 42 79 43 73 44 75 45 29 46
REMARK SMILES IDX 78 47 72 48 71 49 30 51 60 52 41 53 59 54 42 55 45 56 58 57
REMARK SMILES IDX 76 58 43 59 44 60 57 62 77 63 46 64 31 65 32 66 40 67 33 68
REMARK SMILES IDX 39 69 34 70 35 71 36 72 37 73 38 74 61 75 62 76 70 77 63 78
REMARK SMILES IDX 69 79 64 80 65 81 66 82 67 83 68 84 47 85 48 86 56 87 49 88
REMARK SMILES IDX 55 89 50 90 51 91 52 92 53 93 54 94
REMARK H PARENT 15 5 10 10 19 31 75 50 45 61
REMARK Flexibility Score: inf
ROOT
ATOM      1  C   UNL     1      -4.036  -4.658  -3.413  1.00  0.00     0.117 C 
ENDROOT
BRANCH   1   2
ATOM      2  N   UNL     1      -3.436  -4.878  -4.726  1.00  0.00    -0.356 N 
ATOM      3  C   UNL     1      -2.574  -4.108  -5.466  1.00  0.00     0.229 C 
ATOM      4  O   UNL     1      -2.314  -4.499  -6.603  1.00  0.00    -0.275 OA
ATOM      5  H   UNL     1      -3.694  -5.726  -5.154  1.00  0.00     0.163 HD
BRANCH   3   6
ATOM      6  C   UNL     1      -1.892  -2.888  -4.853  1.00  0.00     0.146 C 
ATOM      7  N   UNL     1      -2.280  -0.619  -4.123  1.00  0.00    -0.327 N 
ATOM      8  C   UNL     1      -2.913  -1.918  -4.271  1.00  0.00     0.277 C 
ATOM      9  C   UNL     1      -1.391  -0.529  -5.279  1.00  0.00     0.271 C 
ATOM     10  H   UNL     1      -2.937   0.161  -4.126  1.00  0.00     0.348 HD
ATOM     11  C   UNL     1      -1.077  -1.964  -5.806  1.00  0.00     0.092 C 
BRANCH   7  12
ATOM     12  C   UNL     1      -1.655  -0.433  -2.799  1.00  0.00     0.339 C 
BRANCH  12  13
ATOM     13  C   UNL     1      -0.571  -1.395  -2.397  1.00  0.00     0.164 A 
ATOM     14  N   UNL     1       0.767  -1.079  -2.352  1.00  0.00    -0.330 N 
ATOM     15  C   UNL     1       1.470  -2.242  -2.194  1.00  0.00     0.107 A 
ATOM     16  C   UNL     1       0.517  -3.195  -1.942  1.00  0.00     0.131 A 
ATOM     17  N   UNL     1      -0.739  -2.645  -1.993  1.00  0.00    -0.236 NA
BRANCH  14  18
ATOM     18  C   UNL     1       1.341   0.250  -2.305  1.00  0.00     0.123 C 
BRANCH  18  19
ATOM     19  C   UNL     1       0.974   0.999  -1.016  1.00  0.00     0.018 C 
ATOM     20  C   UNL     1       1.370   0.257   0.255  1.00  0.00     0.006 C 
ENDBRANCH  18  19
ENDBRANCH  14  18
ENDBRANCH  12  13
ENDBRANCH   7  12
BRANCH  11  21
ATOM     21  C   UNL     1       0.413  -2.263  -5.997  1.00  0.00    -0.038 A 
ATOM     22  C   UNL     1       1.396  -1.254  -6.033  1.00  0.00     0.004 A 
ATOM     23  C   UNL     1       0.842  -3.568  -6.285  1.00  0.00     0.004 A 
ATOM     24  C   UNL     1       2.742  -1.537  -6.287  1.00  0.00     0.000 A 
ATOM     25  C   UNL     1       2.185  -3.852  -6.564  1.00  0.00     0.000 A 
ATOM     26  C   UNL     1       3.137  -2.839  -6.555  1.00  0.00     0.000 A 
ENDBRANCH  11  21
ENDBRANCH   3   6
ENDBRANCH   1   2
BRANCH   1  27
ATOM     27  C   UNL     1      -5.303  -3.786  -3.497  1.00  0.00     0.042 C 
BRANCH  27  28
ATOM     28  C   UNL     1      -6.554  -4.559  -3.849  1.00  0.00     0.118 C 
BRANCH  28  29
ATOM     29  N   UNL     1      -7.087  -5.298  -2.708  1.00  0.00    -0.352 N 
ATOM     30  C   UNL     1      -8.152  -6.182  -2.695  1.00  0.00     0.251 C 
ATOM     31  H   UNL     1      -6.636  -5.150  -1.845  1.00  0.00     0.163 HD
ATOM     32  O   UNL     1      -8.754  -6.422  -1.664  1.00  0.00    -0.269 OA
BRANCH  30  33
ATOM     33  C   UNL     1      -8.537  -6.821  -3.966  1.00  0.00     0.039 A 
ATOM     34  C   UNL     1      -9.879  -7.010  -4.316  1.00  0.00     0.014 A 
ATOM     35  C   UNL     1      -7.515  -7.184  -4.835  1.00  0.00     0.014 A 
ATOM     36  C   UNL     1     -10.180  -7.498  -5.585  1.00  0.00     0.010 A 
ATOM     37  C   UNL     1      -7.814  -7.472  -6.136  1.00  0.00     0.010 A 
ATOM     38  C   UNL     1      -9.138  -7.711  -6.496  1.00  0.00    -0.014 A 
BRANCH  38  39
ATOM     39  C   UNL     1      -9.384  -8.092  -7.882  1.00  0.00     0.031 A 
ATOM     40  C   UNL     1     -10.194  -7.118  -8.665  1.00  0.00     0.074 A 
ATOM     41  C   UNL     1      -8.665  -9.085  -8.455  1.00  0.00     0.049 A 
ATOM     42  N   UNL     1     -11.328  -7.322  -9.249  1.00  0.00    -0.248 NA
ATOM     43  C   UNL     1      -9.761  -5.708  -8.693  1.00  0.00     0.031 C 
ATOM     44  C   UNL     1      -7.611  -9.898  -7.829  1.00  0.00     0.029 A 
ATOM     45  N   UNL     1      -8.576  -9.452  -9.761  1.00  0.00    -0.354 N 
ATOM     46  C   UNL     1     -11.636  -6.136  -9.911  1.00  0.00     0.074 A 
ATOM     47  C   UNL     1     -10.762  -5.132  -9.361  1.00  0.00     0.031 C 
ATOM     48  C   UNL     1      -6.816 -10.419  -8.786  1.00  0.00     0.029 A 
ATOM     49  C   UNL     1      -7.396 -10.121 -10.081  1.00  0.00     0.049 A 
ATOM     50  H   UNL     1      -9.282  -9.262 -10.421  1.00  0.00     0.167 HD
ATOM     51  C   UNL     1     -12.387  -6.126 -11.049  1.00  0.00     0.031 A 
ATOM     52  C   UNL     1      -6.893 -10.353 -11.322  1.00  0.00     0.031 A 
ATOM     53  C   UNL     1     -13.033  -7.396 -11.266  1.00  0.00     0.049 A 
ATOM     54  C   UNL     1      -8.021 -10.200 -12.274  1.00  0.00     0.074 A 
ATOM     55  C   UNL     1     -13.912  -8.172 -10.538  1.00  0.00     0.029 A 
ATOM     56  N   UNL     1     -12.458  -8.235 -12.194  1.00  0.00    -0.354 N 
ATOM     57  N   UNL     1      -9.055 -10.997 -12.288  1.00  0.00    -0.248 NA
ATOM     58  C   UNL     1      -8.239  -8.895 -12.880  1.00  0.00     0.031 C 
ATOM     59  C   UNL     1     -13.465  -9.510 -10.735  1.00  0.00     0.029 A 
ATOM     60  C   UNL     1     -12.402  -9.489 -11.641  1.00  0.00     0.049 A 
ATOM     61  H   UNL     1     -12.144  -7.982 -13.092  1.00  0.00     0.167 HD
ATOM     62  C   UNL     1     -10.145 -10.156 -12.464  1.00  0.00     0.074 A 
ATOM     63  C   UNL     1      -9.575  -8.895 -12.938  1.00  0.00     0.031 C 
ATOM     64  C   UNL     1     -11.364 -10.459 -11.926  1.00  0.00     0.031 A 
BRANCH  51  65
ATOM     65  C   UNL     1     -12.207  -5.131 -12.172  1.00  0.00    -0.014 A 
ATOM     66  C   UNL     1     -13.082  -5.188 -13.276  1.00  0.00     0.010 A 
ATOM     67  C   UNL     1     -11.052  -4.335 -12.315  1.00  0.00     0.010 A 
ATOM     68  C   UNL     1     -12.774  -4.547 -14.484  1.00  0.00     0.020 A 
ATOM     69  C   UNL     1     -10.758  -3.654 -13.498  1.00  0.00     0.020 A 
ATOM     70  C   UNL     1     -11.603  -3.797 -14.589  1.00  0.00     0.054 A 
BRANCH  70  71
ATOM     71  S   UNL     1     -11.153  -3.068 -16.183  1.00  0.00     0.124 S 
ATOM     72  O   UNL     1     -10.891  -4.255 -16.991  1.00  0.00    -0.237 OA
ATOM     73  O   UNL     1     -12.357  -2.317 -16.530  1.00  0.00    -0.237 OA
ATOM     74  O   UNL     1      -9.984  -2.251 -15.868  1.00  0.00    -0.744 OA
ENDBRANCH  70  71
ENDBRANCH  51  65
BRANCH  52  75
ATOM     75  C   UNL     1      -5.465 -10.393 -11.743  1.00  0.00    -0.014 A 
ATOM     76  C   UNL     1      -5.100 -10.806 -13.039  1.00  0.00     0.010 A 
ATOM     77  C   UNL     1      -4.471  -9.769 -10.960  1.00  0.00     0.010 A 
ATOM     78  C   UNL     1      -3.820 -10.531 -13.556  1.00  0.00     0.020 A 
ATOM     79  C   UNL     1      -3.190  -9.504 -11.463  1.00  0.00     0.020 A 
ATOM     80  C   UNL     1      -2.881  -9.858 -12.772  1.00  0.00     0.054 A 
BRANCH  80  81
ATOM     81  S   UNL     1      -1.311  -9.314 -13.513  1.00  0.00     0.124 S 
ATOM     82  O   UNL     1      -0.583 -10.571 -13.661  1.00  0.00    -0.237 OA
ATOM     83  O   UNL     1      -1.747  -8.686 -14.757  1.00  0.00    -0.237 OA
ATOM     84  O   UNL     1      -0.761  -8.394 -12.519  1.00  0.00    -0.744 OA
ENDBRANCH  80  81
ENDBRANCH  52  75
BRANCH  64  85
ATOM     85  C   UNL     1     -11.581 -11.846 -11.357  1.00  0.00    -0.014 A 
ATOM     86  C   UNL     1     -10.834 -12.382 -10.288  1.00  0.00     0.010 A 
ATOM     87  C   UNL     1     -12.698 -12.566 -11.815  1.00  0.00     0.010 A 
ATOM     88  C   UNL     1     -11.181 -13.616  -9.715  1.00  0.00     0.020 A 
ATOM     89  C   UNL     1     -13.061 -13.784 -11.236  1.00  0.00     0.020 A 
ATOM     90  C   UNL     1     -12.294 -14.310 -10.196  1.00  0.00     0.054 A 
BRANCH  90  91
ATOM     91  S   UNL     1     -12.766 -15.886  -9.429  1.00  0.00     0.124 S 
ATOM     92  O   UNL     1     -11.685 -16.776  -9.842  1.00  0.00    -0.237 OA
ATOM     93  O   UNL     1     -12.803 -15.559  -8.006  1.00  0.00    -0.237 OA
ATOM     94  O   UNL     1     -14.070 -16.184 -10.020  1.00  0.00    -0.744 OA
ENDBRANCH  90  91
ENDBRANCH  64  85
ENDBRANCH  38  39
ENDBRANCH  30  33
ENDBRANCH  28  29
ENDBRANCH  27  28
ENDBRANCH   1  27
TORSDOF 18
