REMARK SMILES CCCCCCNC(=O)Oc1cccc(-c2ccc([C@@H](C)C(=O)NCCCNC(=O)c3ccc(-c4c5nc(c(-c6ccc(S(=O)(=O)[O-])cc6)c6ccc([nH]6)c(-c6ccc(S(=O)(=O)[O-])cc6)c6nc(c(-c7ccc(S(=O)(=O)[O-])cc7)c7ccc4[nH]7)C=C6)C=C5)cc3)cc2[N+](=O)[O-])c1
REMARK SMILES IDX 20 1 21 2 19 3 16 4 17 5 92 6 18 7 91 8 15 9 11 10 12 11
REMARK SMILES IDX 96 12 13 13 14 14 10 15 8 16 7 17 9 19 6 20 5 21 4 22 3 23
REMARK SMILES IDX 2 24 1 25 93 26 94 27 95 28 22 29 23 30 24 31 25 33 26 34
REMARK SMILES IDX 27 35 28 36 29 37 30 39 31 40 32 41 90 42 33 43 89 44 34 45
REMARK SMILES IDX 35 46 36 47 83 48 37 49 88 50 82 51 84 52 38 53 87 54 81 55
REMARK SMILES IDX 80 56 39 58 69 59 50 60 68 61 51 62 54 63 67 64 85 65 52 66
REMARK SMILES IDX 53 67 66 69 86 70 55 71 40 72 41 73 49 74 42 75 48 76 43 77
REMARK SMILES IDX 44 78 45 79 46 80 47 81 70 82 71 83 79 84 72 85 78 86 73 87
REMARK SMILES IDX 74 88 75 89 76 90 77 91 56 92 57 93 65 94 58 95 64 96 59 97
REMARK SMILES IDX 60 98 61 99 62 100 63 101
REMARK H PARENT 7 18 24 32 28 38 84 57 54 68
REMARK Flexibility Score: inf
ROOT
ATOM      1  C   UNL     1      -4.532  -8.341 -10.882  1.00  0.00     0.105 C 
ATOM      2  C   UNL     1      -5.665  -8.911 -11.733  1.00  0.00     0.023 C 
ENDROOT
BRANCH   1   3
ATOM      3  C   UNL     1      -4.868  -7.067 -10.120  1.00  0.00    -0.029 A 
ATOM      4  C   UNL     1      -5.242  -4.602  -8.688  1.00  0.00     0.060 A 
ATOM      5  C   UNL     1      -5.548  -4.731 -10.055  1.00  0.00     0.016 A 
ATOM      6  C   UNL     1      -4.837  -5.782  -8.034  1.00  0.00     0.277 A 
ATOM      7  C   UNL     1      -5.415  -5.944 -10.739  1.00  0.00     0.005 A 
ATOM      8  C   UNL     1      -4.609  -6.983  -8.744  1.00  0.00     0.090 A 
BRANCH   4   9
ATOM      9  C   UNL     1      -5.314  -3.254  -8.080  1.00  0.00    -0.008 A 
ATOM     10  C   UNL     1      -4.334  -1.445  -6.786  1.00  0.00     0.133 A 
ATOM     11  C   UNL     1      -5.433  -0.629  -7.029  1.00  0.00     0.047 A 
ATOM     12  C   UNL     1      -4.260  -2.740  -7.306  1.00  0.00     0.056 A 
ATOM     13  C   UNL     1      -6.477  -1.112  -7.808  1.00  0.00     0.004 A 
ATOM     14  C   UNL     1      -6.422  -2.414  -8.316  1.00  0.00     0.009 A 
BRANCH  10  15
ATOM     15  O   UNL     1      -3.377  -0.959  -5.880  1.00  0.00    -0.410 OA
BRANCH  15  16
ATOM     16  C   UNL     1      -2.030  -1.048  -6.195  1.00  0.00     0.412 C 
ATOM     17  N   UNL     1      -1.219  -0.665  -5.162  1.00  0.00    -0.321 N 
ATOM     18  H   UNL     1      -0.251  -0.651  -5.341  1.00  0.00     0.167 HD
ATOM     19  O   UNL     1      -1.563  -1.427  -7.262  1.00  0.00    -0.224 OA
BRANCH  17  20
ATOM     20  C   UNL     1      -1.642  -0.278  -3.830  1.00  0.00     0.119 C 
BRANCH  20  21
ATOM     21  C   UNL     1      -1.063  -1.206  -2.761  1.00  0.00     0.021 C 
BRANCH  21  22
ATOM     22  C   UNL     1       0.466  -1.175  -2.643  1.00  0.00     0.002 C 
BRANCH  22  23
ATOM     23  C   UNL     1       1.073   0.198  -2.331  1.00  0.00    -0.000 C 
BRANCH  23  24
ATOM     24  C   UNL     1       0.589   0.848  -1.032  1.00  0.00    -0.003 C 
ATOM     25  C   UNL     1       0.955   0.052   0.211  1.00  0.00     0.004 C 
ENDBRANCH  23  24
ENDBRANCH  22  23
ENDBRANCH  21  22
ENDBRANCH  20  21
ENDBRANCH  17  20
ENDBRANCH  15  16
ENDBRANCH  10  15
ENDBRANCH   4   9
BRANCH   6  26
ATOM     26  N   UNL     1      -4.712  -5.847  -6.577  1.00  0.00     0.063 N 
ATOM     27  O   UNL     1      -3.808  -6.559  -6.115  1.00  0.00    -0.258 OA
ATOM     28  O   UNL     1      -5.559  -5.256  -5.893  1.00  0.00    -0.258 OA
ENDBRANCH   6  26
ENDBRANCH   1   3
BRANCH   1  29
ATOM     29  C   UNL     1      -3.162  -8.306 -11.580  1.00  0.00     0.227 C 
ATOM     30  O   UNL     1      -2.205  -8.907 -11.076  1.00  0.00    -0.274 OA
ATOM     31  N   UNL     1      -2.911  -7.657 -12.749  1.00  0.00    -0.356 N 
ATOM     32  H   UNL     1      -1.996  -7.788 -13.088  1.00  0.00     0.163 HD
BRANCH  31  33
ATOM     33  C   UNL     1      -3.733  -6.810 -13.591  1.00  0.00     0.117 C 
BRANCH  33  34
ATOM     34  C   UNL     1      -3.485  -5.326 -13.334  1.00  0.00     0.042 C 
BRANCH  34  35
ATOM     35  C   UNL     1      -2.287  -4.759 -14.080  1.00  0.00     0.118 C 
BRANCH  35  36
ATOM     36  N   UNL     1      -2.524  -4.686 -15.514  1.00  0.00    -0.352 N 
ATOM     37  C   UNL     1      -2.561  -3.605 -16.359  1.00  0.00     0.251 C 
ATOM     38  H   UNL     1      -2.684  -5.554 -15.950  1.00  0.00     0.163 HD
ATOM     39  O   UNL     1      -3.009  -3.760 -17.494  1.00  0.00    -0.269 OA
BRANCH  37  40
ATOM     40  C   UNL     1      -2.079  -2.269 -15.931  1.00  0.00     0.039 A 
ATOM     41  C   UNL     1      -2.707  -1.131 -16.450  1.00  0.00     0.014 A 
ATOM     42  C   UNL     1      -0.975  -2.122 -15.089  1.00  0.00     0.014 A 
ATOM     43  C   UNL     1      -2.246   0.142 -16.103  1.00  0.00     0.010 A 
ATOM     44  C   UNL     1      -0.577  -0.855 -14.669  1.00  0.00     0.010 A 
ATOM     45  C   UNL     1      -1.186   0.292 -15.196  1.00  0.00    -0.014 A 
BRANCH  45  46
ATOM     46  C   UNL     1      -0.656   1.633 -14.836  1.00  0.00     0.031 A 
ATOM     47  C   UNL     1       0.763   1.997 -15.191  1.00  0.00     0.074 A 
ATOM     48  C   UNL     1      -1.427   2.503 -14.155  1.00  0.00     0.049 A 
ATOM     49  N   UNL     1       1.432   3.087 -14.912  1.00  0.00    -0.248 NA
ATOM     50  C   UNL     1       1.544   0.992 -15.934  1.00  0.00     0.031 C 
ATOM     51  C   UNL     1      -2.805   2.258 -13.723  1.00  0.00     0.029 A 
ATOM     52  N   UNL     1      -1.159   3.770 -13.702  1.00  0.00    -0.354 N 
ATOM     53  C   UNL     1       2.711   2.887 -15.421  1.00  0.00     0.074 A 
ATOM     54  C   UNL     1       2.742   1.554 -15.978  1.00  0.00     0.031 C 
ATOM     55  C   UNL     1      -3.269   3.349 -13.092  1.00  0.00     0.029 A 
ATOM     56  C   UNL     1      -2.213   4.355 -13.039  1.00  0.00     0.049 A 
ATOM     57  H   UNL     1      -0.294   4.219 -13.838  1.00  0.00     0.167 HD
ATOM     58  C   UNL     1       3.760   3.743 -15.445  1.00  0.00     0.031 A 
ATOM     59  C   UNL     1      -2.315   5.562 -12.451  1.00  0.00     0.031 A 
ATOM     60  C   UNL     1       3.719   5.078 -14.910  1.00  0.00     0.049 A 
ATOM     61  C   UNL     1      -1.138   6.499 -12.492  1.00  0.00     0.074 A 
ATOM     62  C   UNL     1       4.709   6.044 -14.930  1.00  0.00     0.029 A 
ATOM     63  N   UNL     1       2.626   5.637 -14.265  1.00  0.00    -0.354 N 
ATOM     64  N   UNL     1       0.046   6.311 -13.026  1.00  0.00    -0.248 NA
ATOM     65  C   UNL     1      -1.315   7.816 -11.866  1.00  0.00     0.031 C 
ATOM     66  C   UNL     1       4.230   7.172 -14.256  1.00  0.00     0.029 A 
ATOM     67  C   UNL     1       2.922   6.929 -13.869  1.00  0.00     0.049 A 
ATOM     68  H   UNL     1       1.767   5.181 -14.112  1.00  0.00     0.167 HD
ATOM     69  C   UNL     1       0.743   7.498 -12.828  1.00  0.00     0.074 A 
ATOM     70  C   UNL     1      -0.157   8.400 -12.138  1.00  0.00     0.031 C 
ATOM     71  C   UNL     1       2.011   7.815 -13.189  1.00  0.00     0.031 A 
BRANCH  58  72
ATOM     72  C   UNL     1       5.043   3.258 -16.071  1.00  0.00    -0.014 A 
ATOM     73  C   UNL     1       5.137   3.039 -17.458  1.00  0.00     0.010 A 
ATOM     74  C   UNL     1       6.180   3.050 -15.269  1.00  0.00     0.010 A 
ATOM     75  C   UNL     1       6.329   2.578 -18.023  1.00  0.00     0.020 A 
ATOM     76  C   UNL     1       7.383   2.618 -15.835  1.00  0.00     0.020 A 
ATOM     77  C   UNL     1       7.444   2.367 -17.207  1.00  0.00     0.054 A 
BRANCH  77  78
ATOM     78  S   UNL     1       8.983   1.788 -17.973  1.00  0.00     0.124 S 
ATOM     79  O   UNL     1       8.665   0.395 -18.273  1.00  0.00    -0.237 OA
ATOM     80  O   UNL     1       9.114   2.666 -19.133  1.00  0.00    -0.237 OA
ATOM     81  O   UNL     1       9.986   1.987 -16.929  1.00  0.00    -0.744 OA
ENDBRANCH  77  78
ENDBRANCH  58  72
BRANCH  59  82
ATOM     82  C   UNL     1      -3.588   5.964 -11.791  1.00  0.00    -0.014 A 
ATOM     83  C   UNL     1      -4.403   6.960 -12.358  1.00  0.00     0.010 A 
ATOM     84  C   UNL     1      -3.999   5.345 -10.596  1.00  0.00     0.010 A 
ATOM     85  C   UNL     1      -5.592   7.346 -11.732  1.00  0.00     0.020 A 
ATOM     86  C   UNL     1      -5.202   5.707  -9.982  1.00  0.00     0.020 A 
ATOM     87  C   UNL     1      -5.984   6.715 -10.548  1.00  0.00     0.054 A 
BRANCH  87  88
ATOM     88  S   UNL     1      -7.554   7.199  -9.777  1.00  0.00     0.124 S 
ATOM     89  O   UNL     1      -7.225   8.502  -9.209  1.00  0.00    -0.237 OA
ATOM     90  O   UNL     1      -8.472   7.216 -10.914  1.00  0.00    -0.237 OA
ATOM     91  O   UNL     1      -7.800   6.135  -8.806  1.00  0.00    -0.744 OA
ENDBRANCH  87  88
ENDBRANCH  59  82
BRANCH  71  92
ATOM     92  C   UNL     1       2.490   9.210 -12.888  1.00  0.00    -0.014 A 
ATOM     93  C   UNL     1       2.782   9.617 -11.574  1.00  0.00     0.010 A 
ATOM     94  C   UNL     1       2.704  10.109 -13.949  1.00  0.00     0.010 A 
ATOM     95  C   UNL     1       3.248  10.910 -11.324  1.00  0.00     0.020 A 
ATOM     96  C   UNL     1       3.197  11.393 -13.705  1.00  0.00     0.020 A 
ATOM     97  C   UNL     1       3.452  11.790 -12.392  1.00  0.00     0.054 A 
BRANCH  97  98
ATOM     98  S   UNL     1       4.097  13.449 -12.045  1.00  0.00     0.124 S 
ATOM     99  O   UNL     1       2.932  14.114 -11.467  1.00  0.00    -0.237 OA
ATOM    100  O   UNL     1       5.192  13.180 -11.116  1.00  0.00    -0.237 OA
ATOM    101  O   UNL     1       4.509  13.942 -13.357  1.00  0.00    -0.744 OA
ENDBRANCH  97  98
ENDBRANCH  71  92
ENDBRANCH  45  46
ENDBRANCH  37  40
ENDBRANCH  35  36
ENDBRANCH  34  35
ENDBRANCH  33  34
ENDBRANCH  31  33
ENDBRANCH   1  29
TORSDOF 23
