REMARK SMILES CCc1cc(OC(F)(F)F)cc2c1O[C@@H](C(F)(F)F)C(C(=O)NCCCNC(=O)c1ccc(-c3c4nc(c(-c5ccc(S(=O)(=O)[O-])cc5)c5ccc([nH]5)c(-c5ccc(S(=O)(=O)[O-])cc5)c5nc(c(-c6ccc(S(=O)(=O)[O-])cc6)c6ccc3[nH]6)C=C5)C=C4)cc1)=C2
REMARK SMILES IDX 25 1 24 2 23 3 21 4 22 5 20 7 3 8 4 9 13 10 5 11 12 12 14 13
REMARK SMILES IDX 11 14 90 15 15 16 2 17 1 18 6 19 7 20 8 21 9 22 10 23 16 24
REMARK SMILES IDX 17 25 18 26 19 27 26 28 27 29 28 30 29 32 30 33 31 34 89 35
REMARK SMILES IDX 32 36 88 37 33 38 34 39 35 40 82 41 36 42 87 43 81 44 83 45
REMARK SMILES IDX 37 46 86 47 80 48 79 49 38 51 68 52 49 53 67 54 50 55 53 56
REMARK SMILES IDX 66 57 84 58 51 59 52 60 65 62 85 63 54 64 39 65 40 66 48 67
REMARK SMILES IDX 41 68 47 69 42 70 43 71 44 72 45 73 46 74 69 75 70 76 78 77
REMARK SMILES IDX 71 78 77 79 72 80 73 81 74 82 75 83 76 84 55 85 56 86 64 87
REMARK SMILES IDX 57 88 63 89 58 90 59 91 60 92 61 93 62 94
REMARK H PARENT 23 6 27 31 83 50 53 61
REMARK Flexibility Score: inf
ROOT
ATOM      1  C   UNL     1       3.341  -3.527   7.356  1.00  0.00     0.042 C 
ENDROOT
BRANCH   1   2
ATOM      2  C   UNL     1       2.403  -2.350   7.071  1.00  0.00     0.118 C 
BRANCH   2   3
ATOM      3  N   UNL     1       3.160  -1.182   6.649  1.00  0.00    -0.352 N 
ATOM      4  C   UNL     1       3.499  -0.695   5.428  1.00  0.00     0.251 C 
ATOM      5  O   UNL     1       4.275   0.256   5.379  1.00  0.00    -0.270 OA
ATOM      6  H   UNL     1       3.494  -0.636   7.397  1.00  0.00     0.163 HD
BRANCH   4   7
ATOM      7  C   UNL     1       2.909  -1.209   4.167  1.00  0.00     0.067 C 
ATOM      8  C   UNL     1       0.968  -2.352   0.604  1.00  0.00    -0.002 A 
ATOM      9  C   UNL     1       0.747  -3.732   0.385  1.00  0.00     0.054 A 
ATOM     10  C   UNL     1       1.617  -1.965   1.786  1.00  0.00     0.131 A 
ATOM     11  C   UNL     1       1.169  -4.696   1.301  1.00  0.00     0.130 A 
ATOM     12  C   UNL     1       2.067  -2.927   2.697  1.00  0.00     0.021 A 
ATOM     13  O   UNL     1       1.712  -0.635   2.075  1.00  0.00    -0.475 OA
ATOM     14  C   UNL     1       1.844  -4.285   2.449  1.00  0.00     0.058 A 
ATOM     15  C   UNL     1       2.683  -2.512   3.950  1.00  0.00     0.025 C 
ATOM     16  C   UNL     1       2.717  -0.207   3.037  1.00  0.00     0.314 C 
BRANCH   8  17
ATOM     17  C   UNL     1       0.434  -1.413  -0.461  1.00  0.00     0.036 C 
ATOM     18  C   UNL     1       0.869   0.046  -0.462  1.00  0.00     0.009 C 
ENDBRANCH   8  17
BRANCH  11  19
ATOM     19  O   UNL     1       0.978  -6.045   1.215  1.00  0.00    -0.406 OA
BRANCH  19  20
ATOM     20  C   UNL     1       0.249  -6.544   0.107  1.00  0.00     0.573 C 
ATOM     21  F   UNL     1      -0.993  -6.012   0.060  1.00  0.00    -0.132 F 
ATOM     22  F   UNL     1       0.890  -6.285  -1.052  1.00  0.00    -0.132 F 
ATOM     23  F   UNL     1       0.124  -7.883   0.233  1.00  0.00    -0.132 F 
ENDBRANCH  19  20
ENDBRANCH  11  19
BRANCH  16  24
ATOM     24  C   UNL     1       2.355   1.242   3.437  1.00  0.00     0.429 C 
ATOM     25  F   UNL     1       3.432   1.986   3.769  1.00  0.00    -0.167 F 
ATOM     26  F   UNL     1       1.776   1.899   2.392  1.00  0.00    -0.167 F 
ATOM     27  F   UNL     1       1.470   1.291   4.459  1.00  0.00    -0.167 F 
ENDBRANCH  16  24
ENDBRANCH   4   7
ENDBRANCH   2   3
ENDBRANCH   1   2
BRANCH   1  28
ATOM     28  C   UNL     1       4.154  -3.357   8.637  1.00  0.00     0.118 C 
BRANCH  28  29
ATOM     29  N   UNL     1       3.323  -3.480   9.824  1.00  0.00    -0.352 N 
ATOM     30  C   UNL     1       3.427  -4.348  10.883  1.00  0.00     0.251 C 
ATOM     31  H   UNL     1       2.572  -2.846   9.876  1.00  0.00     0.163 HD
ATOM     32  O   UNL     1       2.487  -4.454  11.665  1.00  0.00    -0.269 OA
BRANCH  30  33
ATOM     33  C   UNL     1       4.651  -5.156  11.082  1.00  0.00     0.039 A 
ATOM     34  C   UNL     1       4.520  -6.481  11.507  1.00  0.00     0.014 A 
ATOM     35  C   UNL     1       5.923  -4.602  10.908  1.00  0.00     0.014 A 
ATOM     36  C   UNL     1       5.660  -7.262  11.717  1.00  0.00     0.010 A 
ATOM     37  C   UNL     1       7.056  -5.399  11.054  1.00  0.00     0.010 A 
ATOM     38  C   UNL     1       6.937  -6.734  11.471  1.00  0.00    -0.014 A 
BRANCH  38  39
ATOM     39  C   UNL     1       8.158  -7.561  11.644  1.00  0.00     0.031 A 
ATOM     40  C   UNL     1       9.173  -7.210  12.696  1.00  0.00     0.074 A 
ATOM     41  C   UNL     1       8.388  -8.588  10.803  1.00  0.00     0.049 A 
ATOM     42  N   UNL     1      10.321  -7.782  12.959  1.00  0.00    -0.248 NA
ATOM     43  C   UNL     1       8.872  -6.048  13.546  1.00  0.00     0.031 C 
ATOM     44  C   UNL     1       7.506  -8.995   9.707  1.00  0.00     0.029 A 
ATOM     45  N   UNL     1       9.441  -9.464  10.728  1.00  0.00    -0.354 N 
ATOM     46  C   UNL     1      10.890  -7.036  13.985  1.00  0.00     0.074 A 
ATOM     47  C   UNL     1       9.980  -5.945  14.265  1.00  0.00     0.031 C 
ATOM     48  C   UNL     1       8.049 -10.049   9.077  1.00  0.00     0.029 A 
ATOM     49  C   UNL     1       9.330 -10.370   9.701  1.00  0.00     0.049 A 
ATOM     50  H   UNL     1      10.203  -9.446  11.351  1.00  0.00     0.167 HD
ATOM     51  C   UNL     1      12.056  -7.244  14.643  1.00  0.00     0.031 A 
ATOM     52  C   UNL     1      10.166 -11.346   9.296  1.00  0.00     0.031 A 
ATOM     53  C   UNL     1      12.956  -8.332  14.362  1.00  0.00     0.049 A 
ATOM     54  C   UNL     1      11.443 -11.578  10.050  1.00  0.00     0.074 A 
ATOM     55  C   UNL     1      14.127  -8.673  15.017  1.00  0.00     0.029 A 
ATOM     56  N   UNL     1      12.790  -9.251  13.335  1.00  0.00    -0.354 N 
ATOM     57  N   UNL     1      11.926 -10.912  11.072  1.00  0.00    -0.248 NA
ATOM     58  C   UNL     1      12.280 -12.701   9.609  1.00  0.00     0.031 C 
ATOM     59  C   UNL     1      14.694  -9.769  14.354  1.00  0.00     0.029 A 
ATOM     60  C   UNL     1      13.849 -10.143  13.321  1.00  0.00     0.049 A 
ATOM     61  H   UNL     1      12.031  -9.266  12.709  1.00  0.00     0.167 HD
ATOM     62  C   UNL     1      13.117 -11.545  11.407  1.00  0.00     0.074 A 
ATOM     63  C   UNL     1      13.272 -12.656  10.489  1.00  0.00     0.031 C 
ATOM     64  C   UNL     1      14.000 -11.234  12.389  1.00  0.00     0.031 A 
BRANCH  51  65
ATOM     65  C   UNL     1      12.427  -6.252  15.715  1.00  0.00    -0.014 A 
ATOM     66  C   UNL     1      11.697  -6.166  16.915  1.00  0.00     0.010 A 
ATOM     67  C   UNL     1      13.513  -5.381  15.514  1.00  0.00     0.010 A 
ATOM     68  C   UNL     1      11.999  -5.181  17.860  1.00  0.00     0.020 A 
ATOM     69  C   UNL     1      13.838  -4.414  16.471  1.00  0.00     0.020 A 
ATOM     70  C   UNL     1      13.059  -4.302  17.625  1.00  0.00     0.054 A 
BRANCH  70  71
ATOM     71  S   UNL     1      13.411  -3.011  18.850  1.00  0.00     0.124 S 
ATOM     72  O   UNL     1      12.344  -2.050  18.586  1.00  0.00    -0.237 OA
ATOM     73  O   UNL     1      13.308  -3.731  20.116  1.00  0.00    -0.237 OA
ATOM     74  O   UNL     1      14.756  -2.561  18.501  1.00  0.00    -0.744 OA
ENDBRANCH  70  71
ENDBRANCH  51  65
BRANCH  52  75
ATOM     75  C   UNL     1       9.788 -12.181   8.125  1.00  0.00    -0.014 A 
ATOM     76  C   UNL     1       9.311 -13.490   8.307  1.00  0.00     0.010 A 
ATOM     77  C   UNL     1       9.823 -11.636   6.828  1.00  0.00     0.010 A 
ATOM     78  C   UNL     1       8.862 -14.236   7.214  1.00  0.00     0.020 A 
ATOM     79  C   UNL     1       9.354 -12.372   5.736  1.00  0.00     0.020 A 
ATOM     80  C   UNL     1       8.876 -13.668   5.936  1.00  0.00     0.054 A 
BRANCH  80  81
ATOM     81  S   UNL     1       8.181 -14.612   4.551  1.00  0.00     0.124 S 
ATOM     82  O   UNL     1       9.225 -15.601   4.302  1.00  0.00    -0.237 OA
ATOM     83  O   UNL     1       6.937 -15.131   5.115  1.00  0.00    -0.237 OA
ATOM     84  O   UNL     1       8.007 -13.605   3.506  1.00  0.00    -0.744 OA
ENDBRANCH  80  81
ENDBRANCH  52  75
BRANCH  64  85
ATOM     85  C   UNL     1      15.212 -12.116  12.532  1.00  0.00    -0.014 A 
ATOM     86  C   UNL     1      16.267 -12.055  11.605  1.00  0.00     0.010 A 
ATOM     87  C   UNL     1      15.318 -12.977  13.639  1.00  0.00     0.010 A 
ATOM     88  C   UNL     1      17.397 -12.862  11.769  1.00  0.00     0.020 A 
ATOM     89  C   UNL     1      16.457 -13.767  13.819  1.00  0.00     0.020 A 
ATOM     90  C   UNL     1      17.484 -13.714  12.875  1.00  0.00     0.054 A 
BRANCH  90  91
ATOM     91  S   UNL     1      18.979 -14.718  13.089  1.00  0.00     0.124 S 
ATOM     92  O   UNL     1      18.790 -15.762  12.086  1.00  0.00    -0.237 OA
ATOM     93  O   UNL     1      20.050 -13.765  12.811  1.00  0.00    -0.237 OA
ATOM     94  O   UNL     1      18.898 -15.166  14.478  1.00  0.00    -0.744 OA
ENDBRANCH  90  91
ENDBRANCH  64  85
ENDBRANCH  38  39
ENDBRANCH  30  33
ENDBRANCH  28  29
ENDBRANCH   1  28
TORSDOF 17
