REMARK SMILES C[C@@H](C(=O)NCCCNC(=O)c1ccc(-c2c3nc(c(-c4ccc(S(=O)(=O)[O-])cc4)c4ccc([nH]4)c(-c4ccc(S(=O)(=O)[O-])cc4)c4nc(c(-c5ccc(S(=O)(=O)[O-])cc5)c5ccc2[nH]5)C=C4)C=C3)cc1)c1ccc(=O)n(C(F)F)c1
REMARK SMILES IDX 7 1 6 2 5 3 3 4 4 5 2 7 1 8 72 9 73 10 81 11 74 12 77 13
REMARK SMILES IDX 75 14 76 15 78 16 79 17 80 18 8 19 9 20 10 21 11 23 12 24
REMARK SMILES IDX 13 25 71 26 14 27 70 28 15 29 16 30 17 31 64 32 18 33 69 34
REMARK SMILES IDX 63 35 65 36 19 37 68 38 62 39 61 40 20 42 50 43 31 44 49 45
REMARK SMILES IDX 32 46 35 47 48 48 66 49 33 50 34 51 47 53 67 54 36 55 21 56
REMARK SMILES IDX 22 57 30 58 23 59 29 60 24 61 25 62 26 63 27 64 28 65 51 66
REMARK SMILES IDX 52 67 60 68 53 69 59 70 54 71 55 72 56 73 57 74 58 75 37 76
REMARK SMILES IDX 38 77 46 78 39 79 45 80 40 81 41 82 42 83 43 84 44 85
REMARK H PARENT 5 6 9 22 65 41 35 52
REMARK Flexibility Score: inf
ROOT
ATOM      1  C   UNL     1       4.271  -1.058  -0.783  1.00  0.00     0.042 C 
ENDROOT
BRANCH   1   2
ATOM      2  C   UNL     1       3.405  -0.397  -1.854  1.00  0.00     0.117 C 
BRANCH   2   3
ATOM      3  N   UNL     1       2.362  -1.280  -2.338  1.00  0.00    -0.356 N 
ATOM      4  C   UNL     1       1.012  -1.263  -2.143  1.00  0.00     0.227 C 
ATOM      5  O   UNL     1       0.372  -2.149  -2.712  1.00  0.00    -0.274 OA
ATOM      6  H   UNL     1       2.683  -2.018  -2.905  1.00  0.00     0.163 HD
BRANCH   4   7
ATOM      7  C   UNL     1       0.361  -0.163  -1.271  1.00  0.00     0.107 C 
ATOM      8  C   UNL     1       0.717  -0.300   0.210  1.00  0.00     0.023 C 
BRANCH   7   9
ATOM      9  C   UNL     1      -1.157  -0.079  -1.412  1.00  0.00    -0.019 A 
ATOM     10  C   UNL     1      -1.971  -1.274  -1.270  1.00  0.00     0.012 A 
ATOM     11  C   UNL     1      -1.788   1.091  -1.621  1.00  0.00     0.099 A 
ATOM     12  C   UNL     1      -3.301  -1.234  -1.413  1.00  0.00     0.072 A 
ATOM     13  N   UNL     1      -3.168   1.172  -1.719  1.00  0.00    -0.258 N 
ATOM     14  C   UNL     1      -3.988   0.057  -1.671  1.00  0.00     0.254 A 
ATOM     15  O   UNL     1      -5.210   0.058  -1.804  1.00  0.00    -0.269 OA
BRANCH  13  16
ATOM     16  C   UNL     1      -3.813   2.445  -1.899  1.00  0.00     0.451 C 
ATOM     17  F   UNL     1      -4.414   2.523  -3.111  1.00  0.00    -0.185 F 
ATOM     18  F   UNL     1      -4.757   2.659  -0.948  1.00  0.00    -0.185 F 
ENDBRANCH  13  16
ENDBRANCH   7   9
ENDBRANCH   4   7
ENDBRANCH   2   3
ENDBRANCH   1   2
BRANCH   1  19
ATOM     19  C   UNL     1       5.015  -2.309  -1.244  1.00  0.00     0.118 C 
BRANCH  19  20
ATOM     20  N   UNL     1       5.943  -2.045  -2.330  1.00  0.00    -0.352 N 
ATOM     21  C   UNL     1       7.296  -2.257  -2.423  1.00  0.00     0.251 C 
ATOM     22  H   UNL     1       5.534  -1.648  -3.133  1.00  0.00     0.163 HD
ATOM     23  O   UNL     1       7.902  -1.776  -3.378  1.00  0.00    -0.269 OA
BRANCH  21  24
ATOM     24  C   UNL     1       8.032  -3.031  -1.396  1.00  0.00     0.039 A 
ATOM     25  C   UNL     1       9.324  -2.620  -1.058  1.00  0.00     0.014 A 
ATOM     26  C   UNL     1       7.497  -4.180  -0.804  1.00  0.00     0.014 A 
ATOM     27  C   UNL     1      10.053  -3.325  -0.097  1.00  0.00     0.010 A 
ATOM     28  C   UNL     1       8.194  -4.834   0.214  1.00  0.00     0.010 A 
ATOM     29  C   UNL     1       9.483  -4.420   0.574  1.00  0.00    -0.014 A 
BRANCH  29  30
ATOM     30  C   UNL     1      10.232  -5.109   1.660  1.00  0.00     0.031 A 
ATOM     31  C   UNL     1      10.641  -6.553   1.527  1.00  0.00     0.074 A 
ATOM     32  C   UNL     1      10.535  -4.427   2.784  1.00  0.00     0.049 A 
ATOM     33  N   UNL     1      11.342  -7.288   2.353  1.00  0.00    -0.248 NA
ATOM     34  C   UNL     1      10.190  -7.270   0.324  1.00  0.00     0.031 C 
ATOM     35  C   UNL     1      10.151  -3.040   3.059  1.00  0.00     0.029 A 
ATOM     36  N   UNL     1      11.245  -4.801   3.897  1.00  0.00    -0.354 N 
ATOM     37  C   UNL     1      11.414  -8.550   1.774  1.00  0.00     0.074 A 
ATOM     38  C   UNL     1      10.636  -8.497   0.555  1.00  0.00     0.031 C 
ATOM     39  C   UNL     1      10.670  -2.666   4.239  1.00  0.00     0.029 A 
ATOM     40  C   UNL     1      11.387  -3.794   4.824  1.00  0.00     0.049 A 
ATOM     41  H   UNL     1      11.618  -5.704   4.021  1.00  0.00     0.167 HD
ATOM     42  C   UNL     1      12.084  -9.648   2.203  1.00  0.00     0.031 A 
ATOM     43  C   UNL     1      12.026  -3.774   6.010  1.00  0.00     0.031 A 
ATOM     44  C   UNL     1      12.854  -9.700   3.420  1.00  0.00     0.049 A 
ATOM     45  C   UNL     1      12.755  -5.006   6.468  1.00  0.00     0.074 A 
ATOM     46  C   UNL     1      13.610 -10.748   3.916  1.00  0.00     0.029 A 
ATOM     47  N   UNL     1      12.963  -8.664   4.336  1.00  0.00    -0.354 N 
ATOM     48  N   UNL     1      12.876  -6.166   5.866  1.00  0.00    -0.248 NA
ATOM     49  C   UNL     1      13.450  -4.920   7.760  1.00  0.00     0.031 C 
ATOM     50  C   UNL     1      14.124 -10.368   5.161  1.00  0.00     0.029 A 
ATOM     51  C   UNL     1      13.748  -9.058   5.408  1.00  0.00     0.049 A 
ATOM     52  H   UNL     1      12.544  -7.778   4.238  1.00  0.00     0.167 HD
ATOM     53  C   UNL     1      13.679  -6.941   6.696  1.00  0.00     0.074 A 
ATOM     54  C   UNL     1      14.037  -6.107   7.826  1.00  0.00     0.031 C 
ATOM     55  C   UNL     1      14.083  -8.226   6.537  1.00  0.00     0.031 A 
BRANCH  42  56
ATOM     56  C   UNL     1      12.009 -10.891   1.351  1.00  0.00    -0.014 A 
ATOM     57  C   UNL     1      12.624 -10.945   0.087  1.00  0.00     0.010 A 
ATOM     58  C   UNL     1      11.356 -12.038   1.840  1.00  0.00     0.010 A 
ATOM     59  C   UNL     1      12.552 -12.105  -0.689  1.00  0.00     0.020 A 
ATOM     60  C   UNL     1      11.309 -13.211   1.080  1.00  0.00     0.020 A 
ATOM     61  C   UNL     1      11.893 -13.231  -0.188  1.00  0.00     0.054 A 
BRANCH  61  62
ATOM     62  S   UNL     1      11.837 -14.730  -1.208  1.00  0.00     0.124 S 
ATOM     63  O   UNL     1      10.914 -14.337  -2.270  1.00  0.00    -0.237 OA
ATOM     64  O   UNL     1      13.230 -14.891  -1.616  1.00  0.00    -0.237 OA
ATOM     65  O   UNL     1      11.335 -15.754  -0.295  1.00  0.00    -0.744 OA
ENDBRANCH  61  62
ENDBRANCH  42  56
BRANCH  43  66
ATOM     66  C   UNL     1      12.016  -2.536   6.838  1.00  0.00    -0.014 A 
ATOM     67  C   UNL     1      13.192  -1.789   7.029  1.00  0.00     0.010 A 
ATOM     68  C   UNL     1      10.820  -2.090   7.431  1.00  0.00     0.010 A 
ATOM     69  C   UNL     1      13.177  -0.632   7.813  1.00  0.00     0.020 A 
ATOM     70  C   UNL     1      10.794  -0.916   8.188  1.00  0.00     0.020 A 
ATOM     71  C   UNL     1      11.976  -0.200   8.384  1.00  0.00     0.054 A 
BRANCH  71  72
ATOM     72  S   UNL     1      11.969   1.334   9.352  1.00  0.00     0.124 S 
ATOM     73  O   UNL     1      12.668   0.930  10.568  1.00  0.00    -0.237 OA
ATOM     74  O   UNL     1      12.691   2.259   8.482  1.00  0.00    -0.237 OA
ATOM     75  O   UNL     1      10.546   1.628   9.515  1.00  0.00    -0.744 OA
ENDBRANCH  71  72
ENDBRANCH  43  66
BRANCH  55  76
ATOM     76  C   UNL     1      14.978  -8.801   7.605  1.00  0.00    -0.014 A 
ATOM     77  C   UNL     1      14.498  -9.059   8.902  1.00  0.00     0.010 A 
ATOM     78  C   UNL     1      16.318  -9.103   7.300  1.00  0.00     0.010 A 
ATOM     79  C   UNL     1      15.356  -9.554   9.888  1.00  0.00     0.020 A 
ATOM     80  C   UNL     1      17.170  -9.631   8.274  1.00  0.00     0.020 A 
ATOM     81  C   UNL     1      16.689  -9.831   9.569  1.00  0.00     0.054 A 
BRANCH  81  82
ATOM     82  S   UNL     1      17.780 -10.478  10.864  1.00  0.00     0.124 S 
ATOM     83  O   UNL     1      17.992  -9.299  11.699  1.00  0.00    -0.237 OA
ATOM     84  O   UNL     1      16.972 -11.537  11.465  1.00  0.00    -0.237 OA
ATOM     85  O   UNL     1      18.955 -10.940  10.129  1.00  0.00    -0.744 OA
ENDBRANCH  81  82
ENDBRANCH  55  76
ENDBRANCH  29  30
ENDBRANCH  21  24
ENDBRANCH  19  20
ENDBRANCH   1  19
TORSDOF 15
