REMARK SMILES O=C(NCCCNC(=O)c1ccccc1-n1ccnn1)c1ccc(-c2c3nc(c(-c4ccc(S(=O)(=O)[O-])cc4)c4ccc([nH]4)c(-c4ccc(S(=O)(=O)[O-])cc4)c4nc(c(-c5ccc(S(=O)(=O)[O-])cc5)c5ccc2[nH]5)C=C4)C=C3)cc1
REMARK SMILES IDX 4 1 3 2 1 3 2 4 21 6 22 7 80 8 23 9 79 10 24 11 25 12 26 13
REMARK SMILES IDX 73 14 27 15 78 16 72 17 74 18 28 19 77 20 71 21 70 22 29 24
REMARK SMILES IDX 59 25 40 26 58 27 41 28 44 29 57 30 75 31 42 32 43 33 56 35
REMARK SMILES IDX 76 36 45 37 30 38 31 39 39 40 32 41 38 42 33 43 34 44 35 45
REMARK SMILES IDX 36 46 37 47 60 48 61 49 69 50 62 51 68 52 63 53 64 54 65 55
REMARK SMILES IDX 66 56 67 57 46 58 47 59 55 60 48 61 54 62 49 63 50 64 51 65
REMARK SMILES IDX 52 66 53 67 5 68 6 69 7 70 8 71 9 73 10 74 11 75 15 76 12 77
REMARK SMILES IDX 14 78 13 79 16 80 17 81 20 82 18 83 19 84
REMARK H PARENT 3 5 74 23 44 34 7 72
REMARK Flexibility Score: inf
ROOT
ATOM      1  C   UNL     1       4.841  -0.828   0.479  1.00  0.00     0.118 C 
ENDROOT
BRANCH   1   2
ATOM      2  N   UNL     1       3.411  -1.026   0.358  1.00  0.00    -0.352 N 
ATOM      3  O   UNL     1       1.314  -0.817  -0.286  1.00  0.00    -0.269 OA
ATOM      4  C   UNL     1       2.356  -0.226   0.012  1.00  0.00     0.251 C 
ATOM      5  H   UNL     1       3.135  -1.946   0.575  1.00  0.00     0.163 HD
BRANCH   4   6
ATOM      6  C   UNL     1       2.348   1.261   0.062  1.00  0.00     0.039 A 
ATOM      7  C   UNL     1       3.467   2.089   0.169  1.00  0.00     0.014 A 
ATOM      8  C   UNL     1       1.071   1.856   0.054  1.00  0.00     0.014 A 
ATOM      9  C   UNL     1       3.309   3.462   0.369  1.00  0.00     0.010 A 
ATOM     10  C   UNL     1       0.908   3.221   0.245  1.00  0.00     0.010 A 
ATOM     11  C   UNL     1       2.028   4.021   0.444  1.00  0.00    -0.014 A 
BRANCH  11  12
ATOM     12  C   UNL     1       1.886   5.472   0.553  1.00  0.00     0.031 A 
ATOM     13  C   UNL     1       2.311   6.218  -0.667  1.00  0.00     0.074 A 
ATOM     14  C   UNL     1       1.261   6.095   1.574  1.00  0.00     0.049 A 
ATOM     15  N   UNL     1       3.287   7.057  -0.787  1.00  0.00    -0.248 NA
ATOM     16  C   UNL     1       1.643   5.898  -1.940  1.00  0.00     0.031 C 
ATOM     17  C   UNL     1       0.529   5.487   2.689  1.00  0.00     0.029 A 
ATOM     18  N   UNL     1       1.047   7.429   1.768  1.00  0.00    -0.354 N 
ATOM     19  C   UNL     1       3.238   7.523  -2.099  1.00  0.00     0.074 A 
ATOM     20  C   UNL     1       2.315   6.666  -2.799  1.00  0.00     0.031 C 
ATOM     21  C   UNL     1      -0.237   6.428   3.289  1.00  0.00     0.029 A 
ATOM     22  C   UNL     1       0.050   7.724   2.696  1.00  0.00     0.049 A 
ATOM     23  H   UNL     1       1.555   8.126   1.293  1.00  0.00     0.167 HD
ATOM     24  C   UNL     1       3.793   8.712  -2.467  1.00  0.00     0.031 A 
ATOM     25  C   UNL     1      -0.537   8.932   2.915  1.00  0.00     0.031 A 
ATOM     26  C   UNL     1       4.670   9.229  -1.454  1.00  0.00     0.049 A 
ATOM     27  C   UNL     1       0.372   9.968   2.368  1.00  0.00     0.074 A 
ATOM     28  C   UNL     1       5.840   8.801  -0.860  1.00  0.00     0.029 A 
ATOM     29  N   UNL     1       4.161  10.207  -0.633  1.00  0.00    -0.354 N 
ATOM     30  N   UNL     1       1.547  10.227   2.866  1.00  0.00    -0.248 NA
ATOM     31  C   UNL     1       0.167  10.398   0.993  1.00  0.00     0.031 C 
ATOM     32  C   UNL     1       5.716   9.185   0.506  1.00  0.00     0.029 A 
ATOM     33  C   UNL     1       4.516   9.887   0.650  1.00  0.00     0.049 A 
ATOM     34  H   UNL     1       3.638  10.992  -0.915  1.00  0.00     0.167 HD
ATOM     35  C   UNL     1       2.360  10.435   1.762  1.00  0.00     0.074 A 
ATOM     36  C   UNL     1       1.437  10.615   0.641  1.00  0.00     0.031 C 
ATOM     37  C   UNL     1       3.698  10.167   1.809  1.00  0.00     0.031 A 
BRANCH  24  38
ATOM     38  C   UNL     1       3.249   9.600  -3.559  1.00  0.00    -0.014 A 
ATOM     39  C   UNL     1       3.957  10.773  -3.896  1.00  0.00     0.010 A 
ATOM     40  C   UNL     1       1.935   9.480  -4.056  1.00  0.00     0.010 A 
ATOM     41  C   UNL     1       3.354  11.803  -4.630  1.00  0.00     0.020 A 
ATOM     42  C   UNL     1       1.339  10.483  -4.826  1.00  0.00     0.020 A 
ATOM     43  C   UNL     1       2.042  11.654  -5.079  1.00  0.00     0.054 A 
BRANCH  43  44
ATOM     44  S   UNL     1       1.241  13.030  -5.939  1.00  0.00     0.124 S 
ATOM     45  O   UNL     1       1.168  14.040  -4.888  1.00  0.00    -0.237 OA
ATOM     46  O   UNL     1       2.182  13.307  -7.021  1.00  0.00    -0.237 OA
ATOM     47  O   UNL     1      -0.040  12.470  -6.362  1.00  0.00    -0.744 OA
ENDBRANCH  43  44
ENDBRANCH  24  38
BRANCH  25  48
ATOM     48  C   UNL     1      -1.958   9.229   3.252  1.00  0.00    -0.014 A 
ATOM     49  C   UNL     1      -2.364  10.515   3.663  1.00  0.00     0.010 A 
ATOM     50  C   UNL     1      -2.968   8.319   2.880  1.00  0.00     0.010 A 
ATOM     51  C   UNL     1      -3.721  10.894   3.640  1.00  0.00     0.020 A 
ATOM     52  C   UNL     1      -4.321   8.687   2.858  1.00  0.00     0.020 A 
ATOM     53  C   UNL     1      -4.690   9.982   3.215  1.00  0.00     0.054 A 
BRANCH  53  54
ATOM     54  S   UNL     1      -6.414  10.527   3.005  1.00  0.00     0.124 S 
ATOM     55  O   UNL     1      -6.855  10.708   4.385  1.00  0.00    -0.237 OA
ATOM     56  O   UNL     1      -6.269  11.751   2.223  1.00  0.00    -0.237 OA
ATOM     57  O   UNL     1      -7.043   9.415   2.295  1.00  0.00    -0.744 OA
ENDBRANCH  53  54
ENDBRANCH  25  48
BRANCH  37  58
ATOM     58  C   UNL     1       4.341   9.921   3.154  1.00  0.00    -0.014 A 
ATOM     59  C   UNL     1       3.992   8.863   4.016  1.00  0.00     0.010 A 
ATOM     60  C   UNL     1       5.457  10.711   3.478  1.00  0.00     0.010 A 
ATOM     61  C   UNL     1       4.732   8.620   5.184  1.00  0.00     0.020 A 
ATOM     62  C   UNL     1       6.208  10.462   4.627  1.00  0.00     0.020 A 
ATOM     63  C   UNL     1       5.838   9.423   5.481  1.00  0.00     0.054 A 
BRANCH  63  64
ATOM     64  S   UNL     1       6.824   9.082   6.965  1.00  0.00     0.124 S 
ATOM     65  O   UNL     1       5.908   9.438   8.045  1.00  0.00    -0.237 OA
ATOM     66  O   UNL     1       7.123   7.657   6.837  1.00  0.00    -0.237 OA
ATOM     67  O   UNL     1       7.984   9.961   6.824  1.00  0.00    -0.744 OA
ENDBRANCH  63  64
ENDBRANCH  37  58
ENDBRANCH  11  12
ENDBRANCH   4   6
ENDBRANCH   1   2
BRANCH   1  68
ATOM     68  C   UNL     1       5.345  -0.355   1.842  1.00  0.00     0.042 C 
BRANCH  68  69
ATOM     69  C   UNL     1       4.919  -1.202   3.037  1.00  0.00     0.118 C 
BRANCH  69  70
ATOM     70  N   UNL     1       5.332  -2.598   2.962  1.00  0.00    -0.352 N 
ATOM     71  C   UNL     1       5.757  -3.460   3.948  1.00  0.00     0.253 C 
ATOM     72  H   UNL     1       5.301  -2.988   2.059  1.00  0.00     0.163 HD
ATOM     73  O   UNL     1       6.005  -4.623   3.668  1.00  0.00    -0.269 OA
BRANCH  71  74
ATOM     74  C   UNL     1       5.963  -3.000   5.343  1.00  0.00     0.065 A 
ATOM     75  C   UNL     1       7.261  -3.199   5.847  1.00  0.00     0.016 A 
ATOM     76  C   UNL     1       5.003  -2.365   6.145  1.00  0.00     0.079 A 
ATOM     77  C   UNL     1       7.617  -2.721   7.109  1.00  0.00     0.001 A 
ATOM     78  C   UNL     1       5.388  -1.835   7.392  1.00  0.00     0.029 A 
ATOM     79  C   UNL     1       6.686  -2.023   7.872  1.00  0.00     0.002 A 
BRANCH  76  80
ATOM     80  N   UNL     1       3.648  -2.241   5.763  1.00  0.00    -0.220 N 
ATOM     81  C   UNL     1       2.887  -3.049   4.949  1.00  0.00     0.137 A 
ATOM     82  N   UNL     1       2.892  -1.202   6.190  1.00  0.00    -0.062 NA
ATOM     83  C   UNL     1       1.713  -2.358   4.777  1.00  0.00     0.157 A 
ATOM     84  N   UNL     1       1.738  -1.229   5.537  1.00  0.00    -0.139 NA
ENDBRANCH  76  80
ENDBRANCH  71  74
ENDBRANCH  69  70
ENDBRANCH  68  69
ENDBRANCH   1  68
TORSDOF 14
