REMARK SMILES CN1CC(=O)N(CC(=O)N2CCCC[C@H]2C(=O)NCCCNC(=O)c2ccc(-c3c4nc(c(-c5ccc(S(=O)(=O)[O-])cc5)c5ccc([nH]5)c(-c5ccc(S(=O)(=O)[O-])cc5)c5nc(c(-c6ccc(S(=O)(=O)[O-])cc6)c6ccc3[nH]6)C=C5)C=C4)cc2)C1=O
REMARK SMILES IDX 20 1 19 2 18 3 16 4 17 5 15 7 10 8 11 9 12 10 14 11 13 12
REMARK SMILES IDX 8 13 9 14 7 15 6 16 1 17 2 18 3 19 85 20 4 21 86 22 5 23
REMARK SMILES IDX 21 24 22 25 23 26 24 28 25 29 26 30 84 31 27 32 83 33 28 34
REMARK SMILES IDX 29 35 30 36 77 37 31 38 82 39 76 40 78 41 32 42 81 43 75 44
REMARK SMILES IDX 74 45 33 47 63 48 44 49 62 50 45 51 48 52 61 53 79 54 46 55
REMARK SMILES IDX 47 56 60 58 80 59 49 60 34 61 35 62 43 63 36 64 42 65 37 66
REMARK SMILES IDX 38 67 39 68 40 69 41 70 64 71 65 72 73 73 66 74 72 75 67 76
REMARK SMILES IDX 68 77 69 78 70 79 71 80 50 81 51 82 59 83 52 84 58 85 53 86
REMARK SMILES IDX 54 87 55 88 56 89 57 90
REMARK H PARENT 18 6 22 27 78 46 48 57
REMARK Flexibility Score: inf
ROOT
ATOM      1  C   UNL     1       1.091   2.125   1.762  1.00  0.00     0.042 C 
ENDROOT
BRANCH   1   2
ATOM      2  C   UNL     1       0.891   3.534   1.217  1.00  0.00     0.117 C 
BRANCH   2   3
ATOM      3  N   UNL     1       2.062   4.359   1.385  1.00  0.00    -0.354 N 
ATOM      4  C   UNL     1       3.024   4.679   0.473  1.00  0.00     0.242 C 
ATOM      5  O   UNL     1       3.891   5.470   0.853  1.00  0.00    -0.273 OA
ATOM      6  H   UNL     1       2.184   4.745   2.282  1.00  0.00     0.163 HD
BRANCH   4   7
ATOM      7  C   UNL     1       2.961   4.129  -0.990  1.00  0.00     0.174 C 
ATOM      8  N   UNL     1       2.478   5.136  -1.962  1.00  0.00    -0.329 N 
ATOM      9  C   UNL     1       3.365   6.300  -2.108  1.00  0.00     0.120 C 
ATOM     10  C   UNL     1       4.755   5.879  -2.573  1.00  0.00     0.022 C 
ATOM     11  C   UNL     1       4.364   3.651  -1.426  1.00  0.00     0.035 C 
ATOM     12  C   UNL     1       5.354   4.794  -1.685  1.00  0.00     0.004 C 
BRANCH   8  13
ATOM     13  C   UNL     1       1.384   5.056  -2.818  1.00  0.00     0.243 C 
ATOM     14  O   UNL     1       1.181   5.963  -3.642  1.00  0.00    -0.273 OA
BRANCH  13  15
ATOM     15  C   UNL     1       0.253   4.022  -2.665  1.00  0.00     0.230 C 
BRANCH  15  16
ATOM     16  N   UNL     1       0.528   2.609  -2.548  1.00  0.00    -0.253 N 
ATOM     17  C   UNL     1       0.092  -0.622  -0.995  1.00  0.00     0.149 C 
ATOM     18  N   UNL     1       0.338   0.501  -1.870  1.00  0.00    -0.318 N 
ATOM     19  C   UNL     1       1.115   0.396  -3.079  1.00  0.00     0.221 C 
ATOM     20  C   UNL     1      -0.108   1.789  -1.658  1.00  0.00     0.327 C 
ATOM     21  C   UNL     1       1.156   1.859  -3.500  1.00  0.00     0.250 C 
ATOM     22  O   UNL     1      -0.926   2.126  -0.823  1.00  0.00    -0.248 OA
ATOM     23  O   UNL     1       1.673   2.278  -4.525  1.00  0.00    -0.272 OA
ENDBRANCH  15  16
ENDBRANCH  13  15
ENDBRANCH   8  13
ENDBRANCH   4   7
ENDBRANCH   2   3
ENDBRANCH   1   2
BRANCH   1  24
ATOM     24  C   UNL     1       0.959   2.049   3.279  1.00  0.00     0.118 C 
BRANCH  24  25
ATOM     25  N   UNL     1      -0.403   2.324   3.724  1.00  0.00    -0.352 N 
ATOM     26  C   UNL     1      -1.292   1.551   4.427  1.00  0.00     0.251 C 
ATOM     27  H   UNL     1      -0.741   3.215   3.478  1.00  0.00     0.163 HD
ATOM     28  O   UNL     1      -2.463   1.917   4.513  1.00  0.00    -0.269 OA
BRANCH  26  29
ATOM     29  C   UNL     1      -0.868   0.289   5.071  1.00  0.00     0.039 A 
ATOM     30  C   UNL     1      -1.756  -0.792   5.082  1.00  0.00     0.014 A 
ATOM     31  C   UNL     1       0.370   0.175   5.706  1.00  0.00     0.014 A 
ATOM     32  C   UNL     1      -1.380  -1.998   5.680  1.00  0.00     0.010 A 
ATOM     33  C   UNL     1       0.776  -1.051   6.227  1.00  0.00     0.010 A 
ATOM     34  C   UNL     1      -0.098  -2.148   6.230  1.00  0.00    -0.014 A 
BRANCH  34  35
ATOM     35  C   UNL     1       0.347  -3.432   6.830  1.00  0.00     0.031 A 
ATOM     36  C   UNL     1       0.717  -3.494   8.290  1.00  0.00     0.074 A 
ATOM     37  C   UNL     1       0.490  -4.522   6.051  1.00  0.00     0.049 A 
ATOM     38  N   UNL     1       1.226  -4.489   8.970  1.00  0.00    -0.248 NA
ATOM     39  C   UNL     1       0.516  -2.267   9.080  1.00  0.00     0.031 C 
ATOM     40  C   UNL     1       0.202  -4.584   4.616  1.00  0.00     0.029 A 
ATOM     41  N   UNL     1       0.925  -5.787   6.356  1.00  0.00    -0.354 N 
ATOM     42  C   UNL     1       1.434  -4.001  10.255  1.00  0.00     0.074 A 
ATOM     43  C   UNL     1       1.038  -2.610  10.249  1.00  0.00     0.031 C 
ATOM     44  C   UNL     1       0.444  -5.828   4.172  1.00  0.00     0.029 A 
ATOM     45  C   UNL     1       0.944  -6.639   5.277  1.00  0.00     0.049 A 
ATOM     46  H   UNL     1       1.198  -6.059   7.262  1.00  0.00     0.167 HD
ATOM     47  C   UNL     1       1.895  -4.655  11.348  1.00  0.00     0.031 A 
ATOM     48  C   UNL     1       1.328  -7.927   5.184  1.00  0.00     0.031 A 
ATOM     49  C   UNL     1       2.260  -6.046  11.361  1.00  0.00     0.049 A 
ATOM     50  C   UNL     1       1.825  -8.636   6.413  1.00  0.00     0.074 A 
ATOM     51  C   UNL     1       2.681  -6.816  12.431  1.00  0.00     0.029 A 
ATOM     52  N   UNL     1       2.240  -6.878  10.252  1.00  0.00    -0.354 N 
ATOM     53  N   UNL     1       1.970  -8.169   7.630  1.00  0.00    -0.248 NA
ATOM     54  C   UNL     1       2.199 -10.048   6.258  1.00  0.00     0.031 C 
ATOM     55  C   UNL     1       2.954  -8.105  11.961  1.00  0.00     0.029 A 
ATOM     56  C   UNL     1       2.656  -8.150  10.608  1.00  0.00     0.049 A 
ATOM     57  H   UNL     1       1.970  -6.605   9.346  1.00  0.00     0.167 HD
ATOM     58  C   UNL     1       2.432  -9.237   8.391  1.00  0.00     0.074 A 
ATOM     59  C   UNL     1       2.528 -10.376   7.500  1.00  0.00     0.031 C 
ATOM     60  C   UNL     1       2.747  -9.271   9.709  1.00  0.00     0.031 A 
BRANCH  47  61
ATOM     61  C   UNL     1       2.031  -3.865  12.624  1.00  0.00    -0.014 A 
ATOM     62  C   UNL     1       0.896  -3.435  13.335  1.00  0.00     0.010 A 
ATOM     63  C   UNL     1       3.309  -3.574  13.134  1.00  0.00     0.010 A 
ATOM     64  C   UNL     1       1.037  -2.687  14.507  1.00  0.00     0.020 A 
ATOM     65  C   UNL     1       3.454  -2.850  14.321  1.00  0.00     0.020 A 
ATOM     66  C   UNL     1       2.316  -2.394  14.990  1.00  0.00     0.054 A 
BRANCH  66  67
ATOM     67  S   UNL     1       2.470  -1.434  16.520  1.00  0.00     0.124 S 
ATOM     68  O   UNL     1       2.142  -0.086  16.062  1.00  0.00    -0.237 OA
ATOM     69  O   UNL     1       1.479  -2.058  17.394  1.00  0.00    -0.237 OA
ATOM     70  O   UNL     1       3.861  -1.636  16.917  1.00  0.00    -0.744 OA
ENDBRANCH  66  67
ENDBRANCH  47  61
BRANCH  48  71
ATOM     71  C   UNL     1       1.241  -8.632   3.877  1.00  0.00    -0.014 A 
ATOM     72  C   UNL     1       0.250  -9.605   3.660  1.00  0.00     0.010 A 
ATOM     73  C   UNL     1       2.133  -8.319   2.836  1.00  0.00     0.010 A 
ATOM     74  C   UNL     1       0.159 -10.262   2.430  1.00  0.00     0.020 A 
ATOM     75  C   UNL     1       2.030  -8.955   1.596  1.00  0.00     0.020 A 
ATOM     76  C   UNL     1       1.049  -9.930   1.404  1.00  0.00     0.054 A 
BRANCH  76  77
ATOM     77  S   UNL     1       0.874 -10.746  -0.207  1.00  0.00     0.124 S 
ATOM     78  O   UNL     1       1.448 -12.061   0.054  1.00  0.00    -0.237 OA
ATOM     79  O   UNL     1      -0.571 -10.716  -0.423  1.00  0.00    -0.237 OA
ATOM     80  O   UNL     1       1.646  -9.890  -1.106  1.00  0.00    -0.744 OA
ENDBRANCH  76  77
ENDBRANCH  48  71
BRANCH  60  81
ATOM     81  C   UNL     1       3.198 -10.589  10.276  1.00  0.00    -0.014 A 
ATOM     82  C   UNL     1       4.479 -11.098  10.001  1.00  0.00     0.010 A 
ATOM     83  C   UNL     1       2.345 -11.301  11.139  1.00  0.00     0.010 A 
ATOM     84  C   UNL     1       4.889 -12.312  10.558  1.00  0.00     0.020 A 
ATOM     85  C   UNL     1       2.761 -12.502  11.716  1.00  0.00     0.020 A 
ATOM     86  C   UNL     1       4.026 -13.008  11.411  1.00  0.00     0.054 A 
BRANCH  86  87
ATOM     87  S   UNL     1       4.597 -14.559  12.156  1.00  0.00     0.124 S 
ATOM     88  O   UNL     1       4.491 -15.490  11.037  1.00  0.00    -0.237 OA
ATOM     89  O   UNL     1       5.958 -14.233  12.576  1.00  0.00    -0.237 OA
ATOM     90  O   UNL     1       3.653 -14.786  13.248  1.00  0.00    -0.744 OA
ENDBRANCH  86  87
ENDBRANCH  60  81
ENDBRANCH  34  35
ENDBRANCH  26  29
ENDBRANCH  24  25
ENDBRANCH   1  24
TORSDOF 16
