REMARK SMILES O=C(NCCCNC(=O)[C@]1(C2CCCC2)CCOc2ccccc21)c1ccc(-c2c3nc(c(-c4ccc(S(=O)(=O)[O-])cc4)c4ccc([nH]4)c(-c4ccc(S(=O)(=O)[O-])cc4)c4nc(c(-c5ccc(S(=O)(=O)[O-])cc5)c5ccc2[nH]5)C=C4)C=C3)cc1
REMARK SMILES IDX 4 1 3 2 1 3 2 4 25 6 26 7 84 8 27 9 83 10 28 11 29 12 30 13
REMARK SMILES IDX 77 14 31 15 82 16 76 17 78 18 32 19 81 20 75 21 74 22 33 24
REMARK SMILES IDX 63 25 44 26 62 27 45 28 48 29 61 30 79 31 46 32 47 33 60 35
REMARK SMILES IDX 80 36 49 37 34 38 35 39 43 40 36 41 42 42 37 43 38 44 39 45
REMARK SMILES IDX 40 46 41 47 64 48 65 49 73 50 66 51 72 52 67 53 68 54 69 55
REMARK SMILES IDX 70 56 71 57 50 58 51 59 59 60 52 61 58 62 53 63 54 64 55 65
REMARK SMILES IDX 56 66 57 67 5 68 6 69 7 70 8 71 9 73 10 74 16 75 24 76 17 77
REMARK SMILES IDX 19 78 23 79 18 80 20 81 22 82 21 83 11 84 12 85 15 86 13 87
REMARK SMILES IDX 14 88
REMARK H PARENT 3 5 78 23 48 34 7 72
REMARK Flexibility Score: inf
ROOT
ATOM      1  C   UNL     1       4.452   0.412  -1.376  1.00  0.00     0.118 C 
ENDROOT
BRANCH   1   2
ATOM      2  N   UNL     1       3.030   0.491  -1.056  1.00  0.00    -0.352 N 
ATOM      3  O   UNL     1       1.109   0.010   0.011  1.00  0.00    -0.269 OA
ATOM      4  C   UNL     1       2.337   0.039   0.041  1.00  0.00     0.251 C 
ATOM      5  H   UNL     1       2.478   0.940  -1.737  1.00  0.00     0.163 HD
BRANCH   4   6
ATOM      6  C   UNL     1       3.061  -0.422   1.244  1.00  0.00     0.039 A 
ATOM      7  C   UNL     1       4.188   0.262   1.696  1.00  0.00     0.014 A 
ATOM      8  C   UNL     1       2.595  -1.537   1.949  1.00  0.00     0.014 A 
ATOM      9  C   UNL     1       4.949  -0.264   2.730  1.00  0.00     0.010 A 
ATOM     10  C   UNL     1       3.298  -1.998   3.068  1.00  0.00     0.010 A 
ATOM     11  C   UNL     1       4.501  -1.384   3.448  1.00  0.00    -0.014 A 
BRANCH  11  12
ATOM     12  C   UNL     1       5.284  -1.829   4.629  1.00  0.00     0.031 A 
ATOM     13  C   UNL     1       5.936  -3.183   4.676  1.00  0.00     0.074 A 
ATOM     14  C   UNL     1       5.460  -0.955   5.642  1.00  0.00     0.049 A 
ATOM     15  N   UNL     1       6.705  -3.689   5.607  1.00  0.00    -0.248 NA
ATOM     16  C   UNL     1       5.692  -4.091   3.543  1.00  0.00     0.031 C 
ATOM     17  C   UNL     1       4.866   0.385   5.712  1.00  0.00     0.029 A 
ATOM     18  N   UNL     1       6.214  -1.039   6.783  1.00  0.00    -0.354 N 
ATOM     19  C   UNL     1       7.029  -4.973   5.181  1.00  0.00     0.074 A 
ATOM     20  C   UNL     1       6.347  -5.181   3.922  1.00  0.00     0.031 C 
ATOM     21  C   UNL     1       5.332   1.019   6.796  1.00  0.00     0.029 A 
ATOM     22  C   UNL     1       6.197   0.111   7.538  1.00  0.00     0.049 A 
ATOM     23  H   UNL     1       6.720  -1.845   7.038  1.00  0.00     0.167 HD
ATOM     24  C   UNL     1       7.828  -5.888   5.782  1.00  0.00     0.031 A 
ATOM     25  C   UNL     1       6.797   0.404   8.706  1.00  0.00     0.031 A 
ATOM     26  C   UNL     1       8.500  -5.675   7.038  1.00  0.00     0.049 A 
ATOM     27  C   UNL     1       7.661  -0.636   9.355  1.00  0.00     0.074 A 
ATOM     28  C   UNL     1       9.327  -6.543   7.731  1.00  0.00     0.029 A 
ATOM     29  N   UNL     1       8.427  -4.511   7.789  1.00  0.00    -0.354 N 
ATOM     30  N   UNL     1       7.957  -1.841   8.930  1.00  0.00    -0.248 NA
ATOM     31  C   UNL     1       8.272  -0.278  10.641  1.00  0.00     0.031 C 
ATOM     32  C   UNL     1       9.722  -5.918   8.919  1.00  0.00     0.029 A 
ATOM     33  C   UNL     1       9.184  -4.642   8.942  1.00  0.00     0.049 A 
ATOM     34  H   UNL     1       7.913  -3.709   7.540  1.00  0.00     0.167 HD
ATOM     35  C   UNL     1       8.796  -2.384   9.894  1.00  0.00     0.074 A 
ATOM     36  C   UNL     1       8.985  -1.364  10.906  1.00  0.00     0.031 C 
ATOM     37  C   UNL     1       9.352  -3.619   9.942  1.00  0.00     0.031 A 
BRANCH  24  38
ATOM     38  C   UNL     1       8.011  -7.216   5.093  1.00  0.00    -0.014 A 
ATOM     39  C   UNL     1       8.795  -7.326   3.930  1.00  0.00     0.010 A 
ATOM     40  C   UNL     1       7.440  -8.378   5.644  1.00  0.00     0.010 A 
ATOM     41  C   UNL     1       8.979  -8.568   3.314  1.00  0.00     0.020 A 
ATOM     42  C   UNL     1       7.642  -9.626   5.045  1.00  0.00     0.020 A 
ATOM     43  C   UNL     1       8.399  -9.710   3.875  1.00  0.00     0.054 A 
BRANCH  43  44
ATOM     44  S   UNL     1       8.679 -11.312   3.070  1.00  0.00     0.124 S 
ATOM     45  O   UNL     1       7.832 -11.205   1.885  1.00  0.00    -0.237 OA
ATOM     46  O   UNL     1      10.117 -11.297   2.817  1.00  0.00    -0.237 OA
ATOM     47  O   UNL     1       8.235 -12.284   4.067  1.00  0.00    -0.744 OA
ENDBRANCH  43  44
ENDBRANCH  24  38
BRANCH  25  48
ATOM     48  C   UNL     1       6.568   1.728   9.343  1.00  0.00    -0.014 A 
ATOM     49  C   UNL     1       7.603   2.673   9.440  1.00  0.00     0.010 A 
ATOM     50  C   UNL     1       5.293   2.054   9.844  1.00  0.00     0.010 A 
ATOM     51  C   UNL     1       7.374   3.912  10.048  1.00  0.00     0.020 A 
ATOM     52  C   UNL     1       5.052   3.302  10.423  1.00  0.00     0.020 A 
ATOM     53  C   UNL     1       6.100   4.217  10.537  1.00  0.00     0.054 A 
BRANCH  53  54
ATOM     54  S   UNL     1       5.809   5.842  11.287  1.00  0.00     0.124 S 
ATOM     55  O   UNL     1       6.409   5.676  12.607  1.00  0.00    -0.237 OA
ATOM     56  O   UNL     1       6.515   6.743  10.380  1.00  0.00    -0.237 OA
ATOM     57  O   UNL     1       4.353   5.969  11.270  1.00  0.00    -0.744 OA
ENDBRANCH  53  54
ENDBRANCH  25  48
BRANCH  37  58
ATOM     58  C   UNL     1      10.235  -3.919  11.123  1.00  0.00    -0.014 A 
ATOM     59  C   UNL     1       9.690  -4.121  12.403  1.00  0.00     0.010 A 
ATOM     60  C   UNL     1      11.626  -4.016  10.943  1.00  0.00     0.010 A 
ATOM     61  C   UNL     1      10.526  -4.372  13.493  1.00  0.00     0.020 A 
ATOM     62  C   UNL     1      12.463  -4.294  12.026  1.00  0.00     0.020 A 
ATOM     63  C   UNL     1      11.909  -4.451  13.298  1.00  0.00     0.054 A 
BRANCH  63  64
ATOM     64  S   UNL     1      12.974  -4.798  14.724  1.00  0.00     0.124 S 
ATOM     65  O   UNL     1      12.988  -3.510  15.412  1.00  0.00    -0.237 OA
ATOM     66  O   UNL     1      12.256  -5.870  15.410  1.00  0.00    -0.237 OA
ATOM     67  O   UNL     1      14.243  -5.196  14.119  1.00  0.00    -0.744 OA
ENDBRANCH  63  64
ENDBRANCH  37  58
ENDBRANCH  11  12
ENDBRANCH   4   6
ENDBRANCH   1   2
BRANCH   1  68
ATOM     68  C   UNL     1       4.754  -0.623  -2.449  1.00  0.00     0.042 C 
BRANCH  68  69
ATOM     69  C   UNL     1       4.124  -0.296  -3.793  1.00  0.00     0.117 C 
BRANCH  69  70
ATOM     70  N   UNL     1       4.631   0.948  -4.350  1.00  0.00    -0.355 N 
ATOM     71  C   UNL     1       5.493   1.213  -5.370  1.00  0.00     0.231 C 
ATOM     72  H   UNL     1       4.283   1.754  -3.904  1.00  0.00     0.163 HD
ATOM     73  O   UNL     1       5.861   2.391  -5.442  1.00  0.00    -0.274 OA
BRANCH  71  74
ATOM     74  C   UNL     1       6.017   0.115  -6.358  1.00  0.00     0.084 C 
ATOM     75  C   UNL     1       4.819  -0.652  -6.981  1.00  0.00     0.064 C 
ATOM     76  C   UNL     1       6.938  -0.823  -5.561  1.00  0.00     0.010 A 
ATOM     77  C   UNL     1       5.094  -2.140  -7.151  1.00  0.00     0.231 C 
ATOM     78  C   UNL     1       6.636  -2.180  -5.407  1.00  0.00     0.123 A 
ATOM     79  C   UNL     1       8.066  -0.320  -4.880  1.00  0.00     0.009 A 
ATOM     80  O   UNL     1       5.526  -2.766  -5.951  1.00  0.00    -0.493 OA
ATOM     81  C   UNL     1       7.416  -3.004  -4.592  1.00  0.00     0.047 A 
ATOM     82  C   UNL     1       8.856  -1.146  -4.077  1.00  0.00     0.001 A 
ATOM     83  C   UNL     1       8.530  -2.490  -3.931  1.00  0.00     0.004 A 
BRANCH  74  84
ATOM     84  C   UNL     1       6.854   0.820  -7.506  1.00  0.00     0.009 C 
ATOM     85  C   UNL     1       7.311  -0.084  -8.661  1.00  0.00     0.005 C 
ATOM     86  C   UNL     1       6.149   1.982  -8.246  1.00  0.00     0.005 C 
ATOM     87  C   UNL     1       7.755   0.903  -9.728  1.00  0.00     0.000 C 
ATOM     88  C   UNL     1       6.704   2.001  -9.670  1.00  0.00     0.000 C 
ENDBRANCH  74  84
ENDBRANCH  71  74
ENDBRANCH  69  70
ENDBRANCH  68  69
ENDBRANCH   1  68
TORSDOF 14
