REMARK SMILES CC[C@@](C)(NC(=O)N1CCC[C@H]1C1CCCC1)C(=O)NCCCNC(=O)c1ccc(-c2c3nc(c(-c4ccc(S(=O)(=O)[O-])cc4)c4ccc([nH]4)c(-c4ccc(S(=O)(=O)[O-])cc4)c4nc(c(-c5ccc(S(=O)(=O)[O-])cc5)c5ccc2[nH]5)C=C4)C=C3)cc1
REMARK SMILES IDX 22 1 21 2 20 3 18 4 19 5 3 7 4 8 2 9 1 10 5 11 6 12 7 14
REMARK SMILES IDX 8 15 9 16 12 17 10 18 11 19 13 20 14 21 17 22 15 23 16 24
REMARK SMILES IDX 23 25 24 26 25 27 26 29 27 30 28 31 86 32 29 33 85 34 30 35
REMARK SMILES IDX 31 36 32 37 79 38 33 39 84 40 78 41 80 42 34 43 83 44 77 45
REMARK SMILES IDX 76 46 35 48 65 49 46 50 64 51 47 52 50 53 63 54 81 55 48 56
REMARK SMILES IDX 49 57 62 59 82 60 51 61 36 62 37 63 45 64 38 65 44 66 39 67
REMARK SMILES IDX 40 68 41 69 42 70 43 71 66 72 67 73 75 74 68 75 74 76 69 77
REMARK SMILES IDX 70 78 71 79 72 80 73 81 52 82 53 83 61 84 54 85 60 86 55 87
REMARK SMILES IDX 56 88 57 89 58 90 59 91
REMARK H PARENT 20 6 5 13 24 28 80 47 50 58
REMARK Flexibility Score: inf
ROOT
ATOM      1  C   UNL     1       2.903   4.270  -4.430  1.00  0.00     0.042 C 
ENDROOT
BRANCH   1   2
ATOM      2  C   UNL     1       2.371   2.844  -4.520  1.00  0.00     0.117 C 
BRANCH   2   3
ATOM      3  N   UNL     1       2.911   1.887  -3.567  1.00  0.00    -0.354 N 
ATOM      4  C   UNL     1       2.435   1.371  -2.394  1.00  0.00     0.245 C 
ATOM      5  O   UNL     1       2.970   0.313  -2.040  1.00  0.00    -0.272 OA
ATOM      6  H   UNL     1       3.798   1.541  -3.817  1.00  0.00     0.163 HD
BRANCH   4   7
ATOM      7  C   UNL     1       1.230   1.976  -1.601  1.00  0.00     0.117 C 
ATOM      8  C   UNL     1      -0.045   1.523  -2.364  1.00  0.00     0.045 C 
BRANCH   7   9
ATOM      9  C   UNL     1       1.098   1.440  -0.135  1.00  0.00     0.035 C 
ATOM     10  C   UNL     1       1.035  -0.070   0.083  1.00  0.00     0.007 C 
ENDBRANCH   7   9
BRANCH   7  11
ATOM     11  N   UNL     1       1.219   3.467  -1.529  1.00  0.00    -0.324 N 
ATOM     12  C   UNL     1       1.844   4.350  -0.710  1.00  0.00     0.318 C 
ATOM     13  H   UNL     1       0.647   3.892  -2.208  1.00  0.00     0.166 HD
ATOM     14  O   UNL     1       1.093   5.183  -0.196  1.00  0.00    -0.249 OA
BRANCH  12  15
ATOM     15  N   UNL     1       3.190   4.374  -0.508  1.00  0.00    -0.322 N 
ATOM     16  C   UNL     1       4.190   3.412  -0.903  1.00  0.00     0.122 C 
ATOM     17  C   UNL     1       3.835   5.446   0.289  1.00  0.00     0.090 C 
ATOM     18  C   UNL     1       5.215   3.430   0.205  1.00  0.00     0.024 C 
ATOM     19  C   UNL     1       5.224   4.872   0.667  1.00  0.00     0.027 C 
BRANCH  17  20
ATOM     20  C   UNL     1       4.046   6.822  -0.408  1.00  0.00     0.012 C 
ATOM     21  C   UNL     1       4.632   6.758  -1.814  1.00  0.00     0.006 C 
ATOM     22  C   UNL     1       2.814   7.702  -0.618  1.00  0.00     0.006 C 
ATOM     23  C   UNL     1       4.466   8.169  -2.355  1.00  0.00     0.000 C 
ATOM     24  C   UNL     1       3.210   8.716  -1.693  1.00  0.00     0.000 C 
ENDBRANCH  17  20
ENDBRANCH  12  15
ENDBRANCH   7  11
ENDBRANCH   4   7
ENDBRANCH   2   3
ENDBRANCH   1   2
BRANCH   1  25
ATOM     25  C   UNL     1       4.408   4.468  -4.604  1.00  0.00     0.118 C 
BRANCH  25  26
ATOM     26  N   UNL     1       4.915   4.258  -5.943  1.00  0.00    -0.352 N 
ATOM     27  C   UNL     1       5.617   5.108  -6.770  1.00  0.00     0.251 C 
ATOM     28  H   UNL     1       4.729   3.369  -6.323  1.00  0.00     0.163 HD
ATOM     29  O   UNL     1       5.955   4.697  -7.878  1.00  0.00    -0.269 OA
BRANCH  27  30
ATOM     30  C   UNL     1       5.934   6.513  -6.392  1.00  0.00     0.039 A 
ATOM     31  C   UNL     1       5.687   7.511  -7.341  1.00  0.00     0.014 A 
ATOM     32  C   UNL     1       6.531   6.872  -5.181  1.00  0.00     0.014 A 
ATOM     33  C   UNL     1       5.981   8.854  -7.062  1.00  0.00     0.010 A 
ATOM     34  C   UNL     1       6.774   8.227  -4.883  1.00  0.00     0.010 A 
ATOM     35  C   UNL     1       6.498   9.242  -5.815  1.00  0.00    -0.014 A 
BRANCH  35  36
ATOM     36  C   UNL     1       6.747  10.693  -5.513  1.00  0.00     0.031 A 
ATOM     37  C   UNL     1       8.131  11.200  -5.171  1.00  0.00     0.074 A 
ATOM     38  C   UNL     1       5.730  11.584  -5.546  1.00  0.00     0.049 A 
ATOM     39  N   UNL     1       8.527  12.428  -4.935  1.00  0.00    -0.248 NA
ATOM     40  C   UNL     1       9.204  10.201  -5.061  1.00  0.00     0.031 C 
ATOM     41  C   UNL     1       4.327  11.261  -5.812  1.00  0.00     0.029 A 
ATOM     42  N   UNL     1       5.720  12.951  -5.370  1.00  0.00    -0.354 N 
ATOM     43  C   UNL     1       9.884  12.347  -4.638  1.00  0.00     0.074 A 
ATOM     44  C   UNL     1      10.230  10.942  -4.666  1.00  0.00     0.031 C 
ATOM     45  C   UNL     1       3.607  12.394  -5.832  1.00  0.00     0.029 A 
ATOM     46  C   UNL     1       4.480  13.528  -5.538  1.00  0.00     0.049 A 
ATOM     47  H   UNL     1       6.527  13.469  -5.143  1.00  0.00     0.167 HD
ATOM     48  C   UNL     1      10.774  13.340  -4.390  1.00  0.00     0.031 A 
ATOM     49  C   UNL     1       4.079  14.815  -5.471  1.00  0.00     0.031 A 
ATOM     50  C   UNL     1      10.455  14.745  -4.373  1.00  0.00     0.049 A 
ATOM     51  C   UNL     1       5.083  15.902  -5.183  1.00  0.00     0.074 A 
ATOM     52  C   UNL     1      11.314  15.817  -4.191  1.00  0.00     0.029 A 
ATOM     53  N   UNL     1       9.187  15.277  -4.538  1.00  0.00    -0.354 N 
ATOM     54  N   UNL     1       6.375  15.802  -4.988  1.00  0.00    -0.248 NA
ATOM     55  C   UNL     1       4.573  17.282  -5.120  1.00  0.00     0.031 C 
ATOM     56  C   UNL     1      10.556  16.993  -4.186  1.00  0.00     0.029 A 
ATOM     57  C   UNL     1       9.235  16.659  -4.435  1.00  0.00     0.049 A 
ATOM     58  H   UNL     1       8.371  14.751  -4.705  1.00  0.00     0.167 HD
ATOM     59  C   UNL     1       6.835  17.104  -4.809  1.00  0.00     0.074 A 
ATOM     60  C   UNL     1       5.687  17.977  -4.936  1.00  0.00     0.031 C 
ATOM     61  C   UNL     1       8.097  17.534  -4.564  1.00  0.00     0.031 A 
BRANCH  48  62
ATOM     62  C   UNL     1      12.204  12.941  -4.112  1.00  0.00    -0.014 A 
ATOM     63  C   UNL     1      13.018  12.402  -5.125  1.00  0.00     0.010 A 
ATOM     64  C   UNL     1      12.756  13.155  -2.835  1.00  0.00     0.010 A 
ATOM     65  C   UNL     1      14.338  12.034  -4.853  1.00  0.00     0.020 A 
ATOM     66  C   UNL     1      14.087  12.819  -2.568  1.00  0.00     0.020 A 
ATOM     67  C   UNL     1      14.863  12.241  -3.574  1.00  0.00     0.054 A 
BRANCH  67  68
ATOM     68  S   UNL     1      16.583  11.761  -3.254  1.00  0.00     0.124 S 
ATOM     69  O   UNL     1      16.492  10.303  -3.252  1.00  0.00    -0.237 OA
ATOM     70  O   UNL     1      17.294  12.344  -4.389  1.00  0.00    -0.237 OA
ATOM     71  O   UNL     1      16.878  12.368  -1.958  1.00  0.00    -0.744 OA
ENDBRANCH  67  68
ENDBRANCH  48  62
BRANCH  49  72
ATOM     72  C   UNL     1       2.646  15.165  -5.697  1.00  0.00    -0.014 A 
ATOM     73  C   UNL     1       2.252  15.884  -6.840  1.00  0.00     0.010 A 
ATOM     74  C   UNL     1       1.666  14.793  -4.757  1.00  0.00     0.010 A 
ATOM     75  C   UNL     1       0.914  16.243  -7.029  1.00  0.00     0.020 A 
ATOM     76  C   UNL     1       0.322  15.122  -4.958  1.00  0.00     0.020 A 
ATOM     77  C   UNL     1      -0.044  15.856  -6.087  1.00  0.00     0.054 A 
BRANCH  77  78
ATOM     78  S   UNL     1      -1.782  16.291  -6.377  1.00  0.00     0.124 S 
ATOM     79  O   UNL     1      -1.781  17.730  -6.130  1.00  0.00    -0.237 OA
ATOM     80  O   UNL     1      -1.980  15.888  -7.767  1.00  0.00    -0.237 OA
ATOM     81  O   UNL     1      -2.504  15.487  -5.394  1.00  0.00    -0.744 OA
ENDBRANCH  77  78
ENDBRANCH  49  72
BRANCH  61  82
ATOM     82  C   UNL     1       8.331  19.020  -4.454  1.00  0.00    -0.014 A 
ATOM     83  C   UNL     1       7.864  19.759  -3.352  1.00  0.00     0.010 A 
ATOM     84  C   UNL     1       9.085  19.679  -5.444  1.00  0.00     0.010 A 
ATOM     85  C   UNL     1       8.123  21.131  -3.256  1.00  0.00     0.020 A 
ATOM     86  C   UNL     1       9.371  21.043  -5.338  1.00  0.00     0.020 A 
ATOM     87  C   UNL     1       8.877  21.764  -4.250  1.00  0.00     0.054 A 
BRANCH  87  88
ATOM     88  S   UNL     1       9.239  23.534  -4.077  1.00  0.00     0.124 S 
ATOM     89  O   UNL     1       7.939  24.140  -4.349  1.00  0.00    -0.237 OA
ATOM     90  O   UNL     1       9.701  23.633  -2.695  1.00  0.00    -0.237 OA
ATOM     91  O   UNL     1      10.264  23.779  -5.089  1.00  0.00    -0.744 OA
ENDBRANCH  87  88
ENDBRANCH  61  82
ENDBRANCH  35  36
ENDBRANCH  27  30
ENDBRANCH  25  26
ENDBRANCH   1  25
TORSDOF 17
