REMARK SMILES C[C@H](COc1ccccc1C(=O)NCCCNC(=O)c1ccc(-c2c3nc(c(-c4ccc(S(=O)(=O)[O-])cc4)c4ccc([nH]4)c(-c4ccc(S(=O)(=O)[O-])cc4)c4nc(c(-c5ccc(S(=O)(=O)[O-])cc5)c5ccc2[nH]5)C=C4)C=C3)cc1)C(N)=O
REMARK SMILES IDX 14 1 13 2 11 3 12 4 10 6 5 7 6 8 7 9 9 10 8 11 4 12 3 13
REMARK SMILES IDX 2 14 1 15 80 16 81 17 82 18 15 21 16 22 17 23 18 24 19 26
REMARK SMILES IDX 20 27 21 28 79 29 22 30 78 31 23 32 24 33 25 34 72 35 26 36
REMARK SMILES IDX 77 37 71 38 73 39 27 40 76 41 70 42 69 43 28 45 58 46 39 47
REMARK SMILES IDX 57 48 40 49 43 50 56 51 74 52 41 53 42 54 55 56 75 57 44 58
REMARK SMILES IDX 29 59 30 60 38 61 31 62 37 63 32 64 33 65 34 66 35 67 36 68
REMARK SMILES IDX 59 69 60 70 68 71 61 72 67 73 62 74 63 75 64 76 65 77 66 78
REMARK SMILES IDX 45 79 46 80 54 81 47 82 53 83 48 84 49 85 50 86 51 87 52 88
REMARK H PARENT 13 5 81 19 81 20 17 25 73 44 43 55
REMARK Flexibility Score: inf
ROOT
ATOM      1  C   UNL     1       0.831   2.724   0.660  1.00  0.00     0.118 C 
ENDROOT
BRANCH   1   2
ATOM      2  N   UNL     1      -0.014   2.237   1.736  1.00  0.00    -0.352 N 
ATOM      3  C   UNL     1      -1.175   1.503   1.650  1.00  0.00     0.255 C 
ATOM      4  O   UNL     1      -1.762   1.179   2.682  1.00  0.00    -0.269 OA
ATOM      5  H   UNL     1       0.282   2.461   2.648  1.00  0.00     0.163 HD
BRANCH   3   6
ATOM      6  C   UNL     1      -1.768   1.158   0.337  1.00  0.00     0.081 A 
ATOM      7  C   UNL     1      -1.074   0.508  -0.692  1.00  0.00     0.132 A 
ATOM      8  C   UNL     1      -1.681   0.353  -1.941  1.00  0.00     0.047 A 
ATOM      9  C   UNL     1      -3.011   0.739  -2.129  1.00  0.00     0.004 A 
ATOM     10  C   UNL     1      -3.121   1.484   0.162  1.00  0.00     0.018 A 
ATOM     11  C   UNL     1      -3.742   1.272  -1.069  1.00  0.00     0.001 A 
BRANCH   7  12
ATOM     12  O   UNL     1       0.222   0.113  -0.510  1.00  0.00    -0.492 OA
BRANCH  12  13
ATOM     13  C   UNL     1       0.456  -1.298  -0.554  1.00  0.00     0.242 C 
BRANCH  13  14
ATOM     14  C   UNL     1       0.369  -1.954   0.837  1.00  0.00     0.113 C 
ATOM     15  C   UNL     1       1.195  -1.212   1.888  1.00  0.00     0.022 C 
BRANCH  14  16
ATOM     16  C   UNL     1      -1.095  -2.203   1.183  1.00  0.00     0.223 C 
ATOM     17  N   UNL     1      -1.455  -2.205   2.492  1.00  0.00    -0.369 N 
ATOM     18  O   UNL     1      -1.933  -2.506   0.335  1.00  0.00    -0.275 OA
ATOM     19  H   UNL     1      -0.797  -1.965   3.184  1.00  0.00     0.159 HD
ATOM     20  H   UNL     1      -2.374  -2.447   2.750  1.00  0.00     0.159 HD
ENDBRANCH  14  16
ENDBRANCH  13  14
ENDBRANCH  12  13
ENDBRANCH   7  12
ENDBRANCH   3   6
ENDBRANCH   1   2
BRANCH   1  21
ATOM     21  C   UNL     1       2.029   3.524   1.131  1.00  0.00     0.042 C 
BRANCH  21  22
ATOM     22  C   UNL     1       3.002   2.750   2.016  1.00  0.00     0.118 C 
BRANCH  22  23
ATOM     23  N   UNL     1       3.608   1.564   1.416  1.00  0.00    -0.352 N 
ATOM     24  C   UNL     1       4.919   1.117   1.476  1.00  0.00     0.251 C 
ATOM     25  H   UNL     1       2.995   0.999   0.891  1.00  0.00     0.163 HD
ATOM     26  O   UNL     1       5.247   0.071   0.952  1.00  0.00    -0.269 OA
BRANCH  24  27
ATOM     27  C   UNL     1       5.930   1.989   2.121  1.00  0.00     0.039 A 
ATOM     28  C   UNL     1       7.043   2.382   1.375  1.00  0.00     0.014 A 
ATOM     29  C   UNL     1       5.683   2.550   3.373  1.00  0.00     0.014 A 
ATOM     30  C   UNL     1       7.810   3.465   1.811  1.00  0.00     0.010 A 
ATOM     31  C   UNL     1       6.375   3.696   3.745  1.00  0.00     0.010 A 
ATOM     32  C   UNL     1       7.419   4.191   2.948  1.00  0.00    -0.014 A 
BRANCH  32  33
ATOM     33  C   UNL     1       8.027   5.508   3.282  1.00  0.00     0.031 A 
ATOM     34  C   UNL     1       8.661   5.729   4.628  1.00  0.00     0.074 A 
ATOM     35  C   UNL     1       7.904   6.540   2.419  1.00  0.00     0.049 A 
ATOM     36  N   UNL     1       9.124   6.836   5.149  1.00  0.00    -0.248 NA
ATOM     37  C   UNL     1       8.749   4.561   5.520  1.00  0.00     0.031 C 
ATOM     38  C   UNL     1       7.252   6.484   1.106  1.00  0.00     0.029 A 
ATOM     39  N   UNL     1       8.317   7.847   2.520  1.00  0.00    -0.354 N 
ATOM     40  C   UNL     1       9.528   6.505   6.436  1.00  0.00     0.074 A 
ATOM     41  C   UNL     1       9.205   5.109   6.636  1.00  0.00     0.031 C 
ATOM     42  C   UNL     1       7.349   7.684   0.510  1.00  0.00     0.029 A 
ATOM     43  C   UNL     1       8.024   8.610   1.412  1.00  0.00     0.049 A 
ATOM     44  H   UNL     1       8.781   8.204   3.311  1.00  0.00     0.167 HD
ATOM     45  C   UNL     1      10.137   7.284   7.362  1.00  0.00     0.031 A 
ATOM     46  C   UNL     1       8.267   9.909   1.150  1.00  0.00     0.031 A 
ATOM     47  C   UNL     1      10.489   8.662   7.153  1.00  0.00     0.049 A 
ATOM     48  C   UNL     1       8.968  10.746   2.183  1.00  0.00     0.074 A 
ATOM     49  C   UNL     1      11.162   9.517   8.007  1.00  0.00     0.029 A 
ATOM     50  N   UNL     1      10.206   9.383   6.003  1.00  0.00    -0.354 N 
ATOM     51  N   UNL     1       9.389  10.399   3.375  1.00  0.00    -0.248 NA
ATOM     52  C   UNL     1       9.233  12.149   1.832  1.00  0.00     0.031 C 
ATOM     53  C   UNL     1      11.258  10.767   7.386  1.00  0.00     0.029 A 
ATOM     54  C   UNL     1      10.684  10.676   6.128  1.00  0.00     0.049 A 
ATOM     55  H   UNL     1       9.735   9.029   5.215  1.00  0.00     0.167 HD
ATOM     56  C   UNL     1       9.995  11.532   3.906  1.00  0.00     0.074 A 
ATOM     57  C   UNL     1       9.895  12.571   2.901  1.00  0.00     0.031 C 
ATOM     58  C   UNL     1      10.582  11.696   5.116  1.00  0.00     0.031 A 
BRANCH  45  59
ATOM     59  C   UNL     1      10.470   6.647   8.684  1.00  0.00    -0.014 A 
ATOM     60  C   UNL     1      11.482   5.675   8.782  1.00  0.00     0.010 A 
ATOM     61  C   UNL     1       9.779   7.037   9.846  1.00  0.00     0.010 A 
ATOM     62  C   UNL     1      11.763   5.066  10.007  1.00  0.00     0.020 A 
ATOM     63  C   UNL     1      10.078   6.451  11.080  1.00  0.00     0.020 A 
ATOM     64  C   UNL     1      11.054   5.455  11.148  1.00  0.00     0.054 A 
BRANCH  64  65
ATOM     65  S   UNL     1      11.448   4.657  12.728  1.00  0.00     0.124 S 
ATOM     66  O   UNL     1      10.817   3.349  12.568  1.00  0.00    -0.237 OA
ATOM     67  O   UNL     1      12.909   4.653  12.731  1.00  0.00    -0.237 OA
ATOM     68  O   UNL     1      10.828   5.531  13.721  1.00  0.00    -0.744 OA
ENDBRANCH  64  65
ENDBRANCH  45  59
BRANCH  46  69
ATOM     69  C   UNL     1       7.877  10.492  -0.163  1.00  0.00    -0.014 A 
ATOM     70  C   UNL     1       8.862  10.803  -1.118  1.00  0.00     0.010 A 
ATOM     71  C   UNL     1       6.526  10.734  -0.472  1.00  0.00     0.010 A 
ATOM     72  C   UNL     1       8.506  11.362  -2.349  1.00  0.00     0.020 A 
ATOM     73  C   UNL     1       6.164  11.270  -1.712  1.00  0.00     0.020 A 
ATOM     74  C   UNL     1       7.159  11.591  -2.639  1.00  0.00     0.054 A 
BRANCH  74  75
ATOM     75  S   UNL     1       6.716  12.269  -4.263  1.00  0.00     0.124 S 
ATOM     76  O   UNL     1       7.090  13.672  -4.119  1.00  0.00    -0.237 OA
ATOM     77  O   UNL     1       7.546  11.482  -5.172  1.00  0.00    -0.237 OA
ATOM     78  O   UNL     1       5.281  12.008  -4.361  1.00  0.00    -0.744 OA
ENDBRANCH  74  75
ENDBRANCH  46  69
BRANCH  58  79
ATOM     79  C   UNL     1      11.199  13.036   5.410  1.00  0.00    -0.014 A 
ATOM     80  C   UNL     1      10.401  14.156   5.702  1.00  0.00     0.010 A 
ATOM     81  C   UNL     1      12.600  13.158   5.454  1.00  0.00     0.010 A 
ATOM     82  C   UNL     1      10.995  15.383   6.008  1.00  0.00     0.020 A 
ATOM     83  C   UNL     1      13.197  14.377   5.782  1.00  0.00     0.020 A 
ATOM     84  C   UNL     1      12.390  15.485   6.045  1.00  0.00     0.054 A 
BRANCH  84  85
ATOM     85  S   UNL     1      13.138  17.076   6.495  1.00  0.00     0.124 S 
ATOM     86  O   UNL     1      12.961  17.851   5.270  1.00  0.00    -0.237 OA
ATOM     87  O   UNL     1      12.326  17.503   7.632  1.00  0.00    -0.237 OA
ATOM     88  O   UNL     1      14.519  16.728   6.819  1.00  0.00    -0.744 OA
ENDBRANCH  84  85
ENDBRANCH  58  79
ENDBRANCH  32  33
ENDBRANCH  24  27
ENDBRANCH  22  23
ENDBRANCH  21  22
ENDBRANCH   1  21
TORSDOF 17
