REMARK SMILES O=C(NCCCNC(=O)c1cc(NC(=S)NC(=O)c2ccccc2F)ccc1Cl)c1ccc(-c2c3nc(c(-c4ccc(S(=O)(=O)[O-])cc4)c4ccc([nH]4)c(-c4ccc(S(=O)(=O)[O-])cc4)c4nc(c(-c5ccc(S(=O)(=O)[O-])cc5)c5ccc2[nH]5)C=C4)C=C3)cc1
REMARK SMILES IDX 5 1 4 2 3 3 1 4 2 5 30 7 31 8 89 9 32 10 88 11 33 12 34 13
REMARK SMILES IDX 35 14 82 15 36 16 87 17 81 18 83 19 37 20 86 21 80 22 79 23
REMARK SMILES IDX 38 25 68 26 49 27 67 28 50 29 53 30 66 31 84 32 51 33 52 34
REMARK SMILES IDX 65 36 85 37 54 38 39 39 40 40 48 41 41 42 47 43 42 44 43 45
REMARK SMILES IDX 44 46 45 47 46 48 69 49 70 50 78 51 71 52 77 53 72 54 73 55
REMARK SMILES IDX 74 56 75 57 76 58 55 59 56 60 64 61 57 62 63 63 58 64 59 65
REMARK SMILES IDX 60 66 61 67 62 68 6 69 7 70 8 71 9 73 10 74 11 75 28 76
REMARK SMILES IDX 12 77 27 78 29 79 26 80 13 81 14 83 15 84 16 85 17 86 18 88
REMARK SMILES IDX 19 89 20 90 24 91 21 92 23 93 25 94 22 95
REMARK H PARENT 3 6 83 24 53 35 7 72 13 82 16 87
REMARK Flexibility Score: inf
ROOT
ATOM      1  C   UNL     1       5.019  -2.113  -0.264  1.00  0.00     0.042 C 
ENDROOT
BRANCH   1   2
ATOM      2  C   UNL     1       4.522  -0.887  -1.015  1.00  0.00     0.118 C 
BRANCH   2   3
ATOM      3  N   UNL     1       3.078  -0.679  -0.936  1.00  0.00    -0.352 N 
ATOM      4  O   UNL     1       1.095   0.088  -0.194  1.00  0.00    -0.269 OA
ATOM      5  C   UNL     1       2.320   0.171  -0.163  1.00  0.00     0.251 C 
ATOM      6  H   UNL     1       2.554  -1.249  -1.544  1.00  0.00     0.163 HD
BRANCH   5   7
ATOM      7  C   UNL     1       2.970   1.143   0.741  1.00  0.00     0.039 A 
ATOM      8  C   UNL     1       4.089   1.857   0.327  1.00  0.00     0.014 A 
ATOM      9  C   UNL     1       2.467   1.329   2.032  1.00  0.00     0.014 A 
ATOM     10  C   UNL     1       4.850   2.542   1.262  1.00  0.00     0.010 A 
ATOM     11  C   UNL     1       3.158   2.145   2.936  1.00  0.00     0.010 A 
ATOM     12  C   UNL     1       4.392   2.707   2.579  1.00  0.00    -0.014 A 
BRANCH  12  13
ATOM     13  C   UNL     1       5.218   3.493   3.534  1.00  0.00     0.031 A 
ATOM     14  C   UNL     1       5.750   2.875   4.803  1.00  0.00     0.074 A 
ATOM     15  C   UNL     1       5.544   4.763   3.215  1.00  0.00     0.049 A 
ATOM     16  N   UNL     1       6.532   3.406   5.709  1.00  0.00    -0.248 NA
ATOM     17  C   UNL     1       5.347   1.492   5.102  1.00  0.00     0.031 C 
ATOM     18  C   UNL     1       5.093   5.473   2.012  1.00  0.00     0.029 A 
ATOM     19  N   UNL     1       6.356   5.671   3.844  1.00  0.00    -0.354 N 
ATOM     20  C   UNL     1       6.689   2.439   6.697  1.00  0.00     0.074 A 
ATOM     21  C   UNL     1       5.899   1.296   6.292  1.00  0.00     0.031 C 
ATOM     22  C   UNL     1       5.695   6.668   1.952  1.00  0.00     0.029 A 
ATOM     23  C   UNL     1       6.502   6.849   3.151  1.00  0.00     0.049 A 
ATOM     24  H   UNL     1       6.792   5.496   4.709  1.00  0.00     0.167 HD
ATOM     25  C   UNL     1       7.423   2.498   7.835  1.00  0.00     0.031 A 
ATOM     26  C   UNL     1       7.195   7.964   3.447  1.00  0.00     0.031 A 
ATOM     27  C   UNL     1       8.213   3.638   8.227  1.00  0.00     0.049 A 
ATOM     28  C   UNL     1       7.977   8.011   4.726  1.00  0.00     0.074 A 
ATOM     29  C   UNL     1       9.019   3.783   9.343  1.00  0.00     0.029 A 
ATOM     30  N   UNL     1       8.293   4.830   7.521  1.00  0.00    -0.354 N 
ATOM     31  N   UNL     1       8.130   7.075   5.633  1.00  0.00    -0.248 NA
ATOM     32  C   UNL     1       8.684   9.262   5.021  1.00  0.00     0.031 C 
ATOM     33  C   UNL     1       9.534   5.083   9.345  1.00  0.00     0.029 A 
ATOM     34  C   UNL     1       9.113   5.724   8.191  1.00  0.00     0.049 A 
ATOM     35  H   UNL     1       7.835   5.013   6.669  1.00  0.00     0.167 HD
ATOM     36  C   UNL     1       8.979   7.615   6.591  1.00  0.00     0.074 A 
ATOM     37  C   UNL     1       9.316   8.951   6.144  1.00  0.00     0.031 C 
ATOM     38  C   UNL     1       9.439   7.053   7.736  1.00  0.00     0.031 A 
BRANCH  25  39
ATOM     39  C   UNL     1       7.378   1.309   8.765  1.00  0.00    -0.014 A 
ATOM     40  C   UNL     1       7.970   0.080   8.422  1.00  0.00     0.010 A 
ATOM     41  C   UNL     1       6.770   1.442  10.028  1.00  0.00     0.010 A 
ATOM     42  C   UNL     1       7.915  -1.004   9.305  1.00  0.00     0.020 A 
ATOM     43  C   UNL     1       6.740   0.370  10.926  1.00  0.00     0.020 A 
ATOM     44  C   UNL     1       7.297  -0.853  10.550  1.00  0.00     0.054 A 
BRANCH  44  45
ATOM     45  S   UNL     1       7.253  -2.273  11.679  1.00  0.00     0.124 S 
ATOM     46  O   UNL     1       6.293  -3.153  11.018  1.00  0.00    -0.237 OA
ATOM     47  O   UNL     1       8.639  -2.735  11.666  1.00  0.00    -0.237 OA
ATOM     48  O   UNL     1       6.802  -1.699  12.944  1.00  0.00    -0.744 OA
ENDBRANCH  44  45
ENDBRANCH  25  39
BRANCH  26  49
ATOM     49  C   UNL     1       7.165   9.125   2.516  1.00  0.00    -0.014 A 
ATOM     50  C   UNL     1       8.321   9.516   1.818  1.00  0.00     0.010 A 
ATOM     51  C   UNL     1       5.968   9.836   2.307  1.00  0.00     0.010 A 
ATOM     52  C   UNL     1       8.286  10.608   0.947  1.00  0.00     0.020 A 
ATOM     53  C   UNL     1       5.920  10.905   1.410  1.00  0.00     0.020 A 
ATOM     54  C   UNL     1       7.084  11.294   0.746  1.00  0.00     0.054 A 
BRANCH  54  55
ATOM     55  S   UNL     1       7.053  12.681  -0.421  1.00  0.00     0.124 S 
ATOM     56  O   UNL     1       7.793  13.707   0.307  1.00  0.00    -0.237 OA
ATOM     57  O   UNL     1       7.726  12.124  -1.591  1.00  0.00    -0.237 OA
ATOM     58  O   UNL     1       5.627  12.946  -0.600  1.00  0.00    -0.744 OA
ENDBRANCH  54  55
ENDBRANCH  26  49
BRANCH  38  59
ATOM     59  C   UNL     1      10.406   7.864   8.559  1.00  0.00    -0.014 A 
ATOM     60  C   UNL     1       9.998   9.017   9.253  1.00  0.00     0.010 A 
ATOM     61  C   UNL     1      11.746   7.445   8.653  1.00  0.00     0.010 A 
ATOM     62  C   UNL     1      10.925   9.763   9.986  1.00  0.00     0.020 A 
ATOM     63  C   UNL     1      12.667   8.168   9.414  1.00  0.00     0.020 A 
ATOM     64  C   UNL     1      12.255   9.335  10.059  1.00  0.00     0.054 A 
BRANCH  64  65
ATOM     65  S   UNL     1      13.434  10.307  11.034  1.00  0.00     0.124 S 
ATOM     66  O   UNL     1      13.627  11.484  10.191  1.00  0.00    -0.237 OA
ATOM     67  O   UNL     1      12.706  10.538  12.279  1.00  0.00    -0.237 OA
ATOM     68  O   UNL     1      14.595   9.428  11.152  1.00  0.00    -0.744 OA
ENDBRANCH  64  65
ENDBRANCH  38  59
ENDBRANCH  12  13
ENDBRANCH   5   7
ENDBRANCH   2   3
ENDBRANCH   1   2
BRANCH   1  69
ATOM     69  C   UNL     1       4.457  -3.435  -0.757  1.00  0.00     0.118 C 
BRANCH  69  70
ATOM     70  N   UNL     1       4.426  -3.578  -2.206  1.00  0.00    -0.352 N 
ATOM     71  C   UNL     1       4.687  -4.638  -3.044  1.00  0.00     0.252 C 
ATOM     72  H   UNL     1       4.167  -2.755  -2.679  1.00  0.00     0.163 HD
ATOM     73  O   UNL     1       4.208  -4.559  -4.173  1.00  0.00    -0.269 OA
BRANCH  71  74
ATOM     74  C   UNL     1       5.521  -5.840  -2.545  1.00  0.00     0.060 A 
ATOM     75  C   UNL     1       7.236  -6.770  -3.070  1.00  0.00     0.041 A 
ATOM     76  C   UNL     1       4.629  -6.629  -1.166  1.00  0.00     0.053 A 
ATOM     77  C   UNL     1       7.900  -8.072  -2.186  1.00  0.00     0.041 A 
ATOM     78  C   UNL     1       5.367  -8.053  -0.383  1.00  0.00     0.023 A 
ATOM     79  Cl  UNL     1       2.983  -6.294  -0.775  1.00  0.00    -0.083 Cl
ATOM     80  C   UNL     1       6.952  -8.734  -0.878  1.00  0.00     0.028 A 
BRANCH  77  81
ATOM     81  N   UNL     1       9.292  -8.107  -2.350  1.00  0.00    -0.332 N 
ATOM     82  H   UNL     1       9.738  -8.884  -1.942  1.00  0.00     0.169 HD
BRANCH  81  83
ATOM     83  C   UNL     1      10.136  -7.224  -2.993  1.00  0.00     0.177 C 
ATOM     84  S   UNL     1      11.748  -7.703  -3.101  1.00  0.00    -0.040 S 
BRANCH  83  85
ATOM     85  N   UNL     1       9.831  -5.946  -3.576  1.00  0.00    -0.299 N 
ATOM     86  C   UNL     1       8.936  -4.800  -3.970  1.00  0.00     0.260 C 
ATOM     87  H   UNL     1      10.709  -5.652  -3.909  1.00  0.00     0.172 HD
ATOM     88  O   UNL     1       9.375  -3.944  -4.736  1.00  0.00    -0.269 OA
BRANCH  86  89
ATOM     89  C   UNL     1       7.464  -4.727  -3.551  1.00  0.00     0.075 A 
ATOM     90  C   UNL     1       6.442  -5.650  -4.716  1.00  0.00     0.017 A 
ATOM     91  C   UNL     1       7.513  -5.069  -1.849  1.00  0.00     0.135 A 
ATOM     92  C   UNL     1       5.584  -7.159  -4.275  1.00  0.00     0.001 A 
ATOM     93  C   UNL     1       6.735  -6.548  -1.261  1.00  0.00     0.040 A 
ATOM     94  F   UNL     1       8.424  -4.478  -1.063  1.00  0.00    -0.206 F 
ATOM     95  C   UNL     1       5.736  -7.739  -2.563  1.00  0.00     0.003 A 
ENDBRANCH  86  89
ENDBRANCH  83  85
ENDBRANCH  81  83
ENDBRANCH  77  81
ENDBRANCH  71  74
ENDBRANCH  69  70
ENDBRANCH   1  69
TORSDOF 17
