REMARK SMILES O=C(NCCCNC(=O)c1nc(/N=C/c2cccc([N+](=O)[O-])c2)n[nH]1)c1ccc(-c2c3nc(c(-c4ccc(S(=O)(=O)[O-])cc4)c4ccc([nH]4)c(-c4ccc(S(=O)(=O)[O-])cc4)c4nc(c(-c5ccc(S(=O)(=O)[O-])cc5)c5ccc2[nH]5)C=C4)C=C3)cc1
REMARK SMILES IDX 5 1 4 2 3 3 1 4 2 5 26 7 27 8 85 9 28 10 84 11 29 12 30 13
REMARK SMILES IDX 31 14 78 15 32 16 83 17 77 18 79 19 33 20 82 21 76 22 75 23
REMARK SMILES IDX 34 25 64 26 45 27 63 28 46 29 49 30 62 31 80 32 47 33 48 34
REMARK SMILES IDX 61 36 81 37 50 38 35 39 36 40 44 41 37 42 43 43 38 44 39 45
REMARK SMILES IDX 40 46 41 47 42 48 65 49 66 50 74 51 67 52 73 53 68 54 69 55
REMARK SMILES IDX 70 56 71 57 72 58 51 59 52 60 60 61 53 62 59 63 54 64 55 65
REMARK SMILES IDX 56 66 57 67 58 68 6 69 7 70 8 71 9 73 10 74 11 75 25 76
REMARK SMILES IDX 12 77 24 78 13 80 14 81 15 82 16 83 23 84 17 85 19 86 18 87
REMARK SMILES IDX 20 88 21 89 22 90
REMARK H PARENT 3 6 79 24 49 35 7 72 25 79
REMARK Flexibility Score: inf
ROOT
ATOM      1  C   UNL     1       4.749  -2.605  -0.099  1.00  0.00     0.042 C 
ENDROOT
BRANCH   1   2
ATOM      2  C   UNL     1       4.552  -1.238  -0.746  1.00  0.00     0.118 C 
BRANCH   2   3
ATOM      3  N   UNL     1       3.146  -0.863  -0.840  1.00  0.00    -0.352 N 
ATOM      4  O   UNL     1       1.219   0.149  -0.288  1.00  0.00    -0.269 OA
ATOM      5  C   UNL     1       2.446   0.143  -0.219  1.00  0.00     0.251 C 
ATOM      6  H   UNL     1       2.611  -1.422  -1.449  1.00  0.00     0.163 HD
BRANCH   5   7
ATOM      7  C   UNL     1       3.151   1.199   0.540  1.00  0.00     0.039 A 
ATOM      8  C   UNL     1       4.333   1.764   0.060  1.00  0.00     0.014 A 
ATOM      9  C   UNL     1       2.601   1.656   1.743  1.00  0.00     0.014 A 
ATOM     10  C   UNL     1       5.049   2.653   0.855  1.00  0.00     0.010 A 
ATOM     11  C   UNL     1       3.277   2.621   2.497  1.00  0.00     0.010 A 
ATOM     12  C   UNL     1       4.531   3.094   2.083  1.00  0.00    -0.014 A 
BRANCH  12  13
ATOM     13  C   UNL     1       5.313   4.062   2.896  1.00  0.00     0.031 A 
ATOM     14  C   UNL     1       5.847   3.682   4.252  1.00  0.00     0.074 A 
ATOM     15  C   UNL     1       5.586   5.278   2.383  1.00  0.00     0.049 A 
ATOM     16  N   UNL     1       6.609   4.377   5.060  1.00  0.00    -0.248 NA
ATOM     17  C   UNL     1       5.475   2.357   4.775  1.00  0.00     0.031 C 
ATOM     18  C   UNL     1       5.120   5.770   1.084  1.00  0.00     0.029 A 
ATOM     19  N   UNL     1       6.346   6.309   2.874  1.00  0.00    -0.354 N 
ATOM     20  C   UNL     1       6.783   3.591   6.194  1.00  0.00     0.074 A 
ATOM     21  C   UNL     1       6.030   2.374   5.979  1.00  0.00     0.031 C 
ATOM     22  C   UNL     1       5.655   6.978   0.853  1.00  0.00     0.029 A 
ATOM     23  C   UNL     1       6.455   7.371   2.007  1.00  0.00     0.049 A 
ATOM     24  H   UNL     1       6.773   6.291   3.761  1.00  0.00     0.167 HD
ATOM     25  C   UNL     1       7.506   3.855   7.309  1.00  0.00     0.031 A 
ATOM     26  C   UNL     1       7.125   8.534   2.123  1.00  0.00     0.031 A 
ATOM     27  C   UNL     1       8.267   5.060   7.516  1.00  0.00     0.049 A 
ATOM     28  C   UNL     1       7.921   8.800   3.367  1.00  0.00     0.074 A 
ATOM     29  C   UNL     1       9.063   5.400   8.596  1.00  0.00     0.029 A 
ATOM     30  N   UNL     1       8.327   6.122   6.626  1.00  0.00    -0.354 N 
ATOM     31  N   UNL     1       8.100   8.027   4.411  1.00  0.00    -0.248 NA
ATOM     32  C   UNL     1       8.612  10.094   3.444  1.00  0.00     0.031 C 
ATOM     33  C   UNL     1       9.570   6.687   8.379  1.00  0.00     0.029 A 
ATOM     34  C   UNL     1       9.131   7.126   7.140  1.00  0.00     0.049 A 
ATOM     35  H   UNL     1       7.866   6.157   5.757  1.00  0.00     0.167 HD
ATOM     36  C   UNL     1       8.944   8.731   5.260  1.00  0.00     0.074 A 
ATOM     37  C   UNL     1       9.251   9.985   4.601  1.00  0.00     0.031 C 
ATOM     38  C   UNL     1       9.426   8.369   6.475  1.00  0.00     0.031 A 
BRANCH  25  39
ATOM     39  C   UNL     1       7.482   2.830   8.413  1.00  0.00    -0.014 A 
ATOM     40  C   UNL     1       8.160   1.604   8.290  1.00  0.00     0.010 A 
ATOM     41  C   UNL     1       6.795   3.115   9.608  1.00  0.00     0.010 A 
ATOM     42  C   UNL     1       8.113   0.663   9.324  1.00  0.00     0.020 A 
ATOM     43  C   UNL     1       6.767   2.188  10.653  1.00  0.00     0.020 A 
ATOM     44  C   UNL     1       7.410   0.959  10.496  1.00  0.00     0.054 A 
BRANCH  44  45
ATOM     45  S   UNL     1       7.370  -0.274  11.827  1.00  0.00     0.124 S 
ATOM     46  O   UNL     1       6.411  -1.244  11.306  1.00  0.00    -0.237 OA
ATOM     47  O   UNL     1       8.756  -0.729  11.887  1.00  0.00    -0.237 OA
ATOM     48  O   UNL     1       6.917   0.487  12.989  1.00  0.00    -0.744 OA
ENDBRANCH  44  45
ENDBRANCH  25  39
BRANCH  26  49
ATOM     49  C   UNL     1       7.080   9.523   1.013  1.00  0.00    -0.014 A 
ATOM     50  C   UNL     1       8.213   9.746   0.212  1.00  0.00     0.010 A 
ATOM     51  C   UNL     1       5.893  10.223   0.734  1.00  0.00     0.010 A 
ATOM     52  C   UNL     1       8.162  10.662  -0.843  1.00  0.00     0.020 A 
ATOM     53  C   UNL     1       5.831  11.119  -0.337  1.00  0.00     0.020 A 
ATOM     54  C   UNL     1       6.970  11.340  -1.112  1.00  0.00     0.054 A 
BRANCH  54  55
ATOM     55  S   UNL     1       6.906  12.476  -2.526  1.00  0.00     0.124 S 
ATOM     56  O   UNL     1       7.615  13.642  -2.010  1.00  0.00    -0.237 OA
ATOM     57  O   UNL     1       7.599  11.723  -3.569  1.00  0.00    -0.237 OA
ATOM     58  O   UNL     1       5.474  12.659  -2.750  1.00  0.00    -0.744 OA
ENDBRANCH  54  55
ENDBRANCH  26  49
BRANCH  38  59
ATOM     59  C   UNL     1      10.367   9.327   7.152  1.00  0.00    -0.014 A 
ATOM     60  C   UNL     1       9.906  10.527   7.722  1.00  0.00     0.010 A 
ATOM     61  C   UNL     1      11.734   9.005   7.242  1.00  0.00     0.010 A 
ATOM     62  C   UNL     1      10.802  11.407   8.334  1.00  0.00     0.020 A 
ATOM     63  C   UNL     1      12.629   9.871   7.874  1.00  0.00     0.020 A 
ATOM     64  C   UNL     1      12.159  11.076   8.400  1.00  0.00     0.054 A 
BRANCH  64  65
ATOM     65  S   UNL     1      13.303  12.222   9.218  1.00  0.00     0.124 S 
ATOM     66  O   UNL     1      13.474  13.256   8.202  1.00  0.00    -0.237 OA
ATOM     67  O   UNL     1      12.559  12.627  10.408  1.00  0.00    -0.237 OA
ATOM     68  O   UNL     1      14.484  11.403   9.480  1.00  0.00    -0.744 OA
ENDBRANCH  64  65
ENDBRANCH  38  59
ENDBRANCH  12  13
ENDBRANCH   5   7
ENDBRANCH   2   3
ENDBRANCH   1   2
BRANCH   1  69
ATOM     69  C   UNL     1       4.181  -3.752  -0.929  1.00  0.00     0.118 C 
BRANCH  69  70
ATOM     70  N   UNL     1       4.948  -3.957  -2.153  1.00  0.00    -0.349 N 
ATOM     71  C   UNL     1       5.978  -4.834  -2.394  1.00  0.00     0.288 C 
ATOM     72  H   UNL     1       4.691  -3.387  -2.913  1.00  0.00     0.163 HD
ATOM     73  O   UNL     1       6.649  -4.668  -3.421  1.00  0.00    -0.266 OA
BRANCH  71  74
ATOM     74  C   UNL     1       6.260  -5.901  -1.471  1.00  0.00     0.216 A 
ATOM     75  N   UNL     1       5.430  -6.432  -0.596  1.00  0.00    -0.185 NA
ATOM     76  N   UNL     1       7.444  -6.574  -1.404  1.00  0.00    -0.253 N 
ATOM     77  C   UNL     1       6.181  -7.389   0.018  1.00  0.00     0.268 A 
ATOM     78  N   UNL     1       7.422  -7.520  -0.450  1.00  0.00    -0.132 NA
ATOM     79  H   UNL     1       8.220  -6.389  -1.982  1.00  0.00     0.192 HD
BRANCH  77  80
ATOM     80  N   UNL     1       5.762  -8.143   1.109  1.00  0.00    -0.218 NA
ATOM     81  C   UNL     1       4.495  -8.391   1.048  1.00  0.00     0.123 C 
BRANCH  81  82
ATOM     82  C   UNL     1       3.797  -9.095   2.140  1.00  0.00    -0.000 A 
ATOM     83  C   UNL     1       2.543  -9.660   1.878  1.00  0.00     0.010 A 
ATOM     84  C   UNL     1       4.365  -9.172   3.414  1.00  0.00     0.095 A 
ATOM     85  C   UNL     1       1.856 -10.329   2.892  1.00  0.00     0.008 A 
ATOM     86  C   UNL     1       3.662  -9.833   4.427  1.00  0.00     0.270 A 
ATOM     87  C   UNL     1       2.412 -10.418   4.170  1.00  0.00     0.085 A 
BRANCH  86  88
ATOM     88  N   UNL     1       4.236  -9.919   5.776  1.00  0.00     0.062 N 
ATOM     89  O   UNL     1       3.641 -10.620   6.607  1.00  0.00    -0.258 OA
ATOM     90  O   UNL     1       5.282  -9.297   5.999  1.00  0.00    -0.258 OA
ENDBRANCH  86  88
ENDBRANCH  81  82
ENDBRANCH  77  80
ENDBRANCH  71  74
ENDBRANCH  69  70
ENDBRANCH   1  69
TORSDOF 16
