REMARK SMILES CC(C)[C@@](C)(CC(=O)NC[C@@H]1C[N@@H+](C)CCO1)C(=O)NCCCNC(=O)c1ccc(-c2c3nc(c(-c4ccc(S(=O)(=O)[O-])cc4)c4ccc([nH]4)c(-c4ccc(S(=O)(=O)[O-])cc4)c4nc(c(-c5ccc(S(=O)(=O)[O-])cc5)c5ccc2[nH]5)C=C4)C=C3)cc1
REMARK SMILES IDX 21 1 20 2 18 3 19 4 4 6 5 7 2 8 1 9 3 10 6 11 7 12 8 13 9 14
REMARK SMILES IDX 10 16 11 17 12 18 17 19 13 20 16 21 14 22 15 23 22 25 23 26
REMARK SMILES IDX 24 27 25 28 26 30 27 31 28 32 86 33 29 34 85 35 30 36 31 37
REMARK SMILES IDX 32 38 79 39 33 40 84 41 78 42 80 43 34 44 83 45 77 46 76 47
REMARK SMILES IDX 35 49 65 50 46 51 64 52 47 53 50 54 63 55 81 56 48 57 49 58
REMARK SMILES IDX 62 60 82 61 51 62 36 63 37 64 45 65 38 66 44 67 39 68 40 69
REMARK SMILES IDX 41 70 42 71 43 72 66 73 67 74 75 75 68 76 74 77 69 78 70 79
REMARK SMILES IDX 71 80 72 81 73 82 52 83 53 84 61 85 54 86 60 87 55 88 56 89
REMARK SMILES IDX 57 90 58 91 59 92
REMARK H PARENT 20 5 9 15 13 24 24 29 80 48 50 59
REMARK Flexibility Score: inf
ROOT
ATOM      1  C   UNL     1      -5.106   1.320   0.798  1.00  0.00     0.117 C 
ENDROOT
BRANCH   1   2
ATOM      2  N   UNL     1      -3.868   0.804   0.243  1.00  0.00    -0.356 N 
ATOM      3  C   UNL     1      -2.853   1.701   0.021  1.00  0.00     0.226 C 
ATOM      4  O   UNL     1      -2.970   2.510  -0.895  1.00  0.00    -0.274 OA
ATOM      5  H   UNL     1      -3.760  -0.152   0.034  1.00  0.00     0.163 HD
BRANCH   3   6
ATOM      6  C   UNL     1      -1.560   1.550   0.836  1.00  0.00     0.057 C 
ATOM      7  C   UNL     1      -1.843   0.710   2.109  1.00  0.00     0.022 C 
BRANCH   6   8
ATOM      8  C   UNL     1      -0.496   0.891  -0.079  1.00  0.00    -0.002 C 
ATOM      9  C   UNL     1      -0.594  -0.629  -0.238  1.00  0.00     0.008 C 
ATOM     10  C   UNL     1      -0.407   1.560  -1.463  1.00  0.00     0.008 C 
ENDBRANCH   6   8
BRANCH   6  11
ATOM     11  C   UNL     1      -1.113   2.961   1.359  1.00  0.00     0.116 C 
BRANCH  11  12
ATOM     12  C   UNL     1      -0.314   3.928   0.484  1.00  0.00     0.221 C 
ATOM     13  O   UNL     1      -0.871   4.908  -0.020  1.00  0.00    -0.275 OA
ATOM     14  N   UNL     1       1.031   3.820   0.263  1.00  0.00    -0.353 N 
ATOM     15  H   UNL     1       1.368   4.426  -0.435  1.00  0.00     0.163 HD
BRANCH  14  16
ATOM     16  C   UNL     1       2.065   2.981   0.861  1.00  0.00     0.153 C 
BRANCH  16  17
ATOM     17  C   UNL     1       3.276   2.574  -0.049  1.00  0.00     0.192 C 
ATOM     18  C   UNL     1       3.059   2.067  -1.504  1.00  0.00     0.296 C 
ATOM     19  O   UNL     1       4.127   1.630   0.653  1.00  0.00    -0.365 OA
ATOM     20  N   UNL     1       2.537   0.691  -1.571  1.00  0.00    -0.333 N 
ATOM     21  C   UNL     1       3.613   0.287   0.601  1.00  0.00     0.222 C 
ATOM     22  C   UNL     1       2.269   0.232  -2.932  1.00  0.00     0.332 C 
ATOM     23  C   UNL     1       3.413  -0.219  -0.835  1.00  0.00     0.290 C 
ATOM     24  H   UNL     1       1.624   0.693  -1.117  1.00  0.00     0.348 HD
ENDBRANCH  16  17
ENDBRANCH  14  16
ENDBRANCH  11  12
ENDBRANCH   6  11
ENDBRANCH   3   6
ENDBRANCH   1   2
BRANCH   1  25
ATOM     25  C   UNL     1      -5.661   2.539   0.062  1.00  0.00     0.042 C 
BRANCH  25  26
ATOM     26  C   UNL     1      -5.843   2.340  -1.441  1.00  0.00     0.118 C 
BRANCH  26  27
ATOM     27  N   UNL     1      -6.737   1.238  -1.756  1.00  0.00    -0.352 N 
ATOM     28  C   UNL     1      -8.080   1.257  -2.024  1.00  0.00     0.251 C 
ATOM     29  H   UNL     1      -6.315   0.348  -1.780  1.00  0.00     0.163 HD
ATOM     30  O   UNL     1      -8.717   0.212  -2.051  1.00  0.00    -0.269 OA
BRANCH  28  31
ATOM     31  C   UNL     1      -8.747   2.554  -2.246  1.00  0.00     0.039 A 
ATOM     32  C   UNL     1      -9.927   2.831  -1.557  1.00  0.00     0.014 A 
ATOM     33  C   UNL     1      -8.197   3.495  -3.120  1.00  0.00     0.014 A 
ATOM     34  C   UNL     1     -10.526   4.082  -1.702  1.00  0.00     0.010 A 
ATOM     35  C   UNL     1      -8.740   4.771  -3.188  1.00  0.00     0.010 A 
ATOM     36  C   UNL     1      -9.918   5.074  -2.491  1.00  0.00    -0.014 A 
BRANCH  36  37
ATOM     37  C   UNL     1     -10.508   6.429  -2.613  1.00  0.00     0.031 A 
ATOM     38  C   UNL     1     -10.973   6.925  -3.956  1.00  0.00     0.074 A 
ATOM     39  C   UNL     1     -10.567   7.229  -1.530  1.00  0.00     0.049 A 
ATOM     40  N   UNL     1     -11.460   8.096  -4.277  1.00  0.00    -0.248 NA
ATOM     41  C   UNL     1     -10.851   5.995  -5.092  1.00  0.00     0.031 C 
ATOM     42  C   UNL     1     -10.099   6.877  -0.187  1.00  0.00     0.029 A 
ATOM     43  N   UNL     1     -11.040   8.509  -1.390  1.00  0.00    -0.354 N 
ATOM     44  C   UNL     1     -11.677   8.050  -5.650  1.00  0.00     0.074 A 
ATOM     45  C   UNL     1     -11.226   6.756  -6.109  1.00  0.00     0.031 C 
ATOM     46  C   UNL     1     -10.337   7.904   0.646  1.00  0.00     0.029 A 
ATOM     47  C   UNL     1     -10.933   9.000  -0.110  1.00  0.00     0.049 A 
ATOM     48  H   UNL     1     -11.421   9.028  -2.135  1.00  0.00     0.167 HD
ATOM     49  C   UNL     1     -12.223   8.994  -6.452  1.00  0.00     0.031 A 
ATOM     50  C   UNL     1     -11.271  10.202   0.397  1.00  0.00     0.031 A 
ATOM     51  C   UNL     1     -12.693  10.270  -5.984  1.00  0.00     0.049 A 
ATOM     52  C   UNL     1     -11.886  11.229  -0.514  1.00  0.00     0.074 A 
ATOM     53  C   UNL     1     -13.322  11.270  -6.702  1.00  0.00     0.029 A 
ATOM     54  N   UNL     1     -12.588  10.719  -4.676  1.00  0.00    -0.354 N 
ATOM     55  N   UNL     1     -12.149  11.140  -1.797  1.00  0.00    -0.248 NA
ATOM     56  C   UNL     1     -12.261  12.513   0.092  1.00  0.00     0.031 C 
ATOM     57  C   UNL     1     -13.557  12.345  -5.839  1.00  0.00     0.029 A 
ATOM     58  C   UNL     1     -13.124  11.991  -4.571  1.00  0.00     0.049 A 
ATOM     59  H   UNL     1     -12.191  10.210  -3.933  1.00  0.00     0.167 HD
ATOM     60  C   UNL     1     -12.746  12.347  -2.144  1.00  0.00     0.074 A 
ATOM     61  C   UNL     1     -12.819  13.140  -0.934  1.00  0.00     0.031 C 
ATOM     62  C   UNL     1     -13.192  12.761  -3.355  1.00  0.00     0.031 A 
BRANCH  49  63
ATOM     63  C   UNL     1     -12.347   8.680  -7.919  1.00  0.00    -0.014 A 
ATOM     64  C   UNL     1     -13.273   7.727  -8.382  1.00  0.00     0.010 A 
ATOM     65  C   UNL     1     -11.566   9.384  -8.854  1.00  0.00     0.010 A 
ATOM     66  C   UNL     1     -13.392   7.460  -9.748  1.00  0.00     0.020 A 
ATOM     67  C   UNL     1     -11.702   9.140 -10.224  1.00  0.00     0.020 A 
ATOM     68  C   UNL     1     -12.606   8.170 -10.661  1.00  0.00     0.054 A 
BRANCH  68  69
ATOM     69  S   UNL     1     -12.815   7.833 -12.431  1.00  0.00     0.124 S 
ATOM     70  O   UNL     1     -12.177   6.526 -12.567  1.00  0.00    -0.237 OA
ATOM     71  O   UNL     1     -14.267   7.843 -12.591  1.00  0.00    -0.237 OA
ATOM     72  O   UNL     1     -12.113   8.938 -13.080  1.00  0.00    -0.744 OA
ENDBRANCH  68  69
ENDBRANCH  49  63
BRANCH  50  73
ATOM     73  C   UNL     1     -11.050  10.494   1.839  1.00  0.00    -0.014 A 
ATOM     74  C   UNL     1     -12.141  10.616   2.718  1.00  0.00     0.010 A 
ATOM     75  C   UNL     1      -9.746  10.653   2.343  1.00  0.00     0.010 A 
ATOM     76  C   UNL     1     -11.934  10.918   4.067  1.00  0.00     0.020 A 
ATOM     77  C   UNL     1      -9.534  10.926   3.698  1.00  0.00     0.020 A 
ATOM     78  C   UNL     1     -10.631  11.072   4.549  1.00  0.00     0.054 A 
BRANCH  78  79
ATOM     79  S   UNL     1     -10.385  11.428   6.311  1.00  0.00     0.124 S 
ATOM     80  O   UNL     1     -10.771  12.833   6.393  1.00  0.00    -0.237 OA
ATOM     81  O   UNL     1     -11.293  10.483   6.955  1.00  0.00    -0.237 OA
ATOM     82  O   UNL     1      -8.965  11.154   6.519  1.00  0.00    -0.744 OA
ENDBRANCH  78  79
ENDBRANCH  50  73
BRANCH  62  83
ATOM     83  C   UNL     1     -13.836  14.119  -3.426  1.00  0.00    -0.014 A 
ATOM     84  C   UNL     1     -13.070  15.294  -3.335  1.00  0.00     0.010 A 
ATOM     85  C   UNL     1     -15.222  14.217  -3.645  1.00  0.00     0.010 A 
ATOM     86  C   UNL     1     -13.685  16.545  -3.429  1.00  0.00     0.020 A 
ATOM     87  C   UNL     1     -15.836  15.465  -3.768  1.00  0.00     0.020 A 
ATOM     88  C   UNL     1     -15.065  16.622  -3.645  1.00  0.00     0.054 A 
BRANCH  88  89
ATOM     89  S   UNL     1     -15.833  18.257  -3.809  1.00  0.00     0.124 S 
ATOM     90  O   UNL     1     -15.840  18.729  -2.427  1.00  0.00    -0.237 OA
ATOM     91  O   UNL     1     -14.916  18.954  -4.707  1.00  0.00    -0.237 OA
ATOM     92  O   UNL     1     -17.149  17.966  -4.374  1.00  0.00    -0.744 OA
ENDBRANCH  88  89
ENDBRANCH  62  83
ENDBRANCH  36  37
ENDBRANCH  28  31
ENDBRANCH  26  27
ENDBRANCH  25  26
ENDBRANCH   1  25
TORSDOF 18
