REMARK SMILES Cn1cc([C@@H]2CC(NCCCNC(=O)c3ccc(-c4c5nc(c(-c6ccc(S(=O)(=O)[O-])cc6)c6ccc([nH]6)c(-c6ccc(S(=O)(=O)[O-])cc6)c6nc(c(-c7ccc(S(=O)(=O)[O-])cc7)c7ccc4[nH]7)C=C6)C=C5)cc3)=[NH+]c3c2sc(C(=O)[O-])c3-c2ccc(Cl)cc2)cn1
REMARK SMILES IDX 12 1 13 2 14 3 11 5 10 6 9 7 8 8 5 9 6 10 77 11 7 12 76 13
REMARK SMILES IDX 78 14 75 15 83 16 79 17 4 20 1 21 2 22 3 23 92 24 91 25
REMARK SMILES IDX 84 26 85 27 90 28 86 29 89 30 87 31 88 32 80 33 81 34 82 35
REMARK SMILES IDX 15 36 16 37 74 38 17 39 73 40 18 41 19 42 20 43 67 44 21 45
REMARK SMILES IDX 72 46 66 47 68 48 22 49 71 50 65 51 64 52 23 54 53 55 34 56
REMARK SMILES IDX 52 57 35 58 38 59 51 60 69 61 36 62 37 63 50 65 70 66 39 67
REMARK SMILES IDX 24 68 25 69 33 70 26 71 32 72 27 73 28 74 29 75 30 76 31 77
REMARK SMILES IDX 54 78 55 79 63 80 56 81 62 82 57 83 58 84 59 85 60 86 61 87
REMARK SMILES IDX 40 88 41 89 49 90 42 91 48 92 43 93 44 94 45 95 46 96 47 97
REMARK H PARENT 12 4 8 18 75 19 68 53 38 64
REMARK Flexibility Score: inf
ROOT
ATOM      1  N   UNL     1       3.885  -7.790  -4.001  1.00  0.00    -0.352 N 
ATOM      2  C   UNL     1       4.151  -7.983  -5.346  1.00  0.00     0.251 C 
ATOM      3  O   UNL     1       5.017  -8.770  -5.709  1.00  0.00    -0.269 OA
ATOM      4  H   UNL     1       4.586  -8.090  -3.378  1.00  0.00     0.163 HD
ENDROOT
BRANCH   1   5
ATOM      5  C   UNL     1       2.692  -7.195  -3.384  1.00  0.00     0.120 C 
BRANCH   5   6
ATOM      6  C   UNL     1       2.792  -7.075  -1.873  1.00  0.00     0.067 C 
BRANCH   6   7
ATOM      7  C   UNL     1       3.870  -6.086  -1.432  1.00  0.00     0.235 C 
BRANCH   7   8
ATOM      8  N   UNL     1       3.467  -4.699  -1.637  1.00  0.00    -0.278 N 
ATOM      9  C   UNL     1       2.641  -1.395   0.183  1.00  0.00     0.079 C 
ATOM     10  C   UNL     1       2.932  -2.369  -0.973  1.00  0.00     0.142 C 
ATOM     11  C   UNL     1       2.648  -2.110   1.492  1.00  0.00     0.061 A 
ATOM     12  C   UNL     1       3.144  -3.842  -0.600  1.00  0.00     0.248 C 
ATOM     13  C   UNL     1       2.827  -3.449   1.649  1.00  0.00     0.147 A 
ATOM     14  S   UNL     1       2.452  -1.339   2.996  1.00  0.00    -0.133 S 
ATOM     15  N   UNL     1       3.070  -4.331   0.603  1.00  0.00    -0.243 N 
ATOM     16  C   UNL     1       2.779  -3.896   3.005  1.00  0.00     0.049 A 
ATOM     17  C   UNL     1       2.563  -2.829   3.871  1.00  0.00     0.062 A 
ATOM     18  H   UNL     1       3.421  -4.356  -2.558  1.00  0.00     0.304 HD
ATOM     19  H   UNL     1       3.182  -5.295   0.767  1.00  0.00     0.312 HD
BRANCH   9  20
ATOM     20  C   UNL     1       1.365  -0.625  -0.009  1.00  0.00    -0.001 A 
ATOM     21  C   UNL     1      -2.181   0.028  -0.185  1.00  0.00     0.173 C 
ATOM     22  N   UNL     1      -0.739   0.004  -0.157  1.00  0.00    -0.276 N 
ATOM     23  C   UNL     1       0.067  -1.095  -0.085  1.00  0.00     0.112 A 
ATOM     24  N   UNL     1      -0.058   1.162  -0.141  1.00  0.00    -0.182 NA
ATOM     25  C   UNL     1       1.217   0.782  -0.072  1.00  0.00     0.139 A 
ENDBRANCH   9  20
BRANCH  16  26
ATOM     26  C   UNL     1       2.984  -5.279   3.426  1.00  0.00    -0.012 A 
ATOM     27  C   UNL     1       1.962  -6.011   4.043  1.00  0.00     0.010 A 
ATOM     28  C   UNL     1       4.213  -5.901   3.161  1.00  0.00     0.010 A 
ATOM     29  C   UNL     1       2.189  -7.330   4.444  1.00  0.00     0.021 A 
ATOM     30  C   UNL     1       4.436  -7.223   3.547  1.00  0.00     0.021 A 
ATOM     31  C   UNL     1       3.426  -7.927   4.200  1.00  0.00     0.041 A 
ATOM     32  Cl  UNL     1       3.711  -9.545   4.713  1.00  0.00    -0.084 Cl
ENDBRANCH  16  26
BRANCH  17  33
ATOM     33  C   UNL     1       2.445  -2.730   5.315  1.00  0.00     0.082 C 
ATOM     34  O   UNL     1       2.144  -1.766   5.990  1.00  0.00    -0.544 OA
ATOM     35  O   UNL     1       2.731  -3.893   5.948  1.00  0.00    -0.544 OA
ENDBRANCH  17  33
ENDBRANCH   7   8
ENDBRANCH   6   7
ENDBRANCH   5   6
ENDBRANCH   1   5
BRANCH   2  36
ATOM     36  C   UNL     1       3.364  -7.220  -6.331  1.00  0.00     0.039 A 
ATOM     37  C   UNL     1       2.858  -7.802  -7.496  1.00  0.00     0.014 A 
ATOM     38  C   UNL     1       3.078  -5.898  -6.015  1.00  0.00     0.014 A 
ATOM     39  C   UNL     1       1.977  -7.062  -8.285  1.00  0.00     0.010 A 
ATOM     40  C   UNL     1       2.063  -5.257  -6.669  1.00  0.00     0.010 A 
ATOM     41  C   UNL     1       1.563  -5.795  -7.848  1.00  0.00    -0.014 A 
BRANCH  41  42
ATOM     42  C   UNL     1       0.544  -5.026  -8.556  1.00  0.00     0.031 A 
ATOM     43  C   UNL     1      -0.758  -5.721  -8.724  1.00  0.00     0.074 A 
ATOM     44  C   UNL     1       0.673  -3.702  -8.798  1.00  0.00     0.049 A 
ATOM     45  N   UNL     1      -1.266  -6.198  -9.811  1.00  0.00    -0.248 NA
ATOM     46  C   UNL     1      -1.530  -6.053  -7.513  1.00  0.00     0.031 C 
ATOM     47  C   UNL     1       1.760  -2.809  -8.358  1.00  0.00     0.029 A 
ATOM     48  N   UNL     1      -0.203  -2.835  -9.375  1.00  0.00    -0.354 N 
ATOM     49  C   UNL     1      -2.531  -6.665  -9.464  1.00  0.00     0.074 A 
ATOM     50  C   UNL     1      -2.546  -6.751  -8.026  1.00  0.00     0.031 C 
ATOM     51  C   UNL     1       1.361  -1.523  -8.453  1.00  0.00     0.029 A 
ATOM     52  C   UNL     1       0.096  -1.494  -9.159  1.00  0.00     0.049 A 
ATOM     53  H   UNL     1      -0.981  -3.132  -9.899  1.00  0.00     0.167 HD
ATOM     54  C   UNL     1      -3.558  -6.657 -10.361  1.00  0.00     0.031 A 
ATOM     55  C   UNL     1      -0.632  -0.421  -9.546  1.00  0.00     0.031 A 
ATOM     56  C   UNL     1      -3.087  -6.327 -11.681  1.00  0.00     0.049 A 
ATOM     57  C   UNL     1      -1.493  -0.863 -10.664  1.00  0.00     0.074 A 
ATOM     58  C   UNL     1      -2.368  -6.952 -12.674  1.00  0.00     0.029 A 
ATOM     59  N   UNL     1      -3.053  -4.977 -11.934  1.00  0.00    -0.354 N 
ATOM     60  N   UNL     1      -1.017  -1.284 -11.804  1.00  0.00    -0.248 NA
ATOM     61  C   UNL     1      -2.887  -1.198 -10.410  1.00  0.00     0.031 C 
ATOM     62  C   UNL     1      -1.696  -5.911 -13.381  1.00  0.00     0.029 A 
ATOM     63  C   UNL     1      -2.062  -4.681 -12.833  1.00  0.00     0.049 A 
ATOM     64  H   UNL     1      -3.657  -4.315 -11.527  1.00  0.00     0.167 HD
ATOM     65  C   UNL     1      -1.891  -2.279 -12.198  1.00  0.00     0.074 A 
ATOM     66  C   UNL     1      -3.096  -2.062 -11.408  1.00  0.00     0.031 C 
ATOM     67  C   UNL     1      -1.452  -3.365 -12.898  1.00  0.00     0.031 A 
BRANCH  54  68
ATOM     68  C   UNL     1      -5.017  -6.459 -10.002  1.00  0.00    -0.014 A 
ATOM     69  C   UNL     1      -5.980  -6.505 -11.033  1.00  0.00     0.010 A 
ATOM     70  C   UNL     1      -5.445  -5.953  -8.758  1.00  0.00     0.010 A 
ATOM     71  C   UNL     1      -7.282  -6.019 -10.843  1.00  0.00     0.020 A 
ATOM     72  C   UNL     1      -6.751  -5.502  -8.547  1.00  0.00     0.020 A 
ATOM     73  C   UNL     1      -7.654  -5.509  -9.600  1.00  0.00     0.054 A 
BRANCH  73  74
ATOM     74  S   UNL     1      -9.305  -4.797  -9.386  1.00  0.00     0.124 S 
ATOM     75  O   UNL     1      -9.247  -3.631 -10.263  1.00  0.00    -0.237 OA
ATOM     76  O   UNL     1     -10.171  -5.885  -9.831  1.00  0.00    -0.237 OA
ATOM     77  O   UNL     1      -9.366  -4.503  -7.956  1.00  0.00    -0.744 OA
ENDBRANCH  73  74
ENDBRANCH  54  68
BRANCH  55  78
ATOM     78  C   UNL     1      -0.787   0.888  -8.874  1.00  0.00    -0.014 A 
ATOM     79  C   UNL     1      -1.217   2.023  -9.583  1.00  0.00     0.010 A 
ATOM     80  C   UNL     1      -0.789   0.947  -7.465  1.00  0.00     0.010 A 
ATOM     81  C   UNL     1      -1.699   3.155  -8.905  1.00  0.00     0.020 A 
ATOM     82  C   UNL     1      -1.268   2.073  -6.783  1.00  0.00     0.020 A 
ATOM     83  C   UNL     1      -1.744   3.163  -7.508  1.00  0.00     0.054 A 
BRANCH  83  84
ATOM     84  S   UNL     1      -2.546   4.553  -6.652  1.00  0.00     0.124 S 
ATOM     85  O   UNL     1      -1.592   5.638  -6.862  1.00  0.00    -0.237 OA
ATOM     86  O   UNL     1      -3.812   4.678  -7.368  1.00  0.00    -0.237 OA
ATOM     87  O   UNL     1      -2.663   4.085  -5.272  1.00  0.00    -0.744 OA
ENDBRANCH  83  84
ENDBRANCH  55  78
BRANCH  67  88
ATOM     88  C   UNL     1      -0.162  -3.235 -13.666  1.00  0.00    -0.014 A 
ATOM     89  C   UNL     1       1.103  -3.055 -13.077  1.00  0.00     0.010 A 
ATOM     90  C   UNL     1      -0.240  -3.396 -15.060  1.00  0.00     0.010 A 
ATOM     91  C   UNL     1       2.260  -3.017 -13.873  1.00  0.00     0.020 A 
ATOM     92  C   UNL     1       0.907  -3.378 -15.854  1.00  0.00     0.020 A 
ATOM     93  C   UNL     1       2.152  -3.179 -15.259  1.00  0.00     0.054 A 
BRANCH  93  94
ATOM     94  S   UNL     1       3.649  -3.163 -16.285  1.00  0.00     0.124 S 
ATOM     95  O   UNL     1       4.081  -1.772 -16.195  1.00  0.00    -0.237 OA
ATOM     96  O   UNL     1       4.511  -4.135 -15.616  1.00  0.00    -0.237 OA
ATOM     97  O   UNL     1       3.171  -3.578 -17.604  1.00  0.00    -0.744 OA
ENDBRANCH  93  94
ENDBRANCH  67  88
ENDBRANCH  41  42
ENDBRANCH   2  36
TORSDOF 15
