REMARK SMILES NS(=O)(=O)c1ccc(-n2nc(NC(=O)NCCCC(=O)NCCCNC(=O)c3ccc(-c4c5nc(c(-c6ccc(S(=O)(=O)[O-])cc6)c6ccc([nH]6)c(-c6ccc(S(=O)(=O)[O-])cc6)c6nc(c(-c7ccc(S(=O)(=O)[O-])cc7)c7ccc4[nH]7)C=C6)C=C5)cc3)cc2-c2ccccc2)cc1
REMARK SMILES IDX 19 1 20 2 21 3 18 5 17 6 16 7 15 8 12 9 13 10 14 12 11 14
REMARK SMILES IDX 9 15 10 16 89 17 88 18 8 19 5 20 6 21 97 22 7 23 96 24 2 25
REMARK SMILES IDX 3 26 4 27 1 28 90 31 91 32 95 33 92 34 94 35 93 36 22 37
REMARK SMILES IDX 23 38 24 39 25 40 26 41 27 43 28 44 29 45 87 46 30 47 86 48
REMARK SMILES IDX 31 49 32 50 33 51 80 52 34 53 85 54 79 55 81 56 35 57 84 58
REMARK SMILES IDX 78 59 77 60 36 62 66 63 47 64 65 65 48 66 51 67 64 68 82 69
REMARK SMILES IDX 49 70 50 71 63 73 83 74 52 75 37 76 38 77 46 78 39 79 45 80
REMARK SMILES IDX 40 81 41 82 42 83 43 84 44 85 67 86 68 87 76 88 69 89 75 90
REMARK SMILES IDX 70 91 71 92 72 93 73 94 74 95 53 96 54 97 62 98 55 99 61 100
REMARK SMILES IDX 56 101 57 102 58 103 59 104 60 105
REMARK H PARENT 21 4 12 11 15 13 1 29 1 30 25 42 81 61 51 72
REMARK Flexibility Score: inf
ROOT
ATOM      1  C   UNL     1      -1.676  -0.747   7.897  1.00  0.00     0.220 C 
ATOM      2  O   UNL     1      -1.826   0.053   6.972  1.00  0.00    -0.275 OA
ATOM      3  N   UNL     1      -0.652  -0.539   8.770  1.00  0.00    -0.356 N 
ATOM      4  H   UNL     1      -0.158   0.301   8.625  1.00  0.00     0.163 HD
ENDROOT
BRANCH   1   5
ATOM      5  C   UNL     1      -2.623  -1.921   8.061  1.00  0.00     0.102 C 
BRANCH   5   6
ATOM      6  C   UNL     1      -2.378  -3.053   7.062  1.00  0.00     0.031 C 
BRANCH   6   7
ATOM      7  C   UNL     1      -1.044  -3.766   7.239  1.00  0.00     0.118 C 
BRANCH   7   8
ATOM      8  N   UNL     1      -0.876  -4.425   8.525  1.00  0.00    -0.338 N 
ATOM      9  N   UNL     1       1.113  -5.729   8.279  1.00  0.00    -0.291 N 
ATOM     10  C   UNL     1       0.058  -5.280   8.990  1.00  0.00     0.320 C 
ATOM     11  H   UNL     1       1.515  -6.554   8.634  1.00  0.00     0.173 HD
ATOM     12  O   UNL     1      -0.131  -5.755  10.117  1.00  0.00    -0.248 OA
ATOM     13  H   UNL     1      -1.577  -4.204   9.181  1.00  0.00     0.165 HD
BRANCH   9  14
ATOM     14  C   UNL     1       1.728  -5.246   7.151  1.00  0.00     0.157 A 
ATOM     15  N   UNL     1       2.095  -3.998   5.482  1.00  0.00    -0.231 N 
ATOM     16  N   UNL     1       1.720  -3.974   6.773  1.00  0.00    -0.149 NA
ATOM     17  C   UNL     1       2.778  -5.172   5.190  1.00  0.00     0.076 A 
ATOM     18  C   UNL     1       2.530  -6.004   6.270  1.00  0.00     0.078 A 
BRANCH  15  19
ATOM     19  C   UNL     1       1.665  -2.957   4.618  1.00  0.00     0.065 A 
ATOM     20  C   UNL     1       0.800  -0.914   2.939  1.00  0.00     0.082 A 
ATOM     21  C   UNL     1       0.842  -2.225   2.461  1.00  0.00     0.024 A 
ATOM     22  C   UNL     1       1.154  -0.619   4.259  1.00  0.00     0.024 A 
ATOM     23  C   UNL     1       1.283  -3.247   3.300  1.00  0.00     0.030 A 
ATOM     24  C   UNL     1       1.564  -1.647   5.109  1.00  0.00     0.030 A 
BRANCH  20  25
ATOM     25  S   UNL     1       0.316   0.392   1.847  1.00  0.00     0.238 S 
ATOM     26  O   UNL     1       0.889   1.632   2.337  1.00  0.00    -0.207 OA
ATOM     27  O   UNL     1      -1.075   0.225   1.541  1.00  0.00    -0.207 OA
BRANCH  25  28
ATOM     28  N   UNL     1       1.166   0.035   0.437  1.00  0.00    -0.225 NA
ATOM     29  H   UNL     1       0.957   0.737  -0.273  1.00  0.00     0.137 HD
ATOM     30  H   UNL     1       0.889  -0.886   0.097  1.00  0.00     0.137 HD
ENDBRANCH  25  28
ENDBRANCH  20  25
ENDBRANCH  15  19
BRANCH  17  31
ATOM     31  C   UNL     1       3.543  -5.372   3.966  1.00  0.00     0.000 A 
ATOM     32  C   UNL     1       4.480  -4.406   3.568  1.00  0.00     0.010 A 
ATOM     33  C   UNL     1       3.276  -6.457   3.125  1.00  0.00     0.010 A 
ATOM     34  C   UNL     1       5.098  -4.491   2.323  1.00  0.00     0.001 A 
ATOM     35  C   UNL     1       3.898  -6.540   1.878  1.00  0.00     0.001 A 
ATOM     36  C   UNL     1       4.798  -5.553   1.474  1.00  0.00     0.000 A 
ENDBRANCH  17  31
ENDBRANCH   9  14
ENDBRANCH   7   8
ENDBRANCH   6   7
ENDBRANCH   5   6
ENDBRANCH   1   5
BRANCH   3  37
ATOM     37  C   UNL     1      -0.159  -1.345   9.881  1.00  0.00     0.117 C 
BRANCH  37  38
ATOM     38  C   UNL     1       1.163  -2.042   9.555  1.00  0.00     0.042 C 
BRANCH  38  39
ATOM     39  C   UNL     1       2.375  -1.132   9.540  1.00  0.00     0.118 C 
BRANCH  39  40
ATOM     40  N   UNL     1       2.861  -0.827  10.879  1.00  0.00    -0.352 N 
ATOM     41  C   UNL     1       3.920  -0.016  11.232  1.00  0.00     0.251 C 
ATOM     42  H   UNL     1       2.374  -1.250  11.623  1.00  0.00     0.163 HD
ATOM     43  O   UNL     1       4.463  -0.161  12.323  1.00  0.00    -0.269 OA
BRANCH  41  44
ATOM     44  C   UNL     1       4.416   0.992  10.273  1.00  0.00     0.039 A 
ATOM     45  C   UNL     1       5.783   1.250  10.171  1.00  0.00     0.014 A 
ATOM     46  C   UNL     1       3.515   1.667   9.451  1.00  0.00     0.014 A 
ATOM     47  C   UNL     1       6.234   2.113   9.175  1.00  0.00     0.010 A 
ATOM     48  C   UNL     1       3.971   2.404   8.377  1.00  0.00     0.010 A 
ATOM     49  C   UNL     1       5.329   2.660   8.245  1.00  0.00    -0.014 A 
BRANCH  49  50
ATOM     50  C   UNL     1       5.837   3.400   7.087  1.00  0.00     0.031 A 
ATOM     51  C   UNL     1       6.995   2.764   6.406  1.00  0.00     0.074 A 
ATOM     52  C   UNL     1       5.288   4.504   6.537  1.00  0.00     0.049 A 
ATOM     53  N   UNL     1       8.238   3.087   6.539  1.00  0.00    -0.248 NA
ATOM     54  C   UNL     1       6.772   1.546   5.614  1.00  0.00     0.031 C 
ATOM     55  C   UNL     1       4.012   5.152   6.853  1.00  0.00     0.029 A 
ATOM     56  N   UNL     1       5.750   5.248   5.490  1.00  0.00    -0.354 N 
ATOM     57  C   UNL     1       8.937   2.278   5.654  1.00  0.00     0.074 A 
ATOM     58  C   UNL     1       8.024   1.228   5.271  1.00  0.00     0.031 C 
ATOM     59  C   UNL     1       3.698   6.038   5.881  1.00  0.00     0.029 A 
ATOM     60  C   UNL     1       4.832   6.161   4.986  1.00  0.00     0.049 A 
ATOM     61  H   UNL     1       6.658   5.147   5.123  1.00  0.00     0.167 HD
ATOM     62  C   UNL     1      10.111   2.694   5.101  1.00  0.00     0.031 A 
ATOM     63  C   UNL     1       4.993   6.978   3.917  1.00  0.00     0.031 A 
ATOM     64  C   UNL     1      10.636   3.859   5.775  1.00  0.00     0.049 A 
ATOM     65  C   UNL     1       6.448   7.173   3.734  1.00  0.00     0.074 A 
ATOM     66  C   UNL     1      10.978   4.171   7.076  1.00  0.00     0.029 A 
ATOM     67  N   UNL     1      10.492   5.063   5.123  1.00  0.00    -0.354 N 
ATOM     68  N   UNL     1       7.196   7.821   4.582  1.00  0.00    -0.248 NA
ATOM     69  C   UNL     1       7.164   6.322   2.799  1.00  0.00     0.031 C 
ATOM     70  C   UNL     1      10.571   5.528   7.253  1.00  0.00     0.029 A 
ATOM     71  C   UNL     1      10.069   5.993   6.036  1.00  0.00     0.049 A 
ATOM     72  H   UNL     1      10.664   5.227   4.168  1.00  0.00     0.167 HD
ATOM     73  C   UNL     1       8.398   7.133   4.591  1.00  0.00     0.074 A 
ATOM     74  C   UNL     1       8.365   6.313   3.383  1.00  0.00     0.031 C 
ATOM     75  C   UNL     1       9.174   7.088   5.715  1.00  0.00     0.031 A 
BRANCH  62  76
ATOM     76  C   UNL     1      10.542   2.337   3.696  1.00  0.00    -0.014 A 
ATOM     77  C   UNL     1      11.786   2.810   3.227  1.00  0.00     0.010 A 
ATOM     78  C   UNL     1       9.654   1.817   2.732  1.00  0.00     0.010 A 
ATOM     79  C   UNL     1      12.082   2.845   1.857  1.00  0.00     0.020 A 
ATOM     80  C   UNL     1       9.959   1.803   1.370  1.00  0.00     0.020 A 
ATOM     81  C   UNL     1      11.156   2.354   0.938  1.00  0.00     0.054 A 
BRANCH  81  82
ATOM     82  S   UNL     1      11.495   2.503  -0.833  1.00  0.00     0.124 S 
ATOM     83  O   UNL     1      11.419   3.946  -1.029  1.00  0.00    -0.237 OA
ATOM     84  O   UNL     1      12.826   1.914  -0.942  1.00  0.00    -0.237 OA
ATOM     85  O   UNL     1      10.423   1.725  -1.450  1.00  0.00    -0.744 OA
ENDBRANCH  81  82
ENDBRANCH  62  76
BRANCH  63  86
ATOM     86  C   UNL     1       3.993   7.422   2.918  1.00  0.00    -0.014 A 
ATOM     87  C   UNL     1       4.314   8.428   1.987  1.00  0.00     0.010 A 
ATOM     88  C   UNL     1       2.843   6.644   2.676  1.00  0.00     0.010 A 
ATOM     89  C   UNL     1       3.570   8.584   0.807  1.00  0.00     0.020 A 
ATOM     90  C   UNL     1       2.089   6.802   1.506  1.00  0.00     0.020 A 
ATOM     91  C   UNL     1       2.478   7.748   0.560  1.00  0.00     0.054 A 
BRANCH  91  92
ATOM     92  S   UNL     1       1.669   7.801  -1.067  1.00  0.00     0.124 S 
ATOM     93  O   UNL     1       0.941   9.065  -1.013  1.00  0.00    -0.237 OA
ATOM     94  O   UNL     1       2.803   7.765  -1.988  1.00  0.00    -0.237 OA
ATOM     95  O   UNL     1       0.834   6.601  -1.078  1.00  0.00    -0.744 OA
ENDBRANCH  91  92
ENDBRANCH  63  86
BRANCH  75  96
ATOM     96  C   UNL     1       8.936   8.119   6.798  1.00  0.00    -0.014 A 
ATOM     97  C   UNL     1       7.701   8.336   7.438  1.00  0.00     0.010 A 
ATOM     98  C   UNL     1      10.054   8.846   7.247  1.00  0.00     0.010 A 
ATOM     99  C   UNL     1       7.579   9.291   8.460  1.00  0.00     0.020 A 
ATOM    100  C   UNL     1       9.946   9.781   8.279  1.00  0.00     0.020 A 
ATOM    101  C   UNL     1       8.704  10.013   8.869  1.00  0.00     0.054 A 
BRANCH 101 102
ATOM    102  S   UNL     1       8.546  11.244  10.193  1.00  0.00     0.124 S 
ATOM    103  O   UNL     1       7.737  12.285   9.564  1.00  0.00    -0.237 OA
ATOM    104  O   UNL     1       7.887  10.493  11.259  1.00  0.00    -0.237 OA
ATOM    105  O   UNL     1       9.928  11.627  10.480  1.00  0.00    -0.744 OA
ENDBRANCH 101 102
ENDBRANCH  75  96
ENDBRANCH  49  50
ENDBRANCH  41  44
ENDBRANCH  39  40
ENDBRANCH  38  39
ENDBRANCH  37  38
ENDBRANCH   3  37
TORSDOF 21
