REMARK SMILES CC(C)C[C@H](CNC(=O)[C@]1([NH3+])CCC[C@@H](C)C1)C(=O)NCCCNC(=O)c1ccc(-c2c3nc(c(-c4ccc(S(=O)(=O)[O-])cc4)c4ccc([nH]4)c(-c4ccc(S(=O)(=O)[O-])cc4)c4nc(c(-c5ccc(S(=O)(=O)[O-])cc5)c5ccc2[nH]5)C=C4)C=C3)cc1
REMARK SMILES IDX 21 1 20 2 18 3 19 4 5 6 4 7 2 8 1 9 3 10 6 11 7 12 8 13 9 15
REMARK SMILES IDX 10 16 12 17 17 18 13 19 15 20 14 21 16 22 11 23 22 27 23 28
REMARK SMILES IDX 24 29 25 30 26 32 27 33 28 34 86 35 29 36 85 37 30 38 31 39
REMARK SMILES IDX 32 40 79 41 33 42 84 43 78 44 80 45 34 46 83 47 77 48 76 49
REMARK SMILES IDX 35 51 65 52 46 53 64 54 47 55 50 56 63 57 81 58 48 59 49 60
REMARK SMILES IDX 62 62 82 63 51 64 36 65 37 66 45 67 38 68 44 69 39 70 40 71
REMARK SMILES IDX 41 72 42 73 43 74 66 75 67 76 75 77 68 78 74 79 69 80 70 81
REMARK SMILES IDX 71 82 72 83 73 84 52 85 53 86 61 87 54 88 60 89 55 90 56 91
REMARK SMILES IDX 57 92 58 93 59 94
REMARK H PARENT 20 5 7 14 11 24 11 25 11 26 24 31 80 50 50 61
REMARK Flexibility Score: inf
ROOT
ATOM      1  C   UNL     1      -2.093   0.213  -8.222  1.00  0.00     0.117 C 
ENDROOT
BRANCH   1   2
ATOM      2  N   UNL     1      -2.916   1.346  -7.857  1.00  0.00    -0.356 N 
ATOM      3  C   UNL     1      -4.248   1.400  -7.570  1.00  0.00     0.224 C 
ATOM      4  O   UNL     1      -4.697   2.457  -7.122  1.00  0.00    -0.275 OA
ATOM      5  H   UNL     1      -2.442   2.208  -7.809  1.00  0.00     0.163 HD
BRANCH   3   6
ATOM      6  C   UNL     1      -5.178   0.215  -7.868  1.00  0.00     0.098 C 
BRANCH   6   7
ATOM      7  C   UNL     1      -4.878  -0.994  -6.933  1.00  0.00     0.018 C 
BRANCH   7   8
ATOM      8  C   UNL     1      -4.878  -2.476  -7.376  1.00  0.00    -0.017 C 
ATOM      9  C   UNL     1      -3.666  -2.944  -8.183  1.00  0.00     0.007 C 
ATOM     10  C   UNL     1      -4.913  -3.365  -6.119  1.00  0.00     0.007 C 
ENDBRANCH   7   8
ENDBRANCH   6   7
BRANCH   6  11
ATOM     11  C   UNL     1      -5.378   0.192  -9.393  1.00  0.00     0.129 C 
BRANCH  11  12
ATOM     12  N   UNL     1      -5.488  -1.085 -10.044  1.00  0.00    -0.350 N 
ATOM     13  C   UNL     1      -6.486  -1.911 -10.407  1.00  0.00     0.281 C 
ATOM     14  H   UNL     1      -4.606  -1.449 -10.287  1.00  0.00     0.163 HD
ATOM     15  O   UNL     1      -6.108  -3.022 -10.815  1.00  0.00    -0.268 OA
BRANCH  13  16
ATOM     16  C   UNL     1      -8.015  -1.594 -10.386  1.00  0.00     0.174 C 
ATOM     17  C   UNL     1      -8.416  -0.116 -10.398  1.00  0.00     0.079 C 
ATOM     18  C   UNL     1      -8.674  -2.288  -9.174  1.00  0.00     0.082 C 
ATOM     19  C   UNL     1      -9.930   0.098 -10.394  1.00  0.00     0.007 C 
ATOM     20  C   UNL     1     -10.197  -2.054  -9.036  1.00  0.00    -0.008 C 
ATOM     21  C   UNL     1     -10.556  -0.566  -9.168  1.00  0.00     0.004 C 
ATOM     22  C   UNL     1     -11.033  -2.907  -9.997  1.00  0.00     0.008 C 
BRANCH  16  23
ATOM     23  N   UNL     1      -8.531  -2.215 -11.641  1.00  0.00    -0.345 N 
ATOM     24  H   UNL     1      -9.536  -2.054 -11.712  1.00  0.00     0.345 HD
ATOM     25  H   UNL     1      -8.347  -3.218 -11.625  1.00  0.00     0.345 HD
ATOM     26  H   UNL     1      -8.063  -1.796 -12.445  1.00  0.00     0.345 HD
ENDBRANCH  16  23
ENDBRANCH  13  16
ENDBRANCH  11  12
ENDBRANCH   6  11
ENDBRANCH   3   6
ENDBRANCH   1   2
BRANCH   1  27
ATOM     27  C   UNL     1      -1.902   0.040  -9.721  1.00  0.00     0.042 C 
BRANCH  27  28
ATOM     28  C   UNL     1      -0.488   0.337 -10.172  1.00  0.00     0.118 C 
BRANCH  28  29
ATOM     29  N   UNL     1       0.491  -0.543  -9.553  1.00  0.00    -0.352 N 
ATOM     30  C   UNL     1       1.525  -1.248 -10.106  1.00  0.00     0.251 C 
ATOM     31  H   UNL     1       0.395  -0.647  -8.579  1.00  0.00     0.163 HD
ATOM     32  O   UNL     1       2.145  -2.041  -9.394  1.00  0.00    -0.269 OA
BRANCH  30  33
ATOM     33  C   UNL     1       1.885  -1.088 -11.531  1.00  0.00     0.039 A 
ATOM     34  C   UNL     1       2.407  -2.189 -12.214  1.00  0.00     0.014 A 
ATOM     35  C   UNL     1       1.745   0.135 -12.192  1.00  0.00     0.014 A 
ATOM     36  C   UNL     1       2.766  -2.063 -13.556  1.00  0.00     0.010 A 
ATOM     37  C   UNL     1       1.975   0.222 -13.557  1.00  0.00     0.010 A 
ATOM     38  C   UNL     1       2.536  -0.861 -14.242  1.00  0.00    -0.014 A 
BRANCH  38  39
ATOM     39  C   UNL     1       2.949  -0.694 -15.655  1.00  0.00     0.031 A 
ATOM     40  C   UNL     1       3.979   0.347 -16.015  1.00  0.00     0.074 A 
ATOM     41  C   UNL     1       2.383  -1.459 -16.607  1.00  0.00     0.049 A 
ATOM     42  N   UNL     1       4.479   0.639 -17.188  1.00  0.00    -0.248 NA
ATOM     43  C   UNL     1       4.491   1.194 -14.923  1.00  0.00     0.031 C 
ATOM     44  C   UNL     1       1.335  -2.459 -16.381  1.00  0.00     0.029 A 
ATOM     45  N   UNL     1       2.618  -1.525 -17.955  1.00  0.00    -0.354 N 
ATOM     46  C   UNL     1       5.343   1.708 -16.974  1.00  0.00     0.074 A 
ATOM     47  C   UNL     1       5.245   2.063 -15.578  1.00  0.00     0.031 C 
ATOM     48  C   UNL     1       1.057  -3.073 -17.541  1.00  0.00     0.029 A 
ATOM     49  C   UNL     1       1.875  -2.487 -18.597  1.00  0.00     0.049 A 
ATOM     50  H   UNL     1       3.258  -0.939 -18.420  1.00  0.00     0.167 HD
ATOM     51  C   UNL     1       6.171   2.320 -17.853  1.00  0.00     0.031 A 
ATOM     52  C   UNL     1       1.865  -2.861 -19.890  1.00  0.00     0.031 A 
ATOM     53  C   UNL     1       6.278   1.944 -19.236  1.00  0.00     0.049 A 
ATOM     54  C   UNL     1       2.811  -2.184 -20.844  1.00  0.00     0.074 A 
ATOM     55  C   UNL     1       7.120   2.457 -20.206  1.00  0.00     0.029 A 
ATOM     56  N   UNL     1       5.521   0.953 -19.844  1.00  0.00    -0.354 N 
ATOM     57  N   UNL     1       3.667  -1.216 -20.610  1.00  0.00    -0.248 NA
ATOM     58  C   UNL     1       2.808  -2.668 -22.229  1.00  0.00     0.031 C 
ATOM     59  C   UNL     1       6.835   1.811 -21.414  1.00  0.00     0.029 A 
ATOM     60  C   UNL     1       5.865   0.848 -21.180  1.00  0.00     0.049 A 
ATOM     61  H   UNL     1       4.840   0.405 -19.391  1.00  0.00     0.167 HD
ATOM     62  C   UNL     1       4.332  -1.001 -21.813  1.00  0.00     0.074 A 
ATOM     63  C   UNL     1       3.788  -1.952 -22.762  1.00  0.00     0.031 C 
ATOM     64  C   UNL     1       5.306  -0.104 -22.107  1.00  0.00     0.031 A 
BRANCH  51  65
ATOM     65  C   UNL     1       7.020   3.454 -17.338  1.00  0.00    -0.014 A 
ATOM     66  C   UNL     1       8.057   3.229 -16.413  1.00  0.00     0.010 A 
ATOM     67  C   UNL     1       6.795   4.763 -17.803  1.00  0.00     0.010 A 
ATOM     68  C   UNL     1       8.820   4.295 -15.927  1.00  0.00     0.020 A 
ATOM     69  C   UNL     1       7.578   5.827 -17.346  1.00  0.00     0.020 A 
ATOM     70  C   UNL     1       8.574   5.588 -16.396  1.00  0.00     0.054 A 
BRANCH  70  71
ATOM     71  S   UNL     1       9.596   6.948 -15.767  1.00  0.00     0.124 S 
ATOM     72  O   UNL     1       9.101   7.088 -14.400  1.00  0.00    -0.237 OA
ATOM     73  O   UNL     1      10.950   6.416 -15.893  1.00  0.00    -0.237 OA
ATOM     74  O   UNL     1       9.281   8.061 -16.660  1.00  0.00    -0.744 OA
ENDBRANCH  70  71
ENDBRANCH  51  65
BRANCH  52  75
ATOM     75  C   UNL     1       0.962  -3.954 -20.342  1.00  0.00    -0.014 A 
ATOM     76  C   UNL     1       1.484  -5.200 -20.734  1.00  0.00     0.010 A 
ATOM     77  C   UNL     1      -0.431  -3.759 -20.368  1.00  0.00     0.010 A 
ATOM     78  C   UNL     1       0.632  -6.220 -21.169  1.00  0.00     0.020 A 
ATOM     79  C   UNL     1      -1.288  -4.787 -20.773  1.00  0.00     0.020 A 
ATOM     80  C   UNL     1      -0.749  -6.006 -21.185  1.00  0.00     0.054 A 
BRANCH  80  81
ATOM     81  S   UNL     1      -1.836  -7.358 -21.717  1.00  0.00     0.124 S 
ATOM     82  O   UNL     1      -1.593  -7.395 -23.155  1.00  0.00    -0.237 OA
ATOM     83  O   UNL     1      -1.321  -8.494 -20.957  1.00  0.00    -0.237 OA
ATOM     84  O   UNL     1      -3.166  -6.903 -21.317  1.00  0.00    -0.744 OA
ENDBRANCH  80  81
ENDBRANCH  52  75
BRANCH  64  85
ATOM     85  C   UNL     1       5.880  -0.147 -23.498  1.00  0.00    -0.014 A 
ATOM     86  C   UNL     1       5.127   0.246 -24.618  1.00  0.00     0.010 A 
ATOM     87  C   UNL     1       7.207  -0.576 -23.679  1.00  0.00     0.010 A 
ATOM     88  C   UNL     1       5.671   0.151 -25.901  1.00  0.00     0.020 A 
ATOM     89  C   UNL     1       7.767  -0.638 -24.956  1.00  0.00     0.020 A 
ATOM     90  C   UNL     1       6.986  -0.297 -26.062  1.00  0.00     0.054 A 
BRANCH  90  91
ATOM     91  S   UNL     1       7.671  -0.414 -27.736  1.00  0.00     0.124 S 
ATOM     92  O   UNL     1       6.991  -1.597 -28.259  1.00  0.00    -0.237 OA
ATOM     93  O   UNL     1       7.272   0.857 -28.335  1.00  0.00    -0.237 OA
ATOM     94  O   UNL     1       9.107  -0.569 -27.514  1.00  0.00    -0.744 OA
ENDBRANCH  90  91
ENDBRANCH  64  85
ENDBRANCH  38  39
ENDBRANCH  30  33
ENDBRANCH  28  29
ENDBRANCH  27  28
ENDBRANCH   1  27
TORSDOF 19
