REMARK SMILES COc1ccc([C@@H]2CC[NH2+][C@H]2C(=O)NCCCNC(=O)c2ccc(-c3c4nc(c(-c5ccc(S(=O)(=O)[O-])cc5)c5ccc([nH]5)c(-c5ccc(S(=O)(=O)[O-])cc5)c5nc(c(-c6ccc(S(=O)(=O)[O-])cc6)c6ccc3[nH]6)C=C5)C=C4)cc2)c2ccccc12
REMARK SMILES IDX 16 1 15 2 14 3 12 4 13 5 11 7 7 8 8 9 9 10 10 11 6 14 3 15
REMARK SMILES IDX 4 16 86 17 5 18 81 19 85 20 82 21 84 22 83 23 2 24 1 25
REMARK SMILES IDX 17 26 18 27 19 28 20 30 21 31 22 32 80 33 23 34 79 35 24 36
REMARK SMILES IDX 25 37 26 38 73 39 27 40 78 41 72 42 74 43 28 44 77 45 71 46
REMARK SMILES IDX 70 47 29 49 59 50 40 51 58 52 41 53 44 54 57 55 75 56 42 57
REMARK SMILES IDX 43 58 56 60 76 61 45 62 30 63 31 64 39 65 32 66 38 67 33 68
REMARK SMILES IDX 34 69 35 70 36 71 37 72 60 73 61 74 69 75 62 76 68 77 63 78
REMARK SMILES IDX 64 79 65 80 66 81 67 82 46 83 47 84 55 85 48 86 54 87 49 88
REMARK SMILES IDX 50 89 51 90 52 91 53 92
REMARK H PARENT 14 6 10 12 10 13 18 29 74 48 44 59
REMARK Flexibility Score: inf
ROOT
ATOM      1  C   UNL     1       2.002  -2.806  -9.706  1.00  0.00     0.042 C 
ENDROOT
BRANCH   1   2
ATOM      2  C   UNL     1       3.009  -1.690  -9.460  1.00  0.00     0.118 C 
BRANCH   2   3
ATOM      3  N   UNL     1       2.375  -0.441  -9.084  1.00  0.00    -0.351 N 
ATOM      4  C   UNL     1       2.267   0.215  -7.894  1.00  0.00     0.278 C 
ATOM      5  O   UNL     1       1.622   1.269  -7.907  1.00  0.00    -0.268 OA
ATOM      6  H   UNL     1       1.938   0.023  -9.833  1.00  0.00     0.163 HD
BRANCH   4   7
ATOM      7  C   UNL     1       2.892  -0.304  -6.581  1.00  0.00     0.280 C 
ATOM      8  C   UNL     1       2.214  -1.575  -6.043  1.00  0.00     0.094 C 
ATOM      9  C   UNL     1       3.311  -2.642  -6.084  1.00  0.00     0.076 C 
ATOM     10  C   UNL     1       4.626  -1.884  -6.170  1.00  0.00     0.262 C 
ATOM     11  N   UNL     1       4.349  -0.559  -6.722  1.00  0.00    -0.335 N 
ATOM     12  H   UNL     1       4.612  -0.532  -7.707  1.00  0.00     0.346 HD
ATOM     13  H   UNL     1       4.885   0.153  -6.227  1.00  0.00     0.346 HD
BRANCH   8  14
ATOM     14  C   UNL     1       1.645  -1.414  -4.627  1.00  0.00    -0.030 A 
ATOM     15  C   UNL     1       0.791  -1.135  -1.950  1.00  0.00     0.126 A 
ATOM     16  C   UNL     1       2.106  -0.844  -2.296  1.00  0.00     0.047 A 
ATOM     17  C   UNL     1      -0.124  -1.591  -2.927  1.00  0.00     0.024 A 
ATOM     18  C   UNL     1       2.520  -0.972  -3.614  1.00  0.00     0.009 A 
ATOM     19  C   UNL     1       0.292  -1.727  -4.285  1.00  0.00    -0.011 A 
ATOM     20  C   UNL     1      -1.455  -1.907  -2.574  1.00  0.00     0.012 A 
ATOM     21  C   UNL     1      -0.684  -2.174  -5.214  1.00  0.00     0.009 A 
ATOM     22  C   UNL     1      -2.382  -2.343  -3.515  1.00  0.00     0.001 A 
ATOM     23  C   UNL     1      -1.996  -2.475  -4.838  1.00  0.00     0.001 A 
BRANCH  15  24
ATOM     24  O   UNL     1       0.352  -1.050  -0.648  1.00  0.00    -0.496 OA
ATOM     25  C   UNL     1       0.858   0.064   0.080  1.00  0.00     0.278 C 
ENDBRANCH  15  24
ENDBRANCH   8  14
ENDBRANCH   4   7
ENDBRANCH   2   3
ENDBRANCH   1   2
BRANCH   1  26
ATOM     26  C   UNL     1       1.218  -2.644 -11.004  1.00  0.00     0.118 C 
BRANCH  26  27
ATOM     27  N   UNL     1       2.078  -2.727 -12.178  1.00  0.00    -0.352 N 
ATOM     28  C   UNL     1       2.100  -3.644 -13.197  1.00  0.00     0.251 C 
ATOM     29  H   UNL     1       2.749  -2.011 -12.251  1.00  0.00     0.163 HD
ATOM     30  O   UNL     1       3.065  -3.664 -13.963  1.00  0.00    -0.269 OA
BRANCH  28  31
ATOM     31  C   UNL     1       0.991  -4.604 -13.379  1.00  0.00     0.039 A 
ATOM     32  C   UNL     1       1.285  -5.914 -13.768  1.00  0.00     0.014 A 
ATOM     33  C   UNL     1      -0.339  -4.208 -13.213  1.00  0.00     0.014 A 
ATOM     34  C   UNL     1       0.251  -6.839 -13.930  1.00  0.00     0.010 A 
ATOM     35  C   UNL     1      -1.361  -5.149 -13.299  1.00  0.00     0.010 A 
ATOM     36  C   UNL     1      -1.078  -6.473 -13.665  1.00  0.00    -0.014 A 
BRANCH  36  37
ATOM     37  C   UNL     1      -2.189  -7.453 -13.777  1.00  0.00     0.031 A 
ATOM     38  C   UNL     1      -3.277  -7.245 -14.797  1.00  0.00     0.074 A 
ATOM     39  C   UNL     1      -2.247  -8.496 -12.925  1.00  0.00     0.049 A 
ATOM     40  N   UNL     1      -4.371  -7.938 -14.987  1.00  0.00    -0.248 NA
ATOM     41  C   UNL     1      -3.130  -6.097 -15.708  1.00  0.00     0.031 C 
ATOM     42  C   UNL     1      -1.268  -8.791 -11.874  1.00  0.00     0.029 A 
ATOM     43  N   UNL     1      -3.174  -9.501 -12.803  1.00  0.00    -0.354 N 
ATOM     44  C   UNL     1      -5.042  -7.309 -16.029  1.00  0.00     0.074 A 
ATOM     45  C   UNL     1      -4.262  -6.147 -16.395  1.00  0.00     0.031 C 
ATOM     46  C   UNL     1      -1.635  -9.913 -11.232  1.00  0.00     0.029 A 
ATOM     47  C   UNL     1      -2.893 -10.393 -11.794  1.00  0.00     0.049 A 
ATOM     48  H   UNL     1      -3.965  -9.577 -13.383  1.00  0.00     0.167 HD
ATOM     49  C   UNL     1      -6.191  -7.677 -16.644  1.00  0.00     0.031 A 
ATOM     50  C   UNL     1      -3.577 -11.470 -11.362  1.00  0.00     0.031 A 
ATOM     51  C   UNL     1      -6.959  -8.841 -16.288  1.00  0.00     0.049 A 
ATOM     52  C   UNL     1      -4.867 -11.839 -12.045  1.00  0.00     0.074 A 
ATOM     53  C   UNL     1      -8.123  -9.313 -16.869  1.00  0.00     0.029 A 
ATOM     54  N   UNL     1      -6.634  -9.721 -15.268  1.00  0.00    -0.354 N 
ATOM     55  N   UNL     1      -5.463 -11.250 -13.055  1.00  0.00    -0.248 NA
ATOM     56  C   UNL     1      -5.571 -13.025 -11.537  1.00  0.00     0.031 C 
ATOM     57  C   UNL     1      -8.524 -10.458 -16.174  1.00  0.00     0.029 A 
ATOM     58  C   UNL     1      -7.581 -10.728 -15.196  1.00  0.00     0.049 A 
ATOM     59  H   UNL     1      -5.848  -9.641 -14.682  1.00  0.00     0.167 HD
ATOM     60  C   UNL     1      -6.593 -12.015 -13.323  1.00  0.00     0.074 A 
ATOM     61  C   UNL     1      -6.588 -13.116 -12.382  1.00  0.00     0.031 C 
ATOM     62  C   UNL     1      -7.550 -11.825 -14.263  1.00  0.00     0.031 A 
BRANCH  49  63
ATOM     63  C   UNL     1      -6.682  -6.823 -17.783  1.00  0.00    -0.014 A 
ATOM     64  C   UNL     1      -6.013  -6.825 -19.021  1.00  0.00     0.010 A 
ATOM     65  C   UNL     1      -7.860  -6.068 -17.642  1.00  0.00     0.010 A 
ATOM     66  C   UNL     1      -6.500  -6.069 -20.090  1.00  0.00     0.020 A 
ATOM     67  C   UNL     1      -8.365  -5.331 -18.718  1.00  0.00     0.020 A 
ATOM     68  C   UNL     1      -7.675  -5.329 -19.932  1.00  0.00     0.054 A 
BRANCH  68  69
ATOM     69  S   UNL     1      -8.311  -4.400 -21.355  1.00  0.00     0.124 S 
ATOM     70  O   UNL     1      -7.351  -3.304 -21.452  1.00  0.00    -0.237 OA
ATOM     71  O   UNL     1      -8.250  -5.385 -22.432  1.00  0.00    -0.237 OA
ATOM     72  O   UNL     1      -9.658  -4.013 -20.943  1.00  0.00    -0.744 OA
ENDBRANCH  68  69
ENDBRANCH  49  63
BRANCH  50  73
ATOM     73  C   UNL     1      -3.067 -12.284 -10.224  1.00  0.00    -0.014 A 
ATOM     74  C   UNL     1      -2.620 -13.601 -10.432  1.00  0.00     0.010 A 
ATOM     75  C   UNL     1      -3.061 -11.759  -8.919  1.00  0.00     0.010 A 
ATOM     76  C   UNL     1      -2.221 -14.393  -9.351  1.00  0.00     0.020 A 
ATOM     77  C   UNL     1      -2.633 -12.537  -7.840  1.00  0.00     0.020 A 
ATOM     78  C   UNL     1      -2.237 -13.858  -8.061  1.00  0.00     0.054 A 
BRANCH  78  79
ATOM     79  S   UNL     1      -1.716 -14.902  -6.671  1.00  0.00     0.124 S 
ATOM     80  O   UNL     1      -2.872 -15.776  -6.501  1.00  0.00    -0.237 OA
ATOM     81  O   UNL     1      -0.509 -15.540  -7.190  1.00  0.00    -0.237 OA
ATOM     82  O   UNL     1      -1.489 -13.943  -5.593  1.00  0.00    -0.744 OA
ENDBRANCH  78  79
ENDBRANCH  50  73
BRANCH  62  83
ATOM     83  C   UNL     1      -8.644 -12.854 -14.357  1.00  0.00    -0.014 A 
ATOM     84  C   UNL     1      -9.652 -12.939 -13.380  1.00  0.00     0.010 A 
ATOM     85  C   UNL     1      -8.690 -13.714 -15.469  1.00  0.00     0.010 A 
ATOM     86  C   UNL     1     -10.668 -13.890 -13.498  1.00  0.00     0.020 A 
ATOM     87  C   UNL     1      -9.721 -14.647 -15.604  1.00  0.00     0.020 A 
ATOM     88  C   UNL     1     -10.696 -14.738 -14.610  1.00  0.00     0.054 A 
BRANCH  88  89
ATOM     89  S   UNL     1     -12.051 -15.934 -14.762  1.00  0.00     0.124 S 
ATOM     90  O   UNL     1     -11.681 -16.940 -13.769  1.00  0.00    -0.237 OA
ATOM     91  O   UNL     1     -13.226 -15.131 -14.435  1.00  0.00    -0.237 OA
ATOM     92  O   UNL     1     -11.971 -16.373 -16.153  1.00  0.00    -0.744 OA
ENDBRANCH  88  89
ENDBRANCH  62  83
ENDBRANCH  36  37
ENDBRANCH  28  31
ENDBRANCH  26  27
ENDBRANCH   1  26
TORSDOF 15
