REMARK SMILES CCCOc1ccccc1O[C@@H]1CC[C@@]([NH3+])(C(=O)NCCCNC(=O)c2ccc(-c3c4nc(c(-c5ccc(S(=O)(=O)[O-])cc5)c5ccc([nH]5)c(-c5ccc(S(=O)(=O)[O-])cc5)c5nc(c(-c6ccc(S(=O)(=O)[O-])cc6)c6ccc3[nH]6)C=C5)C=C4)cc2)C1
REMARK SMILES IDX 20 1 19 2 17 3 18 4 15 6 12 7 13 8 86 9 14 10 11 11 10 12
REMARK SMILES IDX 5 13 6 14 7 15 9 16 8 17 4 18 3 19 2 20 1 21 16 22 21 26
REMARK SMILES IDX 22 27 23 28 24 29 25 31 26 32 27 33 85 34 28 35 84 36 29 37
REMARK SMILES IDX 30 38 31 39 78 40 32 41 83 42 77 43 79 44 33 45 82 46 76 47
REMARK SMILES IDX 75 48 34 50 64 51 45 52 63 53 46 54 49 55 62 56 80 57 47 58
REMARK SMILES IDX 48 59 61 61 81 62 50 63 35 64 36 65 44 66 37 67 43 68 38 69
REMARK SMILES IDX 39 70 40 71 41 72 42 73 65 74 66 75 74 76 67 77 73 78 68 79
REMARK SMILES IDX 69 80 70 81 71 82 72 83 51 84 52 85 60 86 53 87 59 88 54 89
REMARK SMILES IDX 55 90 56 91 57 92 58 93
REMARK H PARENT 19 5 16 23 16 24 16 25 23 30 79 49 49 60
REMARK Flexibility Score: inf
ROOT
ATOM      1  C   UNL     1      -0.733   0.140   6.833  1.00  0.00     0.118 C 
ENDROOT
BRANCH   1   2
ATOM      2  N   UNL     1      -0.271  -1.015   6.096  1.00  0.00    -0.351 N 
ATOM      3  C   UNL     1      -0.127  -1.188   4.759  1.00  0.00     0.281 C 
ATOM      4  O   UNL     1       0.025  -2.355   4.382  1.00  0.00    -0.268 OA
ATOM      5  H   UNL     1      -0.024  -1.792   6.648  1.00  0.00     0.163 HD
BRANCH   3   6
ATOM      6  C   UNL     1      -0.047   0.030   3.792  1.00  0.00     0.177 C 
ATOM      7  C   UNL     1      -0.738   0.166   1.407  1.00  0.00     0.180 C 
ATOM      8  C   UNL     1      -1.515   1.219   2.182  1.00  0.00     0.052 C 
ATOM      9  C   UNL     1       0.236  -0.493   2.377  1.00  0.00     0.124 C 
ATOM     10  C   UNL     1      -1.321   0.875   3.660  1.00  0.00     0.083 C 
BRANCH   7  11
ATOM     11  O   UNL     1      -0.215   0.481   0.109  1.00  0.00    -0.486 OA
BRANCH  11  12
ATOM     12  C   UNL     1       0.317   1.705  -0.179  1.00  0.00     0.161 A 
ATOM     13  C   UNL     1       1.256   2.396   0.584  1.00  0.00     0.161 A 
ATOM     14  C   UNL     1       1.678   3.685   0.236  1.00  0.00     0.050 A 
ATOM     15  C   UNL     1       1.339   4.203  -1.008  1.00  0.00     0.004 A 
ATOM     16  C   UNL     1       0.029   2.213  -1.449  1.00  0.00     0.050 A 
ATOM     17  C   UNL     1       0.562   3.438  -1.875  1.00  0.00     0.004 A 
BRANCH  13  18
ATOM     18  O   UNL     1       1.926   1.771   1.597  1.00  0.00    -0.490 OA
BRANCH  18  19
ATOM     19  C   UNL     1       3.172   1.222   1.104  1.00  0.00     0.229 C 
BRANCH  19  20
ATOM     20  C   UNL     1       3.039  -0.103   0.325  1.00  0.00     0.038 C 
ATOM     21  C   UNL     1       3.116   0.029  -1.188  1.00  0.00     0.007 C 
ENDBRANCH  19  20
ENDBRANCH  18  19
ENDBRANCH  13  18
ENDBRANCH  11  12
ENDBRANCH   7  11
BRANCH   6  22
ATOM     22  N   UNL     1       1.077   0.892   4.249  1.00  0.00    -0.345 N 
ATOM     23  H   UNL     1       0.882   1.236   5.190  1.00  0.00     0.345 HD
ATOM     24  H   UNL     1       1.179   1.683   3.613  1.00  0.00     0.345 HD
ATOM     25  H   UNL     1       1.940   0.349   4.258  1.00  0.00     0.345 HD
ENDBRANCH   6  22
ENDBRANCH   3   6
ENDBRANCH   1   2
BRANCH   1  26
ATOM     26  C   UNL     1      -2.239   0.063   7.048  1.00  0.00     0.042 C 
BRANCH  26  27
ATOM     27  C   UNL     1      -2.696  -1.292   7.573  1.00  0.00     0.118 C 
BRANCH  27  28
ATOM     28  N   UNL     1      -2.111  -1.596   8.873  1.00  0.00    -0.352 N 
ATOM     29  C   UNL     1      -2.739  -1.675  10.088  1.00  0.00     0.251 C 
ATOM     30  H   UNL     1      -1.142  -1.766   8.879  1.00  0.00     0.163 HD
ATOM     31  O   UNL     1      -2.085  -1.665  11.132  1.00  0.00    -0.269 OA
BRANCH  29  32
ATOM     32  C   UNL     1      -4.209  -1.754  10.119  1.00  0.00     0.039 A 
ATOM     33  C   UNL     1      -4.925  -0.925  10.982  1.00  0.00     0.014 A 
ATOM     34  C   UNL     1      -4.873  -2.619   9.244  1.00  0.00     0.014 A 
ATOM     35  C   UNL     1      -6.318  -0.928  10.928  1.00  0.00     0.010 A 
ATOM     36  C   UNL     1      -6.251  -2.538   9.116  1.00  0.00     0.010 A 
ATOM     37  C   UNL     1      -6.990  -1.710   9.972  1.00  0.00    -0.014 A 
BRANCH  37  38
ATOM     38  C   UNL     1      -8.469  -1.708   9.874  1.00  0.00     0.031 A 
ATOM     39  C   UNL     1      -9.231  -2.985  10.110  1.00  0.00     0.074 A 
ATOM     40  C   UNL     1      -9.116  -0.580   9.520  1.00  0.00     0.049 A 
ATOM     41  N   UNL     1     -10.517  -3.204  10.026  1.00  0.00    -0.248 NA
ATOM     42  C   UNL     1      -8.442  -4.181  10.454  1.00  0.00     0.031 C 
ATOM     43  C   UNL     1      -8.479   0.706   9.218  1.00  0.00     0.029 A 
ATOM     44  N   UNL     1     -10.454  -0.332   9.352  1.00  0.00    -0.354 N 
ATOM     45  C   UNL     1     -10.686  -4.559  10.286  1.00  0.00     0.074 A 
ATOM     46  C   UNL     1      -9.369  -5.126  10.466  1.00  0.00     0.031 C 
ATOM     47  C   UNL     1      -9.429   1.613   8.942  1.00  0.00     0.029 A 
ATOM     48  C   UNL     1     -10.736   0.967   9.001  1.00  0.00     0.049 A 
ATOM     49  H   UNL     1     -11.148  -1.020   9.472  1.00  0.00     0.167 HD
ATOM     50  C   UNL     1     -11.836  -5.265  10.393  1.00  0.00     0.031 A 
ATOM     51  C   UNL     1     -11.915   1.568   8.751  1.00  0.00     0.031 A 
ATOM     52  C   UNL     1     -13.142  -4.689  10.229  1.00  0.00     0.049 A 
ATOM     53  C   UNL     1     -13.180   0.762   8.869  1.00  0.00     0.074 A 
ATOM     54  C   UNL     1     -14.375  -5.299  10.375  1.00  0.00     0.029 A 
ATOM     55  N   UNL     1     -13.385  -3.368   9.882  1.00  0.00    -0.354 N 
ATOM     56  N   UNL     1     -13.324  -0.503   9.188  1.00  0.00    -0.248 NA
ATOM     57  C   UNL     1     -14.442   1.466   8.607  1.00  0.00     0.031 C 
ATOM     58  C   UNL     1     -15.363  -4.362  10.058  1.00  0.00     0.029 A 
ATOM     59  C   UNL     1     -14.748  -3.150   9.782  1.00  0.00     0.049 A 
ATOM     60  H   UNL     1     -12.691  -2.687   9.730  1.00  0.00     0.167 HD
ATOM     61  C   UNL     1     -14.695  -0.738   9.194  1.00  0.00     0.074 A 
ATOM     62  C   UNL     1     -15.334   0.519   8.863  1.00  0.00     0.031 C 
ATOM     63  C   UNL     1     -15.364  -1.889   9.451  1.00  0.00     0.031 A 
BRANCH  50  64
ATOM     64  C   UNL     1     -11.726  -6.736  10.698  1.00  0.00    -0.014 A 
ATOM     65  C   UNL     1     -11.261  -7.190  11.946  1.00  0.00     0.010 A 
ATOM     66  C   UNL     1     -12.125  -7.681   9.735  1.00  0.00     0.010 A 
ATOM     67  C   UNL     1     -11.157  -8.558  12.210  1.00  0.00     0.020 A 
ATOM     68  C   UNL     1     -12.053  -9.050  10.006  1.00  0.00     0.020 A 
ATOM     69  C   UNL     1     -11.554  -9.480  11.237  1.00  0.00     0.054 A 
BRANCH  69  70
ATOM     70  S   UNL     1     -11.436 -11.249  11.619  1.00  0.00     0.124 S 
ATOM     71  O   UNL     1      -9.991 -11.465  11.599  1.00  0.00    -0.237 OA
ATOM     72  O   UNL     1     -12.065 -11.334  12.934  1.00  0.00    -0.237 OA
ATOM     73  O   UNL     1     -12.176 -11.889  10.534  1.00  0.00    -0.744 OA
ENDBRANCH  69  70
ENDBRANCH  50  64
BRANCH  51  74
ATOM     74  C   UNL     1     -11.954   3.011   8.383  1.00  0.00    -0.014 A 
ATOM     75  C   UNL     1     -12.491   3.962   9.270  1.00  0.00     0.010 A 
ATOM     76  C   UNL     1     -11.441   3.445   7.147  1.00  0.00     0.010 A 
ATOM     77  C   UNL     1     -12.534   5.314   8.919  1.00  0.00     0.020 A 
ATOM     78  C   UNL     1     -11.454   4.801   6.805  1.00  0.00     0.020 A 
ATOM     79  C   UNL     1     -12.012   5.726   7.689  1.00  0.00     0.054 A 
BRANCH  79  80
ATOM     80  S   UNL     1     -12.036   7.492   7.275  1.00  0.00     0.124 S 
ATOM     81  O   UNL     1     -13.455   7.725   7.022  1.00  0.00    -0.237 OA
ATOM     82  O   UNL     1     -11.499   8.106   8.487  1.00  0.00    -0.237 OA
ATOM     83  O   UNL     1     -11.168   7.581   6.103  1.00  0.00    -0.744 OA
ENDBRANCH  79  80
ENDBRANCH  51  74
BRANCH  63  84
ATOM     84  C   UNL     1     -16.869  -1.837   9.422  1.00  0.00    -0.014 A 
ATOM     85  C   UNL     1     -17.573  -1.695   8.213  1.00  0.00     0.010 A 
ATOM     86  C   UNL     1     -17.588  -1.995  10.621  1.00  0.00     0.010 A 
ATOM     87  C   UNL     1     -18.969  -1.678   8.210  1.00  0.00     0.020 A 
ATOM     88  C   UNL     1     -18.984  -2.012  10.617  1.00  0.00     0.020 A 
ATOM     89  C   UNL     1     -19.666  -1.838   9.412  1.00  0.00     0.054 A 
BRANCH  89  90
ATOM     90  S   UNL     1     -21.479  -1.858   9.373  1.00  0.00     0.124 S 
ATOM     91  O   UNL     1     -21.792  -0.457   9.108  1.00  0.00    -0.237 OA
ATOM     92  O   UNL     1     -21.764  -2.784   8.279  1.00  0.00    -0.237 OA
ATOM     93  O   UNL     1     -21.849  -2.340  10.702  1.00  0.00    -0.744 OA
ENDBRANCH  89  90
ENDBRANCH  63  84
ENDBRANCH  37  38
ENDBRANCH  29  32
ENDBRANCH  27  28
ENDBRANCH  26  27
ENDBRANCH   1  26
TORSDOF 19
