REMARK SMILES CC(C)c1nc(OCC(=O)NCCCNC(=O)c2ccc(-c3c4nc(c(-c5ccc(S(=O)(=O)[O-])cc5)c5ccc([nH]5)c(-c5ccc(S(=O)(=O)[O-])cc5)c5nc(c(-c6ccc(S(=O)(=O)[O-])cc6)c6ccc3[nH]6)C=C5)C=C4)cc2)cc(-c2ccccn2)n1
REMARK SMILES IDX 13 1 12 2 11 3 9 4 10 5 8 7 7 8 6 9 4 10 5 11 86 12 79 13
REMARK SMILES IDX 78 14 2 15 1 16 3 17 80 18 81 19 85 20 82 21 84 22 83 23
REMARK SMILES IDX 14 24 15 25 16 26 17 28 18 29 19 30 77 31 20 32 76 33 21 34
REMARK SMILES IDX 22 35 23 36 70 37 24 38 75 39 69 40 71 41 25 42 74 43 68 44
REMARK SMILES IDX 67 45 26 47 56 48 37 49 55 50 38 51 41 52 54 53 72 54 39 55
REMARK SMILES IDX 40 56 53 58 73 59 42 60 27 61 28 62 36 63 29 64 35 65 30 66
REMARK SMILES IDX 31 67 32 68 33 69 34 70 57 71 58 72 66 73 59 74 65 75 60 76
REMARK SMILES IDX 61 77 62 78 63 79 64 80 43 81 44 82 52 83 45 84 51 85 46 86
REMARK SMILES IDX 47 87 48 88 49 89 50 90
REMARK H PARENT 11 6 15 27 71 46 41 57
REMARK Flexibility Score: inf
ROOT
ATOM      1  C   UNL     1      -3.246  -1.753   3.193  1.00  0.00     0.042 C 
ENDROOT
BRANCH   1   2
ATOM      2  C   UNL     1      -4.545  -2.173   2.515  1.00  0.00     0.117 C 
BRANCH   2   3
ATOM      3  N   UNL     1      -5.446  -1.056   2.296  1.00  0.00    -0.353 N 
ATOM      4  C   UNL     1      -5.774  -0.454   1.119  1.00  0.00     0.258 C 
ATOM      5  O   UNL     1      -6.567   0.490   1.135  1.00  0.00    -0.271 OA
ATOM      6  H   UNL     1      -5.875  -0.687   3.102  1.00  0.00     0.163 HD
BRANCH   4   7
ATOM      7  C   UNL     1      -5.170  -0.966  -0.195  1.00  0.00     0.331 C 
BRANCH   7   8
ATOM      8  O   UNL     1      -3.760  -0.903  -0.308  1.00  0.00    -0.467 OA
BRANCH   8   9
ATOM      9  C   UNL     1      -3.171   0.329  -0.307  1.00  0.00     0.217 A 
ATOM     10  C   UNL     1      -1.149   1.417  -0.186  1.00  0.00     0.135 A 
ATOM     11  N   UNL     1      -1.833   0.260  -0.240  1.00  0.00    -0.198 NA
ATOM     12  N   UNL     1      -1.729   2.630  -0.157  1.00  0.00    -0.231 NA
ATOM     13  C   UNL     1      -3.075   2.669  -0.246  1.00  0.00     0.096 A 
ATOM     14  C   UNL     1      -3.840   1.525  -0.350  1.00  0.00     0.099 A 
BRANCH  10  15
ATOM     15  C   UNL     1       0.367   1.377  -0.175  1.00  0.00     0.051 C 
ATOM     16  C   UNL     1       0.939  -0.033   0.005  1.00  0.00     0.016 C 
ATOM     17  C   UNL     1       0.919   1.998  -1.461  1.00  0.00     0.016 C 
ENDBRANCH  10  15
BRANCH  13  18
ATOM     18  C   UNL     1      -3.727   3.984  -0.192  1.00  0.00     0.089 A 
ATOM     19  C   UNL     1      -4.589   4.315   0.856  1.00  0.00     0.030 A 
ATOM     20  N   UNL     1      -3.533   4.807  -1.255  1.00  0.00    -0.255 NA
ATOM     21  C   UNL     1      -5.273   5.527   0.816  1.00  0.00     0.004 A 
ATOM     22  C   UNL     1      -4.199   5.982  -1.258  1.00  0.00     0.112 A 
ATOM     23  C   UNL     1      -5.077   6.378  -0.262  1.00  0.00     0.020 A 
ENDBRANCH  13  18
ENDBRANCH   8   9
ENDBRANCH   7   8
ENDBRANCH   4   7
ENDBRANCH   2   3
ENDBRANCH   1   2
BRANCH   1  24
ATOM     24  C   UNL     1      -3.423  -1.131   4.575  1.00  0.00     0.118 C 
BRANCH  24  25
ATOM     25  N   UNL     1      -4.076  -2.022   5.526  1.00  0.00    -0.352 N 
ATOM     26  C   UNL     1      -3.648  -2.490   6.744  1.00  0.00     0.251 C 
ATOM     27  H   UNL     1      -4.966  -2.340   5.251  1.00  0.00     0.163 HD
ATOM     28  O   UNL     1      -4.298  -3.371   7.309  1.00  0.00    -0.269 OA
BRANCH  26  29
ATOM     29  C   UNL     1      -2.414  -1.966   7.369  1.00  0.00     0.039 A 
ATOM     30  C   UNL     1      -1.546  -2.861   8.004  1.00  0.00     0.014 A 
ATOM     31  C   UNL     1      -2.119  -0.601   7.357  1.00  0.00     0.014 A 
ATOM     32  C   UNL     1      -0.354  -2.394   8.563  1.00  0.00     0.010 A 
ATOM     33  C   UNL     1      -0.893  -0.151   7.841  1.00  0.00     0.010 A 
ATOM     34  C   UNL     1       0.002  -1.040   8.453  1.00  0.00    -0.014 A 
BRANCH  34  35
ATOM     35  C   UNL     1       1.302  -0.537   8.969  1.00  0.00     0.031 A 
ATOM     36  C   UNL     1       1.339   0.485  10.074  1.00  0.00     0.074 A 
ATOM     37  C   UNL     1       2.452  -0.954   8.403  1.00  0.00     0.049 A 
ATOM     38  N   UNL     1       2.372   1.071  10.623  1.00  0.00    -0.248 NA
ATOM     39  C   UNL     1       0.043   0.921  10.616  1.00  0.00     0.031 C 
ATOM     40  C   UNL     1       2.554  -1.920   7.307  1.00  0.00     0.029 A 
ATOM     41  N   UNL     1       3.755  -0.619   8.671  1.00  0.00    -0.354 N 
ATOM     42  C   UNL     1       1.852   1.953  11.564  1.00  0.00     0.074 A 
ATOM     43  C   UNL     1       0.411   1.869  11.465  1.00  0.00     0.031 C 
ATOM     44  C   UNL     1       3.850  -2.131   7.027  1.00  0.00     0.029 A 
ATOM     45  C   UNL     1       4.669  -1.281   7.886  1.00  0.00     0.049 A 
ATOM     46  H   UNL     1       4.012   0.034   9.362  1.00  0.00     0.167 HD
ATOM     47  C   UNL     1       2.510   2.746  12.445  1.00  0.00     0.031 A 
ATOM     48  C   UNL     1       6.014  -1.214   7.857  1.00  0.00     0.031 A 
ATOM     49  C   UNL     1       3.944   2.837  12.532  1.00  0.00     0.049 A 
ATOM     50  C   UNL     1       6.724  -0.294   8.811  1.00  0.00     0.074 A 
ATOM     51  C   UNL     1       4.708   3.581  13.413  1.00  0.00     0.029 A 
ATOM     52  N   UNL     1       4.832   2.168  11.701  1.00  0.00    -0.354 N 
ATOM     53  N   UNL     1       6.217   0.492   9.731  1.00  0.00    -0.248 NA
ATOM     54  C   UNL     1       8.190  -0.261   8.729  1.00  0.00     0.031 C 
ATOM     55  C   UNL     1       6.056   3.409  13.076  1.00  0.00     0.029 A 
ATOM     56  C   UNL     1       6.135   2.502  12.031  1.00  0.00     0.049 A 
ATOM     57  H   UNL     1       4.573   1.546  10.983  1.00  0.00     0.167 HD
ATOM     58  C   UNL     1       7.304   1.088  10.361  1.00  0.00     0.074 A 
ATOM     59  C   UNL     1       8.495   0.565   9.722  1.00  0.00     0.031 C 
ATOM     60  C   UNL     1       7.314   1.982  11.382  1.00  0.00     0.031 A 
BRANCH  47  61
ATOM     61  C   UNL     1       1.668   3.592  13.369  1.00  0.00    -0.014 A 
ATOM     62  C   UNL     1       0.856   3.005  14.358  1.00  0.00     0.010 A 
ATOM     63  C   UNL     1       1.680   4.993  13.242  1.00  0.00     0.010 A 
ATOM     64  C   UNL     1       0.018   3.795  15.149  1.00  0.00     0.020 A 
ATOM     65  C   UNL     1       0.871   5.790  14.057  1.00  0.00     0.020 A 
ATOM     66  C   UNL     1       0.023   5.183  14.986  1.00  0.00     0.054 A 
BRANCH  66  67
ATOM     67  S   UNL     1      -1.096   6.182  16.006  1.00  0.00     0.124 S 
ATOM     68  O   UNL     1      -2.395   5.883  15.406  1.00  0.00    -0.237 OA
ATOM     69  O   UNL     1      -0.884   5.637  17.344  1.00  0.00    -0.237 OA
ATOM     70  O   UNL     1      -0.619   7.548  15.809  1.00  0.00    -0.744 OA
ENDBRANCH  66  67
ENDBRANCH  47  61
BRANCH  48  71
ATOM     71  C   UNL     1       6.776  -2.081   6.916  1.00  0.00    -0.014 A 
ATOM     72  C   UNL     1       7.521  -3.168   7.405  1.00  0.00     0.010 A 
ATOM     73  C   UNL     1       6.730  -1.852   5.529  1.00  0.00     0.010 A 
ATOM     74  C   UNL     1       8.210  -4.008   6.526  1.00  0.00     0.020 A 
ATOM     75  C   UNL     1       7.394  -2.707   4.644  1.00  0.00     0.020 A 
ATOM     76  C   UNL     1       8.135  -3.777   5.150  1.00  0.00     0.054 A 
BRANCH  76  77
ATOM     77  S   UNL     1       8.974  -4.930   4.027  1.00  0.00     0.124 S 
ATOM     78  O   UNL     1      10.380  -4.616   4.263  1.00  0.00    -0.237 OA
ATOM     79  O   UNL     1       8.523  -6.230   4.518  1.00  0.00    -0.237 OA
ATOM     80  O   UNL     1       8.462  -4.558   2.710  1.00  0.00    -0.744 OA
ENDBRANCH  76  77
ENDBRANCH  48  71
BRANCH  60  81
ATOM     81  C   UNL     1       8.657   2.425  11.903  1.00  0.00    -0.014 A 
ATOM     82  C   UNL     1       9.496   3.266  11.151  1.00  0.00     0.010 A 
ATOM     83  C   UNL     1       9.062   2.031  13.192  1.00  0.00     0.010 A 
ATOM     84  C   UNL     1      10.730   3.677  11.665  1.00  0.00     0.020 A 
ATOM     85  C   UNL     1      10.279   2.465  13.722  1.00  0.00     0.020 A 
ATOM     86  C   UNL     1      11.113   3.274  12.949  1.00  0.00     0.054 A 
BRANCH  86  87
ATOM     87  S   UNL     1      12.699   3.856  13.610  1.00  0.00     0.124 S 
ATOM     88  O   UNL     1      13.658   3.079  12.830  1.00  0.00    -0.237 OA
ATOM     89  O   UNL     1      12.662   5.287  13.316  1.00  0.00    -0.237 OA
ATOM     90  O   UNL     1      12.629   3.516  15.029  1.00  0.00    -0.744 OA
ENDBRANCH  86  87
ENDBRANCH  60  81
ENDBRANCH  34  35
ENDBRANCH  26  29
ENDBRANCH  24  25
ENDBRANCH   1  24
TORSDOF 17
