REMARK SMILES C[C@H]1[C@H]([NH+]2CCC(CC(=O)NCCCNC(=O)c3ccc(-c4c5nc(c(-c6ccc(S(=O)(=O)[O-])cc6)c6ccc([nH]6)c(-c6ccc(S(=O)(=O)[O-])cc6)c6nc(c(-c7ccc(S(=O)(=O)[O-])cc7)c7ccc4[nH]7)C=C6)C=C5)cc3)CC2)CCC[C@@H]1C
REMARK SMILES IDX 13 1 12 2 11 3 9 4 10 5 8 7 7 8 4 9 5 10 79 11 6 13 78 14
REMARK SMILES IDX 3 15 1 16 2 17 83 18 80 19 82 20 84 21 81 22 14 23 15 24
REMARK SMILES IDX 16 25 17 27 18 28 19 29 77 30 20 31 76 32 21 33 22 34 23 35
REMARK SMILES IDX 70 36 24 37 75 38 69 39 71 40 25 41 74 42 68 43 67 44 26 46
REMARK SMILES IDX 56 47 37 48 55 49 38 50 41 51 54 52 72 53 39 54 40 55 53 57
REMARK SMILES IDX 73 58 42 59 27 60 28 61 36 62 29 63 35 64 30 65 31 66 32 67
REMARK SMILES IDX 33 68 34 69 57 70 58 71 66 72 59 73 65 74 60 75 61 76 62 77
REMARK SMILES IDX 63 78 64 79 43 80 44 81 52 82 45 83 51 84 46 85 47 86 48 87
REMARK SMILES IDX 49 88 50 89
REMARK H PARENT 11 6 4 12 15 26 71 45 41 56
REMARK Flexibility Score: inf
ROOT
ATOM      1  C   UNL     1      -0.472   0.343  -5.037  1.00  0.00     0.042 C 
ENDROOT
BRANCH   1   2
ATOM      2  C   UNL     1      -0.559  -0.951  -4.226  1.00  0.00     0.117 C 
BRANCH   2   3
ATOM      3  N   UNL     1       0.552  -1.853  -4.507  1.00  0.00    -0.356 N 
ATOM      4  C   UNL     1       1.649  -2.195  -3.771  1.00  0.00     0.220 C 
ATOM      5  O   UNL     1       2.461  -2.975  -4.272  1.00  0.00    -0.275 OA
ATOM      6  H   UNL     1       0.502  -2.293  -5.386  1.00  0.00     0.163 HD
BRANCH   4   7
ATOM      7  C   UNL     1       1.865  -1.653  -2.369  1.00  0.00     0.104 C 
BRANCH   7   8
ATOM      8  C   UNL     1       2.850  -0.463  -2.289  1.00  0.00     0.009 C 
ATOM      9  N   UNL     1       2.734   2.296  -1.174  1.00  0.00    -0.332 N 
ATOM     10  C   UNL     1       3.612   1.287  -0.586  1.00  0.00     0.262 C 
ATOM     11  C   UNL     1       2.717   2.133  -2.620  1.00  0.00     0.262 C 
ATOM     12  H   UNL     1       3.165   3.195  -0.956  1.00  0.00     0.348 HD
ATOM     13  C   UNL     1       3.137  -0.142  -0.811  1.00  0.00     0.066 C 
ATOM     14  C   UNL     1       2.299   0.736  -3.068  1.00  0.00     0.066 C 
BRANCH   9  15
ATOM     15  C   UNL     1       1.478   2.703  -0.485  1.00  0.00     0.187 C 
ATOM     16  C   UNL     1      -0.620   2.156  -1.864  1.00  0.00     0.014 C 
ATOM     17  C   UNL     1       0.205   1.782  -0.609  1.00  0.00     0.047 C 
ATOM     18  C   UNL     1      -0.811   1.791   0.580  1.00  0.00    -0.006 C 
ATOM     19  C   UNL     1       1.819   3.137   0.958  1.00  0.00     0.065 C 
ATOM     20  C   UNL     1      -0.218   2.168   1.931  1.00  0.00     0.004 C 
ATOM     21  C   UNL     1      -1.535   0.440   0.700  1.00  0.00     0.008 C 
ATOM     22  C   UNL     1       0.597   3.440   1.801  1.00  0.00     0.006 C 
ENDBRANCH   9  15
ENDBRANCH   7   8
ENDBRANCH   4   7
ENDBRANCH   2   3
ENDBRANCH   1   2
BRANCH   1  23
ATOM     23  C   UNL     1      -0.840   0.190  -6.505  1.00  0.00     0.118 C 
BRANCH  23  24
ATOM     24  N   UNL     1      -2.254   0.442  -6.734  1.00  0.00    -0.352 N 
ATOM     25  C   UNL     1      -2.873   1.513  -7.334  1.00  0.00     0.251 C 
ATOM     26  H   UNL     1      -2.861  -0.263  -6.410  1.00  0.00     0.163 HD
ATOM     27  O   UNL     1      -4.092   1.648  -7.199  1.00  0.00    -0.269 OA
BRANCH  25  28
ATOM     28  C   UNL     1      -2.107   2.510  -8.123  1.00  0.00     0.039 A 
ATOM     29  C   UNL     1      -2.484   3.857  -8.078  1.00  0.00     0.014 A 
ATOM     30  C   UNL     1      -1.053   2.124  -8.954  1.00  0.00     0.014 A 
ATOM     31  C   UNL     1      -1.776   4.815  -8.817  1.00  0.00     0.010 A 
ATOM     32  C   UNL     1      -0.292   3.086  -9.616  1.00  0.00     0.010 A 
ATOM     33  C   UNL     1      -0.655   4.442  -9.573  1.00  0.00    -0.014 A 
BRANCH  33  34
ATOM     34  C   UNL     1       0.132   5.419 -10.376  1.00  0.00     0.031 A 
ATOM     35  C   UNL     1       0.235   5.233 -11.871  1.00  0.00     0.074 A 
ATOM     36  C   UNL     1       0.829   6.402  -9.772  1.00  0.00     0.049 A 
ATOM     37  N   UNL     1       1.014   5.841 -12.728  1.00  0.00    -0.248 NA
ATOM     38  C   UNL     1      -0.625   4.200 -12.475  1.00  0.00     0.031 C 
ATOM     39  C   UNL     1       0.838   6.682  -8.334  1.00  0.00     0.029 A 
ATOM     40  N   UNL     1       1.690   7.338 -10.294  1.00  0.00    -0.354 N 
ATOM     41  C   UNL     1       0.774   5.233 -13.956  1.00  0.00     0.074 A 
ATOM     42  C   UNL     1      -0.201   4.190 -13.730  1.00  0.00     0.031 C 
ATOM     43  C   UNL     1       1.658   7.719  -8.091  1.00  0.00     0.029 A 
ATOM     44  C   UNL     1       2.271   8.149  -9.345  1.00  0.00     0.049 A 
ATOM     45  H   UNL     1       1.875   7.421 -11.257  1.00  0.00     0.167 HD
ATOM     46  C   UNL     1       1.309   5.523 -15.165  1.00  0.00     0.031 A 
ATOM     47  C   UNL     1       3.208   9.111  -9.464  1.00  0.00     0.031 A 
ATOM     48  C   UNL     1       2.233   6.599 -15.400  1.00  0.00     0.049 A 
ATOM     49  C   UNL     1       3.770   9.428 -10.827  1.00  0.00     0.074 A 
ATOM     50  C   UNL     1       2.767   7.022 -16.605  1.00  0.00     0.029 A 
ATOM     51  N   UNL     1       2.748   7.428 -14.418  1.00  0.00    -0.354 N 
ATOM     52  N   UNL     1       3.488   8.876 -11.982  1.00  0.00    -0.248 NA
ATOM     53  C   UNL     1       4.771  10.503 -10.903  1.00  0.00     0.031 C 
ATOM     54  C   UNL     1       3.639   8.082 -16.346  1.00  0.00     0.029 A 
ATOM     55  C   UNL     1       3.605   8.353 -14.987  1.00  0.00     0.049 A 
ATOM     56  H   UNL     1       2.536   7.369 -13.458  1.00  0.00     0.167 HD
ATOM     57  C   UNL     1       4.245   9.565 -12.925  1.00  0.00     0.074 A 
ATOM     58  C   UNL     1       4.993  10.575 -12.208  1.00  0.00     0.031 C 
ATOM     59  C   UNL     1       4.313   9.377 -14.265  1.00  0.00     0.031 A 
BRANCH  46  60
ATOM     60  C   UNL     1       0.912   4.671 -16.342  1.00  0.00    -0.014 A 
ATOM     61  C   UNL     1      -0.367   4.774 -16.915  1.00  0.00     0.010 A 
ATOM     62  C   UNL     1       1.864   3.823 -16.937  1.00  0.00     0.010 A 
ATOM     63  C   UNL     1      -0.694   4.027 -18.051  1.00  0.00     0.020 A 
ATOM     64  C   UNL     1       1.550   3.095 -18.088  1.00  0.00     0.020 A 
ATOM     65  C   UNL     1       0.268   3.196 -18.632  1.00  0.00     0.054 A 
BRANCH  65  66
ATOM     66  S   UNL     1      -0.164   2.290 -20.143  1.00  0.00     0.124 S 
ATOM     67  O   UNL     1      -1.053   1.252 -19.626  1.00  0.00    -0.237 OA
ATOM     68  O   UNL     1      -0.806   3.316 -20.960  1.00  0.00    -0.237 OA
ATOM     69  O   UNL     1       1.123   1.814 -20.643  1.00  0.00    -0.744 OA
ENDBRANCH  65  66
ENDBRANCH  46  60
BRANCH  47  70
ATOM     70  C   UNL     1       3.693   9.848  -8.264  1.00  0.00    -0.014 A 
ATOM     71  C   UNL     1       3.389  11.210  -8.092  1.00  0.00     0.010 A 
ATOM     72  C   UNL     1       4.493   9.201  -7.304  1.00  0.00     0.010 A 
ATOM     73  C   UNL     1       3.912  11.923  -7.008  1.00  0.00     0.020 A 
ATOM     74  C   UNL     1       4.992   9.903  -6.203  1.00  0.00     0.020 A 
ATOM     75  C   UNL     1       4.716  11.265  -6.073  1.00  0.00     0.054 A 
BRANCH  75  76
ATOM     76  S   UNL     1       5.380  12.207  -4.671  1.00  0.00     0.124 S 
ATOM     77  O   UNL     1       6.455  12.967  -5.300  1.00  0.00    -0.237 OA
ATOM     78  O   UNL     1       4.224  12.986  -4.236  1.00  0.00    -0.237 OA
ATOM     79  O   UNL     1       5.809  11.168  -3.737  1.00  0.00    -0.744 OA
ENDBRANCH  75  76
ENDBRANCH  47  70
BRANCH  59  80
ATOM     80  C   UNL     1       5.165  10.321 -15.068  1.00  0.00    -0.014 A 
ATOM     81  C   UNL     1       6.566  10.224 -15.066  1.00  0.00     0.010 A 
ATOM     82  C   UNL     1       4.540  11.255 -15.916  1.00  0.00     0.010 A 
ATOM     83  C   UNL     1       7.329  11.054 -15.893  1.00  0.00     0.020 A 
ATOM     84  C   UNL     1       5.298  12.067 -16.761  1.00  0.00     0.020 A 
ATOM     85  C   UNL     1       6.690  11.966 -16.739  1.00  0.00     0.054 A 
BRANCH  85  86
ATOM     86  S   UNL     1       7.699  12.974 -17.860  1.00  0.00     0.124 S 
ATOM     87  O   UNL     1       8.280  13.955 -16.949  1.00  0.00    -0.237 OA
ATOM     88  O   UNL     1       8.634  11.998 -18.415  1.00  0.00    -0.237 OA
ATOM     89  O   UNL     1       6.728  13.508 -18.814  1.00  0.00    -0.744 OA
ENDBRANCH  85  86
ENDBRANCH  59  80
ENDBRANCH  33  34
ENDBRANCH  25  28
ENDBRANCH  23  24
ENDBRANCH   1  23
TORSDOF 15
