REMARK SMILES C=C1C[C@]23CC[C@@H]4[C@](C)(CCC[C@@]4(C)C(=O)NCCCNC(=O)c4ccc(-c5c6nc(c(-c7ccc(S(=O)(=O)[O-])cc7)c7ccc([nH]7)c(-c7ccc(S(=O)(=O)[O-])cc7)c7nc(c(-c8ccc(S(=O)(=O)[O-])cc8)c8ccc5[nH]8)C=C7)C=C6)cc4)[C@@H]2CC[C@@]1(O)C3
REMARK SMILES IDX 20 1 19 2 18 3 17 4 15 5 16 6 13 8 1 9 2 10 3 11 87 12 4 13
REMARK SMILES IDX 86 14 89 15 5 16 84 17 85 18 6 19 8 20 7 21 10 22 9 23 11 24
REMARK SMILES IDX 12 25 14 26 88 27 21 29 22 30 23 32 24 33 25 34 83 35 26 36
REMARK SMILES IDX 82 37 27 38 28 39 29 40 76 41 30 42 81 43 75 44 77 45 31 46
REMARK SMILES IDX 80 47 74 48 73 49 32 51 62 52 43 53 61 54 44 55 47 56 60 57
REMARK SMILES IDX 78 58 45 59 46 60 59 62 79 63 48 64 33 65 34 66 42 67 35 68
REMARK SMILES IDX 41 69 36 70 37 71 38 72 39 73 40 74 63 75 64 76 72 77 65 78
REMARK SMILES IDX 71 79 66 80 67 81 68 82 69 83 70 84 49 85 50 86 58 87 51 88
REMARK SMILES IDX 57 89 52 90 53 91 54 92 55 93 56 94
REMARK H PARENT 17 7 88 28 21 31 77 50 47 61
REMARK Flexibility Score: inf
ROOT
ATOM      1  C   UNL     1       3.783   5.517   8.686  1.00  0.00     0.118 C 
ENDROOT
BRANCH   1   2
ATOM      2  C   UNL     1       3.224   6.541   7.715  1.00  0.00     0.042 C 
BRANCH   2   3
ATOM      3  C   UNL     1       2.671   5.871   6.458  1.00  0.00     0.117 C 
BRANCH   3   4
ATOM      4  N   UNL     1       1.254   6.158   6.162  1.00  0.00    -0.356 N 
ATOM      5  C   UNL     1       0.642   6.866   5.119  1.00  0.00     0.226 C 
ATOM      6  O   UNL     1      -0.571   7.055   5.170  1.00  0.00    -0.274 OA
ATOM      7  H   UNL     1       0.623   5.783   6.818  1.00  0.00     0.163 HD
BRANCH   5   8
ATOM      8  C   UNL     1       1.512   7.240   3.892  1.00  0.00     0.050 C 
ATOM      9  C   UNL     1       1.054   0.518  -1.011  1.00  0.00     0.011 C 
ATOM     10  C   UNL     1       1.097   1.421  -0.021  1.00  0.00    -0.045 C 
ATOM     11  C   UNL     1       1.052   2.941  -0.162  1.00  0.00     0.040 C 
ATOM     12  C   UNL     1       1.056   1.091   1.448  1.00  0.00     0.086 C 
ATOM     13  C   UNL     1       0.862   3.458   1.306  1.00  0.00    -0.020 C 
ATOM     14  C   UNL     1       2.472   1.167   2.047  1.00  0.00     0.040 C 
ATOM     15  C   UNL     1       0.161   2.222   1.926  1.00  0.00     0.047 C 
ATOM     16  C   UNL     1      -0.084   4.637   1.430  1.00  0.00     0.008 C 
ATOM     17  C   UNL     1       2.196   3.666   2.139  1.00  0.00     0.002 C 
ATOM     18  C   UNL     1       3.189   2.526   1.814  1.00  0.00     0.008 C 
ATOM     19  C   UNL     1       0.003   5.213   2.873  1.00  0.00     0.006 C 
ATOM     20  C   UNL     1       2.688   5.133   2.618  1.00  0.00    -0.025 C 
ATOM     21  C   UNL     1       1.423   5.856   3.086  1.00  0.00     0.010 C 
ATOM     22  C   UNL     1       3.340   6.256   1.693  1.00  0.00     0.007 C 
ATOM     23  C   UNL     1       3.720   4.823   3.716  1.00  0.00     0.012 C 
ATOM     24  C   UNL     1       2.643   7.760   1.663  1.00  0.00     0.002 C 
ATOM     25  C   UNL     1       1.361   8.124   2.615  1.00  0.00     0.017 C 
ATOM     26  C   UNL     1       2.579   8.154   4.578  1.00  0.00     0.022 C 
BRANCH  12  27
ATOM     27  O   UNL     1       0.464  -0.163   1.724  1.00  0.00    -0.386 OA
ATOM     28  H   UNL     1       1.048  -0.872   1.413  1.00  0.00     0.211 HD
ENDBRANCH  12  27
ENDBRANCH   5   8
ENDBRANCH   3   4
ENDBRANCH   2   3
ENDBRANCH   1   2
BRANCH   1  29
ATOM     29  N   UNL     1       5.067   4.944   8.289  1.00  0.00    -0.352 N 
ATOM     30  C   UNL     1       6.087   4.507   9.127  1.00  0.00     0.251 C 
ATOM     31  H   UNL     1       5.228   4.857   7.322  1.00  0.00     0.163 HD
ATOM     32  O   UNL     1       7.145   4.124   8.688  1.00  0.00    -0.269 OA
BRANCH  30  33
ATOM     33  C   UNL     1       5.843   4.581  10.589  1.00  0.00     0.039 A 
ATOM     34  C   UNL     1       6.741   5.281  11.396  1.00  0.00     0.014 A 
ATOM     35  C   UNL     1       4.653   4.078  11.117  1.00  0.00     0.014 A 
ATOM     36  C   UNL     1       6.392   5.562  12.719  1.00  0.00     0.010 A 
ATOM     37  C   UNL     1       4.262   4.453  12.394  1.00  0.00     0.010 A 
ATOM     38  C   UNL     1       5.127   5.197  13.210  1.00  0.00    -0.014 A 
BRANCH  38  39
ATOM     39  C   UNL     1       4.682   5.570  14.576  1.00  0.00     0.031 A 
ATOM     40  C   UNL     1       4.334   4.490  15.565  1.00  0.00     0.074 A 
ATOM     41  C   UNL     1       4.505   6.868  14.897  1.00  0.00     0.049 A 
ATOM     42  N   UNL     1       3.852   4.604  16.775  1.00  0.00    -0.248 NA
ATOM     43  C   UNL     1       4.514   3.097  15.120  1.00  0.00     0.031 C 
ATOM     44  C   UNL     1       4.745   8.006  14.005  1.00  0.00     0.029 A 
ATOM     45  N   UNL     1       4.073   7.449  16.063  1.00  0.00    -0.354 N 
ATOM     46  C   UNL     1       3.648   3.304  17.222  1.00  0.00     0.074 A 
ATOM     47  C   UNL     1       4.000   2.420  16.134  1.00  0.00     0.031 C 
ATOM     48  C   UNL     1       4.486   9.146  14.666  1.00  0.00     0.029 A 
ATOM     49  C   UNL     1       4.026   8.823  16.013  1.00  0.00     0.049 A 
ATOM     50  H   UNL     1       3.820   6.931  16.861  1.00  0.00     0.167 HD
ATOM     51  C   UNL     1       3.230   2.881  18.438  1.00  0.00     0.031 A 
ATOM     52  C   UNL     1       3.653   9.722  16.945  1.00  0.00     0.031 A 
ATOM     53  C   UNL     1       2.909   3.763  19.525  1.00  0.00     0.049 A 
ATOM     54  C   UNL     1       3.216   9.230  18.298  1.00  0.00     0.074 A 
ATOM     55  C   UNL     1       2.551   3.436  20.820  1.00  0.00     0.029 A 
ATOM     56  N   UNL     1       2.910   5.148  19.444  1.00  0.00    -0.354 N 
ATOM     57  N   UNL     1       3.109   7.995  18.729  1.00  0.00    -0.248 NA
ATOM     58  C   UNL     1       2.865  10.251  19.294  1.00  0.00     0.031 C 
ATOM     59  C   UNL     1       2.287   4.624  21.510  1.00  0.00     0.029 A 
ATOM     60  C   UNL     1       2.536   5.691  20.661  1.00  0.00     0.049 A 
ATOM     61  H   UNL     1       3.142   5.667  18.641  1.00  0.00     0.167 HD
ATOM     62  C   UNL     1       2.700   8.092  20.055  1.00  0.00     0.074 A 
ATOM     63  C   UNL     1       2.596   9.505  20.358  1.00  0.00     0.031 C 
ATOM     64  C   UNL     1       2.437   7.101  20.942  1.00  0.00     0.031 A 
BRANCH  51  65
ATOM     65  C   UNL     1       3.100   1.395  18.647  1.00  0.00    -0.014 A 
ATOM     66  C   UNL     1       4.235   0.564  18.692  1.00  0.00     0.010 A 
ATOM     67  C   UNL     1       1.827   0.824  18.820  1.00  0.00     0.010 A 
ATOM     68  C   UNL     1       4.096  -0.816  18.857  1.00  0.00     0.020 A 
ATOM     69  C   UNL     1       1.685  -0.553  19.017  1.00  0.00     0.020 A 
ATOM     70  C   UNL     1       2.821  -1.366  19.014  1.00  0.00     0.054 A 
BRANCH  70  71
ATOM     71  S   UNL     1       2.670  -3.159  19.243  1.00  0.00     0.124 S 
ATOM     72  O   UNL     1       2.943  -3.657  17.897  1.00  0.00    -0.237 OA
ATOM     73  O   UNL     1       3.701  -3.442  20.238  1.00  0.00    -0.237 OA
ATOM     74  O   UNL     1       1.296  -3.335  19.705  1.00  0.00    -0.744 OA
ENDBRANCH  70  71
ENDBRANCH  51  65
BRANCH  52  75
ATOM     75  C   UNL     1       3.702  11.177  16.636  1.00  0.00    -0.014 A 
ATOM     76  C   UNL     1       4.683  11.999  17.219  1.00  0.00     0.010 A 
ATOM     77  C   UNL     1       2.781  11.746  15.736  1.00  0.00     0.010 A 
ATOM     78  C   UNL     1       4.735  13.364  16.919  1.00  0.00     0.020 A 
ATOM     79  C   UNL     1       2.847  13.105  15.414  1.00  0.00     0.020 A 
ATOM     80  C   UNL     1       3.818  13.908  16.015  1.00  0.00     0.054 A 
BRANCH  80  81
ATOM     81  S   UNL     1       3.945  15.668  15.592  1.00  0.00     0.124 S 
ATOM     82  O   UNL     1       3.426  16.308  16.796  1.00  0.00    -0.237 OA
ATOM     83  O   UNL     1       5.377  15.833  15.354  1.00  0.00    -0.237 OA
ATOM     84  O   UNL     1       3.107  15.794  14.402  1.00  0.00    -0.744 OA
ENDBRANCH  80  81
ENDBRANCH  52  75
BRANCH  64  85
ATOM     85  C   UNL     1       2.038   7.505  22.335  1.00  0.00    -0.014 A 
ATOM     86  C   UNL     1       0.768   8.044  22.602  1.00  0.00     0.010 A 
ATOM     87  C   UNL     1       2.928   7.281  23.402  1.00  0.00     0.010 A 
ATOM     88  C   UNL     1       0.405   8.377  23.909  1.00  0.00     0.020 A 
ATOM     89  C   UNL     1       2.558   7.587  24.713  1.00  0.00     0.020 A 
ATOM     90  C   UNL     1       1.302   8.146  24.956  1.00  0.00     0.054 A 
BRANCH  90  91
ATOM     91  S   UNL     1       0.789   8.543  26.650  1.00  0.00     0.124 S 
ATOM     92  O   UNL     1       0.865  10.001  26.657  1.00  0.00    -0.237 OA
ATOM     93  O   UNL     1      -0.559   7.983  26.716  1.00  0.00    -0.237 OA
ATOM     94  O   UNL     1       1.781   7.863  27.481  1.00  0.00    -0.744 OA
ENDBRANCH  90  91
ENDBRANCH  64  85
ENDBRANCH  38  39
ENDBRANCH  30  33
ENDBRANCH   1  29
TORSDOF 14
