REMARK SMILES O=C(NCCCNC(=O)[C@@H]1[C@@H](C(=O)NCCn2cc(Cl)cn2)[C@H]2CC[C@@H]1O2)c1ccc(-c2c3nc(c(-c4ccc(S(=O)(=O)[O-])cc4)c4ccc([nH]4)c(-c4ccc(S(=O)(=O)[O-])cc4)c4nc(c(-c5ccc(S(=O)(=O)[O-])cc5)c5ccc2[nH]5)C=C4)C=C3)cc1
REMARK SMILES IDX 5 1 4 2 3 3 1 4 2 5 28 7 29 8 87 9 30 10 86 11 31 12 32 13
REMARK SMILES IDX 33 14 80 15 34 16 85 17 79 18 81 19 35 20 84 21 78 22 77 23
REMARK SMILES IDX 36 25 66 26 47 27 65 28 48 29 51 30 64 31 82 32 49 33 50 34
REMARK SMILES IDX 63 36 83 37 52 38 37 39 38 40 46 41 39 42 45 43 40 44 41 45
REMARK SMILES IDX 42 46 43 47 44 48 67 49 68 50 76 51 69 52 75 53 70 54 71 55
REMARK SMILES IDX 72 56 73 57 74 58 53 59 54 60 62 61 55 62 61 63 56 64 57 65
REMARK SMILES IDX 58 66 59 67 60 68 6 69 7 70 8 71 9 73 10 74 11 75 26 76
REMARK SMILES IDX 23 77 25 78 27 79 24 80 12 81 13 82 14 83 15 85 16 86 17 87
REMARK SMILES IDX 18 88 22 89 19 90 21 91 20 92
REMARK H PARENT 3 6 81 24 51 35 7 72 14 84
REMARK Flexibility Score: inf
ROOT
ATOM      1  C   UNL     1       4.843  -2.201  -1.100  1.00  0.00     0.042 C 
ENDROOT
BRANCH   1   2
ATOM      2  C   UNL     1       4.598  -0.689  -1.098  1.00  0.00     0.118 C 
BRANCH   2   3
ATOM      3  N   UNL     1       3.213  -0.285  -1.225  1.00  0.00    -0.352 N 
ATOM      4  O   UNL     1       1.224   0.567  -0.814  1.00  0.00    -0.269 OA
ATOM      5  C   UNL     1       2.209  -0.005  -0.340  1.00  0.00     0.251 C 
ATOM      6  H   UNL     1       2.929  -0.191  -2.163  1.00  0.00     0.163 HD
BRANCH   5   7
ATOM      7  C   UNL     1       2.182  -0.421   1.087  1.00  0.00     0.039 A 
ATOM      8  C   UNL     1       3.249  -0.963   1.806  1.00  0.00     0.014 A 
ATOM      9  C   UNL     1       0.925  -0.325   1.715  1.00  0.00     0.014 A 
ATOM     10  C   UNL     1       3.036  -1.517   3.066  1.00  0.00     0.010 A 
ATOM     11  C   UNL     1       0.709  -0.868   2.972  1.00  0.00     0.010 A 
ATOM     12  C   UNL     1       1.755  -1.516   3.619  1.00  0.00    -0.014 A 
BRANCH  12  13
ATOM     13  C   UNL     1       1.554  -2.103   4.939  1.00  0.00     0.031 A 
ATOM     14  C   UNL     1       2.187  -1.345   6.054  1.00  0.00     0.074 A 
ATOM     15  C   UNL     1       0.725  -3.146   5.153  1.00  0.00     0.049 A 
ATOM     16  N   UNL     1       3.121  -1.734   6.860  1.00  0.00    -0.248 NA
ATOM     17  C   UNL     1       1.818   0.072   6.210  1.00  0.00     0.031 C 
ATOM     18  C   UNL     1      -0.177  -3.793   4.195  1.00  0.00     0.029 A 
ATOM     19  N   UNL     1       0.421  -3.776   6.322  1.00  0.00    -0.354 N 
ATOM     20  C   UNL     1       3.314  -0.686   7.758  1.00  0.00     0.074 A 
ATOM     21  C   UNL     1       2.614   0.449   7.211  1.00  0.00     0.031 C 
ATOM     22  C   UNL     1      -1.088  -4.533   4.867  1.00  0.00     0.029 A 
ATOM     23  C   UNL     1      -0.752  -4.525   6.281  1.00  0.00     0.049 A 
ATOM     24  H   UNL     1       0.983  -3.707   7.128  1.00  0.00     0.167 HD
ATOM     25  C   UNL     1       3.835  -0.883   9.002  1.00  0.00     0.031 A 
ATOM     26  C   UNL     1      -1.433  -5.036   7.341  1.00  0.00     0.031 A 
ATOM     27  C   UNL     1       4.486  -2.160   9.116  1.00  0.00     0.049 A 
ATOM     28  C   UNL     1      -0.489  -5.086   8.485  1.00  0.00     0.074 A 
ATOM     29  C   UNL     1       5.558  -2.769   8.496  1.00  0.00     0.029 A 
ATOM     30  N   UNL     1       3.784  -3.170   9.732  1.00  0.00    -0.354 N 
ATOM     31  N   UNL     1       0.562  -5.856   8.509  1.00  0.00    -0.248 NA
ATOM     32  C   UNL     1      -0.448  -3.945   9.385  1.00  0.00     0.031 C 
ATOM     33  C   UNL     1       5.168  -4.133   8.351  1.00  0.00     0.029 A 
ATOM     34  C   UNL     1       3.916  -4.288   8.950  1.00  0.00     0.049 A 
ATOM     35  H   UNL     1       3.281  -3.102  10.575  1.00  0.00     0.167 HD
ATOM     36  C   UNL     1       1.559  -5.078   9.080  1.00  0.00     0.074 A 
ATOM     37  C   UNL     1       0.856  -3.942   9.678  1.00  0.00     0.031 C 
ATOM     38  C   UNL     1       2.876  -5.279   8.777  1.00  0.00     0.031 A 
BRANCH  25  39
ATOM     39  C   UNL     1       3.393  -0.106  10.222  1.00  0.00    -0.014 A 
ATOM     40  C   UNL     1       4.010  -0.379  11.461  1.00  0.00     0.010 A 
ATOM     41  C   UNL     1       2.205   0.653  10.254  1.00  0.00     0.010 A 
ATOM     42  C   UNL     1       3.416   0.007  12.670  1.00  0.00     0.020 A 
ATOM     43  C   UNL     1       1.628   1.081  11.451  1.00  0.00     0.020 A 
ATOM     44  C   UNL     1       2.216   0.718  12.655  1.00  0.00     0.054 A 
BRANCH  44  45
ATOM     45  S   UNL     1       1.384   1.096  14.217  1.00  0.00     0.124 S 
ATOM     46  O   UNL     1       1.031  -0.240  14.696  1.00  0.00    -0.237 OA
ATOM     47  O   UNL     1       2.438   1.778  14.968  1.00  0.00    -0.237 OA
ATOM     48  O   UNL     1       0.265   1.936  13.816  1.00  0.00    -0.744 OA
ENDBRANCH  44  45
ENDBRANCH  25  39
BRANCH  26  49
ATOM     49  C   UNL     1      -2.909  -5.123   7.517  1.00  0.00    -0.014 A 
ATOM     50  C   UNL     1      -3.489  -5.888   8.548  1.00  0.00     0.010 A 
ATOM     51  C   UNL     1      -3.745  -4.215   6.835  1.00  0.00     0.010 A 
ATOM     52  C   UNL     1      -4.839  -5.713   8.914  1.00  0.00     0.020 A 
ATOM     53  C   UNL     1      -5.088  -4.037   7.190  1.00  0.00     0.020 A 
ATOM     54  C   UNL     1      -5.625  -4.772   8.243  1.00  0.00     0.054 A 
BRANCH  54  55
ATOM     55  S   UNL     1      -7.314  -4.425   8.825  1.00  0.00     0.124 S 
ATOM     56  O   UNL     1      -8.028  -5.644   8.457  1.00  0.00    -0.237 OA
ATOM     57  O   UNL     1      -7.122  -4.212  10.256  1.00  0.00    -0.237 OA
ATOM     58  O   UNL     1      -7.699  -3.232   8.072  1.00  0.00    -0.744 OA
ENDBRANCH  54  55
ENDBRANCH  26  49
BRANCH  38  59
ATOM     59  C   UNL     1       3.253  -6.515   7.992  1.00  0.00    -0.014 A 
ATOM     60  C   UNL     1       2.806  -6.774   6.681  1.00  0.00     0.010 A 
ATOM     61  C   UNL     1       4.224  -7.364   8.548  1.00  0.00     0.010 A 
ATOM     62  C   UNL     1       3.303  -7.870   5.957  1.00  0.00     0.020 A 
ATOM     63  C   UNL     1       4.736  -8.446   7.827  1.00  0.00     0.020 A 
ATOM     64  C   UNL     1       4.267  -8.699   6.537  1.00  0.00     0.054 A 
BRANCH  64  65
ATOM     65  S   UNL     1       4.944 -10.087   5.583  1.00  0.00     0.124 S 
ATOM     66  O   UNL     1       3.802 -10.992   5.484  1.00  0.00    -0.237 OA
ATOM     67  O   UNL     1       5.353  -9.451   4.332  1.00  0.00    -0.237 OA
ATOM     68  O   UNL     1       6.048 -10.572   6.409  1.00  0.00    -0.744 OA
ENDBRANCH  64  65
ENDBRANCH  38  59
ENDBRANCH  12  13
ENDBRANCH   5   7
ENDBRANCH   2   3
ENDBRANCH   1   2
BRANCH   1  69
ATOM     69  C   UNL     1       4.295  -2.940  -2.325  1.00  0.00     0.117 C 
BRANCH  69  70
ATOM     70  N   UNL     1       4.820  -2.397  -3.568  1.00  0.00    -0.356 N 
ATOM     71  C   UNL     1       5.773  -2.875  -4.415  1.00  0.00     0.226 C 
ATOM     72  H   UNL     1       4.419  -1.541  -3.842  1.00  0.00     0.163 HD
ATOM     73  O   UNL     1       6.180  -2.106  -5.288  1.00  0.00    -0.275 OA
BRANCH  71  74
ATOM     74  C   UNL     1       6.309  -4.286  -4.235  1.00  0.00     0.122 C 
ATOM     75  C   UNL     1       7.548  -4.557  -5.114  1.00  0.00     0.122 C 
ATOM     76  C   UNL     1       5.314  -5.312  -4.798  1.00  0.00     0.132 C 
ATOM     77  C   UNL     1       7.102  -5.760  -5.953  1.00  0.00     0.132 C 
ATOM     78  C   UNL     1       5.670  -6.725  -4.325  1.00  0.00     0.035 C 
ATOM     79  O   UNL     1       5.715  -5.387  -6.194  1.00  0.00    -0.373 OA
ATOM     80  C   UNL     1       6.871  -7.067  -5.205  1.00  0.00     0.035 C 
BRANCH  75  81
ATOM     81  C   UNL     1       8.779  -4.773  -4.264  1.00  0.00     0.226 C 
ATOM     82  O   UNL     1       8.941  -5.780  -3.577  1.00  0.00    -0.275 OA
ATOM     83  N   UNL     1       9.730  -3.806  -4.183  1.00  0.00    -0.354 N 
ATOM     84  H   UNL     1      10.494  -4.037  -3.606  1.00  0.00     0.163 HD
BRANCH  83  85
ATOM     85  C   UNL     1       9.823  -2.487  -4.799  1.00  0.00     0.139 C 
BRANCH  85  86
ATOM     86  C   UNL     1       9.909  -1.367  -3.761  1.00  0.00     0.165 C 
BRANCH  86  87
ATOM     87  N   UNL     1      11.103  -1.419  -2.935  1.00  0.00    -0.269 N 
ATOM     88  C   UNL     1      11.175  -1.161  -1.595  1.00  0.00     0.129 A 
ATOM     89  N   UNL     1      12.300  -1.715  -3.486  1.00  0.00    -0.180 NA
ATOM     90  C   UNL     1      12.493  -1.325  -1.250  1.00  0.00     0.079 A 
ATOM     91  C   UNL     1      13.140  -1.678  -2.446  1.00  0.00     0.155 A 
ATOM     92  Cl  UNL     1      13.211  -1.143   0.268  1.00  0.00    -0.081 Cl
ENDBRANCH  86  87
ENDBRANCH  85  86
ENDBRANCH  83  85
ENDBRANCH  75  81
ENDBRANCH  71  74
ENDBRANCH  69  70
ENDBRANCH   1  69
TORSDOF 17
