REMARK SMILES C[C@H](Oc1ccc(C(=O)NCc2ccccc2)cc1)C(=O)NCCCNC(=O)c1ccc(-c2c3nc(c(-c4ccc(S(=O)(=O)[O-])cc4)c4ccc([nH]4)c(-c4ccc(S(=O)(=O)[O-])cc4)c4nc(c(-c5ccc(S(=O)(=O)[O-])cc5)c5ccc2[nH]5)C=C4)C=C3)cc1
REMARK SMILES IDX 23 1 22 2 20 3 21 4 2 6 1 7 3 8 4 9 5 10 19 11 6 12 18 13
REMARK SMILES IDX 7 14 8 15 9 16 10 17 11 19 12 20 13 21 17 22 14 23 16 24
REMARK SMILES IDX 15 25 24 26 25 27 26 28 27 29 28 31 29 32 30 33 88 34 31 35
REMARK SMILES IDX 87 36 32 37 33 38 34 39 81 40 35 41 86 42 80 43 82 44 36 45
REMARK SMILES IDX 85 46 79 47 78 48 37 50 67 51 48 52 66 53 49 54 52 55 65 56
REMARK SMILES IDX 83 57 50 58 51 59 64 61 84 62 53 63 38 64 39 65 47 66 40 67
REMARK SMILES IDX 46 68 41 69 42 70 43 71 44 72 45 73 68 74 69 75 77 76 70 77
REMARK SMILES IDX 76 78 71 79 72 80 73 81 74 82 75 83 54 84 55 85 63 86 56 87
REMARK SMILES IDX 62 88 57 89 58 90 59 91 60 92 61 93
REMARK H PARENT 22 5 10 18 26 30 82 49 52 60
REMARK Flexibility Score: inf
ROOT
ATOM      1  C   UNL     1      -0.939  -2.190   0.721  1.00  0.00     0.118 C 
ENDROOT
BRANCH   1   2
ATOM      2  N   UNL     1      -1.488  -1.448  -0.405  1.00  0.00    -0.353 N 
ATOM      3  C   UNL     1      -0.833  -0.820  -1.434  1.00  0.00     0.260 C 
ATOM      4  O   UNL     1      -1.511  -0.284  -2.315  1.00  0.00    -0.271 OA
ATOM      5  H   UNL     1      -2.470  -1.388  -0.432  1.00  0.00     0.163 HD
BRANCH   3   6
ATOM      6  C   UNL     1       0.701  -0.846  -1.512  1.00  0.00     0.258 C 
ATOM      7  C   UNL     1       1.133  -2.272  -1.869  1.00  0.00     0.064 C 
BRANCH   6   8
ATOM      8  O   UNL     1       1.134  -0.337  -0.250  1.00  0.00    -0.481 OA
BRANCH   8   9
ATOM      9  C   UNL     1       2.447  -0.250   0.078  1.00  0.00     0.120 A 
ATOM     10  C   UNL     1       3.527  -0.385  -0.780  1.00  0.00     0.047 A 
ATOM     11  C   UNL     1       2.677  -0.027   1.438  1.00  0.00     0.047 A 
ATOM     12  C   UNL     1       4.828  -0.367  -0.262  1.00  0.00     0.017 A 
ATOM     13  C   UNL     1       3.975  -0.013   1.959  1.00  0.00     0.017 A 
ATOM     14  C   UNL     1       5.069  -0.178   1.111  1.00  0.00     0.040 A 
BRANCH  14  15
ATOM     15  C   UNL     1       6.486  -0.260   1.560  1.00  0.00     0.251 C 
ATOM     16  O   UNL     1       7.281  -0.911   0.879  1.00  0.00    -0.269 OA
ATOM     17  N   UNL     1       6.974   0.355   2.679  1.00  0.00    -0.348 N 
ATOM     18  H   UNL     1       7.929   0.178   2.837  1.00  0.00     0.164 HD
BRANCH  17  19
ATOM     19  C   UNL     1       6.374   1.215   3.680  1.00  0.00     0.152 C 
BRANCH  19  20
ATOM     20  C   UNL     1       6.046   0.497   4.971  1.00  0.00    -0.029 A 
ATOM     21  C   UNL     1       6.171  -0.893   5.126  1.00  0.00     0.005 A 
ATOM     22  C   UNL     1       5.600   1.250   6.069  1.00  0.00     0.005 A 
ATOM     23  C   UNL     1       5.873  -1.509   6.344  1.00  0.00     0.000 A 
ATOM     24  C   UNL     1       5.302   0.633   7.287  1.00  0.00     0.000 A 
ATOM     25  C   UNL     1       5.441  -0.746   7.424  1.00  0.00     0.000 A 
ENDBRANCH  19  20
ENDBRANCH  17  19
ENDBRANCH  14  15
ENDBRANCH   8   9
ENDBRANCH   6   8
ENDBRANCH   3   6
ENDBRANCH   1   2
BRANCH   1  26
ATOM     26  C   UNL     1      -1.303  -1.586   2.069  1.00  0.00     0.042 C 
BRANCH  26  27
ATOM     27  C   UNL     1      -2.787  -1.653   2.400  1.00  0.00     0.118 C 
BRANCH  27  28
ATOM     28  N   UNL     1      -3.299  -3.015   2.437  1.00  0.00    -0.352 N 
ATOM     29  C   UNL     1      -3.952  -3.701   3.431  1.00  0.00     0.251 C 
ATOM     30  H   UNL     1      -3.153  -3.531   1.611  1.00  0.00     0.163 HD
ATOM     31  O   UNL     1      -4.144  -4.906   3.295  1.00  0.00    -0.269 OA
BRANCH  29  32
ATOM     32  C   UNL     1      -4.404  -3.013   4.662  1.00  0.00     0.039 A 
ATOM     33  C   UNL     1      -4.324  -3.699   5.877  1.00  0.00     0.014 A 
ATOM     34  C   UNL     1      -4.932  -1.720   4.631  1.00  0.00     0.014 A 
ATOM     35  C   UNL     1      -4.719  -3.067   7.059  1.00  0.00     0.010 A 
ATOM     36  C   UNL     1      -5.232  -1.058   5.819  1.00  0.00     0.010 A 
ATOM     37  C   UNL     1      -5.142  -1.727   7.046  1.00  0.00    -0.014 A 
BRANCH  37  38
ATOM     38  C   UNL     1      -5.490  -1.029   8.312  1.00  0.00     0.031 A 
ATOM     39  C   UNL     1      -6.884  -0.509   8.546  1.00  0.00     0.074 A 
ATOM     40  C   UNL     1      -4.535  -0.839   9.245  1.00  0.00     0.049 A 
ATOM     41  N   UNL     1      -7.372   0.090   9.603  1.00  0.00    -0.248 NA
ATOM     42  C   UNL     1      -7.851  -0.656   7.445  1.00  0.00     0.031 C 
ATOM     43  C   UNL     1      -3.131  -1.239   9.114  1.00  0.00     0.029 A 
ATOM     44  N   UNL     1      -4.601  -0.271  10.492  1.00  0.00    -0.354 N 
ATOM     45  C   UNL     1      -8.692   0.397   9.291  1.00  0.00     0.074 A 
ATOM     46  C   UNL     1      -8.911  -0.025   7.926  1.00  0.00     0.031 C 
ATOM     47  C   UNL     1      -2.482  -0.949  10.252  1.00  0.00     0.029 A 
ATOM     48  C   UNL     1      -3.410  -0.309  11.179  1.00  0.00     0.049 A 
ATOM     49  H   UNL     1      -5.422   0.127  10.860  1.00  0.00     0.167 HD
ATOM     50  C   UNL     1      -9.644   0.956  10.077  1.00  0.00     0.031 A 
ATOM     51  C   UNL     1      -3.099   0.113  12.420  1.00  0.00     0.031 A 
ATOM     52  C   UNL     1      -9.425   1.370  11.438  1.00  0.00     0.049 A 
ATOM     53  C   UNL     1      -4.176   0.718  13.277  1.00  0.00     0.074 A 
ATOM     54  C   UNL     1     -10.339   1.895  12.336  1.00  0.00     0.029 A 
ATOM     55  N   UNL     1      -8.207   1.309  12.099  1.00  0.00    -0.354 N 
ATOM     56  N   UNL     1      -5.438   0.929  12.989  1.00  0.00    -0.248 NA
ATOM     57  C   UNL     1      -3.789   1.123  14.635  1.00  0.00     0.031 C 
ATOM     58  C   UNL     1      -9.661   2.202  13.521  1.00  0.00     0.029 A 
ATOM     59  C   UNL     1      -8.340   1.807  13.384  1.00  0.00     0.049 A 
ATOM     60  H   UNL     1      -7.372   0.962  11.711  1.00  0.00     0.167 HD
ATOM     61  C   UNL     1      -6.003   1.466  14.141  1.00  0.00     0.074 A 
ATOM     62  C   UNL     1      -4.949   1.525  15.133  1.00  0.00     0.031 C 
ATOM     63  C   UNL     1      -7.279   1.873  14.358  1.00  0.00     0.031 A 
BRANCH  50  64
ATOM     64  C   UNL     1     -11.014   1.154   9.478  1.00  0.00    -0.014 A 
ATOM     65  C   UNL     1     -11.839   0.056   9.169  1.00  0.00     0.010 A 
ATOM     66  C   UNL     1     -11.503   2.455   9.259  1.00  0.00     0.010 A 
ATOM     67  C   UNL     1     -13.106   0.253   8.614  1.00  0.00     0.020 A 
ATOM     68  C   UNL     1     -12.782   2.658   8.732  1.00  0.00     0.020 A 
ATOM     69  C   UNL     1     -13.569   1.554   8.397  1.00  0.00     0.054 A 
BRANCH  69  70
ATOM     70  S   UNL     1     -15.228   1.781   7.699  1.00  0.00     0.124 S 
ATOM     71  O   UNL     1     -15.031   1.360   6.314  1.00  0.00    -0.237 OA
ATOM     72  O   UNL     1     -16.044   0.886   8.517  1.00  0.00    -0.237 OA
ATOM     73  O   UNL     1     -15.492   3.205   7.885  1.00  0.00    -0.744 OA
ENDBRANCH  69  70
ENDBRANCH  50  64
BRANCH  51  74
ATOM     74  C   UNL     1      -1.711  -0.051  12.934  1.00  0.00    -0.014 A 
ATOM     75  C   UNL     1      -1.429  -0.973  13.958  1.00  0.00     0.010 A 
ATOM     76  C   UNL     1      -0.659   0.710  12.392  1.00  0.00     0.010 A 
ATOM     77  C   UNL     1      -0.126  -1.117  14.444  1.00  0.00     0.020 A 
ATOM     78  C   UNL     1       0.650   0.546  12.853  1.00  0.00     0.020 A 
ATOM     79  C   UNL     1       0.906  -0.358  13.886  1.00  0.00     0.054 A 
BRANCH  79  80
ATOM     80  S   UNL     1       2.599  -0.598  14.492  1.00  0.00     0.124 S 
ATOM     81  O   UNL     1       2.550   0.055  15.796  1.00  0.00    -0.237 OA
ATOM     82  O   UNL     1       2.722  -2.054  14.516  1.00  0.00    -0.237 OA
ATOM     83  O   UNL     1       3.420   0.071  13.485  1.00  0.00    -0.744 OA
ENDBRANCH  79  80
ENDBRANCH  51  74
BRANCH  63  84
ATOM     84  C   UNL     1      -7.610   2.389  15.735  1.00  0.00    -0.014 A 
ATOM     85  C   UNL     1      -7.096   3.611  16.203  1.00  0.00     0.010 A 
ATOM     86  C   UNL     1      -8.459   1.639  16.569  1.00  0.00     0.010 A 
ATOM     87  C   UNL     1      -7.378   4.045  17.502  1.00  0.00     0.020 A 
ATOM     88  C   UNL     1      -8.771   2.086  17.855  1.00  0.00     0.020 A 
ATOM     89  C   UNL     1      -8.208   3.275  18.322  1.00  0.00     0.054 A 
BRANCH  89  90
ATOM     90  S   UNL     1      -8.558   3.857  20.003  1.00  0.00     0.124 S 
ATOM     91  O   UNL     1      -7.296   3.584  20.687  1.00  0.00    -0.237 OA
ATOM     92  O   UNL     1      -8.868   5.269  19.796  1.00  0.00    -0.237 OA
ATOM     93  O   UNL     1      -9.687   3.033  20.427  1.00  0.00    -0.744 OA
ENDBRANCH  89  90
ENDBRANCH  63  84
ENDBRANCH  37  38
ENDBRANCH  29  32
ENDBRANCH  27  28
ENDBRANCH  26  27
ENDBRANCH   1  26
TORSDOF 18
