REMARK SMILES CC(=O)NCCNC(=O)C[N@H+]1CC[C@@H](C(=O)NCCCNC(=O)c2ccc(-c3c4nc(c(-c5ccc(S(=O)(=O)[O-])cc5)c5ccc([nH]5)c(-c5ccc(S(=O)(=O)[O-])cc5)c5nc(c(-c6ccc(S(=O)(=O)[O-])cc6)c6ccc3[nH]6)C=C5)C=C4)cc2)[C@H]1C
REMARK SMILES IDX 18 1 17 2 15 3 16 4 14 6 11 7 12 8 84 9 13 11 85 12 10 13
REMARK SMILES IDX 8 14 7 15 9 17 6 18 5 19 4 20 1 21 2 22 3 23 19 25 20 26
REMARK SMILES IDX 21 27 22 28 23 30 24 31 25 32 83 33 26 34 82 35 27 36 28 37
REMARK SMILES IDX 29 38 76 39 30 40 81 41 75 42 77 43 31 44 80 45 74 46 73 47
REMARK SMILES IDX 32 49 62 50 43 51 61 52 44 53 47 54 60 55 78 56 45 57 46 58
REMARK SMILES IDX 59 60 79 61 48 62 33 63 34 64 42 65 35 66 41 67 36 68 37 69
REMARK SMILES IDX 38 70 39 71 40 72 63 73 64 74 72 75 65 76 71 77 66 78 67 79
REMARK SMILES IDX 68 80 69 81 70 82 49 83 50 84 58 85 51 86 57 87 52 88 53 89
REMARK SMILES IDX 54 90 55 91 56 92
REMARK H PARENT 17 5 11 10 7 16 4 24 21 29 77 48 47 59
REMARK Flexibility Score: inf
ROOT
ATOM      1  C   UNL     1       5.472   5.155  -7.592  1.00  0.00     0.117 C 
ENDROOT
BRANCH   1   2
ATOM      2  N   UNL     1       4.292   5.999  -7.491  1.00  0.00    -0.356 N 
ATOM      3  C   UNL     1       3.142   5.883  -6.781  1.00  0.00     0.229 C 
ATOM      4  O   UNL     1       2.289   6.758  -6.963  1.00  0.00    -0.275 OA
ATOM      5  H   UNL     1       4.336   6.812  -8.046  1.00  0.00     0.163 HD
BRANCH   3   6
ATOM      6  C   UNL     1       2.886   4.780  -5.767  1.00  0.00     0.142 C 
ATOM      7  N   UNL     1       3.297   2.467  -5.289  1.00  0.00    -0.324 N 
ATOM      8  C   UNL     1       3.992   3.241  -4.274  1.00  0.00     0.263 C 
ATOM      9  C   UNL     1       2.603   3.346  -6.247  1.00  0.00     0.194 C 
ATOM     10  H   UNL     1       2.526   1.969  -4.845  1.00  0.00     0.348 HD
ATOM     11  C   UNL     1       3.943   4.696  -4.679  1.00  0.00     0.081 C 
ATOM     12  C   UNL     1       2.776   3.061  -7.735  1.00  0.00     0.076 C 
BRANCH   7  13
ATOM     13  C   UNL     1       4.004   1.280  -5.773  1.00  0.00     0.363 C 
BRANCH  13  14
ATOM     14  C   UNL     1       3.043   0.095  -5.903  1.00  0.00     0.275 C 
ATOM     15  N   UNL     1       2.636  -0.552  -4.765  1.00  0.00    -0.349 N 
ATOM     16  H   UNL     1       2.151  -1.399  -4.895  1.00  0.00     0.163 HD
ATOM     17  O   UNL     1       2.649  -0.314  -6.995  1.00  0.00    -0.269 OA
BRANCH  15  18
ATOM     18  C   UNL     1       2.837  -0.132  -3.388  1.00  0.00     0.137 C 
BRANCH  18  19
ATOM     19  C   UNL     1       1.590   0.562  -2.829  1.00  0.00     0.137 C 
BRANCH  19  20
ATOM     20  N   UNL     1       0.582  -0.414  -2.442  1.00  0.00    -0.355 N 
ATOM     21  C   UNL     1       0.897  -0.126  -0.018  1.00  0.00     0.114 C 
ATOM     22  C   UNL     1       0.263  -0.835  -1.184  1.00  0.00     0.216 C 
ATOM     23  O   UNL     1      -0.532  -1.758  -1.026  1.00  0.00    -0.275 OA
ATOM     24  H   UNL     1       0.069  -0.821  -3.177  1.00  0.00     0.163 HD
ENDBRANCH  19  20
ENDBRANCH  18  19
ENDBRANCH  15  18
ENDBRANCH  13  14
ENDBRANCH   7  13
ENDBRANCH   3   6
ENDBRANCH   1   2
BRANCH   1  25
ATOM     25  C   UNL     1       5.681   4.634  -9.008  1.00  0.00     0.042 C 
BRANCH  25  26
ATOM     26  C   UNL     1       5.975   5.716 -10.033  1.00  0.00     0.118 C 
BRANCH  26  27
ATOM     27  N   UNL     1       7.356   6.164  -9.985  1.00  0.00    -0.352 N 
ATOM     28  C   UNL     1       8.395   5.878 -10.843  1.00  0.00     0.251 C 
ATOM     29  H   UNL     1       7.582   6.757  -9.232  1.00  0.00     0.163 HD
ATOM     30  O   UNL     1       9.544   6.158 -10.518  1.00  0.00    -0.269 OA
BRANCH  28  31
ATOM     31  C   UNL     1       8.126   5.210 -12.138  1.00  0.00     0.039 A 
ATOM     32  C   UNL     1       8.969   4.181 -12.567  1.00  0.00     0.014 A 
ATOM     33  C   UNL     1       7.045   5.598 -12.932  1.00  0.00     0.014 A 
ATOM     34  C   UNL     1       8.681   3.494 -13.752  1.00  0.00     0.010 A 
ATOM     35  C   UNL     1       6.702   4.849 -14.052  1.00  0.00     0.010 A 
ATOM     36  C   UNL     1       7.522   3.796 -14.484  1.00  0.00    -0.014 A 
BRANCH  36  37
ATOM     37  C   UNL     1       7.148   3.064 -15.724  1.00  0.00     0.031 A 
ATOM     38  C   UNL     1       7.020   3.822 -17.021  1.00  0.00     0.074 A 
ATOM     39  C   UNL     1       6.830   1.754 -15.671  1.00  0.00     0.049 A 
ATOM     40  N   UNL     1       6.560   3.414 -18.174  1.00  0.00    -0.248 NA
ATOM     41  C   UNL     1       7.436   5.237 -17.010  1.00  0.00     0.031 C 
ATOM     42  C   UNL     1       6.896   0.909 -14.477  1.00  0.00     0.029 A 
ATOM     43  N   UNL     1       6.368   0.906 -16.648  1.00  0.00    -0.354 N 
ATOM     44  C   UNL     1       6.590   4.526 -19.009  1.00  0.00     0.074 A 
ATOM     45  C   UNL     1       7.080   5.635 -18.222  1.00  0.00     0.031 C 
ATOM     46  C   UNL     1       6.512  -0.338 -14.796  1.00  0.00     0.029 A 
ATOM     47  C   UNL     1       6.116  -0.371 -16.201  1.00  0.00     0.049 A 
ATOM     48  H   UNL     1       6.231   1.185 -17.582  1.00  0.00     0.167 HD
ATOM     49  C   UNL     1       6.252   4.613 -20.317  1.00  0.00     0.031 A 
ATOM     50  C   UNL     1       5.604  -1.441 -16.842  1.00  0.00     0.031 A 
ATOM     51  C   UNL     1       5.798   3.499 -21.103  1.00  0.00     0.049 A 
ATOM     52  C   UNL     1       5.212  -1.310 -18.291  1.00  0.00     0.074 A 
ATOM     53  C   UNL     1       5.504   3.468 -22.454  1.00  0.00     0.029 A 
ATOM     54  N   UNL     1       5.570   2.223 -20.612  1.00  0.00    -0.354 N 
ATOM     55  N   UNL     1       5.312  -0.266 -19.080  1.00  0.00    -0.248 NA
ATOM     56  C   UNL     1       4.642  -2.500 -18.939  1.00  0.00     0.031 C 
ATOM     57  C   UNL     1       5.035   2.190 -22.768  1.00  0.00     0.029 A 
ATOM     58  C   UNL     1       5.108   1.405 -21.628  1.00  0.00     0.049 A 
ATOM     59  H   UNL     1       5.715   1.941 -19.680  1.00  0.00     0.167 HD
ATOM     60  C   UNL     1       4.860  -0.689 -20.326  1.00  0.00     0.074 A 
ATOM     61  C   UNL     1       4.488  -2.081 -20.188  1.00  0.00     0.031 C 
ATOM     62  C   UNL     1       4.769   0.013 -21.482  1.00  0.00     0.031 A 
BRANCH  49  63
ATOM     63  C   UNL     1       6.343   5.960 -20.985  1.00  0.00    -0.014 A 
ATOM     64  C   UNL     1       7.584   6.565 -21.251  1.00  0.00     0.010 A 
ATOM     65  C   UNL     1       5.165   6.597 -21.419  1.00  0.00     0.010 A 
ATOM     66  C   UNL     1       7.644   7.795 -21.912  1.00  0.00     0.020 A 
ATOM     67  C   UNL     1       5.222   7.812 -22.107  1.00  0.00     0.020 A 
ATOM     68  C   UNL     1       6.462   8.409 -22.338  1.00  0.00     0.054 A 
BRANCH  68  69
ATOM     69  S   UNL     1       6.575   9.982 -23.234  1.00  0.00     0.124 S 
ATOM     70  O   UNL     1       6.981  10.903 -22.176  1.00  0.00    -0.237 OA
ATOM     71  O   UNL     1       7.591   9.700 -24.245  1.00  0.00    -0.237 OA
ATOM     72  O   UNL     1       5.224  10.186 -23.752  1.00  0.00    -0.744 OA
ENDBRANCH  68  69
ENDBRANCH  49  63
BRANCH  50  73
ATOM     73  C   UNL     1       5.431  -2.738 -16.128  1.00  0.00    -0.014 A 
ATOM     74  C   UNL     1       6.208  -3.855 -16.487  1.00  0.00     0.010 A 
ATOM     75  C   UNL     1       4.480  -2.874 -15.100  1.00  0.00     0.010 A 
ATOM     76  C   UNL     1       6.014  -5.088 -15.856  1.00  0.00     0.020 A 
ATOM     77  C   UNL     1       4.306  -4.097 -14.444  1.00  0.00     0.020 A 
ATOM     78  C   UNL     1       5.063  -5.201 -14.839  1.00  0.00     0.054 A 
BRANCH  78  79
ATOM     79  S   UNL     1       4.847  -6.807 -14.023  1.00  0.00     0.124 S 
ATOM     80  O   UNL     1       4.189  -7.590 -15.064  1.00  0.00    -0.237 OA
ATOM     81  O   UNL     1       6.223  -7.191 -13.716  1.00  0.00    -0.237 OA
ATOM     82  O   UNL     1       4.022  -6.492 -12.859  1.00  0.00    -0.744 OA
ENDBRANCH  78  79
ENDBRANCH  50  73
BRANCH  62  83
ATOM     83  C   UNL     1       4.313  -0.714 -22.718  1.00  0.00    -0.014 A 
ATOM     84  C   UNL     1       2.969  -1.078 -22.903  1.00  0.00     0.010 A 
ATOM     85  C   UNL     1       5.234  -0.931 -23.761  1.00  0.00     0.010 A 
ATOM     86  C   UNL     1       2.554  -1.651 -24.109  1.00  0.00     0.020 A 
ATOM     87  C   UNL     1       4.818  -1.475 -24.978  1.00  0.00     0.020 A 
ATOM     88  C   UNL     1       3.480  -1.836 -25.142  1.00  0.00     0.054 A 
BRANCH  88  89
ATOM     89  S   UNL     1       2.896  -2.491 -26.730  1.00  0.00     0.124 S 
ATOM     90  O   UNL     1       2.621  -3.887 -26.401  1.00  0.00    -0.237 OA
ATOM     91  O   UNL     1       1.721  -1.667 -27.002  1.00  0.00    -0.237 OA
ATOM     92  O   UNL     1       4.024  -2.274 -27.632  1.00  0.00    -0.744 OA
ENDBRANCH  88  89
ENDBRANCH  62  83
ENDBRANCH  36  37
ENDBRANCH  28  31
ENDBRANCH  26  27
ENDBRANCH  25  26
ENDBRANCH   1  25
TORSDOF 18
