REMARK SMILES [NH3+]C1(C(=O)N2[C@@H](C(=O)NCCCNC(=O)c3ccc(-c4c5nc(c(-c6ccc(S(=O)(=O)[O-])cc6)c6ccc([nH]6)c(-c6ccc(S(=O)(=O)[O-])cc6)c6nc(c(-c7ccc(S(=O)(=O)[O-])cc7)c7ccc4[nH]7)C=C6)C=C5)cc3)CC[C@@H]3CCCC[C@@H]32)CC1
REMARK SMILES IDX 11 1 10 2 9 3 7 4 8 5 6 7 5 8 83 9 76 10 78 11 82 12 77 13
REMARK SMILES IDX 79 14 81 15 80 16 3 17 4 18 2 19 84 20 85 21 1 22 12 26
REMARK SMILES IDX 13 27 14 28 15 30 16 31 17 32 75 33 18 34 74 35 19 36 20 37
REMARK SMILES IDX 21 38 68 39 22 40 73 41 67 42 69 43 23 44 72 45 66 46 65 47
REMARK SMILES IDX 24 49 54 50 35 51 53 52 36 53 39 54 52 55 70 56 37 57 38 58
REMARK SMILES IDX 51 60 71 61 40 62 25 63 26 64 34 65 27 66 33 67 28 68 29 69
REMARK SMILES IDX 30 70 31 71 32 72 55 73 56 74 64 75 57 76 63 77 58 78 59 79
REMARK SMILES IDX 60 80 61 81 62 82 41 83 42 84 50 85 43 86 49 87 44 88 45 89
REMARK SMILES IDX 46 90 47 91 48 92
REMARK H PARENT 9 6 1 23 1 24 1 25 13 29 69 48 39 59
REMARK Flexibility Score: inf
ROOT
ATOM      1  C   UNL     1      -4.036   0.312   0.879  1.00  0.00     0.042 C 
ENDROOT
BRANCH   1   2
ATOM      2  C   UNL     1      -2.659   0.118   0.264  1.00  0.00     0.117 C 
BRANCH   2   3
ATOM      3  N   UNL     1      -2.424  -1.286  -0.008  1.00  0.00    -0.354 N 
ATOM      4  C   UNL     1      -2.333  -1.926  -1.198  1.00  0.00     0.242 C 
ATOM      5  O   UNL     1      -2.416  -3.159  -1.190  1.00  0.00    -0.273 OA
ATOM      6  H   UNL     1      -2.316  -1.857   0.786  1.00  0.00     0.163 HD
BRANCH   4   7
ATOM      7  C   UNL     1      -2.275  -1.160  -2.532  1.00  0.00     0.175 C 
ATOM      8  N   UNL     1      -1.375   0.021  -2.658  1.00  0.00    -0.322 N 
ATOM      9  C   UNL     1      -1.569   0.848  -3.869  1.00  0.00     0.089 C 
ATOM     10  C   UNL     1      -3.751  -0.790  -2.840  1.00  0.00     0.036 C 
ATOM     11  C   UNL     1      -3.018   1.288  -4.029  1.00  0.00     0.012 C 
ATOM     12  C   UNL     1      -1.008   0.125  -5.114  1.00  0.00     0.025 C 
ATOM     13  C   UNL     1      -3.945   0.073  -4.078  1.00  0.00     0.008 C 
ATOM     14  C   UNL     1      -3.118   2.179  -5.267  1.00  0.00     0.006 C 
ATOM     15  C   UNL     1      -1.522   0.576  -6.486  1.00  0.00     0.002 C 
ATOM     16  C   UNL     1      -2.791   1.424  -6.545  1.00  0.00     0.000 C 
BRANCH   8  17
ATOM     17  C   UNL     1      -0.135   0.227  -2.027  1.00  0.00     0.284 C 
ATOM     18  O   UNL     1       0.481   1.286  -2.176  1.00  0.00    -0.268 OA
BRANCH  17  19
ATOM     19  C   UNL     1       0.557  -0.826  -1.179  1.00  0.00     0.174 C 
ATOM     20  C   UNL     1       1.727  -1.465  -1.935  1.00  0.00     0.086 C 
ATOM     21  C   UNL     1       0.625  -2.314  -1.419  1.00  0.00     0.086 C 
BRANCH  19  22
ATOM     22  N   UNL     1       0.848  -0.343   0.199  1.00  0.00    -0.345 N 
ATOM     23  H   UNL     1       0.769   0.674   0.226  1.00  0.00     0.345 HD
ATOM     24  H   UNL     1       1.795  -0.617   0.462  1.00  0.00     0.345 HD
ATOM     25  H   UNL     1       0.181  -0.753   0.851  1.00  0.00     0.345 HD
ENDBRANCH  19  22
ENDBRANCH  17  19
ENDBRANCH   8  17
ENDBRANCH   4   7
ENDBRANCH   2   3
ENDBRANCH   1   2
BRANCH   1  26
ATOM     26  C   UNL     1      -4.199  -0.400   2.214  1.00  0.00     0.118 C 
BRANCH  26  27
ATOM     27  N   UNL     1      -3.265   0.090   3.219  1.00  0.00    -0.352 N 
ATOM     28  C   UNL     1      -3.529   0.662   4.436  1.00  0.00     0.251 C 
ATOM     29  H   UNL     1      -2.312  -0.003   2.991  1.00  0.00     0.163 HD
ATOM     30  O   UNL     1      -2.627   1.214   5.065  1.00  0.00    -0.269 OA
BRANCH  28  31
ATOM     31  C   UNL     1      -4.902   0.627   4.972  1.00  0.00     0.039 A 
ATOM     32  C   UNL     1      -5.441   1.783   5.538  1.00  0.00     0.014 A 
ATOM     33  C   UNL     1      -5.662  -0.544   4.894  1.00  0.00     0.014 A 
ATOM     34  C   UNL     1      -6.765   1.779   5.976  1.00  0.00     0.010 A 
ATOM     35  C   UNL     1      -7.006  -0.516   5.237  1.00  0.00     0.010 A 
ATOM     36  C   UNL     1      -7.568   0.640   5.797  1.00  0.00    -0.014 A 
BRANCH  36  37
ATOM     37  C   UNL     1      -8.996   0.632   6.198  1.00  0.00     0.031 A 
ATOM     38  C   UNL     1      -9.473  -0.319   7.262  1.00  0.00     0.074 A 
ATOM     39  C   UNL     1      -9.871   1.435   5.562  1.00  0.00     0.049 A 
ATOM     40  N   UNL     1     -10.683  -0.497   7.727  1.00  0.00    -0.248 NA
ATOM     41  C   UNL     1      -8.463  -1.207   7.862  1.00  0.00     0.031 C 
ATOM     42  C   UNL     1      -9.535   2.376   4.491  1.00  0.00     0.029 A 
ATOM     43  N   UNL     1     -11.224   1.590   5.728  1.00  0.00    -0.354 N 
ATOM     44  C   UNL     1     -10.583  -1.529   8.653  1.00  0.00     0.074 A 
ATOM     45  C   UNL     1      -9.208  -1.976   8.640  1.00  0.00     0.031 C 
ATOM     46  C   UNL     1     -10.642   3.046   4.132  1.00  0.00     0.029 A 
ATOM     47  C   UNL     1     -11.773   2.548   4.909  1.00  0.00     0.049 A 
ATOM     48  H   UNL     1     -11.752   1.066   6.373  1.00  0.00     0.167 HD
ATOM     49  C   UNL     1     -11.543  -2.045   9.457  1.00  0.00     0.031 A 
ATOM     50  C   UNL     1     -13.044   2.979   4.796  1.00  0.00     0.031 A 
ATOM     51  C   UNL     1     -12.910  -1.594   9.461  1.00  0.00     0.049 A 
ATOM     52  C   UNL     1     -14.101   2.371   5.676  1.00  0.00     0.074 A 
ATOM     53  C   UNL     1     -13.949  -2.005  10.277  1.00  0.00     0.029 A 
ATOM     54  N   UNL     1     -13.431  -0.639   8.600  1.00  0.00    -0.354 N 
ATOM     55  N   UNL     1     -13.975   1.448   6.600  1.00  0.00    -0.248 NA
ATOM     56  C   UNL     1     -15.471   2.870   5.501  1.00  0.00     0.031 C 
ATOM     57  C   UNL     1     -15.113  -1.350   9.861  1.00  0.00     0.029 A 
ATOM     58  C   UNL     1     -14.785  -0.475   8.837  1.00  0.00     0.049 A 
ATOM     59  H   UNL     1     -12.913  -0.150   7.920  1.00  0.00     0.167 HD
ATOM     60  C   UNL     1     -15.245   1.278   7.141  1.00  0.00     0.074 A 
ATOM     61  C   UNL     1     -16.120   2.202   6.446  1.00  0.00     0.031 C 
ATOM     62  C   UNL     1     -15.647   0.440   8.128  1.00  0.00     0.031 A 
BRANCH  49  63
ATOM     63  C   UNL     1     -11.145  -3.179  10.369  1.00  0.00    -0.014 A 
ATOM     64  C   UNL     1     -10.234  -2.987  11.425  1.00  0.00     0.010 A 
ATOM     65  C   UNL     1     -11.685  -4.461  10.161  1.00  0.00     0.010 A 
ATOM     66  C   UNL     1      -9.815  -4.069  12.206  1.00  0.00     0.020 A 
ATOM     67  C   UNL     1     -11.298  -5.538  10.964  1.00  0.00     0.020 A 
ATOM     68  C   UNL     1     -10.344  -5.340  11.963  1.00  0.00     0.054 A 
BRANCH  68  69
ATOM     69  S   UNL     1      -9.765  -6.729  12.974  1.00  0.00     0.124 S 
ATOM     70  O   UNL     1      -8.412  -6.930  12.462  1.00  0.00    -0.237 OA
ATOM     71  O   UNL     1      -9.849  -6.195  14.331  1.00  0.00    -0.237 OA
ATOM     72  O   UNL     1     -10.712  -7.799  12.668  1.00  0.00    -0.744 OA
ENDBRANCH  68  69
ENDBRANCH  49  63
BRANCH  50  73
ATOM     73  C   UNL     1     -13.369   4.076   3.845  1.00  0.00    -0.014 A 
ATOM     74  C   UNL     1     -13.700   5.354   4.329  1.00  0.00     0.010 A 
ATOM     75  C   UNL     1     -13.308   3.866   2.455  1.00  0.00     0.010 A 
ATOM     76  C   UNL     1     -13.966   6.401   3.443  1.00  0.00     0.020 A 
ATOM     77  C   UNL     1     -13.546   4.918   1.565  1.00  0.00     0.020 A 
ATOM     78  C   UNL     1     -13.878   6.178   2.066  1.00  0.00     0.054 A 
BRANCH  78  79
ATOM     79  S   UNL     1     -14.151   7.574   0.939  1.00  0.00     0.124 S 
ATOM     80  O   UNL     1     -15.586   7.803   1.080  1.00  0.00    -0.237 OA
ATOM     81  O   UNL     1     -13.286   8.606   1.504  1.00  0.00    -0.237 OA
ATOM     82  O   UNL     1     -13.724   7.055  -0.358  1.00  0.00    -0.744 OA
ENDBRANCH  78  79
ENDBRANCH  50  73
BRANCH  62  83
ATOM     83  C   UNL     1     -17.094   0.501   8.543  1.00  0.00    -0.014 A 
ATOM     84  C   UNL     1     -18.118   0.023   7.706  1.00  0.00     0.010 A 
ATOM     85  C   UNL     1     -17.427   0.997   9.817  1.00  0.00     0.010 A 
ATOM     86  C   UNL     1     -19.451   0.070   8.124  1.00  0.00     0.020 A 
ATOM     87  C   UNL     1     -18.755   1.015  10.252  1.00  0.00     0.020 A 
ATOM     88  C   UNL     1     -19.760   0.564   9.395  1.00  0.00     0.054 A 
BRANCH  88  89
ATOM     89  S   UNL     1     -21.493   0.569   9.931  1.00  0.00     0.124 S 
ATOM     90  O   UNL     1     -22.060   1.639   9.115  1.00  0.00    -0.237 OA
ATOM     91  O   UNL     1     -21.936  -0.782   9.593  1.00  0.00    -0.237 OA
ATOM     92  O   UNL     1     -21.413   0.853  11.362  1.00  0.00    -0.744 OA
ENDBRANCH  88  89
ENDBRANCH  62  83
ENDBRANCH  36  37
ENDBRANCH  28  31
ENDBRANCH  26  27
ENDBRANCH   1  26
TORSDOF 16
