REMARK SMILES C[C@@H](Oc1ccc2c(c1)OCO2)C(=O)N1CCn2nc(C(=O)NCCCNC(=O)c3ccc(-c4c5nc(c(-c6ccc(S(=O)(=O)[O-])cc6)c6ccc([nH]6)c(-c6ccc(S(=O)(=O)[O-])cc6)c6nc(c(-c7ccc(S(=O)(=O)[O-])cc7)c7ccc4[nH]7)C=C6)C=C5)cc3)cc2C1
REMARK SMILES IDX 24 1 23 2 21 3 22 4 20 6 15 7 16 8 92 9 17 10 91 11 18 12
REMARK SMILES IDX 90 13 19 14 13 15 14 16 2 17 1 18 3 19 4 20 5 21 9 22 6 23
REMARK SMILES IDX 8 24 7 25 10 26 12 27 11 28 25 29 26 30 27 31 28 32 29 34
REMARK SMILES IDX 30 35 31 36 89 37 32 38 88 39 33 40 34 41 35 42 82 43 36 44
REMARK SMILES IDX 87 45 81 46 83 47 37 48 86 49 80 50 79 51 38 53 68 54 49 55
REMARK SMILES IDX 67 56 50 57 53 58 66 59 84 60 51 61 52 62 65 64 85 65 54 66
REMARK SMILES IDX 39 67 40 68 48 69 41 70 47 71 42 72 43 73 44 74 45 75 46 76
REMARK SMILES IDX 69 77 70 78 78 79 71 80 77 81 72 82 73 83 74 84 75 85 76 86
REMARK SMILES IDX 55 87 56 88 64 89 57 90 63 91 58 92 59 93 60 94 61 95 62 96
REMARK H PARENT 23 5 27 33 83 52 53 63
REMARK Flexibility Score: inf
ROOT
ATOM      1  C   UNL     1      -7.091  -3.822   2.983  1.00  0.00     0.118 C 
ENDROOT
BRANCH   1   2
ATOM      2  N   UNL     1      -6.755  -3.263   4.280  1.00  0.00    -0.351 N 
ATOM      3  C   UNL     1      -5.716  -2.442   4.673  1.00  0.00     0.271 C 
ATOM      4  O   UNL     1      -5.771  -2.003   5.824  1.00  0.00    -0.267 OA
ATOM      5  H   UNL     1      -7.373  -3.513   5.005  1.00  0.00     0.163 HD
BRANCH   3   6
ATOM      6  C   UNL     1      -4.628  -2.090   3.736  1.00  0.00     0.150 A 
ATOM      7  N   UNL     1      -1.446  -1.117   0.560  1.00  0.00    -0.332 N 
ATOM      8  C   UNL     1      -0.985  -0.317   1.708  1.00  0.00     0.143 C 
ATOM      9  C   UNL     1      -2.698  -1.850   0.613  1.00  0.00     0.175 C 
ATOM     10  C   UNL     1      -1.994   0.029   2.801  1.00  0.00     0.166 C 
ATOM     11  C   UNL     1      -3.303  -1.877   1.950  1.00  0.00     0.059 A 
ATOM     12  N   UNL     1      -3.016  -0.972   2.910  1.00  0.00    -0.265 N 
ATOM     13  C   UNL     1      -4.236  -2.707   2.515  1.00  0.00     0.061 A 
ATOM     14  N   UNL     1      -3.828  -1.026   3.971  1.00  0.00    -0.167 NA
BRANCH   7  15
ATOM     15  C   UNL     1      -0.703  -1.345  -0.601  1.00  0.00     0.263 C 
ATOM     16  O   UNL     1      -1.245  -1.772  -1.627  1.00  0.00    -0.271 OA
BRANCH  15  17
ATOM     17  C   UNL     1       0.820  -1.134  -0.587  1.00  0.00     0.259 C 
ATOM     18  C   UNL     1       1.197   0.340  -0.510  1.00  0.00     0.064 C 
BRANCH  17  19
ATOM     19  O   UNL     1       1.306  -1.915   0.516  1.00  0.00    -0.481 OA
BRANCH  19  20
ATOM     20  C   UNL     1       2.625  -2.253   0.425  1.00  0.00     0.124 A 
ATOM     21  C   UNL     1       3.594  -1.332   0.856  1.00  0.00     0.050 A 
ATOM     22  C   UNL     1       2.975  -3.559   0.077  1.00  0.00     0.097 A 
ATOM     23  C   UNL     1       4.940  -1.689   0.897  1.00  0.00     0.054 A 
ATOM     24  C   UNL     1       4.313  -3.890   0.145  1.00  0.00     0.169 A 
ATOM     25  C   UNL     1       5.267  -2.978   0.540  1.00  0.00     0.166 A 
ATOM     26  O   UNL     1       4.853  -5.110  -0.125  1.00  0.00    -0.453 OA
ATOM     27  O   UNL     1       6.519  -3.506   0.562  1.00  0.00    -0.454 OA
ATOM     28  C   UNL     1       6.242  -4.870   0.187  1.00  0.00     0.468 C 
ENDBRANCH  19  20
ENDBRANCH  17  19
ENDBRANCH  15  17
ENDBRANCH   7  15
ENDBRANCH   3   6
ENDBRANCH   1   2
BRANCH   1  29
ATOM     29  C   UNL     1      -6.505  -5.225   2.776  1.00  0.00     0.042 C 
BRANCH  29  30
ATOM     30  C   UNL     1      -7.392  -6.309   3.361  1.00  0.00     0.118 C 
BRANCH  30  31
ATOM     31  N   UNL     1      -8.652  -6.442   2.625  1.00  0.00    -0.352 N 
ATOM     32  C   UNL     1      -9.766  -7.209   2.922  1.00  0.00     0.251 C 
ATOM     33  H   UNL     1      -8.716  -5.908   1.800  1.00  0.00     0.163 HD
ATOM     34  O   UNL     1     -10.579  -7.476   2.054  1.00  0.00    -0.269 OA
BRANCH  32  35
ATOM     35  C   UNL     1      -9.944  -7.696   4.303  1.00  0.00     0.039 A 
ATOM     36  C   UNL     1     -10.459  -8.967   4.574  1.00  0.00     0.014 A 
ATOM     37  C   UNL     1      -9.545  -6.858   5.336  1.00  0.00     0.014 A 
ATOM     38  C   UNL     1     -10.481  -9.413   5.895  1.00  0.00     0.010 A 
ATOM     39  C   UNL     1      -9.375  -7.368   6.592  1.00  0.00     0.010 A 
ATOM     40  C   UNL     1      -9.913  -8.611   6.897  1.00  0.00    -0.014 A 
BRANCH  40  41
ATOM     41  C   UNL     1      -9.747  -9.081   8.267  1.00  0.00     0.031 A 
ATOM     42  C   UNL     1      -8.944 -10.323   8.382  1.00  0.00     0.074 A 
ATOM     43  C   UNL     1     -10.052  -8.310   9.336  1.00  0.00     0.049 A 
ATOM     44  N   UNL     1      -9.371 -11.512   8.650  1.00  0.00    -0.248 NA
ATOM     45  C   UNL     1      -7.529 -10.280   7.969  1.00  0.00     0.031 C 
ATOM     46  C   UNL     1     -10.554  -6.927   9.337  1.00  0.00     0.029 A 
ATOM     47  N   UNL     1      -9.853  -8.548  10.659  1.00  0.00    -0.354 N 
ATOM     48  C   UNL     1      -8.234 -12.311   8.711  1.00  0.00     0.074 A 
ATOM     49  C   UNL     1      -7.193 -11.570   8.047  1.00  0.00     0.031 C 
ATOM     50  C   UNL     1     -10.387  -6.379  10.561  1.00  0.00     0.029 A 
ATOM     51  C   UNL     1      -9.948  -7.419  11.472  1.00  0.00     0.049 A 
ATOM     52  H   UNL     1      -9.657  -9.445  11.016  1.00  0.00     0.167 HD
ATOM     53  C   UNL     1      -8.160 -13.363   9.575  1.00  0.00     0.031 A 
ATOM     54  C   UNL     1      -9.680  -7.344  12.799  1.00  0.00     0.031 A 
ATOM     55  C   UNL     1      -9.447 -13.640  10.164  1.00  0.00     0.049 A 
ATOM     56  C   UNL     1      -9.766  -8.725  13.325  1.00  0.00     0.074 A 
ATOM     57  C   UNL     1     -10.682 -14.039   9.700  1.00  0.00     0.029 A 
ATOM     58  N   UNL     1      -9.650 -13.086  11.407  1.00  0.00    -0.354 N 
ATOM     59  N   UNL     1     -10.874  -9.410  13.349  1.00  0.00    -0.248 NA
ATOM     60  C   UNL     1      -8.547  -9.510  13.436  1.00  0.00     0.031 C 
ATOM     61  C   UNL     1     -11.630 -13.358  10.521  1.00  0.00     0.029 A 
ATOM     62  C   UNL     1     -10.939 -12.633  11.494  1.00  0.00     0.049 A 
ATOM     63  H   UNL     1      -8.975 -13.027  12.121  1.00  0.00     0.167 HD
ATOM     64  C   UNL     1     -10.494 -10.701  13.021  1.00  0.00     0.074 A 
ATOM     65  C   UNL     1      -9.050 -10.732  13.236  1.00  0.00     0.031 C 
ATOM     66  C   UNL     1     -11.344 -11.521  12.334  1.00  0.00     0.031 A 
BRANCH  53  67
ATOM     67  C   UNL     1      -6.884 -13.816  10.256  1.00  0.00    -0.014 A 
ATOM     68  C   UNL     1      -6.953 -14.911  11.145  1.00  0.00     0.010 A 
ATOM     69  C   UNL     1      -5.702 -13.049  10.288  1.00  0.00     0.010 A 
ATOM     70  C   UNL     1      -5.931 -15.169  12.068  1.00  0.00     0.020 A 
ATOM     71  C   UNL     1      -4.659 -13.323  11.175  1.00  0.00     0.020 A 
ATOM     72  C   UNL     1      -4.796 -14.361  12.085  1.00  0.00     0.054 A 
BRANCH  72  73
ATOM     73  S   UNL     1      -3.528 -14.635  13.346  1.00  0.00     0.124 S 
ATOM     74  O   UNL     1      -4.244 -14.290  14.570  1.00  0.00    -0.237 OA
ATOM     75  O   UNL     1      -3.218 -16.050  13.167  1.00  0.00    -0.237 OA
ATOM     76  O   UNL     1      -2.461 -13.714  12.962  1.00  0.00    -0.744 OA
ENDBRANCH  72  73
ENDBRANCH  53  67
BRANCH  54  77
ATOM     77  C   UNL     1      -9.138  -6.223  13.605  1.00  0.00    -0.014 A 
ATOM     78  C   UNL     1      -9.232  -6.231  15.010  1.00  0.00     0.010 A 
ATOM     79  C   UNL     1      -8.254  -5.297  13.014  1.00  0.00     0.010 A 
ATOM     80  C   UNL     1      -8.414  -5.402  15.798  1.00  0.00     0.020 A 
ATOM     81  C   UNL     1      -7.437  -4.465  13.793  1.00  0.00     0.020 A 
ATOM     82  C   UNL     1      -7.501  -4.542  15.184  1.00  0.00     0.054 A 
BRANCH  82  83
ATOM     83  S   UNL     1      -6.308  -3.627  16.210  1.00  0.00     0.124 S 
ATOM     84  O   UNL     1      -7.155  -2.635  16.864  1.00  0.00    -0.237 OA
ATOM     85  O   UNL     1      -5.770  -4.670  17.080  1.00  0.00    -0.237 OA
ATOM     86  O   UNL     1      -5.359  -3.088  15.237  1.00  0.00    -0.744 OA
ENDBRANCH  82  83
ENDBRANCH  54  77
BRANCH  66  87
ATOM     87  C   UNL     1     -12.806 -11.140  12.289  1.00  0.00    -0.014 A 
ATOM     88  C   UNL     1     -13.309  -9.980  11.666  1.00  0.00     0.010 A 
ATOM     89  C   UNL     1     -13.721 -12.072  12.808  1.00  0.00     0.010 A 
ATOM     90  C   UNL     1     -14.692  -9.750  11.593  1.00  0.00     0.020 A 
ATOM     91  C   UNL     1     -15.097 -11.858  12.722  1.00  0.00     0.020 A 
ATOM     92  C   UNL     1     -15.578 -10.693  12.125  1.00  0.00     0.054 A 
BRANCH  92  93
ATOM     93  S   UNL     1     -17.367 -10.413  12.005  1.00  0.00     0.124 S 
ATOM     94  O   UNL     1     -17.576  -9.292  12.917  1.00  0.00    -0.237 OA
ATOM     95  O   UNL     1     -17.556 -10.116  10.587  1.00  0.00    -0.237 OA
ATOM     96  O   UNL     1     -17.948 -11.682  12.445  1.00  0.00    -0.744 OA
ENDBRANCH  92  93
ENDBRANCH  66  87
ENDBRANCH  40  41
ENDBRANCH  32  35
ENDBRANCH  30  31
ENDBRANCH  29  30
ENDBRANCH   1  29
TORSDOF 17
