REMARK SMILES C[C@]1(c2ccccc2C(=O)NCCCNC(=O)c2ccc(-c3c4nc(c(-c5ccc(S(=O)(=O)[O-])cc5)c5ccc([nH]5)c(-c5ccc(S(=O)(=O)[O-])cc5)c5nc(c(-c6ccc(S(=O)(=O)[O-])cc6)c6ccc3[nH]6)C=C5)C=C4)cc2)NN=C(c2ccccc2)S1
REMARK SMILES IDX 13 1 12 2 11 3 9 4 10 5 8 7 3 8 4 9 5 10 7 11 6 12 2 13 1 14
REMARK SMILES IDX 78 15 87 16 79 17 80 19 81 20 82 21 86 22 83 23 85 24 84 25
REMARK SMILES IDX 14 26 15 27 16 28 17 30 18 31 19 32 77 33 20 34 76 35 21 36
REMARK SMILES IDX 22 37 23 38 70 39 24 40 75 41 69 42 71 43 25 44 74 45 68 46
REMARK SMILES IDX 67 47 26 49 56 50 37 51 55 52 38 53 41 54 54 55 72 56 39 57
REMARK SMILES IDX 40 58 53 60 73 61 42 62 27 63 28 64 36 65 29 66 35 67 30 68
REMARK SMILES IDX 31 69 32 70 33 71 34 72 57 73 58 74 66 75 59 76 65 77 60 78
REMARK SMILES IDX 61 79 62 80 63 81 64 82 43 83 44 84 52 85 45 86 51 87 46 88
REMARK SMILES IDX 47 89 48 90 49 91 50 92
REMARK H PARENT 11 6 78 18 15 29 71 48 41 59
REMARK Flexibility Score: inf
ROOT
ATOM      1  C   UNL     1      -1.225  -1.956  -2.889  1.00  0.00     0.042 C 
ENDROOT
BRANCH   1   2
ATOM      2  C   UNL     1      -1.450  -2.163  -1.372  1.00  0.00     0.118 C 
BRANCH   2   3
ATOM      3  N   UNL     1      -0.376  -2.762  -0.588  1.00  0.00    -0.352 N 
ATOM      4  C   UNL     1       0.479  -2.346   0.416  1.00  0.00     0.251 C 
ATOM      5  O   UNL     1       0.985  -3.260   1.082  1.00  0.00    -0.269 OA
ATOM      6  H   UNL     1      -0.220  -3.701  -0.837  1.00  0.00     0.163 HD
BRANCH   4   7
ATOM      7  C   UNL     1       0.864  -0.939   0.813  1.00  0.00     0.046 A 
ATOM      8  C   UNL     1       1.444   0.094   0.015  1.00  0.00     0.002 A 
ATOM      9  C   UNL     1       1.869   1.285   0.673  1.00  0.00     0.008 A 
ATOM     10  C   UNL     1       1.852   1.426   2.058  1.00  0.00     0.000 A 
ATOM     11  C   UNL     1       0.888  -0.770   2.223  1.00  0.00     0.014 A 
ATOM     12  C   UNL     1       1.387   0.384   2.837  1.00  0.00     0.001 A 
BRANCH   8  13
ATOM     13  C   UNL     1       1.666   0.058  -1.503  1.00  0.00     0.129 C 
ATOM     14  C   UNL     1       0.463   0.776  -2.140  1.00  0.00     0.054 C 
ATOM     15  N   UNL     1       2.896   0.754  -1.970  1.00  0.00    -0.288 NA
ATOM     16  S   UNL     1       1.946  -1.619  -2.099  1.00  0.00    -0.070 SA
ATOM     17  N   UNL     1       3.737   0.080  -2.839  1.00  0.00    -0.171 NA
ATOM     18  H   UNL     1       3.105   1.668  -1.670  1.00  0.00     0.185 HD
ATOM     19  C   UNL     1       3.369  -1.156  -2.945  1.00  0.00     0.126 C 
BRANCH  19  20
ATOM     20  C   UNL     1       4.038  -2.286  -3.593  1.00  0.00     0.009 A 
ATOM     21  C   UNL     1       5.195  -2.766  -2.978  1.00  0.00     0.011 A 
ATOM     22  C   UNL     1       3.300  -3.106  -4.465  1.00  0.00     0.011 A 
ATOM     23  C   UNL     1       5.571  -4.094  -3.178  1.00  0.00     0.001 A 
ATOM     24  C   UNL     1       3.677  -4.434  -4.652  1.00  0.00     0.001 A 
ATOM     25  C   UNL     1       4.801  -4.930  -3.991  1.00  0.00     0.000 A 
ENDBRANCH  19  20
ENDBRANCH   8  13
ENDBRANCH   4   7
ENDBRANCH   2   3
ENDBRANCH   1   2
BRANCH   1  26
ATOM     26  C   UNL     1      -0.945  -3.167  -3.789  1.00  0.00     0.118 C 
BRANCH  26  27
ATOM     27  N   UNL     1      -2.082  -3.415  -4.665  1.00  0.00    -0.352 N 
ATOM     28  C   UNL     1      -2.276  -3.182  -6.006  1.00  0.00     0.251 C 
ATOM     29  H   UNL     1      -2.855  -3.825  -4.213  1.00  0.00     0.163 HD
ATOM     30  O   UNL     1      -3.442  -3.093  -6.395  1.00  0.00    -0.269 OA
BRANCH  28  31
ATOM     31  C   UNL     1      -1.175  -3.067  -7.009  1.00  0.00     0.039 A 
ATOM     32  C   UNL     1      -1.439  -2.356  -8.192  1.00  0.00     0.014 A 
ATOM     33  C   UNL     1       0.031  -3.767  -6.912  1.00  0.00     0.014 A 
ATOM     34  C   UNL     1      -0.527  -2.359  -9.258  1.00  0.00     0.010 A 
ATOM     35  C   UNL     1       0.970  -3.723  -7.961  1.00  0.00     0.010 A 
ATOM     36  C   UNL     1       0.691  -3.048  -9.161  1.00  0.00    -0.014 A 
BRANCH  36  37
ATOM     37  C   UNL     1       1.624  -3.107 -10.330  1.00  0.00     0.031 A 
ATOM     38  C   UNL     1       1.895  -4.416 -11.038  1.00  0.00     0.074 A 
ATOM     39  C   UNL     1       2.229  -1.988 -10.781  1.00  0.00     0.049 A 
ATOM     40  N   UNL     1       2.651  -4.653 -12.083  1.00  0.00    -0.248 NA
ATOM     41  C   UNL     1       1.241  -5.616 -10.494  1.00  0.00     0.031 C 
ATOM     42  C   UNL     1       2.086  -0.656 -10.193  1.00  0.00     0.029 A 
ATOM     43  N   UNL     1       3.084  -1.792 -11.841  1.00  0.00    -0.354 N 
ATOM     44  C   UNL     1       2.571  -6.023 -12.315  1.00  0.00     0.074 A 
ATOM     45  C   UNL     1       1.732  -6.572 -11.270  1.00  0.00     0.031 C 
ATOM     46  C   UNL     1       2.807   0.221 -10.911  1.00  0.00     0.029 A 
ATOM     47  C   UNL     1       3.490  -0.485 -11.992  1.00  0.00     0.049 A 
ATOM     48  H   UNL     1       3.379  -2.519 -12.436  1.00  0.00     0.167 HD
ATOM     49  C   UNL     1       3.122  -6.761 -13.311  1.00  0.00     0.031 A 
ATOM     50  C   UNL     1       4.315   0.087 -12.893  1.00  0.00     0.031 A 
ATOM     51  C   UNL     1       3.955  -6.228 -14.358  1.00  0.00     0.049 A 
ATOM     52  C   UNL     1       4.925  -0.750 -13.985  1.00  0.00     0.074 A 
ATOM     53  C   UNL     1       4.527  -6.896 -15.428  1.00  0.00     0.029 A 
ATOM     54  N   UNL     1       4.337  -4.900 -14.470  1.00  0.00    -0.354 N 
ATOM     55  N   UNL     1       4.790  -2.034 -14.213  1.00  0.00    -0.248 NA
ATOM     56  C   UNL     1       5.786  -0.055 -14.954  1.00  0.00     0.031 C 
ATOM     57  C   UNL     1       5.293  -5.982 -16.160  1.00  0.00     0.029 A 
ATOM     58  C   UNL     1       5.152  -4.732 -15.579  1.00  0.00     0.049 A 
ATOM     59  H   UNL     1       4.070  -4.182 -13.852  1.00  0.00     0.167 HD
ATOM     60  C   UNL     1       5.528  -2.296 -15.363  1.00  0.00     0.074 A 
ATOM     61  C   UNL     1       6.093  -1.034 -15.795  1.00  0.00     0.031 C 
ATOM     62  C   UNL     1       5.716  -3.476 -16.004  1.00  0.00     0.031 A 
BRANCH  49  63
ATOM     63  C   UNL     1       2.843  -8.244 -13.312  1.00  0.00    -0.014 A 
ATOM     64  C   UNL     1       1.562  -8.742 -13.613  1.00  0.00     0.010 A 
ATOM     65  C   UNL     1       3.882  -9.155 -13.044  1.00  0.00     0.010 A 
ATOM     66  C   UNL     1       1.311 -10.117 -13.592  1.00  0.00     0.020 A 
ATOM     67  C   UNL     1       3.642 -10.533 -13.051  1.00  0.00     0.020 A 
ATOM     68  C   UNL     1       2.352 -11.004 -13.303  1.00  0.00     0.054 A 
BRANCH  68  69
ATOM     69  S   UNL     1       1.997 -12.783 -13.283  1.00  0.00     0.124 S 
ATOM     70  O   UNL     1       1.251 -12.926 -12.036  1.00  0.00    -0.237 OA
ATOM     71  O   UNL     1       1.221 -12.971 -14.505  1.00  0.00    -0.237 OA
ATOM     72  O   UNL     1       3.323 -13.401 -13.289  1.00  0.00    -0.744 OA
ENDBRANCH  68  69
ENDBRANCH  49  63
BRANCH  50  73
ATOM     73  C   UNL     1       4.603   1.547 -12.806  1.00  0.00    -0.014 A 
ATOM     74  C   UNL     1       4.081   2.442 -13.756  1.00  0.00     0.010 A 
ATOM     75  C   UNL     1       5.391   2.050 -11.754  1.00  0.00     0.010 A 
ATOM     76  C   UNL     1       4.350   3.811 -13.662  1.00  0.00     0.020 A 
ATOM     77  C   UNL     1       5.639   3.421 -11.642  1.00  0.00     0.020 A 
ATOM     78  C   UNL     1       5.123   4.293 -12.602  1.00  0.00     0.054 A 
BRANCH  78  79
ATOM     79  S   UNL     1       5.402   6.081 -12.462  1.00  0.00     0.124 S 
ATOM     80  O   UNL     1       6.375   6.322 -13.522  1.00  0.00    -0.237 OA
ATOM     81  O   UNL     1       4.066   6.628 -12.691  1.00  0.00    -0.237 OA
ATOM     82  O   UNL     1       5.905   6.242 -11.099  1.00  0.00    -0.744 OA
ENDBRANCH  78  79
ENDBRANCH  50  73
BRANCH  62  83
ATOM     83  C   UNL     1       6.544  -3.462 -17.264  1.00  0.00    -0.014 A 
ATOM     84  C   UNL     1       7.938  -3.277 -17.222  1.00  0.00     0.010 A 
ATOM     85  C   UNL     1       5.922  -3.686 -18.506  1.00  0.00     0.010 A 
ATOM     86  C   UNL     1       8.688  -3.281 -18.402  1.00  0.00     0.020 A 
ATOM     87  C   UNL     1       6.671  -3.717 -19.685  1.00  0.00     0.020 A 
ATOM     88  C   UNL     1       8.049  -3.499 -19.627  1.00  0.00     0.054 A 
BRANCH  88  89
ATOM     89  S   UNL     1       9.048  -3.534 -21.142  1.00  0.00     0.124 S 
ATOM     90  O   UNL     1       9.350  -2.119 -21.339  1.00  0.00    -0.237 OA
ATOM     91  O   UNL     1      10.183  -4.371 -20.759  1.00  0.00    -0.237 OA
ATOM     92  O   UNL     1       8.153  -4.125 -22.134  1.00  0.00    -0.744 OA
ENDBRANCH  88  89
ENDBRANCH  62  83
ENDBRANCH  36  37
ENDBRANCH  28  31
ENDBRANCH  26  27
ENDBRANCH   1  26
TORSDOF 15
