REMARK SMILES O=C(NCCCNC(=O)c1cccc(-c2cc(NCc3ccccn3)nc3[nH]ccc23)c1)c1ccc(-c2c3nc(c(-c4ccc(S(=O)(=O)[O-])cc4)c4ccc([nH]4)c(-c4ccc(S(=O)(=O)[O-])cc4)c4nc(c(-c5ccc(S(=O)(=O)[O-])cc5)c5ccc2[nH]5)C=C4)C=C3)cc1
REMARK SMILES IDX 5 1 4 2 3 3 1 4 2 5 33 7 34 8 92 9 35 10 91 11 36 12 37 13
REMARK SMILES IDX 38 14 85 15 39 16 90 17 84 18 86 19 40 20 89 21 83 22 82 23
REMARK SMILES IDX 41 25 71 26 52 27 70 28 53 29 56 30 69 31 87 32 54 33 55 34
REMARK SMILES IDX 68 36 88 37 57 38 42 39 43 40 51 41 44 42 50 43 45 44 46 45
REMARK SMILES IDX 47 46 48 47 49 48 72 49 73 50 81 51 74 52 80 53 75 54 76 55
REMARK SMILES IDX 77 56 78 57 79 58 58 59 59 60 67 61 60 62 66 63 61 64 62 65
REMARK SMILES IDX 63 66 64 67 65 68 6 69 7 70 8 71 9 73 10 74 11 75 32 76
REMARK SMILES IDX 12 77 14 78 13 79 15 80 16 81 31 82 17 83 27 84 30 85 26 86
REMARK SMILES IDX 28 87 29 88 18 90 19 92 20 93 21 94 25 95 22 96 24 97 23 98
REMARK H PARENT 3 6 86 24 56 35 7 72 28 89 18 91
REMARK Flexibility Score: inf
ROOT
ATOM      1  C   UNL     1       4.932  -0.444   2.243  1.00  0.00     0.042 C 
ENDROOT
BRANCH   1   2
ATOM      2  C   UNL     1       4.526  -0.891   0.846  1.00  0.00     0.118 C 
BRANCH   2   3
ATOM      3  N   UNL     1       3.084  -0.894   0.649  1.00  0.00    -0.352 N 
ATOM      4  O   UNL     1       1.074  -0.150  -0.027  1.00  0.00    -0.269 OA
ATOM      5  C   UNL     1       2.297  -0.101  -0.148  1.00  0.00     0.251 C 
ATOM      6  H   UNL     1       2.596  -1.572   1.170  1.00  0.00     0.163 HD
BRANCH   5   7
ATOM      7  C   UNL     1       2.906   0.823  -1.130  1.00  0.00     0.039 A 
ATOM      8  C   UNL     1       3.972   0.420  -1.939  1.00  0.00     0.014 A 
ATOM      9  C   UNL     1       2.370   2.106  -1.270  1.00  0.00     0.014 A 
ATOM     10  C   UNL     1       4.592   1.338  -2.783  1.00  0.00     0.010 A 
ATOM     11  C   UNL     1       2.940   3.001  -2.179  1.00  0.00     0.010 A 
ATOM     12  C   UNL     1       4.074   2.634  -2.922  1.00  0.00    -0.014 A 
BRANCH  12  13
ATOM     13  C   UNL     1       4.681   3.586  -3.885  1.00  0.00     0.031 A 
ATOM     14  C   UNL     1       5.310   4.865  -3.408  1.00  0.00     0.074 A 
ATOM     15  C   UNL     1       4.625   3.311  -5.202  1.00  0.00     0.049 A 
ATOM     16  N   UNL     1       5.802   5.852  -4.111  1.00  0.00    -0.248 NA
ATOM     17  C   UNL     1       5.386   5.064  -1.953  1.00  0.00     0.031 C 
ATOM     18  C   UNL     1       4.042   2.101  -5.786  1.00  0.00     0.029 A 
ATOM     19  N   UNL     1       5.048   4.035  -6.288  1.00  0.00    -0.354 N 
ATOM     20  C   UNL     1       6.219   6.805  -3.188  1.00  0.00     0.074 A 
ATOM     21  C   UNL     1       5.903   6.282  -1.875  1.00  0.00     0.031 C 
ATOM     22  C   UNL     1       4.149   2.163  -7.121  1.00  0.00     0.029 A 
ATOM     23  C   UNL     1       4.745   3.442  -7.490  1.00  0.00     0.049 A 
ATOM     24  H   UNL     1       5.522   4.894  -6.213  1.00  0.00     0.167 HD
ATOM     25  C   UNL     1       6.807   8.005  -3.416  1.00  0.00     0.031 A 
ATOM     26  C   UNL     1       4.888   3.888  -8.753  1.00  0.00     0.031 A 
ATOM     27  C   UNL     1       7.102   8.520  -4.728  1.00  0.00     0.049 A 
ATOM     28  C   UNL     1       5.502   5.237  -8.987  1.00  0.00     0.074 A 
ATOM     29  C   UNL     1       7.727   9.707  -5.066  1.00  0.00     0.029 A 
ATOM     30  N   UNL     1       6.779   7.886  -5.920  1.00  0.00    -0.354 N 
ATOM     31  N   UNL     1       5.926   6.108  -8.103  1.00  0.00    -0.248 NA
ATOM     32  C   UNL     1       5.663   5.663 -10.383  1.00  0.00     0.031 C 
ATOM     33  C   UNL     1       7.727   9.819  -6.460  1.00  0.00     0.029 A 
ATOM     34  C   UNL     1       7.165   8.670  -6.994  1.00  0.00     0.049 A 
ATOM     35  H   UNL     1       6.340   7.008  -5.991  1.00  0.00     0.167 HD
ATOM     36  C   UNL     1       6.430   7.176  -8.835  1.00  0.00     0.074 A 
ATOM     37  C   UNL     1       6.258   6.840 -10.235  1.00  0.00     0.031 C 
ATOM     38  C   UNL     1       6.992   8.324  -8.384  1.00  0.00     0.031 A 
BRANCH  25  39
ATOM     39  C   UNL     1       7.118   8.863  -2.216  1.00  0.00    -0.014 A 
ATOM     40  C   UNL     1       8.117   8.505  -1.293  1.00  0.00     0.010 A 
ATOM     41  C   UNL     1       6.396  10.054  -2.011  1.00  0.00     0.010 A 
ATOM     42  C   UNL     1       8.338   9.282  -0.152  1.00  0.00     0.020 A 
ATOM     43  C   UNL     1       6.635  10.850  -0.887  1.00  0.00     0.020 A 
ATOM     44  C   UNL     1       7.586  10.443   0.050  1.00  0.00     0.054 A 
BRANCH  44  45
ATOM     45  S   UNL     1       7.867  11.413   1.557  1.00  0.00     0.124 S 
ATOM     46  O   UNL     1       7.235  10.576   2.574  1.00  0.00    -0.237 OA
ATOM     47  O   UNL     1       9.323  11.489   1.624  1.00  0.00    -0.237 OA
ATOM     48  O   UNL     1       7.191  12.680   1.286  1.00  0.00    -0.744 OA
ENDBRANCH  44  45
ENDBRANCH  25  39
BRANCH  26  49
ATOM     49  C   UNL     1       4.413   3.035  -9.874  1.00  0.00    -0.014 A 
ATOM     50  C   UNL     1       5.327   2.352 -10.693  1.00  0.00     0.010 A 
ATOM     51  C   UNL     1       3.033   2.825 -10.062  1.00  0.00     0.010 A 
ATOM     52  C   UNL     1       4.870   1.464 -11.671  1.00  0.00     0.020 A 
ATOM     53  C   UNL     1       2.574   1.919 -11.020  1.00  0.00     0.020 A 
ATOM     54  C   UNL     1       3.497   1.244 -11.820  1.00  0.00     0.054 A 
BRANCH  54  55
ATOM     55  S   UNL     1       2.936   0.005 -13.022  1.00  0.00     0.124 S 
ATOM     56  O   UNL     1       3.177   0.683 -14.292  1.00  0.00    -0.237 OA
ATOM     57  O   UNL     1       3.808  -1.130 -12.734  1.00  0.00    -0.237 OA
ATOM     58  O   UNL     1       1.530  -0.196 -12.676  1.00  0.00    -0.744 OA
ENDBRANCH  54  55
ENDBRANCH  26  49
BRANCH  38  59
ATOM     59  C   UNL     1       7.513   9.299  -9.406  1.00  0.00    -0.014 A 
ATOM     60  C   UNL     1       6.643  10.112 -10.152  1.00  0.00     0.010 A 
ATOM     61  C   UNL     1       8.903   9.476  -9.538  1.00  0.00     0.010 A 
ATOM     62  C   UNL     1       7.156  11.086 -11.014  1.00  0.00     0.020 A 
ATOM     63  C   UNL     1       9.418  10.464 -10.379  1.00  0.00     0.020 A 
ATOM     64  C   UNL     1       8.540  11.262 -11.114  1.00  0.00     0.054 A 
BRANCH  64  65
ATOM     65  S   UNL     1       9.178  12.598 -12.164  1.00  0.00     0.124 S 
ATOM     66  O   UNL     1       8.937  12.073 -13.505  1.00  0.00    -0.237 OA
ATOM     67  O   UNL     1       8.348  13.735 -11.775  1.00  0.00    -0.237 OA
ATOM     68  O   UNL     1      10.584  12.700 -11.779  1.00  0.00    -0.744 OA
ENDBRANCH  64  65
ENDBRANCH  38  59
ENDBRANCH  12  13
ENDBRANCH   5   7
ENDBRANCH   2   3
ENDBRANCH   1   2
BRANCH   1  69
ATOM     69  C   UNL     1       4.441  -1.349   3.364  1.00  0.00     0.118 C 
BRANCH  69  70
ATOM     70  N   UNL     1       4.944  -2.712   3.245  1.00  0.00    -0.352 N 
ATOM     71  C   UNL     1       5.736  -3.441   4.095  1.00  0.00     0.251 C 
ATOM     72  H   UNL     1       4.673  -3.184   2.425  1.00  0.00     0.163 HD
ATOM     73  O   UNL     1       6.198  -4.519   3.725  1.00  0.00    -0.269 OA
BRANCH  71  74
ATOM     74  C   UNL     1       6.037  -2.949   5.455  1.00  0.00     0.040 A 
ATOM     75  C   UNL     1       7.339  -3.066   5.944  1.00  0.00     0.014 A 
ATOM     76  C   UNL     1       5.028  -2.422   6.267  1.00  0.00     0.022 A 
ATOM     77  C   UNL     1       7.636  -2.604   7.225  1.00  0.00     0.001 A 
ATOM     78  C   UNL     1       5.316  -1.912   7.542  1.00  0.00    -0.017 A 
ATOM     79  C   UNL     1       6.635  -2.024   8.011  1.00  0.00     0.009 A 
BRANCH  78  80
ATOM     80  C   UNL     1       4.257  -1.274   8.330  1.00  0.00    -0.004 A 
ATOM     81  C   UNL     1       3.002  -1.877   8.532  1.00  0.00     0.056 A 
ATOM     82  C   UNL     1       4.416   0.023   8.859  1.00  0.00     0.027 A 
ATOM     83  C   UNL     1       1.977  -1.220   9.217  1.00  0.00     0.129 A 
ATOM     84  C   UNL     1       3.338   0.555   9.555  1.00  0.00     0.140 A 
ATOM     85  C   UNL     1       5.427   1.030   8.859  1.00  0.00     0.030 A 
ATOM     86  N   UNL     1       2.143  -0.013   9.781  1.00  0.00    -0.213 NA
ATOM     87  N   UNL     1       3.677   1.811   9.978  1.00  0.00    -0.346 N 
ATOM     88  C   UNL     1       4.947   2.115   9.561  1.00  0.00     0.085 A 
ATOM     89  H   UNL     1       3.096   2.407  10.503  1.00  0.00     0.167 HD
BRANCH  83  90
ATOM     90  N   UNL     1       0.760  -1.886   9.335  1.00  0.00    -0.364 N 
ATOM     91  H   UNL     1       0.645  -2.778   8.934  1.00  0.00     0.162 HD
BRANCH  90  92
ATOM     92  C   UNL     1      -0.345  -1.263  10.054  1.00  0.00     0.170 C 
BRANCH  92  93
ATOM     93  C   UNL     1      -1.570  -1.123   9.164  1.00  0.00     0.059 A 
ATOM     94  C   UNL     1      -2.249  -2.257   8.716  1.00  0.00     0.026 A 
ATOM     95  N   UNL     1      -1.954   0.131   8.811  1.00  0.00    -0.259 NA
ATOM     96  C   UNL     1      -3.346  -2.099   7.873  1.00  0.00     0.004 A 
ATOM     97  C   UNL     1      -3.018   0.254   7.990  1.00  0.00     0.111 A 
ATOM     98  C   UNL     1      -3.740  -0.821   7.500  1.00  0.00     0.020 A 
ENDBRANCH  92  93
ENDBRANCH  90  92
ENDBRANCH  83  90
ENDBRANCH  78  80
ENDBRANCH  71  74
ENDBRANCH  69  70
ENDBRANCH   1  69
TORSDOF 17
