REMARK SMILES CC1(C)CCCC[C@H]1[N@H+]1CCC[N@H+](CC(=O)NCCCNC(=O)c2ccc(-c3c4nc(c(-c5ccc(S(=O)(=O)[O-])cc5)c5ccc([nH]5)c(-c5ccc(S(=O)(=O)[O-])cc5)c5nc(c(-c6ccc(S(=O)(=O)[O-])cc6)c6ccc3[nH]6)C=C5)C=C4)cc2)CC1
REMARK SMILES IDX 18 1 17 2 15 3 16 4 14 6 13 7 84 9 85 10 9 11 8 13 1 14 2 15
REMARK SMILES IDX 3 16 4 17 5 18 7 19 6 20 10 21 12 23 11 24 19 26 20 27 21 28
REMARK SMILES IDX 22 29 23 31 24 32 25 33 83 34 26 35 82 36 27 37 28 38 29 39
REMARK SMILES IDX 76 40 30 41 81 42 75 43 77 44 31 45 80 46 74 47 73 48 32 50
REMARK SMILES IDX 62 51 43 52 61 53 44 54 47 55 60 56 78 57 45 58 46 59 59 61
REMARK SMILES IDX 79 62 48 63 33 64 34 65 42 66 35 67 41 68 36 69 37 70 38 71
REMARK SMILES IDX 39 72 40 73 63 74 64 75 72 76 65 77 71 78 66 79 67 80 68 81
REMARK SMILES IDX 69 82 70 83 49 84 50 85 58 86 51 87 57 88 52 89 53 90 54 91
REMARK SMILES IDX 55 92 56 93
REMARK H PARENT 17 5 13 8 9 12 21 30 77 49 47 60
REMARK Flexibility Score: 90.00
ROOT
ATOM      1  C   UNL     1       3.794  -0.372   0.783  1.00  0.00     0.118 C 
ENDROOT
BRANCH   1   2
ATOM      2  N   UNL     1       3.318  -0.323  -0.580  1.00  0.00    -0.351 N 
ATOM      3  C   UNL     1       3.307  -1.364  -1.486  1.00  0.00     0.275 C 
ATOM      4  O   UNL     1       2.454  -2.252  -1.461  1.00  0.00    -0.269 OA
ATOM      5  H   UNL     1       2.966   0.541  -0.895  1.00  0.00     0.163 HD
BRANCH   3   6
ATOM      6  C   UNL     1       4.429  -1.369  -2.519  1.00  0.00     0.363 C 
BRANCH   6   7
ATOM      7  N   UNL     1       4.601  -0.143  -3.312  1.00  0.00    -0.322 N 
ATOM      8  H   UNL     1       5.594  -0.278  -3.503  1.00  0.00     0.348 HD
BRANCH   7   9
ATOM      9  C   UNL     1       4.663   1.137  -2.625  1.00  0.00     0.324 C 
BRANCH   9  10
ATOM     10  C   UNL     1       3.324   1.932  -2.350  1.00  0.00     0.324 C 
BRANCH  10  11
ATOM     11  N   UNL     1       2.026   1.214  -2.543  1.00  0.00    -0.327 N 
ATOM     12  H   UNL     1       2.130   0.332  -2.042  1.00  0.00     0.348 HD
BRANCH  11  13
ATOM     13  C   UNL     1       0.788   1.812  -1.880  1.00  0.00     0.189 C 
ATOM     14  C   UNL     1      -0.035  -0.271  -0.402  1.00  0.00     0.017 C 
ATOM     15  C   UNL     1      -0.396   0.804  -1.451  1.00  0.00     0.017 C 
ATOM     16  C   UNL     1      -0.956   0.060  -2.675  1.00  0.00     0.017 C 
ATOM     17  C   UNL     1      -1.580   1.609  -0.830  1.00  0.00     0.012 C 
ATOM     18  C   UNL     1      -1.172   2.479   0.351  1.00  0.00     0.001 C 
ATOM     19  C   UNL     1       1.114   2.718  -0.672  1.00  0.00     0.065 C 
ATOM     20  C   UNL     1      -0.093   3.444  -0.082  1.00  0.00     0.006 C 
ENDBRANCH  11  13
BRANCH  11  21
ATOM     21  C   UNL     1       1.814   1.012  -4.003  1.00  0.00     0.268 CG0
ATOM     22  G   UNL     1       3.037   0.987  -4.940  1.00  0.00     0.000 G0
ENDBRANCH  11  21
ENDBRANCH  10  11
ENDBRANCH   9  10
ENDBRANCH   7   9
BRANCH   7  23
ATOM     23  C   UNL     1       4.048  -0.120  -4.651  1.00  0.00     0.268 C 
BRANCH  23  24
ATOM     24  C   UNL     1       3.037   0.987  -4.940  1.00  0.00     0.123 CG0
ATOM     25  G   UNL     1       1.814   1.012  -4.003  1.00  0.00     0.000 G0
ENDBRANCH  23  24
ENDBRANCH   7  23
ENDBRANCH   6   7
ENDBRANCH   3   6
ENDBRANCH   1   2
BRANCH   1  26
ATOM     26  C   UNL     1       4.648   0.839   1.223  1.00  0.00     0.042 C 
BRANCH  26  27
ATOM     27  C   UNL     1       4.026   2.231   1.466  1.00  0.00     0.118 C 
BRANCH  27  28
ATOM     28  N   UNL     1       2.899   2.283   2.376  1.00  0.00    -0.352 N 
ATOM     29  C   UNL     1       2.320   3.394   2.944  1.00  0.00     0.251 C 
ATOM     30  H   UNL     1       2.499   1.416   2.617  1.00  0.00     0.163 HD
ATOM     31  O   UNL     1       1.370   3.252   3.724  1.00  0.00    -0.269 OA
BRANCH  29  32
ATOM     32  C   UNL     1       2.815   4.763   2.666  1.00  0.00     0.039 A 
ATOM     33  C   UNL     1       3.328   5.526   3.717  1.00  0.00     0.014 A 
ATOM     34  C   UNL     1       2.676   5.348   1.404  1.00  0.00     0.014 A 
ATOM     35  C   UNL     1       3.740   6.846   3.489  1.00  0.00     0.010 A 
ATOM     36  C   UNL     1       3.085   6.664   1.172  1.00  0.00     0.010 A 
ATOM     37  C   UNL     1       3.636   7.421   2.210  1.00  0.00    -0.014 A 
BRANCH  37  38
ATOM     38  C   UNL     1       4.217   8.757   1.921  1.00  0.00     0.031 A 
ATOM     39  C   UNL     1       3.351   9.953   1.642  1.00  0.00     0.074 A 
ATOM     40  C   UNL     1       5.559   8.854   1.845  1.00  0.00     0.049 A 
ATOM     41  N   UNL     1       3.710  11.192   1.420  1.00  0.00    -0.248 NA
ATOM     42  C   UNL     1       1.899   9.729   1.581  1.00  0.00     0.031 C 
ATOM     43  C   UNL     1       6.490   7.736   2.019  1.00  0.00     0.029 A 
ATOM     44  N   UNL     1       6.374   9.929   1.604  1.00  0.00    -0.354 N 
ATOM     45  C   UNL     1       2.533  11.900   1.204  1.00  0.00     0.074 A 
ATOM     46  C   UNL     1       1.451  10.939   1.268  1.00  0.00     0.031 C 
ATOM     47  C   UNL     1       7.748   8.189   1.914  1.00  0.00     0.029 A 
ATOM     48  C   UNL     1       7.714   9.621   1.638  1.00  0.00     0.049 A 
ATOM     49  H   UNL     1       6.033  10.835   1.423  1.00  0.00     0.167 HD
ATOM     50  C   UNL     1       2.372  13.230   0.987  1.00  0.00     0.031 A 
ATOM     51  C   UNL     1       8.797  10.405   1.476  1.00  0.00     0.031 A 
ATOM     52  C   UNL     1       3.466  14.165   0.902  1.00  0.00     0.049 A 
ATOM     53  C   UNL     1       8.593  11.876   1.246  1.00  0.00     0.074 A 
ATOM     54  C   UNL     1       3.417  15.540   0.745  1.00  0.00     0.029 A 
ATOM     55  N   UNL     1       4.809  13.819   0.956  1.00  0.00    -0.354 N 
ATOM     56  N   UNL     1       7.468  12.545   1.152  1.00  0.00    -0.248 NA
ATOM     57  C   UNL     1       9.801  12.701   1.120  1.00  0.00     0.031 C 
ATOM     58  C   UNL     1       4.729  16.015   0.642  1.00  0.00     0.029 A 
ATOM     59  C   UNL     1       5.598  14.948   0.806  1.00  0.00     0.049 A 
ATOM     60  H   UNL     1       5.152  12.904   1.081  1.00  0.00     0.167 HD
ATOM     61  C   UNL     1       7.832  13.875   0.983  1.00  0.00     0.074 A 
ATOM     62  C   UNL     1       9.281  13.915   1.007  1.00  0.00     0.031 C 
ATOM     63  C   UNL     1       7.041  14.965   0.825  1.00  0.00     0.031 A 
BRANCH  50  64
ATOM     64  C   UNL     1       0.965  13.754   0.824  1.00  0.00    -0.014 A 
ATOM     65  C   UNL     1       0.062  13.759   1.904  1.00  0.00     0.010 A 
ATOM     66  C   UNL     1       0.551  14.300  -0.406  1.00  0.00     0.010 A 
ATOM     67  C   UNL     1      -1.236  14.254   1.746  1.00  0.00     0.020 A 
ATOM     68  C   UNL     1      -0.737  14.824  -0.561  1.00  0.00     0.020 A 
ATOM     69  C   UNL     1      -1.629  14.781   0.512  1.00  0.00     0.054 A 
BRANCH  69  70
ATOM     70  S   UNL     1      -3.315  15.431   0.342  1.00  0.00     0.124 S 
ATOM     71  O   UNL     1      -4.114  14.208   0.375  1.00  0.00    -0.237 OA
ATOM     72  O   UNL     1      -3.444  16.295   1.512  1.00  0.00    -0.237 OA
ATOM     73  O   UNL     1      -3.293  16.125  -0.943  1.00  0.00    -0.744 OA
ENDBRANCH  69  70
ENDBRANCH  50  64
BRANCH  51  74
ATOM     74  C   UNL     1      10.160   9.813   1.565  1.00  0.00    -0.014 A 
ATOM     75  C   UNL     1      10.999  10.103   2.655  1.00  0.00     0.010 A 
ATOM     76  C   UNL     1      10.616   8.925   0.571  1.00  0.00     0.010 A 
ATOM     77  C   UNL     1      12.273   9.534   2.741  1.00  0.00     0.020 A 
ATOM     78  C   UNL     1      11.876   8.330   0.669  1.00  0.00     0.020 A 
ATOM     79  C   UNL     1      12.703   8.648   1.749  1.00  0.00     0.054 A 
BRANCH  79  80
ATOM     80  S   UNL     1      14.340   7.883   1.908  1.00  0.00     0.124 S 
ATOM     81  O   UNL     1      15.228   9.007   1.627  1.00  0.00    -0.237 OA
ATOM     82  O   UNL     1      14.333   7.410   3.289  1.00  0.00    -0.237 OA
ATOM     83  O   UNL     1      14.324   6.829   0.896  1.00  0.00    -0.744 OA
ENDBRANCH  79  80
ENDBRANCH  51  74
BRANCH  63  84
ATOM     84  C   UNL     1       7.726  16.299   0.692  1.00  0.00    -0.014 A 
ATOM     85  C   UNL     1       8.446  16.639  -0.467  1.00  0.00     0.010 A 
ATOM     86  C   UNL     1       7.603  17.246   1.726  1.00  0.00     0.010 A 
ATOM     87  C   UNL     1       9.059  17.889  -0.575  1.00  0.00     0.020 A 
ATOM     88  C   UNL     1       8.187  18.509   1.607  1.00  0.00     0.020 A 
ATOM     89  C   UNL     1       8.924  18.817   0.462  1.00  0.00     0.054 A 
BRANCH  89  90
ATOM     90  S   UNL     1       9.691  20.450   0.276  1.00  0.00     0.124 S 
ATOM     91  O   UNL     1      11.109  20.139   0.429  1.00  0.00    -0.237 OA
ATOM     92  O   UNL     1       9.275  20.846  -1.067  1.00  0.00    -0.237 OA
ATOM     93  O   UNL     1       9.104  21.234   1.360  1.00  0.00    -0.744 OA
ENDBRANCH  89  90
ENDBRANCH  63  84
ENDBRANCH  37  38
ENDBRANCH  29  32
ENDBRANCH  27  28
ENDBRANCH  26  27
ENDBRANCH   1  26
TORSDOF 15
