REMARK SMILES O=C(NCCCNC(=O)c1c(C(=O)N2CCc3ccccc32)cccc1[N+](=O)[O-])c1ccc(-c2c3nc(c(-c4ccc(S(=O)(=O)[O-])cc4)c4ccc([nH]4)c(-c4ccc(S(=O)(=O)[O-])cc4)c4nc(c(-c5ccc(S(=O)(=O)[O-])cc5)c5ccc2[nH]5)C=C4)C=C3)cc1
REMARK SMILES IDX 4 1 3 2 1 3 2 4 30 6 31 7 89 8 32 9 88 10 33 11 34 12 35 13
REMARK SMILES IDX 82 14 36 15 87 16 81 17 83 18 37 19 86 20 80 21 79 22 38 24
REMARK SMILES IDX 68 25 49 26 67 27 50 28 53 29 66 30 84 31 51 32 52 33 65 35
REMARK SMILES IDX 85 36 54 37 39 38 40 39 48 40 41 41 47 42 42 43 43 44 44 45
REMARK SMILES IDX 45 46 46 47 69 48 70 49 78 50 71 51 77 52 72 53 73 54 74 55
REMARK SMILES IDX 75 56 76 57 55 58 56 59 64 60 57 61 63 62 58 63 59 64 60 65
REMARK SMILES IDX 61 66 62 67 5 68 6 69 7 70 8 71 9 73 10 74 11 75 26 76 23 77
REMARK SMILES IDX 25 78 24 79 12 80 13 81 14 82 15 83 22 84 16 85 17 86 21 87
REMARK SMILES IDX 18 88 20 89 19 90 27 91 28 92 29 93
REMARK H PARENT 3 5 83 23 53 34 7 72
REMARK Flexibility Score: inf
ROOT
ATOM      1  C   UNL     1       4.706  -1.201  -0.408  1.00  0.00     0.118 C 
ENDROOT
BRANCH   1   2
ATOM      2  N   UNL     1       3.260  -1.038  -0.483  1.00  0.00    -0.352 N 
ATOM      3  O   UNL     1       1.251  -0.070  -0.167  1.00  0.00    -0.269 OA
ATOM      4  C   UNL     1       2.468   0.046  -0.175  1.00  0.00     0.251 C 
ATOM      5  H   UNL     1       2.772  -1.829  -0.807  1.00  0.00     0.163 HD
BRANCH   4   6
ATOM      6  C   UNL     1       3.095   1.338   0.182  1.00  0.00     0.039 A 
ATOM      7  C   UNL     1       4.179   1.827  -0.545  1.00  0.00     0.014 A 
ATOM      8  C   UNL     1       2.597   2.063   1.268  1.00  0.00     0.014 A 
ATOM      9  C   UNL     1       4.890   2.919  -0.067  1.00  0.00     0.010 A 
ATOM     10  C   UNL     1       3.244   3.233   1.676  1.00  0.00     0.010 A 
ATOM     11  C   UNL     1       4.426   3.644   1.042  1.00  0.00    -0.014 A 
BRANCH  11  12
ATOM     12  C   UNL     1       5.178   4.847   1.484  1.00  0.00     0.031 A 
ATOM     13  C   UNL     1       5.805   4.919   2.851  1.00  0.00     0.074 A 
ATOM     14  C   UNL     1       5.334   5.866   0.616  1.00  0.00     0.049 A 
ATOM     15  N   UNL     1       6.529   5.877   3.373  1.00  0.00    -0.248 NA
ATOM     16  C   UNL     1       5.588   3.776   3.752  1.00  0.00     0.031 C 
ATOM     17  C   UNL     1       4.775   5.911  -0.739  1.00  0.00     0.029 A 
ATOM     18  N   UNL     1       6.033   7.040   0.723  1.00  0.00    -0.354 N 
ATOM     19  C   UNL     1       6.825   5.472   4.670  1.00  0.00     0.074 A 
ATOM     20  C   UNL     1       6.187   4.187   4.862  1.00  0.00     0.031 C 
ATOM     21  C   UNL     1       5.214   7.014  -1.360  1.00  0.00     0.029 A 
ATOM     22  C   UNL     1       6.019   7.793  -0.427  1.00  0.00     0.049 A 
ATOM     23  H   UNL     1       6.500   7.317   1.544  1.00  0.00     0.167 HD
ATOM     24  C   UNL     1       7.559   6.112   5.613  1.00  0.00     0.031 A 
ATOM     25  C   UNL     1       6.580   8.984  -0.704  1.00  0.00     0.031 A 
ATOM     26  C   UNL     1       8.196   7.388   5.413  1.00  0.00     0.049 A 
ATOM     27  C   UNL     1       7.373   9.679   0.360  1.00  0.00     0.074 A 
ATOM     28  C   UNL     1       8.985   8.105   6.296  1.00  0.00     0.029 A 
ATOM     29  N   UNL     1       8.115   8.140   4.250  1.00  0.00    -0.354 N 
ATOM     30  N   UNL     1       7.652   9.270   1.575  1.00  0.00    -0.248 NA
ATOM     31  C   UNL     1       7.923  10.996   0.019  1.00  0.00     0.031 C 
ATOM     32  C   UNL     1       9.341   9.313   5.684  1.00  0.00     0.029 A 
ATOM     33  C   UNL     1       8.820   9.324   4.399  1.00  0.00     0.049 A 
ATOM     34  H   UNL     1       7.628   7.873   3.437  1.00  0.00     0.167 HD
ATOM     35  C   UNL     1       8.425  10.275   2.141  1.00  0.00     0.074 A 
ATOM     36  C   UNL     1       8.582  11.302   1.129  1.00  0.00     0.031 C 
ATOM     37  C   UNL     1       8.957  10.340   3.386  1.00  0.00     0.031 A 
BRANCH  24  38
ATOM     38  C   UNL     1       7.674   5.455   6.965  1.00  0.00    -0.014 A 
ATOM     39  C   UNL     1       8.444   4.293   7.155  1.00  0.00     0.010 A 
ATOM     40  C   UNL     1       7.007   6.019   8.068  1.00  0.00     0.010 A 
ATOM     41  C   UNL     1       8.498   3.676   8.409  1.00  0.00     0.020 A 
ATOM     42  C   UNL     1       7.079   5.420   9.330  1.00  0.00     0.020 A 
ATOM     43  C   UNL     1       7.805   4.237   9.486  1.00  0.00     0.054 A 
BRANCH  43  44
ATOM     44  S   UNL     1       7.875   3.407  11.098  1.00  0.00     0.124 S 
ATOM     45  O   UNL     1       6.978   2.273  10.889  1.00  0.00    -0.237 OA
ATOM     46  O   UNL     1       9.290   3.072  11.227  1.00  0.00    -0.237 OA
ATOM     47  O   UNL     1       7.390   4.421  12.031  1.00  0.00    -0.744 OA
ENDBRANCH  43  44
ENDBRANCH  24  38
BRANCH  25  48
ATOM     48  C   UNL     1       6.403   9.576  -2.057  1.00  0.00    -0.014 A 
ATOM     49  C   UNL     1       7.477   9.618  -2.961  1.00  0.00     0.010 A 
ATOM     50  C   UNL     1       5.139  10.037  -2.470  1.00  0.00     0.010 A 
ATOM     51  C   UNL     1       7.291  10.108  -4.256  1.00  0.00     0.020 A 
ATOM     52  C   UNL     1       4.942  10.502  -3.772  1.00  0.00     0.020 A 
ATOM     53  C   UNL     1       6.022  10.540  -4.656  1.00  0.00     0.054 A 
BRANCH  53  54
ATOM     54  S   UNL     1       5.783  11.088  -6.368  1.00  0.00     0.124 S 
ATOM     55  O   UNL     1       6.403  12.409  -6.353  1.00  0.00    -0.237 OA
ATOM     56  O   UNL     1       6.493  10.064  -7.130  1.00  0.00    -0.237 OA
ATOM     57  O   UNL     1       4.331  11.078  -6.530  1.00  0.00    -0.744 OA
ENDBRANCH  53  54
ENDBRANCH  25  48
BRANCH  37  58
ATOM     58  C   UNL     1       9.785  11.553   3.712  1.00  0.00    -0.014 A 
ATOM     59  C   UNL     1       9.186  12.806   3.934  1.00  0.00     0.010 A 
ATOM     60  C   UNL     1      11.181  11.428   3.827  1.00  0.00     0.010 A 
ATOM     61  C   UNL     1       9.974  13.920   4.233  1.00  0.00     0.020 A 
ATOM     62  C   UNL     1      11.969  12.534   4.150  1.00  0.00     0.020 A 
ATOM     63  C   UNL     1      11.361  13.778   4.335  1.00  0.00     0.054 A 
BRANCH  63  64
ATOM     64  S   UNL     1      12.362  15.231   4.756  1.00  0.00     0.124 S 
ATOM     65  O   UNL     1      12.380  15.963   3.493  1.00  0.00    -0.237 OA
ATOM     66  O   UNL     1      11.592  15.851   5.832  1.00  0.00    -0.237 OA
ATOM     67  O   UNL     1      13.643  14.660   5.165  1.00  0.00    -0.744 OA
ENDBRANCH  63  64
ENDBRANCH  37  58
ENDBRANCH  11  12
ENDBRANCH   4   6
ENDBRANCH   1   2
BRANCH   1  68
ATOM     68  C   UNL     1       5.151  -2.158   0.690  1.00  0.00     0.042 C 
BRANCH  68  69
ATOM     69  C   UNL     1       4.643  -3.579   0.520  1.00  0.00     0.118 C 
BRANCH  69  70
ATOM     70  N   UNL     1       5.000  -4.147  -0.770  1.00  0.00    -0.352 N 
ATOM     71  C   UNL     1       5.591  -5.335  -1.101  1.00  0.00     0.259 C 
ATOM     72  H   UNL     1       4.776  -3.577  -1.540  1.00  0.00     0.163 HD
ATOM     73  O   UNL     1       5.861  -5.564  -2.269  1.00  0.00    -0.269 OA
BRANCH  71  74
ATOM     74  C   UNL     1       5.900  -6.325  -0.054  1.00  0.00     0.130 A 
ATOM     75  C   UNL     1       7.200  -6.824   0.069  1.00  0.00     0.060 A 
ATOM     76  C   UNL     1       4.912  -6.864   0.778  1.00  0.00     0.282 A 
ATOM     77  C   UNL     1       7.486  -7.825   1.016  1.00  0.00     0.015 A 
ATOM     78  C   UNL     1       5.211  -7.796   1.785  1.00  0.00     0.086 A 
ATOM     79  C   UNL     1       6.511  -8.271   1.905  1.00  0.00     0.008 A 
BRANCH  75  80
ATOM     80  C   UNL     1       8.245  -6.498  -0.916  1.00  0.00     0.259 C 
ATOM     81  O   UNL     1       8.360  -7.238  -1.891  1.00  0.00    -0.269 OA
BRANCH  80  82
ATOM     82  N   UNL     1       9.099  -5.421  -0.639  1.00  0.00    -0.308 N 
ATOM     83  C   UNL     1       9.342  -4.487  -1.770  1.00  0.00     0.131 C 
ATOM     84  C   UNL     1      10.390  -5.808  -0.180  1.00  0.00     0.047 A 
ATOM     85  C   UNL     1      10.853  -4.430  -2.050  1.00  0.00     0.059 C 
ATOM     86  C   UNL     1      11.373  -5.444  -1.092  1.00  0.00    -0.022 A 
ATOM     87  C   UNL     1      10.671  -6.658   0.875  1.00  0.00     0.026 A 
ATOM     88  C   UNL     1      12.608  -6.071  -1.081  1.00  0.00     0.006 A 
ATOM     89  C   UNL     1      11.912  -7.292   0.902  1.00  0.00     0.002 A 
ATOM     90  C   UNL     1      12.857  -7.035  -0.100  1.00  0.00     0.000 A 
ENDBRANCH  80  82
ENDBRANCH  75  80
BRANCH  76  91
ATOM     91  N   UNL     1       3.512  -6.547   0.573  1.00  0.00     0.063 N 
ATOM     92  O   UNL     1       2.879  -6.159   1.564  1.00  0.00    -0.258 OA
ATOM     93  O   UNL     1       3.042  -6.726  -0.556  1.00  0.00    -0.258 OA
ENDBRANCH  76  91
ENDBRANCH  71  74
ENDBRANCH  69  70
ENDBRANCH  68  69
ENDBRANCH   1  68
TORSDOF 16
