REMARK SMILES C/C(=C(\C#N)C(=O)NCCCNC(=O)c1ccc(-c2c3nc(c(-c4ccc(S(=O)(=O)[O-])cc4)c4ccc([nH]4)c(-c4ccc(S(=O)(=O)[O-])cc4)c4nc(c(-c5ccc(S(=O)(=O)[O-])cc5)c5ccc2[nH]5)C=C4)C=C3)cc1)c1cccc2ccccc12
REMARK SMILES IDX 11 1 10 2 9 3 8 4 6 5 7 6 3 8 1 9 2 10 75 11 76 12 84 13
REMARK SMILES IDX 77 14 79 15 83 16 78 17 80 18 82 19 81 20 4 21 5 22 12 23
REMARK SMILES IDX 13 24 14 26 15 27 16 28 74 29 17 30 73 31 18 32 19 33 20 34
REMARK SMILES IDX 67 35 21 36 72 37 66 38 68 39 22 40 71 41 65 42 64 43 23 45
REMARK SMILES IDX 53 46 34 47 52 48 35 49 38 50 51 51 69 52 36 53 37 54 50 56
REMARK SMILES IDX 70 57 39 58 24 59 25 60 33 61 26 62 32 63 27 64 28 65 29 66
REMARK SMILES IDX 30 67 31 68 54 69 55 70 63 71 56 72 62 73 57 74 58 75 59 76
REMARK SMILES IDX 60 77 61 78 40 79 41 80 49 81 42 82 48 83 43 84 44 85 45 86
REMARK SMILES IDX 46 87 47 88
REMARK H PARENT 8 7 12 25 68 44 38 55
REMARK Flexibility Score: inf
ROOT
ATOM      1  C   UNL     1      -4.178   4.197  -3.482  1.00  0.00     0.118 C 
ENDROOT
BRANCH   1   2
ATOM      2  C   UNL     1      -3.322   2.933  -3.465  1.00  0.00     0.042 C 
BRANCH   2   3
ATOM      3  C   UNL     1      -1.835   3.245  -3.538  1.00  0.00     0.118 C 
BRANCH   3   4
ATOM      4  N   UNL     1      -1.315   3.801  -2.299  1.00  0.00    -0.351 N 
ATOM      5  C   UNL     1      -0.588   3.336  -1.248  1.00  0.00     0.262 C 
ATOM      6  O   UNL     1      -0.078   4.248  -0.594  1.00  0.00    -0.268 OA
ATOM      7  H   UNL     1      -1.549   4.752  -2.195  1.00  0.00     0.163 HD
BRANCH   5   8
ATOM      8  C   UNL     1      -0.354   1.856  -0.927  1.00  0.00     0.120 C 
ATOM      9  C   UNL     1       0.805   0.000   0.304  1.00  0.00     0.046 C 
ATOM     10  C   UNL     1       0.323   1.423   0.184  1.00  0.00    -0.020 C 
BRANCH  10  11
ATOM     11  C   UNL     1       0.674   2.351   1.336  1.00  0.00    -0.013 A 
ATOM     12  C   UNL     1      -0.393   3.122   1.839  1.00  0.00     0.009 A 
ATOM     13  C   UNL     1       1.993   2.626   1.847  1.00  0.00    -0.011 A 
ATOM     14  C   UNL     1      -0.161   4.314   2.520  1.00  0.00     0.001 A 
ATOM     15  C   UNL     1       2.215   3.888   2.468  1.00  0.00    -0.018 A 
ATOM     16  C   UNL     1       3.111   1.749   1.846  1.00  0.00     0.009 A 
ATOM     17  C   UNL     1       1.141   4.738   2.742  1.00  0.00     0.009 A 
ATOM     18  C   UNL     1       3.501   4.294   2.862  1.00  0.00     0.009 A 
ATOM     19  C   UNL     1       4.358   2.115   2.376  1.00  0.00     0.001 A 
ATOM     20  C   UNL     1       4.568   3.406   2.835  1.00  0.00     0.001 A 
ENDBRANCH  10  11
BRANCH   8  21
ATOM     21  C   UNL     1      -0.722   0.937  -2.080  1.00  0.00     0.105 C 
ATOM     22  N   UNL     1      -1.026   0.174  -3.037  1.00  0.00    -0.192 NA
ENDBRANCH   8  21
ENDBRANCH   5   8
ENDBRANCH   3   4
ENDBRANCH   2   3
ENDBRANCH   1   2
BRANCH   1  23
ATOM     23  N   UNL     1      -3.971   4.981  -4.698  1.00  0.00    -0.352 N 
ATOM     24  C   UNL     1      -4.827   5.229  -5.743  1.00  0.00     0.251 C 
ATOM     25  H   UNL     1      -3.081   5.394  -4.781  1.00  0.00     0.163 HD
ATOM     26  O   UNL     1      -4.392   5.658  -6.804  1.00  0.00    -0.269 OA
BRANCH  24  27
ATOM     27  C   UNL     1      -6.270   4.987  -5.565  1.00  0.00     0.039 A 
ATOM     28  C   UNL     1      -7.000   4.377  -6.587  1.00  0.00     0.014 A 
ATOM     29  C   UNL     1      -6.897   5.382  -4.382  1.00  0.00     0.014 A 
ATOM     30  C   UNL     1      -8.354   4.102  -6.391  1.00  0.00     0.010 A 
ATOM     31  C   UNL     1      -8.219   5.029  -4.155  1.00  0.00     0.010 A 
ATOM     32  C   UNL     1      -8.963   4.394  -5.160  1.00  0.00    -0.014 A 
BRANCH  32  33
ATOM     33  C   UNL     1     -10.382   4.063  -4.885  1.00  0.00     0.031 A 
ATOM     34  C   UNL     1     -11.350   5.171  -4.563  1.00  0.00     0.074 A 
ATOM     35  C   UNL     1     -10.767   2.773  -4.816  1.00  0.00     0.049 A 
ATOM     36  N   UNL     1     -12.586   5.088  -4.147  1.00  0.00    -0.248 NA
ATOM     37  C   UNL     1     -10.853   6.553  -4.692  1.00  0.00     0.031 C 
ATOM     38  C   UNL     1      -9.906   1.614  -5.071  1.00  0.00     0.029 A 
ATOM     39  N   UNL     1     -11.978   2.217  -4.489  1.00  0.00    -0.354 N 
ATOM     40  C   UNL     1     -12.999   6.397  -3.928  1.00  0.00     0.074 A 
ATOM     41  C   UNL     1     -11.875   7.255  -4.224  1.00  0.00     0.031 C 
ATOM     42  C   UNL     1     -10.621   0.489  -4.906  1.00  0.00     0.029 A 
ATOM     43  C   UNL     1     -11.971   0.841  -4.482  1.00  0.00     0.049 A 
ATOM     44  H   UNL     1     -12.777   2.753  -4.280  1.00  0.00     0.167 HD
ATOM     45  C   UNL     1     -14.212   6.842  -3.527  1.00  0.00     0.031 A 
ATOM     46  C   UNL     1     -12.938  -0.036  -4.148  1.00  0.00     0.031 A 
ATOM     47  C   UNL     1     -15.335   5.981  -3.275  1.00  0.00     0.049 A 
ATOM     48  C   UNL     1     -14.278   0.492  -3.705  1.00  0.00     0.074 A 
ATOM     49  C   UNL     1     -16.632   6.340  -2.952  1.00  0.00     0.029 A 
ATOM     50  N   UNL     1     -15.298   4.596  -3.316  1.00  0.00    -0.354 N 
ATOM     51  N   UNL     1     -14.675   1.737  -3.588  1.00  0.00    -0.248 NA
ATOM     52  C   UNL     1     -15.304  -0.502  -3.357  1.00  0.00     0.031 C 
ATOM     53  C   UNL     1     -17.363   5.170  -2.732  1.00  0.00     0.029 A 
ATOM     54  C   UNL     1     -16.541   4.085  -2.991  1.00  0.00     0.049 A 
ATOM     55  H   UNL     1     -14.505   4.058  -3.542  1.00  0.00     0.167 HD
ATOM     56  C   UNL     1     -16.008   1.673  -3.195  1.00  0.00     0.074 A 
ATOM     57  C   UNL     1     -16.352   0.270  -3.103  1.00  0.00     0.031 C 
ATOM     58  C   UNL     1     -16.871   2.684  -2.933  1.00  0.00     0.031 A 
BRANCH  45  59
ATOM     59  C   UNL     1     -14.401   8.321  -3.326  1.00  0.00    -0.014 A 
ATOM     60  C   UNL     1     -14.451   9.207  -4.417  1.00  0.00     0.010 A 
ATOM     61  C   UNL     1     -14.634   8.817  -2.030  1.00  0.00     0.010 A 
ATOM     62  C   UNL     1     -14.720  10.563  -4.213  1.00  0.00     0.020 A 
ATOM     63  C   UNL     1     -14.931  10.166  -1.825  1.00  0.00     0.020 A 
ATOM     64  C   UNL     1     -14.967  11.032  -2.919  1.00  0.00     0.054 A 
BRANCH  64  65
ATOM     65  S   UNL     1     -15.394  12.781  -2.696  1.00  0.00     0.124 S 
ATOM     66  O   UNL     1     -14.120  13.440  -2.976  1.00  0.00    -0.237 OA
ATOM     67  O   UNL     1     -16.438  12.983  -3.697  1.00  0.00    -0.237 OA
ATOM     68  O   UNL     1     -15.841  12.856  -1.308  1.00  0.00    -0.744 OA
ENDBRANCH  64  65
ENDBRANCH  45  59
BRANCH  46  69
ATOM     69  C   UNL     1     -12.683  -1.504  -4.200  1.00  0.00    -0.014 A 
ATOM     70  C   UNL     1     -13.370  -2.317  -5.119  1.00  0.00     0.010 A 
ATOM     71  C   UNL     1     -11.784  -2.104  -3.300  1.00  0.00     0.010 A 
ATOM     72  C   UNL     1     -13.204  -3.705  -5.101  1.00  0.00     0.020 A 
ATOM     73  C   UNL     1     -11.587  -3.488  -3.303  1.00  0.00     0.020 A 
ATOM     74  C   UNL     1     -12.318  -4.282  -4.187  1.00  0.00     0.054 A 
BRANCH  74  75
ATOM     75  S   UNL     1     -12.127  -6.087  -4.173  1.00  0.00     0.124 S 
ATOM     76  O   UNL     1     -13.385  -6.519  -3.571  1.00  0.00    -0.237 OA
ATOM     77  O   UNL     1     -11.963  -6.398  -5.590  1.00  0.00    -0.237 OA
ATOM     78  O   UNL     1     -10.936  -6.297  -3.353  1.00  0.00    -0.744 OA
ENDBRANCH  74  75
ENDBRANCH  46  69
BRANCH  58  79
ATOM     79  C   UNL     1     -18.291   2.325  -2.590  1.00  0.00    -0.014 A 
ATOM     80  C   UNL     1     -18.625   1.759  -1.347  1.00  0.00     0.010 A 
ATOM     81  C   UNL     1     -19.318   2.646  -3.498  1.00  0.00     0.010 A 
ATOM     82  C   UNL     1     -19.961   1.503  -1.028  1.00  0.00     0.020 A 
ATOM     83  C   UNL     1     -20.655   2.422  -3.168  1.00  0.00     0.020 A 
ATOM     84  C   UNL     1     -20.968   1.843  -1.938  1.00  0.00     0.054 A 
BRANCH  84  85
ATOM     85  S   UNL     1     -22.697   1.567  -1.467  1.00  0.00     0.124 S 
ATOM     86  O   UNL     1     -22.802   0.112  -1.532  1.00  0.00    -0.237 OA
ATOM     87  O   UNL     1     -22.759   2.143  -0.126  1.00  0.00    -0.237 OA
ATOM     88  O   UNL     1     -23.454   2.292  -2.485  1.00  0.00    -0.744 OA
ENDBRANCH  84  85
ENDBRANCH  58  79
ENDBRANCH  32  33
ENDBRANCH  24  27
ENDBRANCH   1  23
TORSDOF 15
