REMARK SMILES O=C(NCCCNC(=O)C1CC[NH+]([C@H]2CC(=O)N(c3ccc4c(c3)OCCO4)C2=O)CC1)c1ccc(-c2c3nc(c(-c4ccc(S(=O)(=O)[O-])cc4)c4ccc([nH]4)c(-c4ccc(S(=O)(=O)[O-])cc4)c4nc(c(-c5ccc(S(=O)(=O)[O-])cc5)c5ccc2[nH]5)C=C4)C=C3)cc1
REMARK SMILES IDX 4 1 3 2 1 3 2 4 33 6 34 7 92 8 35 9 91 10 36 11 37 12 38 13
REMARK SMILES IDX 85 14 39 15 90 16 84 17 86 18 40 19 89 20 83 21 82 22 41 24
REMARK SMILES IDX 71 25 52 26 70 27 53 28 56 29 69 30 87 31 54 32 55 33 68 35
REMARK SMILES IDX 88 36 57 37 42 38 43 39 51 40 44 41 50 42 45 43 46 44 47 45
REMARK SMILES IDX 48 46 49 47 72 48 73 49 81 50 74 51 80 52 75 53 76 54 77 55
REMARK SMILES IDX 78 56 79 57 58 58 59 59 67 60 60 61 66 62 61 63 62 64 63 65
REMARK SMILES IDX 64 66 65 67 5 68 6 69 7 70 8 71 9 73 10 74 11 75 32 76 12 77
REMARK SMILES IDX 31 78 13 79 14 81 15 82 29 83 16 84 18 85 30 86 17 87 19 88
REMARK SMILES IDX 20 89 24 90 21 91 23 92 22 93 25 94 28 95 26 96 27 97
REMARK H PARENT 3 5 86 23 56 34 7 72 13 80
REMARK Flexibility Score: inf
ROOT
ATOM      1  C   UNL     1      13.833  -6.277  -6.349  1.00  0.00     0.118 C 
ENDROOT
BRANCH   1   2
ATOM      2  N   UNL     1      14.625  -7.027  -7.314  1.00  0.00    -0.352 N 
ATOM      3  O   UNL     1      15.711  -7.428  -9.241  1.00  0.00    -0.269 OA
ATOM      4  C   UNL     1      15.259  -6.600  -8.453  1.00  0.00     0.251 C 
ATOM      5  H   UNL     1      14.720  -7.987  -7.119  1.00  0.00     0.163 HD
BRANCH   4   6
ATOM      6  C   UNL     1      15.389  -5.156  -8.736  1.00  0.00     0.039 A 
ATOM      7  C   UNL     1      15.742  -4.261  -7.723  1.00  0.00     0.014 A 
ATOM      8  C   UNL     1      15.190  -4.697 -10.041  1.00  0.00     0.014 A 
ATOM      9  C   UNL     1      15.773  -2.897  -7.986  1.00  0.00     0.010 A 
ATOM     10  C   UNL     1      15.301  -3.333 -10.322  1.00  0.00     0.010 A 
ATOM     11  C   UNL     1      15.569  -2.419  -9.291  1.00  0.00    -0.014 A 
BRANCH  11  12
ATOM     12  C   UNL     1      15.713  -0.968  -9.563  1.00  0.00     0.031 A 
ATOM     13  C   UNL     1      14.540  -0.139 -10.002  1.00  0.00     0.074 A 
ATOM     14  C   UNL     1      16.920  -0.396  -9.384  1.00  0.00     0.049 A 
ATOM     15  N   UNL     1      14.489   1.146 -10.246  1.00  0.00    -0.248 NA
ATOM     16  C   UNL     1      13.261  -0.838 -10.199  1.00  0.00     0.031 C 
ATOM     17  C   UNL     1      18.133  -1.105  -8.966  1.00  0.00     0.029 A 
ATOM     18  N   UNL     1      17.324   0.907  -9.507  1.00  0.00    -0.354 N 
ATOM     19  C   UNL     1      13.183   1.408 -10.643  1.00  0.00     0.074 A 
ATOM     20  C   UNL     1      12.479   0.143 -10.630  1.00  0.00     0.031 C 
ATOM     21  C   UNL     1      19.130  -0.221  -8.816  1.00  0.00     0.029 A 
ATOM     22  C   UNL     1      18.646   1.104  -9.187  1.00  0.00     0.049 A 
ATOM     23  H   UNL     1      16.725   1.633  -9.796  1.00  0.00     0.167 HD
ATOM     24  C   UNL     1      12.623   2.595 -10.983  1.00  0.00     0.031 A 
ATOM     25  C   UNL     1      19.395   2.222  -9.201  1.00  0.00     0.031 A 
ATOM     26  C   UNL     1      13.334   3.848 -11.001  1.00  0.00     0.049 A 
ATOM     27  C   UNL     1      18.759   3.517  -9.611  1.00  0.00     0.074 A 
ATOM     28  C   UNL     1      12.849   5.109 -11.303  1.00  0.00     0.029 A 
ATOM     29  N   UNL     1      14.683   3.998 -10.713  1.00  0.00    -0.354 N 
ATOM     30  N   UNL     1      17.514   3.749  -9.951  1.00  0.00    -0.248 NA
ATOM     31  C   UNL     1      19.628   4.700  -9.640  1.00  0.00     0.031 C 
ATOM     32  C   UNL     1      13.916   6.013 -11.247  1.00  0.00     0.029 A 
ATOM     33  C   UNL     1      15.054   5.325 -10.856  1.00  0.00     0.049 A 
ATOM     34  H   UNL     1      15.288   3.269 -10.445  1.00  0.00     0.167 HD
ATOM     35  C   UNL     1      17.445   5.109 -10.225  1.00  0.00     0.074 A 
ATOM     36  C   UNL     1      18.770   5.649  -9.990  1.00  0.00     0.031 C 
ATOM     37  C   UNL     1      16.381   5.843 -10.633  1.00  0.00     0.031 A 
BRANCH  24  38
ATOM     38  C   UNL     1      11.175   2.585 -11.400  1.00  0.00    -0.014 A 
ATOM     39  C   UNL     1      10.147   2.369 -10.464  1.00  0.00     0.010 A 
ATOM     40  C   UNL     1      10.835   2.821 -12.745  1.00  0.00     0.010 A 
ATOM     41  C   UNL     1       8.811   2.339 -10.874  1.00  0.00     0.020 A 
ATOM     42  C   UNL     1       9.498   2.817 -13.155  1.00  0.00     0.020 A 
ATOM     43  C   UNL     1       8.496   2.555 -12.219  1.00  0.00     0.054 A 
BRANCH  43  44
ATOM     44  S   UNL     1       6.754   2.506 -12.726  1.00  0.00     0.124 S 
ATOM     45  O   UNL     1       6.472   1.073 -12.689  1.00  0.00    -0.237 OA
ATOM     46  O   UNL     1       6.096   3.300 -11.692  1.00  0.00    -0.237 OA
ATOM     47  O   UNL     1       6.763   3.105 -14.058  1.00  0.00    -0.744 OA
ENDBRANCH  43  44
ENDBRANCH  24  38
BRANCH  25  48
ATOM     48  C   UNL     1      20.828   2.146  -8.815  1.00  0.00    -0.014 A 
ATOM     49  C   UNL     1      21.270   2.688  -7.596  1.00  0.00     0.010 A 
ATOM     50  C   UNL     1      21.750   1.479  -9.643  1.00  0.00     0.010 A 
ATOM     51  C   UNL     1      22.608   2.564  -7.212  1.00  0.00     0.020 A 
ATOM     52  C   UNL     1      23.082   1.329  -9.250  1.00  0.00     0.020 A 
ATOM     53  C   UNL     1      23.504   1.879  -8.039  1.00  0.00     0.054 A 
BRANCH  53  54
ATOM     54  S   UNL     1      25.217   1.661  -7.483  1.00  0.00     0.124 S 
ATOM     55  O   UNL     1      25.778   2.990  -7.699  1.00  0.00    -0.237 OA
ATOM     56  O   UNL     1      25.049   1.263  -6.088  1.00  0.00    -0.237 OA
ATOM     57  O   UNL     1      25.730   0.612  -8.363  1.00  0.00    -0.744 OA
ENDBRANCH  53  54
ENDBRANCH  25  48
BRANCH  37  58
ATOM     58  C   UNL     1      16.606   7.317 -10.837  1.00  0.00    -0.014 A 
ATOM     59  C   UNL     1      17.330   7.795 -11.943  1.00  0.00     0.010 A 
ATOM     60  C   UNL     1      16.052   8.236  -9.928  1.00  0.00     0.010 A 
ATOM     61  C   UNL     1      17.524   9.167 -12.119  1.00  0.00     0.020 A 
ATOM     62  C   UNL     1      16.221   9.610 -10.115  1.00  0.00     0.020 A 
ATOM     63  C   UNL     1      16.969  10.066 -11.203  1.00  0.00     0.054 A 
BRANCH  63  64
ATOM     64  S   UNL     1      17.201  11.845 -11.473  1.00  0.00     0.124 S 
ATOM     65  O   UNL     1      18.591  12.034 -11.070  1.00  0.00    -0.237 OA
ATOM     66  O   UNL     1      16.934  11.990 -12.902  1.00  0.00    -0.237 OA
ATOM     67  O   UNL     1      16.208  12.460 -10.595  1.00  0.00    -0.744 OA
ENDBRANCH  63  64
ENDBRANCH  37  58
ENDBRANCH  11  12
ENDBRANCH   4   6
ENDBRANCH   1   2
BRANCH   1  68
ATOM     68  C   UNL     1      12.423  -6.840  -6.190  1.00  0.00     0.042 C 
BRANCH  68  69
ATOM     69  C   UNL     1      12.399  -8.284  -5.696  1.00  0.00     0.117 C 
BRANCH  69  70
ATOM     70  N   UNL     1      13.012  -8.409  -4.383  1.00  0.00    -0.356 N 
ATOM     71  C   UNL     1      12.435  -8.314  -3.149  1.00  0.00     0.223 C 
ATOM     72  H   UNL     1      13.980  -8.588  -4.384  1.00  0.00     0.163 HD
ATOM     73  O   UNL     1      13.152  -8.319  -2.150  1.00  0.00    -0.275 OA
BRANCH  71  74
ATOM     74  C   UNL     1      10.918  -8.301  -3.059  1.00  0.00     0.089 C 
ATOM     75  C   UNL     1      10.427  -7.351  -1.956  1.00  0.00     0.075 C 
ATOM     76  C   UNL     1      10.443  -9.758  -2.948  1.00  0.00     0.075 C 
ATOM     77  C   UNL     1      10.195  -8.013  -0.602  1.00  0.00     0.263 C 
ATOM     78  C   UNL     1      10.228 -10.231  -1.512  1.00  0.00     0.263 C 
ATOM     79  N   UNL     1       9.488  -9.293  -0.672  1.00  0.00    -0.324 N 
ATOM     80  H   UNL     1       9.492  -9.731   0.249  1.00  0.00     0.348 HD
BRANCH  79  81
ATOM     81  C   UNL     1       8.021  -9.194  -0.825  1.00  0.00     0.284 C 
ATOM     82  C   UNL     1       7.429  -8.844  -2.180  1.00  0.00     0.176 C 
ATOM     83  C   UNL     1       7.329 -10.525  -0.510  1.00  0.00     0.292 C 
ATOM     84  C   UNL     1       6.989 -10.161  -2.737  1.00  0.00     0.240 C 
ATOM     85  N   UNL     1       6.849 -11.043  -1.695  1.00  0.00    -0.245 N 
ATOM     86  O   UNL     1       7.277 -11.034   0.604  1.00  0.00    -0.267 OA
ATOM     87  O   UNL     1       6.717 -10.320  -3.919  1.00  0.00    -0.274 OA
BRANCH  85  88
ATOM     88  C   UNL     1       6.222 -12.304  -1.831  1.00  0.00     0.056 A 
ATOM     89  C   UNL     1       5.296 -12.742  -0.874  1.00  0.00     0.031 A 
ATOM     90  C   UNL     1       6.474 -13.111  -2.949  1.00  0.00     0.077 A 
ATOM     91  C   UNL     1       4.599 -13.939  -1.057  1.00  0.00     0.052 A 
ATOM     92  C   UNL     1       5.816 -14.331  -3.104  1.00  0.00     0.163 A 
ATOM     93  C   UNL     1       4.871 -14.741  -2.162  1.00  0.00     0.161 A 
ATOM     94  O   UNL     1       6.164 -15.082  -4.197  1.00  0.00    -0.486 OA
ATOM     95  O   UNL     1       4.168 -15.913  -2.262  1.00  0.00    -0.486 OA
ATOM     96  C   UNL     1       5.218 -16.125  -4.449  1.00  0.00     0.271 C 
ATOM     97  C   UNL     1       4.808 -16.823  -3.163  1.00  0.00     0.271 C 
ENDBRANCH  85  88
ENDBRANCH  79  81
ENDBRANCH  71  74
ENDBRANCH  69  70
ENDBRANCH  68  69
ENDBRANCH   1  68
TORSDOF 15
