REMARK SMILES Cc1sc(C(=O)NCCCNC(=O)c2ccc(-c3c4nc(c(-c5ccc(S(=O)(=O)[O-])cc5)c5ccc([nH]5)c(-c5ccc(S(=O)(=O)[O-])cc5)c5nc(c(-c6ccc(S(=O)(=O)[O-])cc6)c6ccc3[nH]6)C=C5)C=C4)cc2)cc1S(=O)(=O)N1C[C@@H](C)[C@H](C)C1
REMARK SMILES IDX 9 1 8 2 7 3 5 4 6 5 4 7 1 8 2 9 3 10 75 11 74 12 76 13 77 14
REMARK SMILES IDX 78 15 79 16 80 17 85 18 81 19 83 20 82 21 84 22 10 23 11 24
REMARK SMILES IDX 12 25 13 27 14 28 15 29 73 30 16 31 72 32 17 33 18 34 19 35
REMARK SMILES IDX 66 36 20 37 71 38 65 39 67 40 21 41 70 42 64 43 63 44 22 46
REMARK SMILES IDX 52 47 33 48 51 49 34 50 37 51 50 52 68 53 35 54 36 55 49 57
REMARK SMILES IDX 69 58 38 59 23 60 24 61 32 62 25 63 31 64 26 65 27 66 28 67
REMARK SMILES IDX 29 68 30 69 53 70 54 71 62 72 55 73 61 74 56 75 57 76 58 77
REMARK SMILES IDX 59 78 60 79 39 80 40 81 48 82 41 83 47 84 42 85 43 86 44 87
REMARK SMILES IDX 45 88 46 89
REMARK H PARENT 7 6 11 26 67 45 37 56
REMARK Flexibility Score: inf
ROOT
ATOM      1  C   UNL     1      -4.681  -2.246   0.793  1.00  0.00     0.042 C 
ENDROOT
BRANCH   1   2
ATOM      2  C   UNL     1      -4.288  -1.521  -0.491  1.00  0.00     0.118 C 
BRANCH   2   3
ATOM      3  N   UNL     1      -4.196  -0.093  -0.269  1.00  0.00    -0.351 N 
ATOM      4  C   UNL     1      -3.137   0.723   0.032  1.00  0.00     0.261 C 
ATOM      5  O   UNL     1      -3.423   1.916   0.172  1.00  0.00    -0.268 OA
ATOM      6  H   UNL     1      -5.056   0.380  -0.348  1.00  0.00     0.163 HD
BRANCH   4   7
ATOM      7  C   UNL     1      -1.778   0.209   0.125  1.00  0.00     0.093 A 
ATOM      8  C   UNL     1       2.106   0.684  -0.009  1.00  0.00     0.058 C 
ATOM      9  C   UNL     1       0.723   0.160   0.060  1.00  0.00     0.022 A 
ATOM     10  S   UNL     1      -0.509   1.358   0.055  1.00  0.00    -0.134 S 
ATOM     11  C   UNL     1       0.181  -1.109   0.132  1.00  0.00     0.097 A 
ATOM     12  C   UNL     1      -1.249  -1.057   0.275  1.00  0.00     0.047 A 
BRANCH  11  13
ATOM     13  S   UNL     1       0.952  -2.675   0.046  1.00  0.00     0.244 S 
ATOM     14  O   UNL     1       0.530  -3.306   1.273  1.00  0.00    -0.207 OA
ATOM     15  O   UNL     1       0.511  -3.159  -1.249  1.00  0.00    -0.207 OA
BRANCH  13  16
ATOM     16  N   UNL     1       2.607  -2.626   0.030  1.00  0.00    -0.197 NA
ATOM     17  C   UNL     1       3.377  -2.396  -1.187  1.00  0.00     0.106 C 
ATOM     18  C   UNL     1       3.393  -2.475   1.248  1.00  0.00     0.106 C 
ATOM     19  C   UNL     1       4.793  -2.056  -0.701  1.00  0.00     0.005 C 
ATOM     20  C   UNL     1       4.651  -1.731   0.798  1.00  0.00     0.005 C 
ATOM     21  C   UNL     1       5.393  -0.894  -1.488  1.00  0.00     0.009 C 
ATOM     22  C   UNL     1       5.874  -2.130   1.611  1.00  0.00     0.009 C 
ENDBRANCH  13  16
ENDBRANCH  11  13
ENDBRANCH   4   7
ENDBRANCH   2   3
ENDBRANCH   1   2
BRANCH   1  23
ATOM     23  C   UNL     1      -6.119  -1.955   1.215  1.00  0.00     0.118 C 
BRANCH  23  24
ATOM     24  N   UNL     1      -7.073  -2.393   0.205  1.00  0.00    -0.352 N 
ATOM     25  C   UNL     1      -8.085  -3.311   0.288  1.00  0.00     0.251 C 
ATOM     26  H   UNL     1      -6.975  -1.961  -0.675  1.00  0.00     0.163 HD
ATOM     27  O   UNL     1      -8.581  -3.753  -0.745  1.00  0.00    -0.269 OA
BRANCH  25  28
ATOM     28  C   UNL     1      -8.586  -3.752   1.604  1.00  0.00     0.039 A 
ATOM     29  C   UNL     1      -8.991  -5.079   1.762  1.00  0.00     0.014 A 
ATOM     30  C   UNL     1      -8.721  -2.845   2.660  1.00  0.00     0.014 A 
ATOM     31  C   UNL     1      -9.506  -5.501   2.987  1.00  0.00     0.010 A 
ATOM     32  C   UNL     1      -9.153  -3.287   3.905  1.00  0.00     0.010 A 
ATOM     33  C   UNL     1      -9.574  -4.613   4.074  1.00  0.00    -0.014 A 
BRANCH  33  34
ATOM     34  C   UNL     1     -10.112  -5.049   5.385  1.00  0.00     0.031 A 
ATOM     35  C   UNL     1     -11.364  -4.420   5.935  1.00  0.00     0.074 A 
ATOM     36  C   UNL     1      -9.448  -5.983   6.094  1.00  0.00     0.049 A 
ATOM     37  N   UNL     1     -11.974  -4.653   7.068  1.00  0.00    -0.248 NA
ATOM     38  C   UNL     1     -12.001  -3.371   5.118  1.00  0.00     0.031 C 
ATOM     39  C   UNL     1      -8.200  -6.631   5.681  1.00  0.00     0.029 A 
ATOM     40  N   UNL     1      -9.730  -6.550   7.309  1.00  0.00    -0.354 N 
ATOM     41  C   UNL     1     -13.051  -3.774   7.107  1.00  0.00     0.074 A 
ATOM     42  C   UNL     1     -12.978  -2.962   5.913  1.00  0.00     0.031 C 
ATOM     43  C   UNL     1      -7.846  -7.534   6.609  1.00  0.00     0.029 A 
ATOM     44  C   UNL     1      -8.814  -7.498   7.700  1.00  0.00     0.049 A 
ATOM     45  H   UNL     1     -10.514  -6.303   7.851  1.00  0.00     0.167 HD
ATOM     46  C   UNL     1     -14.026  -3.668   8.041  1.00  0.00     0.031 A 
ATOM     47  C   UNL     1      -8.760  -8.254   8.813  1.00  0.00     0.031 A 
ATOM     48  C   UNL     1     -14.094  -4.488   9.222  1.00  0.00     0.049 A 
ATOM     49  C   UNL     1      -9.854  -8.117   9.837  1.00  0.00     0.074 A 
ATOM     50  C   UNL     1     -15.066  -4.499  10.207  1.00  0.00     0.029 A 
ATOM     51  N   UNL     1     -13.152  -5.442   9.579  1.00  0.00    -0.354 N 
ATOM     52  N   UNL     1     -10.900  -7.325   9.825  1.00  0.00    -0.248 NA
ATOM     53  C   UNL     1      -9.769  -8.990  11.014  1.00  0.00     0.031 C 
ATOM     54  C   UNL     1     -14.682  -5.419  11.188  1.00  0.00     0.029 A 
ATOM     55  C   UNL     1     -13.508  -6.032  10.779  1.00  0.00     0.049 A 
ATOM     56  H   UNL     1     -12.350  -5.666   9.055  1.00  0.00     0.167 HD
ATOM     57  C   UNL     1     -11.616  -7.628  10.978  1.00  0.00     0.074 A 
ATOM     58  C   UNL     1     -10.891  -8.687  11.652  1.00  0.00     0.031 C 
ATOM     59  C   UNL     1     -12.771  -7.083  11.437  1.00  0.00     0.031 A 
BRANCH  46  60
ATOM     60  C   UNL     1     -15.091  -2.624   7.824  1.00  0.00    -0.014 A 
ATOM     61  C   UNL     1     -16.026  -2.741   6.778  1.00  0.00     0.010 A 
ATOM     62  C   UNL     1     -15.184  -1.527   8.700  1.00  0.00     0.010 A 
ATOM     63  C   UNL     1     -17.003  -1.760   6.586  1.00  0.00     0.020 A 
ATOM     64  C   UNL     1     -16.181  -0.560   8.531  1.00  0.00     0.020 A 
ATOM     65  C   UNL     1     -17.073  -0.675   7.464  1.00  0.00     0.054 A 
BRANCH  65  66
ATOM     66  S   UNL     1     -18.368   0.569   7.205  1.00  0.00     0.124 S 
ATOM     67  O   UNL     1     -17.897   1.248   6.001  1.00  0.00    -0.237 OA
ATOM     68  O   UNL     1     -19.567  -0.249   7.036  1.00  0.00    -0.237 OA
ATOM     69  O   UNL     1     -18.331   1.369   8.426  1.00  0.00    -0.744 OA
ENDBRANCH  65  66
ENDBRANCH  46  60
BRANCH  47  70
ATOM     70  C   UNL     1      -7.644  -9.221   9.002  1.00  0.00    -0.014 A 
ATOM     71  C   UNL     1      -7.880 -10.606   8.951  1.00  0.00     0.010 A 
ATOM     72  C   UNL     1      -6.333  -8.760   9.219  1.00  0.00     0.010 A 
ATOM     73  C   UNL     1      -6.832 -11.512   9.138  1.00  0.00     0.020 A 
ATOM     74  C   UNL     1      -5.276  -9.662   9.374  1.00  0.00     0.020 A 
ATOM     75  C   UNL     1      -5.535 -11.033   9.347  1.00  0.00     0.054 A 
BRANCH  75  76
ATOM     76  S   UNL     1      -4.184 -12.227   9.544  1.00  0.00     0.124 S 
ATOM     77  O   UNL     1      -4.452 -12.772  10.871  1.00  0.00    -0.237 OA
ATOM     78  O   UNL     1      -4.406 -13.142   8.427  1.00  0.00    -0.237 OA
ATOM     79  O   UNL     1      -2.981 -11.404   9.436  1.00  0.00    -0.744 OA
ENDBRANCH  75  76
ENDBRANCH  47  70
BRANCH  59  80
ATOM     80  C   UNL     1     -13.345  -7.654  12.707  1.00  0.00    -0.014 A 
ATOM     81  C   UNL     1     -12.724  -7.451  13.952  1.00  0.00     0.010 A 
ATOM     82  C   UNL     1     -14.549  -8.381  12.652  1.00  0.00     0.010 A 
ATOM     83  C   UNL     1     -13.271  -8.006  15.112  1.00  0.00     0.020 A 
ATOM     84  C   UNL     1     -15.117  -8.907  13.814  1.00  0.00     0.020 A 
ATOM     85  C   UNL     1     -14.463  -8.733  15.035  1.00  0.00     0.054 A 
BRANCH  85  86
ATOM     86  S   UNL     1     -15.163  -9.425  16.557  1.00  0.00     0.124 S 
ATOM     87  O   UNL     1     -14.250 -10.530  16.836  1.00  0.00    -0.237 OA
ATOM     88  O   UNL     1     -15.089  -8.299  17.485  1.00  0.00    -0.237 OA
ATOM     89  O   UNL     1     -16.516  -9.818  16.170  1.00  0.00    -0.744 OA
ENDBRANCH  85  86
ENDBRANCH  59  80
ENDBRANCH  33  34
ENDBRANCH  25  28
ENDBRANCH  23  24
ENDBRANCH   1  23
TORSDOF 15
