REMARK SMILES Cc1cc(C(=O)N[C@@H]2C(=O)N3C(C(=O)NCCCNC(=O)c4ccc(-c5c6nc(c(-c7ccc(S(=O)(=O)[O-])cc7)c7ccc([nH]7)c(-c7ccc(S(=O)(=O)[O-])cc7)c7nc(c(-c8ccc(S(=O)(=O)[O-])cc8)c8ccc5[nH]8)C=C7)C=C6)cc4)=C(CSc4nnc(C)s4)CS[C@H]23)n(C)n1
REMARK SMILES IDX 17 1 16 2 15 3 13 4 14 5 12 7 8 8 9 9 93 10 10 11 11 12
REMARK SMILES IDX 92 13 91 14 82 15 7 16 5 17 6 18 4 20 1 21 2 22 3 23 96 24
REMARK SMILES IDX 94 25 95 26 83 27 84 28 85 29 86 30 90 31 87 32 88 33 89 34
REMARK SMILES IDX 18 35 19 36 20 37 21 39 22 40 23 41 81 42 24 43 80 44 25 45
REMARK SMILES IDX 26 46 27 47 74 48 28 49 79 50 73 51 75 52 29 53 78 54 72 55
REMARK SMILES IDX 71 56 30 58 60 59 41 60 59 61 42 62 45 63 58 64 76 65 43 66
REMARK SMILES IDX 44 67 57 69 77 70 46 71 31 72 32 73 40 74 33 75 39 76 34 77
REMARK SMILES IDX 35 78 36 79 37 80 38 81 61 82 62 83 70 84 63 85 69 86 64 87
REMARK SMILES IDX 65 88 66 89 67 90 68 91 47 92 48 93 56 94 49 95 55 96 50 97
REMARK SMILES IDX 51 98 52 99 53 100 54 101
REMARK H PARENT 15 6 7 19 19 38 75 57 45 68
REMARK Flexibility Score: inf
ROOT
ATOM      1  C   UNL     1      -5.666  -0.537  -4.294  1.00  0.00     0.042 C 
ENDROOT
BRANCH   1   2
ATOM      2  C   UNL     1      -4.171  -0.646  -4.585  1.00  0.00     0.118 C 
BRANCH   2   3
ATOM      3  N   UNL     1      -3.381  -0.417  -3.389  1.00  0.00    -0.351 N 
ATOM      4  C   UNL     1      -2.672  -1.163  -2.505  1.00  0.00     0.268 C 
ATOM      5  O   UNL     1      -1.960  -0.469  -1.768  1.00  0.00    -0.268 OA
ATOM      6  H   UNL     1      -3.353   0.539  -3.156  1.00  0.00     0.163 HD
BRANCH   4   7
ATOM      7  C   UNL     1      -2.525  -2.697  -2.474  1.00  0.00     0.111 C 
ATOM      8  C   UNL     1      -0.145  -4.040  -0.363  1.00  0.00     0.206 C 
ATOM      9  C   UNL     1      -1.109  -2.817  -0.393  1.00  0.00     0.253 C 
ATOM     10  C   UNL     1      -0.939  -4.458  -1.629  1.00  0.00     0.181 C 
ATOM     11  O   UNL     1      -1.482  -2.016   0.442  1.00  0.00    -0.272 OA
ATOM     12  N   UNL     1      -1.449  -3.105  -1.690  1.00  0.00    -0.290 N 
ATOM     13  S   UNL     1      -2.326  -5.607  -1.382  1.00  0.00    -0.129 SA
ATOM     14  C   UNL     1      -2.974  -5.146  -2.986  1.00  0.00     0.106 C 
ATOM     15  C   UNL     1      -3.356  -3.675  -2.959  1.00  0.00    -0.020 C 
BRANCH   8  16
ATOM     16  N   UNL     1      -0.144  -4.932   0.831  1.00  0.00    -0.336 N 
ATOM     17  C   UNL     1       0.182  -6.276   0.927  1.00  0.00     0.270 C 
ATOM     18  O   UNL     1       0.134  -6.795   2.041  1.00  0.00    -0.268 OA
ATOM     19  H   UNL     1      -0.415  -4.504   1.676  1.00  0.00     0.164 HD
BRANCH  17  20
ATOM     20  C   UNL     1       0.488  -7.016  -0.280  1.00  0.00     0.126 A 
ATOM     21  C   UNL     1       0.554  -7.359  -3.900  1.00  0.00     0.069 C 
ATOM     22  C   UNL     1       0.627  -7.538  -2.430  1.00  0.00     0.060 A 
ATOM     23  C   UNL     1       1.107  -6.630  -1.460  1.00  0.00     0.059 A 
ATOM     24  N   UNL     1       0.099  -8.617  -1.852  1.00  0.00    -0.178 NA
ATOM     25  N   UNL     1       0.114  -8.320  -0.531  1.00  0.00    -0.263 N 
ATOM     26  C   UNL     1      -0.304  -9.354   0.386  1.00  0.00     0.174 C 
ENDBRANCH  17  20
ENDBRANCH   8  16
BRANCH  15  27
ATOM     27  C   UNL     1      -4.844  -3.543  -3.190  1.00  0.00     0.111 C 
BRANCH  27  28
ATOM     28  S   UNL     1      -5.528  -2.673  -1.779  1.00  0.00    -0.089 SA
BRANCH  28  29
ATOM     29  C   UNL     1      -6.886  -3.595  -1.271  1.00  0.00     0.174 A 
ATOM     30  N   UNL     1      -6.785  -4.830  -0.839  1.00  0.00    -0.132 NA
ATOM     31  S   UNL     1      -8.295  -2.775  -0.750  1.00  0.00    -0.091 S 
ATOM     32  N   UNL     1      -7.623  -5.023   0.248  1.00  0.00    -0.143 NA
ATOM     33  C   UNL     1      -8.314  -3.931   0.518  1.00  0.00     0.115 A 
ATOM     34  C   UNL     1      -8.921  -3.582   1.821  1.00  0.00     0.081 C 
ENDBRANCH  28  29
ENDBRANCH  27  28
ENDBRANCH  15  27
ENDBRANCH   4   7
ENDBRANCH   2   3
ENDBRANCH   1   2
BRANCH   1  35
ATOM     35  C   UNL     1      -6.308   0.814  -4.529  1.00  0.00     0.118 C 
BRANCH  35  36
ATOM     36  N   UNL     1      -6.549   1.065  -5.934  1.00  0.00    -0.352 N 
ATOM     37  C   UNL     1      -7.731   1.136  -6.633  1.00  0.00     0.251 C 
ATOM     38  H   UNL     1      -5.739   1.206  -6.475  1.00  0.00     0.163 HD
ATOM     39  O   UNL     1      -7.685   1.120  -7.861  1.00  0.00    -0.269 OA
BRANCH  37  40
ATOM     40  C   UNL     1      -9.045   1.210  -5.941  1.00  0.00     0.039 A 
ATOM     41  C   UNL     1     -10.157   0.622  -6.553  1.00  0.00     0.014 A 
ATOM     42  C   UNL     1      -9.214   1.889  -4.732  1.00  0.00     0.014 A 
ATOM     43  C   UNL     1     -11.412   0.682  -5.938  1.00  0.00     0.010 A 
ATOM     44  C   UNL     1     -10.436   1.847  -4.064  1.00  0.00     0.010 A 
ATOM     45  C   UNL     1     -11.558   1.269  -4.671  1.00  0.00    -0.014 A 
BRANCH  45  46
ATOM     46  C   UNL     1     -12.880   1.329  -3.991  1.00  0.00     0.031 A 
ATOM     47  C   UNL     1     -13.497   2.664  -3.653  1.00  0.00     0.074 A 
ATOM     48  C   UNL     1     -13.511   0.189  -3.649  1.00  0.00     0.049 A 
ATOM     49  N   UNL     1     -14.619   2.920  -3.030  1.00  0.00    -0.248 NA
ATOM     50  C   UNL     1     -12.744   3.869  -4.043  1.00  0.00     0.031 C 
ATOM     51  C   UNL     1     -13.007  -1.165  -3.893  1.00  0.00     0.029 A 
ATOM     52  N   UNL     1     -14.719  -0.017  -3.028  1.00  0.00    -0.354 N 
ATOM     53  C   UNL     1     -14.699   4.306  -2.946  1.00  0.00     0.074 A 
ATOM     54  C   UNL     1     -13.482   4.836  -3.518  1.00  0.00     0.031 C 
ATOM     55  C   UNL     1     -13.918  -2.057  -3.473  1.00  0.00     0.029 A 
ATOM     56  C   UNL     1     -15.046  -1.345  -2.883  1.00  0.00     0.049 A 
ATOM     57  H   UNL     1     -15.296   0.718  -2.717  1.00  0.00     0.167 HD
ATOM     58  C   UNL     1     -15.706   5.073  -2.465  1.00  0.00     0.031 A 
ATOM     59  C   UNL     1     -16.132  -1.926  -2.336  1.00  0.00     0.031 A 
ATOM     60  C   UNL     1     -16.921   4.543  -1.906  1.00  0.00     0.049 A 
ATOM     61  C   UNL     1     -17.224  -1.055  -1.779  1.00  0.00     0.074 A 
ATOM     62  C   UNL     1     -18.017   5.235  -1.421  1.00  0.00     0.029 A 
ATOM     63  N   UNL     1     -17.203   3.193  -1.761  1.00  0.00    -0.354 N 
ATOM     64  N   UNL     1     -17.295   0.255  -1.743  1.00  0.00    -0.248 NA
ATOM     65  C   UNL     1     -18.387  -1.740  -1.200  1.00  0.00     0.031 C 
ATOM     66  C   UNL     1     -18.937   4.304  -0.929  1.00  0.00     0.029 A 
ATOM     67  C   UNL     1     -18.447   3.031  -1.175  1.00  0.00     0.049 A 
ATOM     68  H   UNL     1     -16.607   2.459  -2.035  1.00  0.00     0.167 HD
ATOM     69  C   UNL     1     -18.525   0.551  -1.164  1.00  0.00     0.074 A 
ATOM     70  C   UNL     1     -19.168  -0.716  -0.881  1.00  0.00     0.031 C 
ATOM     71  C   UNL     1     -19.072   1.762  -0.895  1.00  0.00     0.031 A 
BRANCH  58  72
ATOM     72  C   UNL     1     -15.538   6.571  -2.529  1.00  0.00    -0.014 A 
ATOM     73  C   UNL     1     -15.538   7.248  -3.762  1.00  0.00     0.010 A 
ATOM     74  C   UNL     1     -15.432   7.318  -1.341  1.00  0.00     0.010 A 
ATOM     75  C   UNL     1     -15.398   8.638  -3.809  1.00  0.00     0.020 A 
ATOM     76  C   UNL     1     -15.325   8.712  -1.382  1.00  0.00     0.020 A 
ATOM     77  C   UNL     1     -15.296   9.361  -2.618  1.00  0.00     0.054 A 
BRANCH  77  78
ATOM     78  S   UNL     1     -15.157  11.167  -2.712  1.00  0.00     0.124 S 
ATOM     79  O   UNL     1     -13.815  11.339  -3.262  1.00  0.00    -0.237 OA
ATOM     80  O   UNL     1     -16.253  11.524  -3.609  1.00  0.00    -0.237 OA
ATOM     81  O   UNL     1     -15.321  11.601  -1.327  1.00  0.00    -0.744 OA
ENDBRANCH  77  78
ENDBRANCH  58  72
BRANCH  59  82
ATOM     82  C   UNL     1     -16.247  -3.411  -2.317  1.00  0.00    -0.014 A 
ATOM     83  C   UNL     1     -17.194  -4.064  -3.125  1.00  0.00     0.010 A 
ATOM     84  C   UNL     1     -15.387  -4.184  -1.514  1.00  0.00     0.010 A 
ATOM     85  C   UNL     1     -17.286  -5.459  -3.126  1.00  0.00     0.020 A 
ATOM     86  C   UNL     1     -15.455  -5.580  -1.534  1.00  0.00     0.020 A 
ATOM     87  C   UNL     1     -16.410  -6.208  -2.336  1.00  0.00     0.054 A 
BRANCH  87  88
ATOM     88  S   UNL     1     -16.505  -8.019  -2.407  1.00  0.00     0.124 S 
ATOM     89  O   UNL     1     -17.772  -8.284  -1.734  1.00  0.00    -0.237 OA
ATOM     90  O   UNL     1     -16.484  -8.276  -3.845  1.00  0.00    -0.237 OA
ATOM     91  O   UNL     1     -15.309  -8.452  -1.687  1.00  0.00    -0.744 OA
ENDBRANCH  87  88
ENDBRANCH  59  82
BRANCH  71  92
ATOM     92  C   UNL     1     -20.453   1.783  -0.293  1.00  0.00    -0.014 A 
ATOM     93  C   UNL     1     -20.680   1.373   1.032  1.00  0.00     0.010 A 
ATOM     94  C   UNL     1     -21.529   2.281  -1.052  1.00  0.00     0.010 A 
ATOM     95  C   UNL     1     -21.966   1.429   1.577  1.00  0.00     0.020 A 
ATOM     96  C   UNL     1     -22.809   2.370  -0.500  1.00  0.00     0.020 A 
ATOM     97  C   UNL     1     -23.022   1.929   0.807  1.00  0.00     0.054 A 
BRANCH  97  98
ATOM     98  S   UNL     1     -24.671   2.032   1.555  1.00  0.00     0.124 S 
ATOM     99  O   UNL     1     -25.057   0.626   1.634  1.00  0.00    -0.237 OA
ATOM    100  O   UNL     1     -24.400   2.683   2.835  1.00  0.00    -0.237 OA
ATOM    101  O   UNL     1     -25.434   2.835   0.603  1.00  0.00    -0.744 OA
ENDBRANCH  97  98
ENDBRANCH  71  92
ENDBRANCH  45  46
ENDBRANCH  37  40
ENDBRANCH  35  36
ENDBRANCH   1  35
TORSDOF 18
