REMARK SMILES CC(C)[N@@H+](C)Cc1cc2c(cc1Cl)C=C(C(=O)NCCCNC(=O)c1ccc(-c3c4nc(c(-c5ccc(S(=O)(=O)[O-])cc5)c5ccc([nH]5)c(-c5ccc(S(=O)(=O)[O-])cc5)c5nc(c(-c6ccc(S(=O)(=O)[O-])cc6)c6ccc3[nH]6)C=C5)C=C4)cc1)[C@@H](C(F)(F)F)O2
REMARK SMILES IDX 20 1 19 2 18 3 16 4 17 5 15 7 7 8 8 9 12 10 9 11 11 12 13 13
REMARK SMILES IDX 10 14 90 15 14 16 85 17 6 18 4 19 5 20 2 22 1 23 3 24 86 25
REMARK SMILES IDX 87 26 88 27 89 28 21 29 22 30 23 31 24 33 25 34 26 35 84 36
REMARK SMILES IDX 27 37 83 38 28 39 29 40 30 41 77 42 31 43 82 44 76 45 78 46
REMARK SMILES IDX 32 47 81 48 75 49 74 50 33 52 63 53 44 54 62 55 45 56 48 57
REMARK SMILES IDX 61 58 79 59 46 60 47 61 60 63 80 64 49 65 34 66 35 67 43 68
REMARK SMILES IDX 36 69 42 70 37 71 38 72 39 73 40 74 41 75 64 76 65 77 73 78
REMARK SMILES IDX 66 79 72 80 67 81 68 82 69 83 70 84 71 85 50 86 51 87 59 88
REMARK SMILES IDX 52 89 58 90 53 91 54 92 55 93 56 94 57 95
REMARK H PARENT 18 6 4 21 22 32 78 51 48 62
REMARK Flexibility Score: inf
ROOT
ATOM      1  C   UNL     1       4.014  -7.539   5.332  1.00  0.00     0.042 C 
ENDROOT
BRANCH   1   2
ATOM      2  C   UNL     1       4.071  -7.646   3.816  1.00  0.00     0.118 C 
BRANCH   2   3
ATOM      3  N   UNL     1       2.939  -8.385   3.276  1.00  0.00    -0.352 N 
ATOM      4  C   UNL     1       1.744  -8.096   2.713  1.00  0.00     0.251 C 
ATOM      5  O   UNL     1       1.060  -9.076   2.399  1.00  0.00    -0.270 OA
ATOM      6  H   UNL     1       3.083  -9.357   3.337  1.00  0.00     0.163 HD
BRANCH   4   7
ATOM      7  C   UNL     1       1.231  -6.723   2.444  1.00  0.00     0.067 C 
ATOM      8  C   UNL     1      -1.357  -2.764   0.736  1.00  0.00     0.029 A 
ATOM      9  C   UNL     1      -0.304  -2.932   1.649  1.00  0.00     0.058 A 
ATOM     10  C   UNL     1      -2.073  -3.911   0.350  1.00  0.00     0.050 A 
ATOM     11  C   UNL     1       0.124  -4.201   2.019  1.00  0.00     0.128 A 
ATOM     12  C   UNL     1      -1.663  -5.189   0.760  1.00  0.00     0.033 A 
ATOM     13  Cl  UNL     1      -3.506  -3.829  -0.616  1.00  0.00    -0.084 Cl
ATOM     14  C   UNL     1      -0.534  -5.339   1.565  1.00  0.00     0.019 A 
ATOM     15  O   UNL     1       1.223  -4.269   2.828  1.00  0.00    -0.475 OA
ATOM     16  C   UNL     1      -0.016  -6.649   1.938  1.00  0.00     0.025 C 
ATOM     17  C   UNL     1       2.032  -5.466   2.650  1.00  0.00     0.314 C 
BRANCH   8  18
ATOM     18  C   UNL     1      -1.634  -1.369   0.216  1.00  0.00     0.300 C 
BRANCH  18  19
ATOM     19  N   UNL     1      -0.974  -0.969  -1.037  1.00  0.00    -0.332 N 
ATOM     20  C   UNL     1      -1.500  -1.631  -2.224  1.00  0.00     0.333 C 
ATOM     21  H   UNL     1      -1.273   0.006  -1.045  1.00  0.00     0.348 HD
BRANCH  19  22
ATOM     22  C   UNL     1       0.483  -0.766  -1.085  1.00  0.00     0.177 C 
ATOM     23  C   UNL     1       0.991   0.203  -0.012  1.00  0.00     0.075 C 
ATOM     24  C   UNL     1       1.357  -2.026  -1.126  1.00  0.00     0.075 C 
ENDBRANCH  19  22
ENDBRANCH  18  19
ENDBRANCH   8  18
BRANCH  17  25
ATOM     25  C   UNL     1       3.067  -5.229   1.530  1.00  0.00     0.429 C 
ATOM     26  F   UNL     1       3.978  -4.299   1.914  1.00  0.00    -0.167 F 
ATOM     27  F   UNL     1       3.766  -6.347   1.221  1.00  0.00    -0.167 F 
ATOM     28  F   UNL     1       2.508  -4.794   0.379  1.00  0.00    -0.167 F 
ENDBRANCH  17  25
ENDBRANCH   4   7
ENDBRANCH   2   3
ENDBRANCH   1   2
BRANCH   1  29
ATOM     29  C   UNL     1       4.397  -8.842   6.022  1.00  0.00     0.118 C 
BRANCH  29  30
ATOM     30  N   UNL     1       5.803  -9.184   5.815  1.00  0.00    -0.352 N 
ATOM     31  C   UNL     1       6.857  -9.199   6.698  1.00  0.00     0.251 C 
ATOM     32  H   UNL     1       6.033  -9.447   4.895  1.00  0.00     0.163 HD
ATOM     33  O   UNL     1       8.005  -9.295   6.271  1.00  0.00    -0.269 OA
BRANCH  31  34
ATOM     34  C   UNL     1       6.611  -9.080   8.150  1.00  0.00     0.039 A 
ATOM     35  C   UNL     1       5.540  -9.752   8.737  1.00  0.00     0.014 A 
ATOM     36  C   UNL     1       7.456  -8.291   8.935  1.00  0.00     0.014 A 
ATOM     37  C   UNL     1       5.194  -9.476  10.051  1.00  0.00     0.010 A 
ATOM     38  C   UNL     1       7.170  -8.104  10.292  1.00  0.00     0.010 A 
ATOM     39  C   UNL     1       6.005  -8.652  10.848  1.00  0.00    -0.014 A 
BRANCH  39  40
ATOM     40  C   UNL     1       5.600  -8.395  12.256  1.00  0.00     0.031 A 
ATOM     41  C   UNL     1       5.246  -7.006  12.717  1.00  0.00     0.074 A 
ATOM     42  C   UNL     1       5.457  -9.444  13.092  1.00  0.00     0.049 A 
ATOM     43  N   UNL     1       4.798  -6.623  13.886  1.00  0.00    -0.248 NA
ATOM     44  C   UNL     1       5.415  -5.905  11.755  1.00  0.00     0.031 C 
ATOM     45  C   UNL     1       5.751 -10.837  12.745  1.00  0.00     0.029 A 
ATOM     46  N   UNL     1       4.981  -9.516  14.376  1.00  0.00    -0.354 N 
ATOM     47  C   UNL     1       4.650  -5.243  13.806  1.00  0.00     0.074 A 
ATOM     48  C   UNL     1       5.081  -4.848  12.484  1.00  0.00     0.031 C 
ATOM     49  C   UNL     1       5.360 -11.632  13.751  1.00  0.00     0.029 A 
ATOM     50  C   UNL     1       4.865 -10.804  14.846  1.00  0.00     0.049 A 
ATOM     51  H   UNL     1       4.744  -8.724  14.910  1.00  0.00     0.167 HD
ATOM     52  C   UNL     1       4.184  -4.387  14.746  1.00  0.00     0.031 A 
ATOM     53  C   UNL     1       4.414 -11.277  16.025  1.00  0.00     0.031 A 
ATOM     54  C   UNL     1       3.736  -4.793  16.052  1.00  0.00     0.049 A 
ATOM     55  C   UNL     1       3.933 -10.305  17.060  1.00  0.00     0.074 A 
ATOM     56  C   UNL     1       3.240  -3.997  17.071  1.00  0.00     0.029 A 
ATOM     57  N   UNL     1       3.716  -6.099  16.518  1.00  0.00    -0.354 N 
ATOM     58  N   UNL     1       3.817  -9.002  16.968  1.00  0.00    -0.248 NA
ATOM     59  C   UNL     1       3.531 -10.859  18.360  1.00  0.00     0.031 C 
ATOM     60  C   UNL     1       2.972  -4.814  18.171  1.00  0.00     0.029 A 
ATOM     61  C   UNL     1       3.238  -6.128  17.818  1.00  0.00     0.049 A 
ATOM     62  H   UNL     1       3.998  -6.888  16.002  1.00  0.00     0.167 HD
ATOM     63  C   UNL     1       3.332  -8.578  18.198  1.00  0.00     0.074 A 
ATOM     64  C   UNL     1       3.148  -9.765  19.008  1.00  0.00     0.031 C 
ATOM     65  C   UNL     1       3.072  -7.316  18.618  1.00  0.00     0.031 A 
BRANCH  52  66
ATOM     66  C   UNL     1       4.133  -2.918  14.415  1.00  0.00    -0.014 A 
ATOM     67  C   UNL     1       4.995  -2.025  15.079  1.00  0.00     0.010 A 
ATOM     68  C   UNL     1       3.159  -2.405  13.540  1.00  0.00     0.010 A 
ATOM     69  C   UNL     1       4.866  -0.645  14.897  1.00  0.00     0.020 A 
ATOM     70  C   UNL     1       3.044  -1.027  13.336  1.00  0.00     0.020 A 
ATOM     71  C   UNL     1       3.883  -0.154  14.034  1.00  0.00     0.054 A 
BRANCH  71  72
ATOM     72  S   UNL     1       3.715   1.640  13.825  1.00  0.00     0.124 S 
ATOM     73  O   UNL     1       3.021   2.030  15.048  1.00  0.00    -0.237 OA
ATOM     74  O   UNL     1       5.104   2.082  13.718  1.00  0.00    -0.237 OA
ATOM     75  O   UNL     1       2.936   1.767  12.594  1.00  0.00    -0.744 OA
ENDBRANCH  71  72
ENDBRANCH  52  66
BRANCH  53  76
ATOM     76  C   UNL     1       4.391 -12.748  16.253  1.00  0.00    -0.014 A 
ATOM     77  C   UNL     1       5.596 -13.472  16.333  1.00  0.00     0.010 A 
ATOM     78  C   UNL     1       3.172 -13.445  16.285  1.00  0.00     0.010 A 
ATOM     79  C   UNL     1       5.585 -14.868  16.370  1.00  0.00     0.020 A 
ATOM     80  C   UNL     1       3.155 -14.842  16.354  1.00  0.00     0.020 A 
ATOM     81  C   UNL     1       4.363 -15.545  16.361  1.00  0.00     0.054 A 
BRANCH  81  82
ATOM     82  S   UNL     1       4.371 -17.359  16.342  1.00  0.00     0.124 S 
ATOM     83  O   UNL     1       4.664 -17.640  14.939  1.00  0.00    -0.237 OA
ATOM     84  O   UNL     1       5.437 -17.686  17.285  1.00  0.00    -0.237 OA
ATOM     85  O   UNL     1       3.023 -17.709  16.783  1.00  0.00    -0.744 OA
ENDBRANCH  81  82
ENDBRANCH  53  76
BRANCH  65  86
ATOM     86  C   UNL     1       2.572  -7.130  20.024  1.00  0.00    -0.014 A 
ATOM     87  C   UNL     1       1.251  -6.699  20.245  1.00  0.00     0.010 A 
ATOM     88  C   UNL     1       3.445  -7.261  21.118  1.00  0.00     0.010 A 
ATOM     89  C   UNL     1       0.820  -6.369  21.532  1.00  0.00     0.020 A 
ATOM     90  C   UNL     1       3.010  -6.957  22.410  1.00  0.00     0.020 A 
ATOM     91  C   UNL     1       1.707  -6.489  22.605  1.00  0.00     0.054 A 
BRANCH  91  92
ATOM     92  S   UNL     1       1.141  -6.029  24.265  1.00  0.00     0.124 S 
ATOM     93  O   UNL     1       1.221  -4.572  24.224  1.00  0.00    -0.237 OA
ATOM     94  O   UNL     1      -0.210  -6.584  24.312  1.00  0.00    -0.237 OA
ATOM     95  O   UNL     1       2.105  -6.683  25.148  1.00  0.00    -0.744 OA
ENDBRANCH  91  92
ENDBRANCH  65  86
ENDBRANCH  39  40
ENDBRANCH  31  34
ENDBRANCH  29  30
ENDBRANCH   1  29
TORSDOF 17
