REMARK SMILES O=C(NCCCNC(=O)c1cc(-c2ccc(Cl)cc2)nc2c3c(C4CC4)cc(C(F)(F)F)nc3nn12)c1ccc(-c2c3nc(c(-c4ccc(S(=O)(=O)[O-])cc4)c4ccc([nH]4)c(-c4ccc(S(=O)(=O)[O-])cc4)c4nc(c(-c5ccc(S(=O)(=O)[O-])cc5)c5ccc2[nH]5)C=C4)C=C3)cc1
REMARK SMILES IDX 4 1 3 2 1 3 2 4 37 6 38 7 96 8 39 9 95 10 40 11 41 12 42 13
REMARK SMILES IDX 89 14 43 15 94 16 88 17 90 18 44 19 93 20 87 21 86 22 45 24
REMARK SMILES IDX 75 25 56 26 74 27 57 28 60 29 73 30 91 31 58 32 59 33 72 35
REMARK SMILES IDX 92 36 61 37 46 38 47 39 55 40 48 41 54 42 49 43 50 44 51 45
REMARK SMILES IDX 52 46 53 47 76 48 77 49 85 50 78 51 84 52 79 53 80 54 81 55
REMARK SMILES IDX 82 56 83 57 62 58 63 59 71 60 64 61 70 62 65 63 66 64 67 65
REMARK SMILES IDX 68 66 69 67 5 68 6 69 7 70 8 71 9 73 10 74 11 75 36 76 12 77
REMARK SMILES IDX 21 78 35 79 20 80 22 81 34 82 23 83 33 84 27 85 28 86 13 87
REMARK SMILES IDX 14 88 19 89 15 90 18 91 16 92 17 93 24 94 25 95 26 96 29 97
REMARK SMILES IDX 30 98 31 99 32 100
REMARK H PARENT 3 5 90 23 60 34 7 72
REMARK Flexibility Score: inf
ROOT
ATOM      1  C   UNL     1       4.506   1.472  -0.399  1.00  0.00     0.118 C 
ENDROOT
BRANCH   1   2
ATOM      2  N   UNL     1       3.126   1.120  -0.101  1.00  0.00    -0.352 N 
ATOM      3  O   UNL     1       1.417  -0.273   0.421  1.00  0.00    -0.269 OA
ATOM      4  C   UNL     1       2.616  -0.101   0.283  1.00  0.00     0.251 C 
ATOM      5  H   UNL     1       2.471   1.850  -0.184  1.00  0.00     0.163 HD
BRANCH   4   6
ATOM      6  C   UNL     1       3.563  -1.211   0.489  1.00  0.00     0.039 A 
ATOM      7  C   UNL     1       4.557  -1.099   1.464  1.00  0.00     0.014 A 
ATOM      8  C   UNL     1       3.500  -2.319  -0.358  1.00  0.00     0.014 A 
ATOM      9  C   UNL     1       5.574  -2.041   1.505  1.00  0.00     0.010 A 
ATOM     10  C   UNL     1       4.501  -3.286  -0.287  1.00  0.00     0.010 A 
ATOM     11  C   UNL     1       5.557  -3.127   0.619  1.00  0.00    -0.014 A 
BRANCH  11  12
ATOM     12  C   UNL     1       6.682  -4.066   0.722  1.00  0.00     0.031 A 
ATOM     13  C   UNL     1       6.295  -5.499   0.908  1.00  0.00     0.074 A 
ATOM     14  C   UNL     1       7.804  -3.814   0.019  1.00  0.00     0.049 A 
ATOM     15  N   UNL     1       5.999  -6.325  -0.053  1.00  0.00    -0.248 NA
ATOM     16  C   UNL     1       5.988  -6.004   2.247  1.00  0.00     0.031 C 
ATOM     17  C   UNL     1       7.829  -3.416  -1.393  1.00  0.00     0.029 A 
ATOM     18  N   UNL     1       9.110  -4.112   0.318  1.00  0.00    -0.354 N 
ATOM     19  C   UNL     1       5.435  -7.443   0.542  1.00  0.00     0.074 A 
ATOM     20  C   UNL     1       5.446  -7.197   1.967  1.00  0.00     0.031 C 
ATOM     21  C   UNL     1       9.060  -3.658  -1.886  1.00  0.00     0.029 A 
ATOM     22  C   UNL     1       9.932  -4.105  -0.804  1.00  0.00     0.049 A 
ATOM     23  H   UNL     1       9.430  -4.309   1.228  1.00  0.00     0.167 HD
ATOM     24  C   UNL     1       4.980  -8.523  -0.144  1.00  0.00     0.031 A 
ATOM     25  C   UNL     1      11.054  -4.867  -0.927  1.00  0.00     0.031 A 
ATOM     26  C   UNL     1       5.190  -8.500  -1.557  1.00  0.00     0.049 A 
ATOM     27  C   UNL     1      10.445  -6.167  -1.397  1.00  0.00     0.074 A 
ATOM     28  C   UNL     1       4.472  -8.181  -2.688  1.00  0.00     0.029 A 
ATOM     29  N   UNL     1       6.438  -8.845  -2.019  1.00  0.00    -0.354 N 
ATOM     30  N   UNL     1      10.055  -6.455  -2.610  1.00  0.00    -0.248 NA
ATOM     31  C   UNL     1       9.905  -7.053  -0.360  1.00  0.00     0.031 C 
ATOM     32  C   UNL     1       5.447  -7.930  -3.704  1.00  0.00     0.029 A 
ATOM     33  C   UNL     1       6.703  -8.061  -3.111  1.00  0.00     0.049 A 
ATOM     34  H   UNL     1       7.032  -9.530  -1.636  1.00  0.00     0.167 HD
ATOM     35  C   UNL     1       8.975  -7.329  -2.451  1.00  0.00     0.074 A 
ATOM     36  C   UNL     1       8.966  -7.691  -1.047  1.00  0.00     0.031 C 
ATOM     37  C   UNL     1       8.023  -7.541  -3.407  1.00  0.00     0.031 A 
BRANCH  24  38
ATOM     38  C   UNL     1       4.446  -9.741   0.504  1.00  0.00    -0.014 A 
ATOM     39  C   UNL     1       5.318 -10.822   0.715  1.00  0.00     0.010 A 
ATOM     40  C   UNL     1       3.073  -9.901   0.744  1.00  0.00     0.010 A 
ATOM     41  C   UNL     1       4.821 -12.064   1.105  1.00  0.00     0.020 A 
ATOM     42  C   UNL     1       2.571 -11.145   1.144  1.00  0.00     0.020 A 
ATOM     43  C   UNL     1       3.447 -12.224   1.300  1.00  0.00     0.054 A 
BRANCH  43  44
ATOM     44  S   UNL     1       2.829 -13.886   1.681  1.00  0.00     0.124 S 
ATOM     45  O   UNL     1       3.351 -14.675   0.568  1.00  0.00    -0.237 OA
ATOM     46  O   UNL     1       3.440 -14.149   2.981  1.00  0.00    -0.237 OA
ATOM     47  O   UNL     1       1.378 -13.721   1.697  1.00  0.00    -0.744 OA
ENDBRANCH  43  44
ENDBRANCH  24  38
BRANCH  25  48
ATOM     48  C   UNL     1      12.004  -4.754   0.230  1.00  0.00    -0.014 A 
ATOM     49  C   UNL     1      12.361  -3.450   0.650  1.00  0.00     0.010 A 
ATOM     50  C   UNL     1      12.517  -5.833   0.965  1.00  0.00     0.010 A 
ATOM     51  C   UNL     1      13.048  -3.228   1.844  1.00  0.00     0.020 A 
ATOM     52  C   UNL     1      13.192  -5.620   2.177  1.00  0.00     0.020 A 
ATOM     53  C   UNL     1      13.412  -4.318   2.629  1.00  0.00     0.054 A 
BRANCH  53  54
ATOM     54  S   UNL     1      14.120  -4.000   4.266  1.00  0.00     0.124 S 
ATOM     55  O   UNL     1      15.222  -3.091   3.964  1.00  0.00    -0.237 OA
ATOM     56  O   UNL     1      12.987  -3.404   4.970  1.00  0.00    -0.237 OA
ATOM     57  O   UNL     1      14.516  -5.326   4.734  1.00  0.00    -0.744 OA
ENDBRANCH  53  54
ENDBRANCH  25  48
BRANCH  37  58
ATOM     58  C   UNL     1       8.285  -6.965  -4.763  1.00  0.00    -0.014 A 
ATOM     59  C   UNL     1       9.243  -7.552  -5.601  1.00  0.00     0.010 A 
ATOM     60  C   UNL     1       7.506  -5.899  -5.252  1.00  0.00     0.010 A 
ATOM     61  C   UNL     1       9.384  -7.120  -6.922  1.00  0.00     0.020 A 
ATOM     62  C   UNL     1       7.630  -5.474  -6.576  1.00  0.00     0.020 A 
ATOM     63  C   UNL     1       8.560  -6.100  -7.408  1.00  0.00     0.054 A 
BRANCH  63  64
ATOM     64  S   UNL     1       8.695  -5.634  -9.154  1.00  0.00     0.124 S 
ATOM     65  O   UNL     1      10.096  -5.235  -9.269  1.00  0.00    -0.237 OA
ATOM     66  O   UNL     1       8.337  -6.874  -9.838  1.00  0.00    -0.237 OA
ATOM     67  O   UNL     1       7.730  -4.546  -9.303  1.00  0.00    -0.744 OA
ENDBRANCH  63  64
ENDBRANCH  37  58
ENDBRANCH  11  12
ENDBRANCH   4   6
ENDBRANCH   1   2
BRANCH   1  68
ATOM     68  C   UNL     1       4.875   1.267  -1.865  1.00  0.00     0.042 C 
BRANCH  68  69
ATOM     69  C   UNL     1       4.336   2.360  -2.782  1.00  0.00     0.118 C 
BRANCH  69  70
ATOM     70  N   UNL     1       4.847   3.676  -2.411  1.00  0.00    -0.351 N 
ATOM     71  C   UNL     1       5.597   4.570  -3.107  1.00  0.00     0.270 C 
ATOM     72  H   UNL     1       4.607   3.966  -1.501  1.00  0.00     0.163 HD
ATOM     73  O   UNL     1       6.034   5.566  -2.531  1.00  0.00    -0.268 OA
BRANCH  71  74
ATOM     74  C   UNL     1       5.926   4.326  -4.521  1.00  0.00     0.134 A 
ATOM     75  C   UNL     1       7.224   4.413  -4.846  1.00  0.00     0.063 A 
ATOM     76  N   UNL     1       4.967   4.068  -5.496  1.00  0.00    -0.207 N 
ATOM     77  C   UNL     1       7.531   4.257  -6.298  1.00  0.00     0.075 A 
ATOM     78  C   UNL     1       5.354   3.826  -6.828  1.00  0.00     0.166 A 
ATOM     79  N   UNL     1       3.622   3.997  -5.333  1.00  0.00    -0.145 NA
ATOM     80  N   UNL     1       6.658   3.996  -7.229  1.00  0.00    -0.228 NA
ATOM     81  C   UNL     1       4.210   3.363  -7.449  1.00  0.00     0.069 A 
ATOM     82  C   UNL     1       3.182   3.474  -6.468  1.00  0.00     0.184 A 
ATOM     83  C   UNL     1       4.067   2.853  -8.747  1.00  0.00    -0.028 A 
ATOM     84  N   UNL     1       1.907   3.082  -6.690  1.00  0.00    -0.222 NA
ATOM     85  C   UNL     1       2.736   2.416  -8.929  1.00  0.00     0.038 A 
ATOM     86  C   UNL     1       1.723   2.537  -7.933  1.00  0.00     0.147 A 
BRANCH  77  87
ATOM     87  C   UNL     1       8.950   4.500  -6.644  1.00  0.00     0.000 A 
ATOM     88  C   UNL     1       9.258   5.553  -7.510  1.00  0.00     0.012 A 
ATOM     89  C   UNL     1       9.970   3.746  -6.051  1.00  0.00     0.012 A 
ATOM     90  C   UNL     1      10.595   5.876  -7.758  1.00  0.00     0.021 A 
ATOM     91  C   UNL     1      11.306   4.066  -6.310  1.00  0.00     0.021 A 
ATOM     92  C   UNL     1      11.612   5.135  -7.153  1.00  0.00     0.041 A 
ATOM     93  Cl  UNL     1      13.256   5.556  -7.440  1.00  0.00    -0.084 Cl
ENDBRANCH  77  87
BRANCH  83  94
ATOM     94  C   UNL     1       5.187   2.792  -9.736  1.00  0.00     0.020 C 
ATOM     95  C   UNL     1       5.001   2.290 -11.149  1.00  0.00     0.009 C 
ATOM     96  C   UNL     1       5.169   3.758 -10.900  1.00  0.00     0.009 C 
ENDBRANCH  83  94
BRANCH  86  97
ATOM     97  C   UNL     1       0.325   2.011  -8.247  1.00  0.00     0.433 C 
ATOM     98  F   UNL     1       0.002   0.895  -7.535  1.00  0.00    -0.165 F 
ATOM     99  F   UNL     1      -0.658   2.921  -7.987  1.00  0.00    -0.165 F 
ATOM    100  F   UNL     1       0.154   1.670  -9.559  1.00  0.00    -0.165 F 
ENDBRANCH  86  97
ENDBRANCH  71  74
ENDBRANCH  69  70
ENDBRANCH  68  69
ENDBRANCH   1  68
TORSDOF 16
