REMARK SMILES Cc1nn(Cc2ccc(C(=O)NCCCNC(=O)c3ccc(-c4c5nc(c(-c6ccc(S(=O)(=O)[O-])cc6)c6ccc([nH]6)c(-c6ccc(S(=O)(=O)[O-])cc6)c6nc(c(-c7ccc(S(=O)(=O)[O-])cc7)c7ccc4[nH]7)C=C6)C=C5)cc3)o2)c(C)c1C
REMARK SMILES IDX 14 1 13 2 12 3 10 4 11 5 9 7 6 8 7 9 79 10 8 11 5 12 4 13
REMARK SMILES IDX 1 14 2 15 3 16 82 17 80 18 83 19 81 20 15 21 16 22 17 23
REMARK SMILES IDX 18 25 19 26 20 27 78 28 21 29 77 30 22 31 23 32 24 33 71 34
REMARK SMILES IDX 25 35 76 36 70 37 72 38 26 39 75 40 69 41 68 42 27 44 57 45
REMARK SMILES IDX 38 46 56 47 39 48 42 49 55 50 73 51 40 52 41 53 54 55 74 56
REMARK SMILES IDX 43 57 28 58 29 59 37 60 30 61 36 62 31 63 32 64 33 65 34 66
REMARK SMILES IDX 35 67 58 68 59 69 67 70 60 71 66 72 61 73 62 74 63 75 64 76
REMARK SMILES IDX 65 77 44 78 45 79 53 80 46 81 52 82 47 83 48 84 49 85 50 86
REMARK SMILES IDX 51 87
REMARK H PARENT 12 6 16 24 72 43 42 54
REMARK Flexibility Score: inf
ROOT
ATOM      1  C   UNL     1       1.671  -6.014  -6.783  1.00  0.00     0.042 C 
ENDROOT
BRANCH   1   2
ATOM      2  C   UNL     1       1.933  -7.188  -5.835  1.00  0.00     0.118 C 
BRANCH   2   3
ATOM      3  N   UNL     1       3.328  -7.298  -5.443  1.00  0.00    -0.349 N 
ATOM      4  C   UNL     1       3.978  -6.953  -4.279  1.00  0.00     0.286 C 
ATOM      5  O   UNL     1       5.165  -7.276  -4.206  1.00  0.00    -0.266 OA
ATOM      6  H   UNL     1       3.913  -7.689  -6.132  1.00  0.00     0.163 HD
BRANCH   4   7
ATOM      7  C   UNL     1       3.296  -6.280  -3.191  1.00  0.00     0.191 A 
ATOM      8  C   UNL     1       1.645  -5.280  -2.120  1.00  0.00     0.126 A 
ATOM      9  C   UNL     1       2.692  -5.359  -1.227  1.00  0.00     0.048 A 
ATOM     10  O   UNL     1       2.015  -5.817  -3.317  1.00  0.00    -0.454 OA
ATOM     11  C   UNL     1       3.752  -5.992  -1.916  1.00  0.00     0.056 A 
BRANCH   8  12
ATOM     12  C   UNL     1       0.244  -4.803  -2.013  1.00  0.00     0.219 C 
BRANCH  12  13
ATOM     13  N   UNL     1       0.161  -3.349  -1.926  1.00  0.00    -0.262 N 
ATOM     14  C   UNL     1       0.941  -0.444  -0.070  1.00  0.00     0.069 C 
ATOM     15  C   UNL     1       0.420  -1.433  -1.046  1.00  0.00     0.063 A 
ATOM     16  N   UNL     1       0.663  -2.730  -0.837  1.00  0.00    -0.177 NA
ATOM     17  C   UNL     1      -0.349  -1.224  -2.223  1.00  0.00    -0.007 A 
ATOM     18  C   UNL     1      -0.501  -2.489  -2.771  1.00  0.00     0.039 A 
ATOM     19  C   UNL     1      -0.879   0.052  -2.764  1.00  0.00     0.048 C 
ATOM     20  C   UNL     1      -1.201  -2.928  -4.005  1.00  0.00     0.066 C 
ENDBRANCH  12  13
ENDBRANCH   8  12
ENDBRANCH   4   7
ENDBRANCH   2   3
ENDBRANCH   1   2
BRANCH   1  21
ATOM     21  C   UNL     1       2.155  -6.302  -8.198  1.00  0.00     0.118 C 
BRANCH  21  22
ATOM     22  N   UNL     1       1.369  -7.343  -8.879  1.00  0.00    -0.352 N 
ATOM     23  C   UNL     1       1.558  -7.879 -10.147  1.00  0.00     0.251 C 
ATOM     24  H   UNL     1       0.610  -7.707  -8.369  1.00  0.00     0.163 HD
ATOM     25  O   UNL     1       0.671  -8.492 -10.708  1.00  0.00    -0.269 OA
BRANCH  23  26
ATOM     26  C   UNL     1       2.871  -7.678 -10.790  1.00  0.00     0.039 A 
ATOM     27  C   UNL     1       3.002  -7.305 -12.131  1.00  0.00     0.014 A 
ATOM     28  C   UNL     1       3.984  -7.791  -9.971  1.00  0.00     0.014 A 
ATOM     29  C   UNL     1       4.265  -6.947 -12.606  1.00  0.00     0.010 A 
ATOM     30  C   UNL     1       5.163  -7.231 -10.374  1.00  0.00     0.010 A 
ATOM     31  C   UNL     1       5.341  -6.890 -11.710  1.00  0.00    -0.014 A 
BRANCH  31  32
ATOM     32  C   UNL     1       6.666  -6.423 -12.107  1.00  0.00     0.031 A 
ATOM     33  C   UNL     1       6.728  -5.068 -12.717  1.00  0.00     0.074 A 
ATOM     34  C   UNL     1       7.792  -7.050 -11.697  1.00  0.00     0.049 A 
ATOM     35  N   UNL     1       7.053  -4.760 -13.928  1.00  0.00    -0.248 NA
ATOM     36  C   UNL     1       6.277  -3.920 -11.913  1.00  0.00     0.031 C 
ATOM     37  C   UNL     1       7.912  -8.217 -10.807  1.00  0.00     0.029 A 
ATOM     38  N   UNL     1       9.086  -6.676 -11.863  1.00  0.00    -0.354 N 
ATOM     39  C   UNL     1       7.064  -3.369 -13.984  1.00  0.00     0.074 A 
ATOM     40  C   UNL     1       6.405  -2.916 -12.784  1.00  0.00     0.031 C 
ATOM     41  C   UNL     1       9.162  -8.274 -10.301  1.00  0.00     0.029 A 
ATOM     42  C   UNL     1       9.974  -7.293 -10.991  1.00  0.00     0.049 A 
ATOM     43  H   UNL     1       9.371  -6.024 -12.543  1.00  0.00     0.167 HD
ATOM     44  C   UNL     1       7.827  -2.690 -14.887  1.00  0.00     0.031 A 
ATOM     45  C   UNL     1      11.288  -7.011 -10.826  1.00  0.00     0.031 A 
ATOM     46  C   UNL     1       8.364  -3.563 -15.900  1.00  0.00     0.049 A 
ATOM     47  C   UNL     1      11.734  -6.316 -12.056  1.00  0.00     0.074 A 
ATOM     48  C   UNL     1       7.822  -4.407 -16.848  1.00  0.00     0.029 A 
ATOM     49  N   UNL     1       9.675  -3.957 -15.749  1.00  0.00    -0.354 N 
ATOM     50  N   UNL     1      11.738  -6.882 -13.233  1.00  0.00    -0.248 NA
ATOM     51  C   UNL     1      11.730  -4.862 -12.070  1.00  0.00     0.031 C 
ATOM     52  C   UNL     1       8.675  -5.552 -16.847  1.00  0.00     0.029 A 
ATOM     53  C   UNL     1       9.723  -5.312 -15.954  1.00  0.00     0.049 A 
ATOM     54  H   UNL     1      10.437  -3.372 -15.534  1.00  0.00     0.167 HD
ATOM     55  C   UNL     1      11.295  -5.898 -14.106  1.00  0.00     0.074 A 
ATOM     56  C   UNL     1      11.420  -4.650 -13.353  1.00  0.00     0.031 C 
ATOM     57  C   UNL     1      10.610  -6.215 -15.246  1.00  0.00     0.031 A 
BRANCH  44  58
ATOM     58  C   UNL     1       8.414  -1.321 -14.638  1.00  0.00    -0.014 A 
ATOM     59  C   UNL     1       9.079  -0.659 -15.691  1.00  0.00     0.010 A 
ATOM     60  C   UNL     1       8.577  -0.788 -13.343  1.00  0.00     0.010 A 
ATOM     61  C   UNL     1       9.917   0.438 -15.447  1.00  0.00     0.020 A 
ATOM     62  C   UNL     1       9.373   0.331 -13.095  1.00  0.00     0.020 A 
ATOM     63  C   UNL     1      10.070   0.914 -14.144  1.00  0.00     0.054 A 
BRANCH  63  64
ATOM     64  S   UNL     1      11.249   2.249 -13.819  1.00  0.00     0.124 S 
ATOM     65  O   UNL     1      12.523   1.600 -14.113  1.00  0.00    -0.237 OA
ATOM     66  O   UNL     1      10.825   3.275 -14.767  1.00  0.00    -0.237 OA
ATOM     67  O   UNL     1      11.019   2.572 -12.413  1.00  0.00    -0.744 OA
ENDBRANCH  63  64
ENDBRANCH  44  58
BRANCH  45  68
ATOM     68  C   UNL     1      12.057  -7.051  -9.561  1.00  0.00    -0.014 A 
ATOM     69  C   UNL     1      13.461  -7.097  -9.551  1.00  0.00     0.010 A 
ATOM     70  C   UNL     1      11.400  -6.791  -8.338  1.00  0.00     0.010 A 
ATOM     71  C   UNL     1      14.182  -6.849  -8.369  1.00  0.00     0.020 A 
ATOM     72  C   UNL     1      12.110  -6.547  -7.157  1.00  0.00     0.020 A 
ATOM     73  C   UNL     1      13.501  -6.559  -7.182  1.00  0.00     0.054 A 
BRANCH  73  74
ATOM     74  S   UNL     1      14.443  -6.091  -5.699  1.00  0.00     0.124 S 
ATOM     75  O   UNL     1      15.088  -7.348  -5.331  1.00  0.00    -0.237 OA
ATOM     76  O   UNL     1      15.333  -5.049  -6.204  1.00  0.00    -0.237 OA
ATOM     77  O   UNL     1      13.415  -5.626  -4.769  1.00  0.00    -0.744 OA
ENDBRANCH  73  74
ENDBRANCH  45  68
BRANCH  57  78
ATOM     78  C   UNL     1      10.566  -7.669 -15.675  1.00  0.00    -0.014 A 
ATOM     79  C   UNL     1       9.966  -8.690 -14.910  1.00  0.00     0.010 A 
ATOM     80  C   UNL     1      11.005  -7.983 -16.973  1.00  0.00     0.010 A 
ATOM     81  C   UNL     1       9.836  -9.992 -15.419  1.00  0.00     0.020 A 
ATOM     82  C   UNL     1      10.864  -9.273 -17.493  1.00  0.00     0.020 A 
ATOM     83  C   UNL     1      10.288 -10.275 -16.711  1.00  0.00     0.054 A 
BRANCH  83  84
ATOM     84  S   UNL     1      10.077 -11.948 -17.384  1.00  0.00     0.124 S 
ATOM     85  O   UNL     1      11.008 -12.735 -16.579  1.00  0.00    -0.237 OA
ATOM     86  O   UNL     1       8.660 -12.219 -17.151  1.00  0.00    -0.237 OA
ATOM     87  O   UNL     1      10.447 -11.806 -18.792  1.00  0.00    -0.744 OA
ENDBRANCH  83  84
ENDBRANCH  57  78
ENDBRANCH  31  32
ENDBRANCH  23  26
ENDBRANCH  21  22
ENDBRANCH   1  21
TORSDOF 15
