REMARK SMILES CC1=C[C@@H]([C@@H]2N=N[C@H](S)N2/N=C/c2ccc(C(=O)NCCCNC(=O)c3ccc(-c4c5nc(c(-c6ccc(S(=O)(=O)[O-])cc6)c6ccc([nH]6)c(-c6ccc(S(=O)(=O)[O-])cc6)c6nc(c(-c7ccc(S(=O)(=O)[O-])cc7)c7ccc4[nH]7)C=C6)C=C5)cc3)cc2)N=N1
REMARK SMILES IDX 21 1 20 2 19 3 17 4 18 5 16 7 13 8 14 9 87 10 15 11 86 12
REMARK SMILES IDX 12 13 11 14 10 15 5 16 6 17 7 18 8 19 4 20 1 21 2 22 3 23
REMARK SMILES IDX 89 24 88 25 9 26 22 28 23 29 24 30 25 32 26 33 27 34 85 35
REMARK SMILES IDX 28 36 84 37 29 38 30 39 31 40 78 41 32 42 83 43 77 44 79 45
REMARK SMILES IDX 33 46 82 47 76 48 75 49 34 51 64 52 45 53 63 54 46 55 49 56
REMARK SMILES IDX 62 57 80 58 47 59 48 60 61 62 81 63 50 64 35 65 36 66 44 67
REMARK SMILES IDX 37 68 43 69 38 70 39 71 40 72 41 73 42 74 65 75 66 76 74 77
REMARK SMILES IDX 67 78 73 79 68 80 69 81 70 82 71 83 72 84 51 85 52 86 60 87
REMARK SMILES IDX 53 88 59 89 54 90 55 91 56 92 57 93 58 94
REMARK H PARENT 19 6 9 27 23 31 79 50 49 61
REMARK Flexibility Score: inf
ROOT
ATOM      1  C   UNL     1       4.610   4.753   0.483  1.00  0.00     0.042 C 
ENDROOT
BRANCH   1   2
ATOM      2  C   UNL     1       4.253   3.660  -0.534  1.00  0.00     0.118 C 
BRANCH   2   3
ATOM      3  N   UNL     1       5.428   2.925  -0.976  1.00  0.00    -0.352 N 
ATOM      4  C   UNL     1       5.991   1.744  -0.559  1.00  0.00     0.251 C 
ATOM      5  O   UNL     1       6.942   1.304  -1.205  1.00  0.00    -0.269 OA
ATOM      6  H   UNL     1       5.913   3.358  -1.716  1.00  0.00     0.163 HD
BRANCH   4   7
ATOM      7  C   UNL     1       5.476   0.945   0.591  1.00  0.00     0.039 A 
ATOM      8  C   UNL     1       4.434  -0.720   2.594  1.00  0.00    -0.005 A 
ATOM      9  C   UNL     1       5.245  -1.266   1.600  1.00  0.00     0.010 A 
ATOM     10  C   UNL     1       4.207   0.653   2.640  1.00  0.00     0.010 A 
ATOM     11  C   UNL     1       5.754  -0.433   0.597  1.00  0.00     0.014 A 
ATOM     12  C   UNL     1       4.754   1.480   1.659  1.00  0.00     0.014 A 
BRANCH   8  13
ATOM     13  C   UNL     1       3.752  -1.610   3.550  1.00  0.00     0.141 C 
ATOM     14  N   UNL     1       2.699  -1.202   4.186  1.00  0.00    -0.180 NA
BRANCH  14  15
ATOM     15  N   UNL     1       2.089  -2.115   4.968  1.00  0.00    -0.233 NA
ATOM     16  C   UNL     1       0.719  -1.915   5.443  1.00  0.00     0.274 C 
ATOM     17  N   UNL     1       0.501  -2.852   6.576  1.00  0.00    -0.161 NA
ATOM     18  N   UNL     1       1.573  -3.439   6.868  1.00  0.00    -0.153 NA
ATOM     19  C   UNL     1       2.681  -2.944   6.018  1.00  0.00     0.298 C 
BRANCH  16  20
ATOM     20  C   UNL     1       0.353  -0.463   5.844  1.00  0.00     0.201 C 
ATOM     21  C   UNL     1       0.406   1.035   9.238  1.00  0.00     0.068 C 
ATOM     22  C   UNL     1       0.174   0.432   7.901  1.00  0.00     0.058 C 
ATOM     23  C   UNL     1       1.095   0.140   6.985  1.00  0.00     0.031 C 
ATOM     24  N   UNL     1      -1.093   0.097   7.497  1.00  0.00    -0.160 NA
ATOM     25  N   UNL     1      -1.061  -0.411   6.340  1.00  0.00    -0.177 NA
ENDBRANCH  16  20
BRANCH  19  26
ATOM     26  S   UNL     1       4.008  -2.119   6.966  1.00  0.00    -0.128 SA
ATOM     27  H   UNL     1       3.499  -1.032   7.606  1.00  0.00     0.106 HD
ENDBRANCH  19  26
ENDBRANCH  14  15
ENDBRANCH   8  13
ENDBRANCH   4   7
ENDBRANCH   2   3
ENDBRANCH   1   2
BRANCH   1  28
ATOM     28  C   UNL     1       5.040   6.048  -0.183  1.00  0.00     0.118 C 
BRANCH  28  29
ATOM     29  N   UNL     1       3.914   6.746  -0.804  1.00  0.00    -0.352 N 
ATOM     30  C   UNL     1       3.939   7.894  -1.577  1.00  0.00     0.251 C 
ATOM     31  H   UNL     1       3.026   6.350  -0.652  1.00  0.00     0.163 HD
ATOM     32  O   UNL     1       2.934   8.564  -1.729  1.00  0.00    -0.269 OA
BRANCH  30  33
ATOM     33  C   UNL     1       5.215   8.283  -2.204  1.00  0.00     0.039 A 
ATOM     34  C   UNL     1       5.651   9.610  -2.195  1.00  0.00     0.014 A 
ATOM     35  C   UNL     1       6.002   7.274  -2.751  1.00  0.00     0.014 A 
ATOM     36  C   UNL     1       6.933   9.896  -2.660  1.00  0.00     0.010 A 
ATOM     37  C   UNL     1       7.313   7.532  -3.058  1.00  0.00     0.010 A 
ATOM     38  C   UNL     1       7.771   8.846  -3.065  1.00  0.00    -0.014 A 
BRANCH  38  39
ATOM     39  C   UNL     1       9.175   9.085  -3.385  1.00  0.00     0.031 A 
ATOM     40  C   UNL     1       9.950   9.761  -2.309  1.00  0.00     0.074 A 
ATOM     41  C   UNL     1       9.792   8.528  -4.450  1.00  0.00     0.049 A 
ATOM     42  N   UNL     1      10.396  10.973  -2.298  1.00  0.00    -0.248 NA
ATOM     43  C   UNL     1      10.123   9.053  -1.029  1.00  0.00     0.031 C 
ATOM     44  C   UNL     1       9.242   7.561  -5.411  1.00  0.00     0.029 A 
ATOM     45  N   UNL     1      11.095   8.610  -4.828  1.00  0.00    -0.354 N 
ATOM     46  C   UNL     1      11.119  11.101  -1.115  1.00  0.00     0.074 A 
ATOM     47  C   UNL     1      10.739   9.980  -0.292  1.00  0.00     0.031 C 
ATOM     48  C   UNL     1      10.250   6.966  -6.084  1.00  0.00     0.029 A 
ATOM     49  C   UNL     1      11.486   7.646  -5.751  1.00  0.00     0.049 A 
ATOM     50  H   UNL     1      11.711   9.294  -4.477  1.00  0.00     0.167 HD
ATOM     51  C   UNL     1      12.179  11.953  -1.017  1.00  0.00     0.031 A 
ATOM     52  C   UNL     1      12.742   7.413  -6.203  1.00  0.00     0.031 A 
ATOM     53  C   UNL     1      12.241  12.845  -2.147  1.00  0.00     0.049 A 
ATOM     54  C   UNL     1      13.519   8.650  -5.958  1.00  0.00     0.074 A 
ATOM     55  C   UNL     1      11.431  13.826  -2.679  1.00  0.00     0.029 A 
ATOM     56  N   UNL     1      13.117  12.479  -3.141  1.00  0.00    -0.354 N 
ATOM     57  N   UNL     1      13.257   9.789  -6.537  1.00  0.00    -0.248 NA
ATOM     58  C   UNL     1      14.334   8.735  -4.758  1.00  0.00     0.031 C 
ATOM     59  C   UNL     1      11.583  13.707  -4.093  1.00  0.00     0.029 A 
ATOM     60  C   UNL     1      12.526  12.709  -4.355  1.00  0.00     0.049 A 
ATOM     61  H   UNL     1      14.020  12.112  -3.004  1.00  0.00     0.167 HD
ATOM     62  C   UNL     1      13.489  10.744  -5.560  1.00  0.00     0.074 A 
ATOM     63  C   UNL     1      14.276  10.052  -4.543  1.00  0.00     0.031 C 
ATOM     64  C   UNL     1      12.784  11.915  -5.541  1.00  0.00     0.031 A 
BRANCH  51  65
ATOM     65  C   UNL     1      13.405  11.690  -0.167  1.00  0.00    -0.014 A 
ATOM     66  C   UNL     1      14.432  12.659  -0.142  1.00  0.00     0.010 A 
ATOM     67  C   UNL     1      13.717  10.423   0.367  1.00  0.00     0.010 A 
ATOM     68  C   UNL     1      15.719  12.350   0.321  1.00  0.00     0.020 A 
ATOM     69  C   UNL     1      14.983  10.117   0.872  1.00  0.00     0.020 A 
ATOM     70  C   UNL     1      15.987  11.073   0.813  1.00  0.00     0.054 A 
BRANCH  70  71
ATOM     71  S   UNL     1      17.673  10.651   1.316  1.00  0.00     0.124 S 
ATOM     72  O   UNL     1      18.388  10.704   0.045  1.00  0.00    -0.237 OA
ATOM     73  O   UNL     1      17.987  11.715   2.266  1.00  0.00    -0.237 OA
ATOM     74  O   UNL     1      17.531   9.320   1.903  1.00  0.00    -0.744 OA
ENDBRANCH  70  71
ENDBRANCH  51  65
BRANCH  52  75
ATOM     75  C   UNL     1      13.378   6.118  -6.544  1.00  0.00    -0.014 A 
ATOM     76  C   UNL     1      14.589   6.074  -7.259  1.00  0.00     0.010 A 
ATOM     77  C   UNL     1      12.951   4.936  -5.903  1.00  0.00     0.010 A 
ATOM     78  C   UNL     1      15.381   4.913  -7.271  1.00  0.00     0.020 A 
ATOM     79  C   UNL     1      13.733   3.774  -5.914  1.00  0.00     0.020 A 
ATOM     80  C   UNL     1      14.959   3.776  -6.577  1.00  0.00     0.054 A 
BRANCH  80  81
ATOM     81  S   UNL     1      16.077   2.349  -6.438  1.00  0.00     0.124 S 
ATOM     82  O   UNL     1      16.073   1.817  -7.797  1.00  0.00    -0.237 OA
ATOM     83  O   UNL     1      17.328   2.966  -6.004  1.00  0.00    -0.237 OA
ATOM     84  O   UNL     1      15.431   1.500  -5.438  1.00  0.00    -0.744 OA
ENDBRANCH  80  81
ENDBRANCH  52  75
BRANCH  64  85
ATOM     85  C   UNL     1      12.051  12.326  -6.798  1.00  0.00    -0.014 A 
ATOM     86  C   UNL     1      10.989  11.604  -7.377  1.00  0.00     0.010 A 
ATOM     87  C   UNL     1      12.382  13.580  -7.343  1.00  0.00     0.010 A 
ATOM     88  C   UNL     1      10.296  12.116  -8.487  1.00  0.00     0.020 A 
ATOM     89  C   UNL     1      11.685  14.103  -8.433  1.00  0.00     0.020 A 
ATOM     90  C   UNL     1      10.652  13.365  -9.008  1.00  0.00     0.054 A 
BRANCH  90  91
ATOM     91  S   UNL     1       9.734  14.045 -10.420  1.00  0.00     0.124 S 
ATOM     92  O   UNL     1      10.122  13.154 -11.510  1.00  0.00    -0.237 OA
ATOM     93  O   UNL     1       8.343  13.940  -9.985  1.00  0.00    -0.237 OA
ATOM     94  O   UNL     1      10.236  15.414 -10.534  1.00  0.00    -0.744 OA
ENDBRANCH  90  91
ENDBRANCH  64  85
ENDBRANCH  38  39
ENDBRANCH  30  33
ENDBRANCH  28  29
ENDBRANCH   1  28
TORSDOF 17
