REMARK SMILES CCC[NH+]1CCN(c2cc(C(=O)NCCCNC(=O)c3ccc(-c4c5nc(c(-c6ccc(S(=O)(=O)[O-])cc6)c6ccc([nH]6)c(-c6ccc(S(=O)(=O)[O-])cc6)c6nc(c(-c7ccc(S(=O)(=O)[O-])cc7)c7ccc4[nH]7)C=C6)C=C5)cc3)c3cc(NC(=O)c4ccc(F)cc4)ccc3n2)CC1
REMARK SMILES IDX 15 1 14 2 13 3 11 4 12 5 10 7 8 8 9 9 96 10 95 11 80 12
REMARK SMILES IDX 94 13 81 14 93 15 82 16 7 17 4 18 5 19 98 20 6 22 97 23 3 24
REMARK SMILES IDX 2 25 1 26 83 27 84 28 85 30 86 31 87 32 92 33 88 34 91 35
REMARK SMILES IDX 89 36 90 37 16 38 17 39 18 40 19 42 20 43 21 44 79 45 22 46
REMARK SMILES IDX 78 47 23 48 24 49 25 50 72 51 26 52 77 53 71 54 73 55 27 56
REMARK SMILES IDX 76 57 70 58 69 59 28 61 58 62 39 63 57 64 40 65 43 66 56 67
REMARK SMILES IDX 74 68 41 69 42 70 55 72 75 73 44 74 29 75 30 76 38 77 31 78
REMARK SMILES IDX 37 79 32 80 33 81 34 82 35 83 36 84 59 85 60 86 68 87 61 88
REMARK SMILES IDX 67 89 62 90 63 91 64 92 65 93 66 94 45 95 46 96 54 97 47 98
REMARK SMILES IDX 53 99 48 100 49 101 50 102 51 103 52 104
REMARK H PARENT 13 6 4 21 83 29 17 41 73 60 43 71
REMARK Flexibility Score: inf
ROOT
ATOM      1  C   UNL     1      -8.875   7.964   1.529  1.00  0.00     0.042 C 
ENDROOT
BRANCH   1   2
ATOM      2  C   UNL     1      -7.367   8.043   1.682  1.00  0.00     0.118 C 
BRANCH   2   3
ATOM      3  N   UNL     1      -6.746   7.155   2.648  1.00  0.00    -0.352 N 
ATOM      4  C   UNL     1      -5.457   6.684   2.791  1.00  0.00     0.252 C 
ATOM      5  O   UNL     1      -5.223   6.068   3.837  1.00  0.00    -0.269 OA
ATOM      6  H   UNL     1      -7.367   6.823   3.336  1.00  0.00     0.163 HD
BRANCH   4   7
ATOM      7  C   UNL     1      -4.343   6.783   1.783  1.00  0.00     0.052 A 
ATOM      8  C   UNL     1      -2.318   5.702   1.005  1.00  0.00     0.130 A 
ATOM      9  C   UNL     1      -3.451   5.706   1.810  1.00  0.00     0.061 A 
ATOM     10  N   UNL     1      -2.102   6.672   0.101  1.00  0.00    -0.231 NA
ATOM     11  C   UNL     1      -2.930   7.721   0.055  1.00  0.00     0.074 A 
ATOM     12  C   UNL     1      -4.012   7.862   0.939  1.00  0.00     0.015 A 
ATOM     13  C   UNL     1      -2.663   8.741  -0.856  1.00  0.00     0.031 A 
ATOM     14  C   UNL     1      -4.611   9.122   1.000  1.00  0.00     0.037 A 
ATOM     15  C   UNL     1      -3.341   9.966  -0.821  1.00  0.00     0.028 A 
ATOM     16  C   UNL     1      -4.255  10.194   0.193  1.00  0.00     0.042 A 
BRANCH   8  17
ATOM     17  N   UNL     1      -1.367   4.720   1.165  1.00  0.00    -0.345 N 
ATOM     18  N   UNL     1       0.418   2.781  -0.125  1.00  0.00    -0.332 N 
ATOM     19  C   UNL     1      -1.060   2.667  -0.153  1.00  0.00     0.284 C 
ATOM     20  C   UNL     1       0.742   4.234  -0.094  1.00  0.00     0.284 C 
ATOM     21  H   UNL     1       0.802   2.328  -0.954  1.00  0.00     0.348 HD
ATOM     22  C   UNL     1      -1.772   3.322   1.049  1.00  0.00     0.179 C 
ATOM     23  C   UNL     1       0.056   5.046   1.031  1.00  0.00     0.179 C 
BRANCH  18  24
ATOM     24  C   UNL     1       1.038   2.081   1.014  1.00  0.00     0.262 C 
BRANCH  24  25
ATOM     25  C   UNL     1       0.706   0.585   1.119  1.00  0.00     0.058 C 
ATOM     26  C   UNL     1       1.094  -0.210  -0.118  1.00  0.00     0.010 C 
ENDBRANCH  24  25
ENDBRANCH  18  24
ENDBRANCH   8  17
BRANCH  16  27
ATOM     27  N   UNL     1      -4.768  11.486   0.397  1.00  0.00    -0.322 N 
ATOM     28  C   UNL     1      -5.350  12.067   1.514  1.00  0.00     0.255 C 
ATOM     29  H   UNL     1      -4.703  12.079  -0.386  1.00  0.00     0.170 HD
ATOM     30  O   UNL     1      -5.946  13.135   1.390  1.00  0.00    -0.269 OA
BRANCH  28  31
ATOM     31  C   UNL     1      -5.252  11.455   2.874  1.00  0.00     0.040 A 
ATOM     32  C   UNL     1      -6.397  11.452   3.676  1.00  0.00     0.017 A 
ATOM     33  C   UNL     1      -4.092  10.817   3.341  1.00  0.00     0.017 A 
ATOM     34  C   UNL     1      -6.427  10.717   4.866  1.00  0.00     0.040 A 
ATOM     35  C   UNL     1      -4.142  10.034   4.500  1.00  0.00     0.040 A 
ATOM     36  C   UNL     1      -5.315   9.977   5.242  1.00  0.00     0.123 A 
ATOM     37  F   UNL     1      -5.376   9.196   6.328  1.00  0.00    -0.207 F 
ENDBRANCH  28  31
ENDBRANCH  16  27
ENDBRANCH   4   7
ENDBRANCH   2   3
ENDBRANCH   1   2
BRANCH   1  38
ATOM     38  C   UNL     1      -9.689   8.347   2.763  1.00  0.00     0.118 C 
BRANCH  38  39
ATOM     39  N   UNL     1      -9.388   9.658   3.345  1.00  0.00    -0.352 N 
ATOM     40  C   UNL     1     -10.031  10.877   3.298  1.00  0.00     0.251 C 
ATOM     41  H   UNL     1      -8.560   9.670   3.878  1.00  0.00     0.163 HD
ATOM     42  O   UNL     1      -9.574  11.851   3.892  1.00  0.00    -0.269 OA
BRANCH  40  43
ATOM     43  C   UNL     1     -11.276  11.028   2.538  1.00  0.00     0.039 A 
ATOM     44  C   UNL     1     -11.472  12.115   1.677  1.00  0.00     0.014 A 
ATOM     45  C   UNL     1     -12.259  10.063   2.697  1.00  0.00     0.014 A 
ATOM     46  C   UNL     1     -12.626  12.163   0.890  1.00  0.00     0.010 A 
ATOM     47  C   UNL     1     -13.313  10.029   1.815  1.00  0.00     0.010 A 
ATOM     48  C   UNL     1     -13.524  11.088   0.919  1.00  0.00    -0.014 A 
BRANCH  48  49
ATOM     49  C   UNL     1     -14.742  10.995   0.085  1.00  0.00     0.031 A 
ATOM     50  C   UNL     1     -16.055  10.775   0.790  1.00  0.00     0.074 A 
ATOM     51  C   UNL     1     -14.624  10.873  -1.250  1.00  0.00     0.049 A 
ATOM     52  N   UNL     1     -17.173  10.290   0.325  1.00  0.00    -0.248 NA
ATOM     53  C   UNL     1     -16.071  11.038   2.243  1.00  0.00     0.031 C 
ATOM     54  C   UNL     1     -13.380  11.004  -2.014  1.00  0.00     0.029 A 
ATOM     55  N   UNL     1     -15.563  10.566  -2.198  1.00  0.00    -0.354 N 
ATOM     56  C   UNL     1     -17.992  10.119   1.437  1.00  0.00     0.074 A 
ATOM     57  C   UNL     1     -17.220  10.487   2.600  1.00  0.00     0.031 C 
ATOM     58  C   UNL     1     -13.636  10.792  -3.315  1.00  0.00     0.029 A 
ATOM     59  C   UNL     1     -15.046  10.460  -3.469  1.00  0.00     0.049 A 
ATOM     60  H   UNL     1     -16.516  10.434  -1.991  1.00  0.00     0.167 HD
ATOM     61  C   UNL     1     -19.282   9.712   1.474  1.00  0.00     0.031 A 
ATOM     62  C   UNL     1     -15.651  10.117  -4.621  1.00  0.00     0.031 A 
ATOM     63  C   UNL     1     -20.037   9.428   0.284  1.00  0.00     0.049 A 
ATOM     64  C   UNL     1     -17.114   9.774  -4.573  1.00  0.00     0.074 A 
ATOM     65  C   UNL     1     -21.377   9.117   0.162  1.00  0.00     0.029 A 
ATOM     66  N   UNL     1     -19.508   9.454  -1.000  1.00  0.00    -0.354 N 
ATOM     67  N   UNL     1     -17.898   9.667  -3.524  1.00  0.00    -0.248 NA
ATOM     68  C   UNL     1     -17.779   9.523  -5.856  1.00  0.00     0.031 C 
ATOM     69  C   UNL     1     -21.652   8.927  -1.196  1.00  0.00     0.029 A 
ATOM     70  C   UNL     1     -20.494   9.168  -1.923  1.00  0.00     0.049 A 
ATOM     71  H   UNL     1     -18.568   9.648  -1.220  1.00  0.00     0.167 HD
ATOM     72  C   UNL     1     -19.159   9.366  -4.022  1.00  0.00     0.074 A 
ATOM     73  C   UNL     1     -19.032   9.322  -5.467  1.00  0.00     0.031 C 
ATOM     74  C   UNL     1     -20.318   9.144  -3.354  1.00  0.00     0.031 A 
BRANCH  61  75
ATOM     75  C   UNL     1     -19.944   9.583   2.824  1.00  0.00    -0.014 A 
ATOM     76  C   UNL     1     -20.151  10.707   3.646  1.00  0.00     0.010 A 
ATOM     77  C   UNL     1     -20.376   8.324   3.280  1.00  0.00     0.010 A 
ATOM     78  C   UNL     1     -20.721  10.570   4.914  1.00  0.00     0.020 A 
ATOM     79  C   UNL     1     -20.982   8.186   4.535  1.00  0.00     0.020 A 
ATOM     80  C   UNL     1     -21.131   9.308   5.352  1.00  0.00     0.054 A 
BRANCH  80  81
ATOM     81  S   UNL     1     -21.890   9.165   6.994  1.00  0.00     0.124 S 
ATOM     82  O   UNL     1     -20.737   9.334   7.875  1.00  0.00    -0.237 OA
ATOM     83  O   UNL     1     -22.850  10.266   6.999  1.00  0.00    -0.237 OA
ATOM     84  O   UNL     1     -22.479   7.829   6.988  1.00  0.00    -0.744 OA
ENDBRANCH  80  81
ENDBRANCH  61  75
BRANCH  62  85
ATOM     85  C   UNL     1     -14.889  10.144  -5.900  1.00  0.00    -0.014 A 
ATOM     86  C   UNL     1     -15.120  11.171  -6.832  1.00  0.00     0.010 A 
ATOM     87  C   UNL     1     -13.893   9.188  -6.175  1.00  0.00     0.010 A 
ATOM     88  C   UNL     1     -14.384  11.237  -8.018  1.00  0.00     0.020 A 
ATOM     89  C   UNL     1     -13.135   9.265  -7.349  1.00  0.00     0.020 A 
ATOM     90  C   UNL     1     -13.392  10.285  -8.268  1.00  0.00     0.054 A 
BRANCH  90  91
ATOM     91  S   UNL     1     -12.408  10.429  -9.787  1.00  0.00     0.124 S 
ATOM     92  O   UNL     1     -13.365  10.022 -10.810  1.00  0.00    -0.237 OA
ATOM     93  O   UNL     1     -12.040  11.843  -9.790  1.00  0.00    -0.237 OA
ATOM     94  O   UNL     1     -11.297   9.506  -9.563  1.00  0.00    -0.744 OA
ENDBRANCH  90  91
ENDBRANCH  62  85
BRANCH  74  95
ATOM     95  C   UNL     1     -21.540   8.876  -4.184  1.00  0.00    -0.014 A 
ATOM     96  C   UNL     1     -21.720   7.642  -4.831  1.00  0.00     0.010 A 
ATOM     97  C   UNL     1     -22.550   9.852  -4.256  1.00  0.00     0.010 A 
ATOM     98  C   UNL     1     -22.882   7.399  -5.563  1.00  0.00     0.020 A 
ATOM     99  C   UNL     1     -23.726   9.600  -4.963  1.00  0.00     0.020 A 
ATOM    100  C   UNL     1     -23.878   8.379  -5.622  1.00  0.00     0.054 A 
BRANCH 100 101
ATOM    101  S   UNL     1     -25.401   8.016  -6.535  1.00  0.00     0.124 S 
ATOM    102  O   UNL     1     -24.952   8.109  -7.921  1.00  0.00    -0.237 OA
ATOM    103  O   UNL     1     -25.739   6.673  -6.072  1.00  0.00    -0.237 OA
ATOM    104  O   UNL     1     -26.321   9.067  -6.105  1.00  0.00    -0.744 OA
ENDBRANCH 100 101
ENDBRANCH  74  95
ENDBRANCH  48  49
ENDBRANCH  40  43
ENDBRANCH  38  39
ENDBRANCH   1  38
TORSDOF 18
