REMARK SMILES O=C(C[C@H](Cc1ccc(Cl)cc1)C(=O)Nc1cc(Cl)ccc1Cl)NCCCNC(=O)c1ccc(-c2c3nc(c(-c4ccc(S(=O)(=O)[O-])cc4)c4ccc([nH]4)c(-c4ccc(S(=O)(=O)[O-])cc4)c4nc(c(-c5ccc(S(=O)(=O)[O-])cc5)c5ccc2[nH]5)C=C4)C=C3)cc1
REMARK SMILES IDX 26 1 25 2 24 3 1 4 2 5 3 7 4 8 13 9 14 10 15 11 16 13 17 14
REMARK SMILES IDX 22 15 18 16 21 17 23 18 19 19 20 20 5 21 6 22 7 23 12 24
REMARK SMILES IDX 8 25 11 26 9 27 10 28 27 29 28 30 29 31 30 33 31 34 32 35
REMARK SMILES IDX 90 36 33 37 89 38 34 39 35 40 36 41 83 42 37 43 88 44 82 45
REMARK SMILES IDX 84 46 38 47 87 48 81 49 80 50 39 52 69 53 50 54 68 55 51 56
REMARK SMILES IDX 54 57 67 58 85 59 52 60 53 61 66 63 86 64 55 65 40 66 41 67
REMARK SMILES IDX 49 68 42 69 48 70 43 71 44 72 45 73 46 74 47 75 70 76 71 77
REMARK SMILES IDX 79 78 72 79 78 80 73 81 74 82 75 83 76 84 77 85 56 86 57 87
REMARK SMILES IDX 65 88 58 89 64 90 59 91 60 92 61 93 62 94 63 95
REMARK H PARENT 24 6 15 12 28 32 84 51 54 62
REMARK Flexibility Score: inf
ROOT
ATOM      1  C   UNL     1       3.013   0.870   5.037  1.00  0.00     0.042 C 
ENDROOT
BRANCH   1   2
ATOM      2  C   UNL     1       2.595   0.599   3.597  1.00  0.00     0.117 C 
BRANCH   2   3
ATOM      3  N   UNL     1       3.404   1.305   2.625  1.00  0.00    -0.356 N 
ATOM      4  O   UNL     1       4.817  -0.450   2.162  1.00  0.00    -0.275 OA
ATOM      5  C   UNL     1       4.438   0.697   1.952  1.00  0.00     0.220 C 
ATOM      6  H   UNL     1       3.207   2.252   2.439  1.00  0.00     0.163 HD
BRANCH   5   7
ATOM      7  C   UNL     1       5.042   1.543   0.857  1.00  0.00     0.113 C 
BRANCH   7   8
ATOM      8  C   UNL     1       4.093   1.766  -0.338  1.00  0.00     0.092 C 
BRANCH   8   9
ATOM      9  C   UNL     1       4.846   2.545  -1.468  1.00  0.00     0.228 C 
ATOM     10  O   UNL     1       4.418   3.647  -1.829  1.00  0.00    -0.274 OA
ATOM     11  N   UNL     1       6.061   2.125  -1.980  1.00  0.00    -0.324 N 
ATOM     12  H   UNL     1       6.788   2.784  -2.053  1.00  0.00     0.169 HD
BRANCH  11  13
ATOM     13  C   UNL     1       6.315   0.800  -2.402  1.00  0.00     0.061 A 
ATOM     14  C   UNL     1       4.912  -0.007  -3.152  1.00  0.00     0.048 A 
ATOM     15  C   UNL     1       7.475  -0.193  -1.533  1.00  0.00     0.064 A 
ATOM     16  C   UNL     1       4.638  -1.990  -2.853  1.00  0.00     0.043 A 
ATOM     17  C   UNL     1       7.291  -1.945  -1.296  1.00  0.00     0.024 A 
ATOM     18  Cl  UNL     1       8.770   0.587  -0.696  1.00  0.00    -0.082 Cl
ATOM     19  Cl  UNL     1       3.404  -3.276  -3.240  1.00  0.00    -0.084 Cl
ATOM     20  C   UNL     1       5.914  -2.864  -1.912  1.00  0.00     0.022 A 
ENDBRANCH  11  13
ENDBRANCH   8   9
BRANCH   8  21
ATOM     21  C   UNL     1       3.094   0.607  -0.686  1.00  0.00     0.049 C 
BRANCH  21  22
ATOM     22  C   UNL     1       3.583  -0.480  -1.622  1.00  0.00    -0.047 A 
ATOM     23  C   UNL     1       2.803  -0.590  -3.211  1.00  0.00     0.005 A 
ATOM     24  C   UNL     1       5.332  -0.850  -1.511  1.00  0.00     0.005 A 
ATOM     25  C   UNL     1       3.693  -0.975  -4.713  1.00  0.00     0.021 A 
ATOM     26  C   UNL     1       6.347  -1.228  -3.218  1.00  0.00     0.021 A 
ATOM     27  C   UNL     1       5.423  -1.289  -4.756  1.00  0.00     0.041 A 
ATOM     28  Cl  UNL     1       6.221  -1.613  -6.236  1.00  0.00    -0.084 Cl
ENDBRANCH  21  22
ENDBRANCH   8  21
ENDBRANCH   7   8
ENDBRANCH   5   7
ENDBRANCH   2   3
ENDBRANCH   1   2
BRANCH   1  29
ATOM     29  C   UNL     1       2.998   2.341   5.446  1.00  0.00     0.118 C 
BRANCH  29  30
ATOM     30  N   UNL     1       1.700   2.980   5.279  1.00  0.00    -0.352 N 
ATOM     31  C   UNL     1       1.044   3.863   6.103  1.00  0.00     0.251 C 
ATOM     32  H   UNL     1       1.220   2.744   4.452  1.00  0.00     0.163 HD
ATOM     33  O   UNL     1      -0.095   4.222   5.815  1.00  0.00    -0.269 OA
BRANCH  31  34
ATOM     34  C   UNL     1       1.681   4.349   7.346  1.00  0.00     0.039 A 
ATOM     35  C   UNL     1       0.930   4.339   8.526  1.00  0.00     0.014 A 
ATOM     36  C   UNL     1       2.999   4.814   7.360  1.00  0.00     0.014 A 
ATOM     37  C   UNL     1       1.524   4.716   9.733  1.00  0.00     0.010 A 
ATOM     38  C   UNL     1       3.603   5.150   8.571  1.00  0.00     0.010 A 
ATOM     39  C   UNL     1       2.876   5.087   9.769  1.00  0.00    -0.014 A 
BRANCH  39  40
ATOM     40  C   UNL     1       3.563   5.359  11.055  1.00  0.00     0.031 A 
ATOM     41  C   UNL     1       4.019   6.747  11.402  1.00  0.00     0.074 A 
ATOM     42  C   UNL     1       3.847   4.332  11.880  1.00  0.00     0.049 A 
ATOM     43  N   UNL     1       4.723   7.147  12.430  1.00  0.00    -0.248 NA
ATOM     44  C   UNL     1       3.652   7.819  10.464  1.00  0.00     0.031 C 
ATOM     45  C   UNL     1       3.486   2.931  11.645  1.00  0.00     0.029 A 
ATOM     46  N   UNL     1       4.519   4.306  13.075  1.00  0.00    -0.354 N 
ATOM     47  C   UNL     1       4.903   8.513  12.254  1.00  0.00     0.074 A 
ATOM     48  C   UNL     1       4.249   8.869  11.011  1.00  0.00     0.031 C 
ATOM     49  C   UNL     1       3.935   2.186  12.668  1.00  0.00     0.029 A 
ATOM     50  C   UNL     1       4.640   3.047  13.611  1.00  0.00     0.049 A 
ATOM     51  H   UNL     1       4.881   5.114  13.508  1.00  0.00     0.167 HD
ATOM     52  C   UNL     1       5.550   9.393  13.056  1.00  0.00     0.031 A 
ATOM     53  C   UNL     1       5.261   2.627  14.729  1.00  0.00     0.031 A 
ATOM     54  C   UNL     1       6.188   9.049  14.298  1.00  0.00     0.049 A 
ATOM     55  C   UNL     1       5.969   3.620  15.603  1.00  0.00     0.074 A 
ATOM     56  C   UNL     1       6.819   9.885  15.203  1.00  0.00     0.029 A 
ATOM     57  N   UNL     1       6.275   7.765  14.812  1.00  0.00    -0.354 N 
ATOM     58  N   UNL     1       6.098   4.914  15.436  1.00  0.00    -0.248 NA
ATOM     59  C   UNL     1       6.616   3.095  16.814  1.00  0.00     0.031 C 
ATOM     60  C   UNL     1       7.312   9.101  16.254  1.00  0.00     0.029 A 
ATOM     61  C   UNL     1       6.964   7.782  16.014  1.00  0.00     0.049 A 
ATOM     62  H   UNL     1       5.903   6.960  14.386  1.00  0.00     0.167 HD
ATOM     63  C   UNL     1       6.835   5.361  16.526  1.00  0.00     0.074 A 
ATOM     64  C   UNL     1       7.114   4.202  17.350  1.00  0.00     0.031 C 
ATOM     65  C   UNL     1       7.243   6.620  16.816  1.00  0.00     0.031 A 
BRANCH  52  66
ATOM     66  C   UNL     1       5.607  10.821  12.595  1.00  0.00    -0.014 A 
ATOM     67  C   UNL     1       4.490  11.665  12.726  1.00  0.00     0.010 A 
ATOM     68  C   UNL     1       6.792  11.329  12.036  1.00  0.00     0.010 A 
ATOM     69  C   UNL     1       4.544  12.983  12.267  1.00  0.00     0.020 A 
ATOM     70  C   UNL     1       6.854  12.651  11.589  1.00  0.00     0.020 A 
ATOM     71  C   UNL     1       5.723  13.464  11.689  1.00  0.00     0.054 A 
BRANCH  71  72
ATOM     72  S   UNL     1       5.777  15.177  11.094  1.00  0.00     0.124 S 
ATOM     73  O   UNL     1       5.158  15.054   9.777  1.00  0.00    -0.237 OA
ATOM     74  O   UNL     1       4.989  15.896  12.092  1.00  0.00    -0.237 OA
ATOM     75  O   UNL     1       7.203  15.492  11.088  1.00  0.00    -0.744 OA
ENDBRANCH  71  72
ENDBRANCH  52  66
BRANCH  53  76
ATOM     76  C   UNL     1       5.237   1.186  15.082  1.00  0.00    -0.014 A 
ATOM     77  C   UNL     1       4.341   0.713  16.056  1.00  0.00     0.010 A 
ATOM     78  C   UNL     1       6.082   0.278  14.421  1.00  0.00     0.010 A 
ATOM     79  C   UNL     1       4.293  -0.649  16.366  1.00  0.00     0.020 A 
ATOM     80  C   UNL     1       6.025  -1.086  14.719  1.00  0.00     0.020 A 
ATOM     81  C   UNL     1       5.135  -1.540  15.695  1.00  0.00     0.054 A 
BRANCH  81  82
ATOM     82  S   UNL     1       5.010  -3.315  16.049  1.00  0.00     0.124 S 
ATOM     83  O   UNL     1       5.868  -3.451  17.221  1.00  0.00    -0.237 OA
ATOM     84  O   UNL     1       3.580  -3.498  16.287  1.00  0.00    -0.237 OA
ATOM     85  O   UNL     1       5.511  -3.936  14.825  1.00  0.00    -0.744 OA
ENDBRANCH  81  82
ENDBRANCH  53  76
BRANCH  65  86
ATOM     86  C   UNL     1       8.029   6.807  18.081  1.00  0.00    -0.014 A 
ATOM     87  C   UNL     1       9.400   6.503  18.125  1.00  0.00     0.010 A 
ATOM     88  C   UNL     1       7.399   7.325  19.226  1.00  0.00     0.010 A 
ATOM     89  C   UNL     1      10.127   6.693  19.303  1.00  0.00     0.020 A 
ATOM     90  C   UNL     1       8.126   7.529  20.401  1.00  0.00     0.020 A 
ATOM     91  C   UNL     1       9.483   7.199  20.436  1.00  0.00     0.054 A 
BRANCH  91  92
ATOM     92  S   UNL     1      10.446   7.481  21.948  1.00  0.00     0.124 S 
ATOM     93  O   UNL     1      10.449   6.154  22.557  1.00  0.00    -0.237 OA
ATOM     94  O   UNL     1      11.736   7.939  21.436  1.00  0.00    -0.237 OA
ATOM     95  O   UNL     1       9.672   8.495  22.661  1.00  0.00    -0.744 OA
ENDBRANCH  91  92
ENDBRANCH  65  86
ENDBRANCH  39  40
ENDBRANCH  31  34
ENDBRANCH  29  30
ENDBRANCH   1  29
TORSDOF 18
