REMARK SMILES CCOc1cc2c(cc1/C=C1/C(=O)N(c3cccc(C(=O)NCCCNC(=O)c4ccc(-c5c6nc(c(-c7ccc(S(=O)(=O)[O-])cc7)c7ccc([nH]7)c(-c7ccc(S(=O)(=O)[O-])cc7)c7nc(c(-c8ccc(S(=O)(=O)[O-])cc8)c8ccc5[nH]8)C=C7)C=C6)cc4)c3)C(=S)N=C1O)OCO2
REMARK SMILES IDX 23 1 22 2 20 3 21 4 19 6 15 7 16 8 89 9 17 10 18 11 14 12
REMARK SMILES IDX 10 13 11 14 12 15 93 16 13 17 92 18 90 19 91 20 9 21 4 22
REMARK SMILES IDX 5 23 6 24 8 25 7 26 97 27 95 28 96 29 3 30 2 31 1 32 94 33
REMARK SMILES IDX 24 35 25 36 26 37 27 38 28 40 29 41 30 42 88 43 31 44 87 45
REMARK SMILES IDX 32 46 33 47 34 48 81 49 35 50 86 51 80 52 82 53 36 54 85 55
REMARK SMILES IDX 79 56 78 57 37 59 67 60 48 61 66 62 49 63 52 64 65 65 83 66
REMARK SMILES IDX 50 67 51 68 64 70 84 71 53 72 38 73 39 74 47 75 40 76 46 77
REMARK SMILES IDX 41 78 42 79 43 80 44 81 45 82 68 83 69 84 77 85 70 86 76 87
REMARK SMILES IDX 71 88 72 89 73 90 74 91 75 92 54 93 55 94 63 95 56 96 62 97
REMARK SMILES IDX 57 98 58 99 59 100 60 101 61 102
REMARK H PARENT 22 5 94 34 26 39 82 58 52 69
REMARK Flexibility Score: inf
ROOT
ATOM      1  C   UNL     1      -0.264   4.934  -8.024  1.00  0.00     0.118 C 
ENDROOT
BRANCH   1   2
ATOM      2  N   UNL     1      -1.186   4.931  -9.154  1.00  0.00    -0.352 N 
ATOM      3  C   UNL     1      -1.439   4.049 -10.180  1.00  0.00     0.251 C 
ATOM      4  O   UNL     1      -2.315   4.354 -10.991  1.00  0.00    -0.269 OA
ATOM      5  H   UNL     1      -1.752   5.736  -9.191  1.00  0.00     0.163 HD
BRANCH   3   6
ATOM      6  C   UNL     1      -0.670   2.792 -10.399  1.00  0.00     0.041 A 
ATOM      7  C   UNL     1       0.954   1.139  -9.661  1.00  0.00     0.052 A 
ATOM      8  C   UNL     1       1.018   0.641 -10.971  1.00  0.00     0.027 A 
ATOM      9  C   UNL     1      -0.017   2.106  -9.376  1.00  0.00     0.040 A 
ATOM     10  C   UNL     1       0.234   1.197 -11.984  1.00  0.00     0.003 A 
ATOM     11  C   UNL     1      -0.569   2.303 -11.707  1.00  0.00     0.014 A 
BRANCH   7  12
ATOM     12  N   UNL     1       1.937   0.773  -8.659  1.00  0.00    -0.251 N 
ATOM     13  C   UNL     1       2.322   0.531  -5.024  1.00  0.00     0.031 C 
ATOM     14  C   UNL     1       2.598   0.340  -6.335  1.00  0.00     0.103 C 
ATOM     15  C   UNL     1       1.508   0.600  -7.330  1.00  0.00     0.270 C 
ATOM     16  C   UNL     1       3.833  -0.127  -6.955  1.00  0.00     0.226 C 
ATOM     17  O   UNL     1       0.336   0.636  -6.953  1.00  0.00    -0.268 OA
ATOM     18  N   UNL     1       4.162   0.021  -8.179  1.00  0.00    -0.184 NA
ATOM     19  C   UNL     1       3.314   0.730  -8.995  1.00  0.00     0.210 C 
ATOM     20  S   UNL     1       4.030   1.550 -10.304  1.00  0.00    -0.038 S 
BRANCH  13  21
ATOM     21  C   UNL     1       3.167   0.287  -3.829  1.00  0.00     0.021 A 
ATOM     22  C   UNL     1       2.609  -0.293  -2.657  1.00  0.00     0.130 A 
ATOM     23  C   UNL     1       3.420  -0.778  -1.623  1.00  0.00     0.097 A 
ATOM     24  C   UNL     1       4.771  -0.566  -1.722  1.00  0.00     0.169 A 
ATOM     25  C   UNL     1       4.536   0.596  -3.818  1.00  0.00     0.062 A 
ATOM     26  C   UNL     1       5.311   0.127  -2.775  1.00  0.00     0.166 A 
ATOM     27  O   UNL     1       5.710  -0.989  -0.835  1.00  0.00    -0.453 OA
ATOM     28  O   UNL     1       6.663   0.234  -2.681  1.00  0.00    -0.454 OA
ATOM     29  C   UNL     1       6.916  -0.535  -1.488  1.00  0.00     0.468 C 
BRANCH  22  30
ATOM     30  O   UNL     1       1.250  -0.454  -2.523  1.00  0.00    -0.493 OA
BRANCH  30  31
ATOM     31  C   UNL     1       0.685   0.582  -1.694  1.00  0.00     0.226 C 
ATOM     32  C   UNL     1       0.660   0.195  -0.220  1.00  0.00     0.049 C 
ENDBRANCH  30  31
ENDBRANCH  22  30
ENDBRANCH  13  21
BRANCH  16  33
ATOM     33  O   UNL     1       4.679  -0.824  -6.201  1.00  0.00    -0.493 OA
ATOM     34  H   UNL     1       4.491  -0.966  -5.294  1.00  0.00     0.295 HD
ENDBRANCH  16  33
ENDBRANCH   7  12
ENDBRANCH   3   6
ENDBRANCH   1   2
BRANCH   1  35
ATOM     35  C   UNL     1       0.697   6.110  -8.002  1.00  0.00     0.042 C 
BRANCH  35  36
ATOM     36  C   UNL     1       0.045   7.455  -7.737  1.00  0.00     0.118 C 
BRANCH  36  37
ATOM     37  N   UNL     1      -0.608   7.519  -6.434  1.00  0.00    -0.352 N 
ATOM     38  C   UNL     1      -0.245   8.146  -5.266  1.00  0.00     0.251 C 
ATOM     39  H   UNL     1      -1.458   7.025  -6.382  1.00  0.00     0.163 HD
ATOM     40  O   UNL     1      -0.852   7.876  -4.233  1.00  0.00    -0.269 OA
BRANCH  38  41
ATOM     41  C   UNL     1       0.870   9.121  -5.231  1.00  0.00     0.039 A 
ATOM     42  C   UNL     1       1.696   9.169  -4.103  1.00  0.00     0.014 A 
ATOM     43  C   UNL     1       1.083  10.019  -6.278  1.00  0.00     0.014 A 
ATOM     44  C   UNL     1       2.773  10.059  -4.063  1.00  0.00     0.010 A 
ATOM     45  C   UNL     1       2.215  10.829  -6.283  1.00  0.00     0.010 A 
ATOM     46  C   UNL     1       3.067  10.868  -5.172  1.00  0.00    -0.014 A 
BRANCH  46  47
ATOM     47  C   UNL     1       4.245  11.774  -5.193  1.00  0.00     0.031 A 
ATOM     48  C   UNL     1       4.051  13.260  -5.355  1.00  0.00     0.074 A 
ATOM     49  C   UNL     1       5.489  11.256  -5.151  1.00  0.00     0.049 A 
ATOM     50  N   UNL     1       4.950  14.199  -5.499  1.00  0.00    -0.248 NA
ATOM     51  C   UNL     1       2.662  13.751  -5.395  1.00  0.00     0.031 C 
ATOM     52  C   UNL     1       5.812   9.831  -5.042  1.00  0.00     0.029 A 
ATOM     53  N   UNL     1       6.716  11.869  -5.207  1.00  0.00    -0.354 N 
ATOM     54  C   UNL     1       4.239  15.381  -5.675  1.00  0.00     0.074 A 
ATOM     55  C   UNL     1       2.835  15.035  -5.670  1.00  0.00     0.031 C 
ATOM     56  C   UNL     1       7.146   9.683  -5.011  1.00  0.00     0.029 A 
ATOM     57  C   UNL     1       7.774  10.993  -5.143  1.00  0.00     0.049 A 
ATOM     58  H   UNL     1       6.828  12.844  -5.285  1.00  0.00     0.167 HD
ATOM     59  C   UNL     1       4.709  16.645  -5.807  1.00  0.00     0.031 A 
ATOM     60  C   UNL     1       9.102  11.216  -5.194  1.00  0.00     0.031 A 
ATOM     61  C   UNL     1       6.106  16.988  -5.785  1.00  0.00     0.049 A 
ATOM     62  C   UNL     1       9.601  12.628  -5.330  1.00  0.00     0.074 A 
ATOM     63  C   UNL     1       6.684  18.244  -5.846  1.00  0.00     0.029 A 
ATOM     64  N   UNL     1       7.144  16.073  -5.692  1.00  0.00    -0.354 N 
ATOM     65  N   UNL     1       8.910  13.739  -5.433  1.00  0.00    -0.248 NA
ATOM     66  C   UNL     1      11.058  12.818  -5.347  1.00  0.00     0.031 C 
ATOM     67  C   UNL     1       8.073  18.085  -5.835  1.00  0.00     0.029 A 
ATOM     68  C   UNL     1       8.360  16.735  -5.712  1.00  0.00     0.049 A 
ATOM     69  H   UNL     1       7.032  15.098  -5.621  1.00  0.00     0.167 HD
ATOM     70  C   UNL     1       9.849  14.762  -5.500  1.00  0.00     0.074 A 
ATOM     71  C   UNL     1      11.154  14.139  -5.411  1.00  0.00     0.031 C 
ATOM     72  C   UNL     1       9.649  16.098  -5.623  1.00  0.00     0.031 A 
BRANCH  59  73
ATOM     73  C   UNL     1       3.700  17.749  -5.988  1.00  0.00    -0.014 A 
ATOM     74  C   UNL     1       2.849  18.136  -4.936  1.00  0.00     0.010 A 
ATOM     75  C   UNL     1       3.621  18.432  -7.215  1.00  0.00     0.010 A 
ATOM     76  C   UNL     1       1.908  19.152  -5.122  1.00  0.00     0.020 A 
ATOM     77  C   UNL     1       2.701  19.469  -7.397  1.00  0.00     0.020 A 
ATOM     78  C   UNL     1       1.838  19.810  -6.354  1.00  0.00     0.054 A 
BRANCH  78  79
ATOM     79  S   UNL     1       0.619  21.137  -6.561  1.00  0.00     0.124 S 
ATOM     80  O   UNL     1      -0.630  20.386  -6.655  1.00  0.00    -0.237 OA
ATOM     81  O   UNL     1       0.789  21.922  -5.341  1.00  0.00    -0.237 OA
ATOM     82  O   UNL     1       1.039  21.805  -7.791  1.00  0.00    -0.744 OA
ENDBRANCH  78  79
ENDBRANCH  59  73
BRANCH  60  83
ATOM     83  C   UNL     1      10.051  10.074  -5.093  1.00  0.00    -0.014 A 
ATOM     84  C   UNL     1      10.822   9.891  -3.931  1.00  0.00     0.010 A 
ATOM     85  C   UNL     1      10.176   9.152  -6.148  1.00  0.00     0.010 A 
ATOM     86  C   UNL     1      11.711   8.816  -3.832  1.00  0.00     0.020 A 
ATOM     87  C   UNL     1      11.043   8.061  -6.041  1.00  0.00     0.020 A 
ATOM     88  C   UNL     1      11.814   7.906  -4.887  1.00  0.00     0.054 A 
BRANCH  88  89
ATOM     89  S   UNL     1      12.930   6.486  -4.712  1.00  0.00     0.124 S 
ATOM     90  O   UNL     1      14.240   7.108  -4.875  1.00  0.00    -0.237 OA
ATOM     91  O   UNL     1      12.621   6.005  -3.368  1.00  0.00    -0.237 OA
ATOM     92  O   UNL     1      12.520   5.594  -5.793  1.00  0.00    -0.744 OA
ENDBRANCH  88  89
ENDBRANCH  60  83
BRANCH  72  93
ATOM     93  C   UNL     1      10.867  16.981  -5.635  1.00  0.00    -0.014 A 
ATOM     94  C   UNL     1      11.719  17.032  -6.752  1.00  0.00     0.010 A 
ATOM     95  C   UNL     1      11.129  17.815  -4.532  1.00  0.00     0.010 A 
ATOM     96  C   UNL     1      12.830  17.880  -6.753  1.00  0.00     0.020 A 
ATOM     97  C   UNL     1      12.222  18.683  -4.541  1.00  0.00     0.020 A 
ATOM     98  C   UNL     1      13.075  18.700  -5.647  1.00  0.00     0.054 A 
BRANCH  98  99
ATOM     99  S   UNL     1      14.497  19.824  -5.691  1.00  0.00     0.124 S 
ATOM    100  O   UNL     1      15.615  18.906  -5.490  1.00  0.00    -0.237 OA
ATOM    101  O   UNL     1      14.399  20.414  -7.024  1.00  0.00    -0.237 OA
ATOM    102  O   UNL     1      14.243  20.747  -4.587  1.00  0.00    -0.744 OA
ENDBRANCH  98  99
ENDBRANCH  72  93
ENDBRANCH  46  47
ENDBRANCH  38  41
ENDBRANCH  36  37
ENDBRANCH  35  36
ENDBRANCH   1  35
TORSDOF 18
