REMARK SMILES CC[C@@](C)(NC(=O)Nc1c(C)cccc1Cl)C(=O)NCCCNC(=O)c1ccc(-c2c3nc(c(-c4ccc(S(=O)(=O)[O-])cc4)c4ccc([nH]4)c(-c4ccc(S(=O)(=O)[O-])cc4)c4nc(c(-c5ccc(S(=O)(=O)[O-])cc5)c5ccc2[nH]5)C=C4)C=C3)cc1
REMARK SMILES IDX 21 1 20 2 19 3 17 4 18 5 3 7 4 8 2 9 1 10 5 11 6 12 7 14
REMARK SMILES IDX 8 15 9 17 10 18 15 19 11 20 12 21 14 22 16 23 13 24 22 25
REMARK SMILES IDX 23 26 24 27 25 29 26 30 27 31 85 32 28 33 84 34 29 35 30 36
REMARK SMILES IDX 31 37 78 38 32 39 83 40 77 41 79 42 33 43 82 44 76 45 75 46
REMARK SMILES IDX 34 48 64 49 45 50 63 51 46 52 49 53 62 54 80 55 47 56 48 57
REMARK SMILES IDX 61 59 81 60 50 61 35 62 36 63 44 64 37 65 43 66 38 67 39 68
REMARK SMILES IDX 40 69 41 70 42 71 65 72 66 73 74 74 67 75 73 76 68 77 69 78
REMARK SMILES IDX 70 79 71 80 72 81 51 82 52 83 60 84 53 85 59 86 54 87 55 88
REMARK SMILES IDX 56 89 57 90 58 91
REMARK H PARENT 19 6 5 13 8 16 23 28 79 47 49 58
REMARK Flexibility Score: inf
ROOT
ATOM      1  C   UNL     1       2.137  -5.717   3.367  1.00  0.00     0.042 C 
ENDROOT
BRANCH   1   2
ATOM      2  C   UNL     1       1.248  -4.477   3.636  1.00  0.00     0.117 C 
BRANCH   2   3
ATOM      3  N   UNL     1       1.704  -3.235   3.020  1.00  0.00    -0.354 N 
ATOM      4  C   UNL     1       0.993  -2.218   2.381  1.00  0.00     0.245 C 
ATOM      5  O   UNL     1       0.908  -1.088   2.859  1.00  0.00    -0.272 OA
ATOM      6  H   UNL     1       2.677  -3.091   3.061  1.00  0.00     0.163 HD
BRANCH   4   7
ATOM      7  C   UNL     1       0.270  -2.604   1.077  1.00  0.00     0.117 C 
ATOM      8  C   UNL     1      -1.184  -2.782   1.613  1.00  0.00     0.045 C 
BRANCH   7   9
ATOM      9  C   UNL     1       0.166  -1.688  -0.170  1.00  0.00     0.035 C 
ATOM     10  C   UNL     1       0.401  -0.204  -0.021  1.00  0.00     0.007 C 
ENDBRANCH   7   9
BRANCH   7  11
ATOM     11  N   UNL     1       0.872  -3.859   0.622  1.00  0.00    -0.324 N 
ATOM     12  C   UNL     1       2.117  -4.234   0.301  1.00  0.00     0.320 C 
ATOM     13  H   UNL     1       0.217  -4.588   0.531  1.00  0.00     0.166 HD
ATOM     14  O   UNL     1       2.200  -5.356  -0.217  1.00  0.00    -0.248 OA
ATOM     15  N   UNL     1       3.303  -3.653   0.632  1.00  0.00    -0.306 N 
ATOM     16  H   UNL     1       3.935  -4.332   0.962  1.00  0.00     0.171 HD
BRANCH  15  17
ATOM     17  C   UNL     1       3.920  -2.347   0.646  1.00  0.00     0.064 A 
ATOM     18  C   UNL     1       4.089  -1.445   1.740  1.00  0.00    -0.026 A 
ATOM     19  C   UNL     1       4.816  -2.112  -0.434  1.00  0.00     0.064 A 
ATOM     20  C   UNL     1       3.991  -1.711   3.233  1.00  0.00     0.046 C 
ATOM     21  C   UNL     1       4.715  -0.191   1.526  1.00  0.00     0.005 A 
ATOM     22  C   UNL     1       5.601  -0.956  -0.541  1.00  0.00     0.023 A 
ATOM     23  Cl  UNL     1       5.111  -3.338  -1.634  1.00  0.00    -0.082 Cl
ATOM     24  C   UNL     1       5.484   0.047   0.402  1.00  0.00     0.002 A 
ENDBRANCH  15  17
ENDBRANCH   7  11
ENDBRANCH   4   7
ENDBRANCH   2   3
ENDBRANCH   1   2
BRANCH   1  25
ATOM     25  C   UNL     1       3.667  -5.599   3.398  1.00  0.00     0.118 C 
BRANCH  25  26
ATOM     26  N   UNL     1       4.226  -5.179   4.667  1.00  0.00    -0.352 N 
ATOM     27  C   UNL     1       5.111  -5.806   5.517  1.00  0.00     0.251 C 
ATOM     28  H   UNL     1       3.922  -4.295   4.975  1.00  0.00     0.163 HD
ATOM     29  O   UNL     1       5.472  -5.234   6.533  1.00  0.00    -0.269 OA
BRANCH  27  30
ATOM     30  C   UNL     1       5.566  -7.193   5.258  1.00  0.00     0.039 A 
ATOM     31  C   UNL     1       5.406  -8.124   6.288  1.00  0.00     0.014 A 
ATOM     32  C   UNL     1       6.145  -7.587   4.050  1.00  0.00     0.014 A 
ATOM     33  C   UNL     1       5.729  -9.467   6.076  1.00  0.00     0.010 A 
ATOM     34  C   UNL     1       6.414  -8.941   3.818  1.00  0.00     0.010 A 
ATOM     35  C   UNL     1       6.181  -9.900   4.819  1.00  0.00    -0.014 A 
BRANCH  35  36
ATOM     36  C   UNL     1       6.326 -11.354   4.524  1.00  0.00     0.031 A 
ATOM     37  C   UNL     1       7.664 -11.952   4.185  1.00  0.00     0.074 A 
ATOM     38  C   UNL     1       5.223 -12.132   4.503  1.00  0.00     0.049 A 
ATOM     39  N   UNL     1       7.955 -13.185   3.852  1.00  0.00    -0.248 NA
ATOM     40  C   UNL     1       8.823 -11.048   4.206  1.00  0.00     0.031 C 
ATOM     41  C   UNL     1       3.859 -11.673   4.780  1.00  0.00     0.029 A 
ATOM     42  N   UNL     1       5.068 -13.470   4.230  1.00  0.00    -0.354 N 
ATOM     43  C   UNL     1       9.324 -13.204   3.611  1.00  0.00     0.074 A 
ATOM     44  C   UNL     1       9.798 -11.849   3.797  1.00  0.00     0.031 C 
ATOM     45  C   UNL     1       3.015 -12.712   4.689  1.00  0.00     0.029 A 
ATOM     46  C   UNL     1       3.763 -13.901   4.296  1.00  0.00     0.049 A 
ATOM     47  H   UNL     1       5.821 -14.065   4.008  1.00  0.00     0.167 HD
ATOM     48  C   UNL     1      10.115 -14.254   3.279  1.00  0.00     0.031 A 
ATOM     49  C   UNL     1       3.219 -15.111   4.053  1.00  0.00     0.031 A 
ATOM     50  C   UNL     1       9.639 -15.601   3.089  1.00  0.00     0.049 A 
ATOM     51  C   UNL     1       4.114 -16.250   3.650  1.00  0.00     0.074 A 
ATOM     52  C   UNL     1      10.373 -16.740   2.802  1.00  0.00     0.029 A 
ATOM     53  N   UNL     1       8.310 -15.993   3.156  1.00  0.00    -0.354 N 
ATOM     54  N   UNL     1       5.416 -16.260   3.496  1.00  0.00    -0.248 NA
ATOM     55  C   UNL     1       3.466 -17.544   3.394  1.00  0.00     0.031 C 
ATOM     56  C   UNL     1       9.483 -17.805   2.631  1.00  0.00     0.029 A 
ATOM     57  C   UNL     1       8.199 -17.347   2.881  1.00  0.00     0.049 A 
ATOM     58  H   UNL     1       7.556 -15.397   3.368  1.00  0.00     0.167 HD
ATOM     59  C   UNL     1       5.746 -17.566   3.147  1.00  0.00     0.074 A 
ATOM     60  C   UNL     1       4.509 -18.320   3.135  1.00  0.00     0.031 C 
ATOM     61  C   UNL     1       6.963 -18.090   2.862  1.00  0.00     0.031 A 
BRANCH  48  62
ATOM     62  C   UNL     1      11.587 -13.987   3.081  1.00  0.00    -0.014 A 
ATOM     63  C   UNL     1      12.419 -13.652   4.165  1.00  0.00     0.010 A 
ATOM     64  C   UNL     1      12.157 -14.125   1.802  1.00  0.00     0.010 A 
ATOM     65  C   UNL     1      13.783 -13.418   3.966  1.00  0.00     0.020 A 
ATOM     66  C   UNL     1      13.527 -13.922   1.604  1.00  0.00     0.020 A 
ATOM     67  C   UNL     1      14.328 -13.553   2.686  1.00  0.00     0.054 A 
BRANCH  67  68
ATOM     68  S   UNL     1      16.105 -13.264   2.464  1.00  0.00     0.124 S 
ATOM     69  O   UNL     1      16.199 -11.816   2.642  1.00  0.00    -0.237 OA
ATOM     70  O   UNL     1      16.695 -14.066   3.533  1.00  0.00    -0.237 OA
ATOM     71  O   UNL     1      16.370 -13.743   1.110  1.00  0.00    -0.744 OA
ENDBRANCH  67  68
ENDBRANCH  48  62
BRANCH  49  72
ATOM     72  C   UNL     1       1.747 -15.305   4.182  1.00  0.00    -0.014 A 
ATOM     73  C   UNL     1       1.217 -16.100   5.213  1.00  0.00     0.010 A 
ATOM     74  C   UNL     1       0.865 -14.686   3.276  1.00  0.00     0.010 A 
ATOM     75  C   UNL     1      -0.164 -16.286   5.327  1.00  0.00     0.020 A 
ATOM     76  C   UNL     1      -0.518 -14.843   3.406  1.00  0.00     0.020 A 
ATOM     77  C   UNL     1      -1.023 -15.652   4.424  1.00  0.00     0.054 A 
BRANCH  77  78
ATOM     78  S   UNL     1      -2.814 -15.865   4.625  1.00  0.00     0.124 S 
ATOM     79  O   UNL     1      -3.006 -17.249   4.204  1.00  0.00    -0.237 OA
ATOM     80  O   UNL     1      -3.003 -15.604   6.050  1.00  0.00    -0.237 OA
ATOM     81  O   UNL     1      -3.381 -14.854   3.735  1.00  0.00    -0.744 OA
ENDBRANCH  77  78
ENDBRANCH  49  72
BRANCH  61  82
ATOM     82  C   UNL     1       7.026 -19.559   2.532  1.00  0.00    -0.014 A 
ATOM     83  C   UNL     1       6.510 -20.060   1.324  1.00  0.00     0.010 A 
ATOM     84  C   UNL     1       7.656 -20.446   3.426  1.00  0.00     0.010 A 
ATOM     85  C   UNL     1       6.593 -21.424   1.030  1.00  0.00     0.020 A 
ATOM     86  C   UNL     1       7.769 -21.805   3.121  1.00  0.00     0.020 A 
ATOM     87  C   UNL     1       7.224 -22.288   1.930  1.00  0.00     0.054 A 
BRANCH  87  88
ATOM     88  S   UNL     1       7.357 -24.046   1.504  1.00  0.00     0.124 S 
ATOM     89  O   UNL     1       5.978 -24.502   1.657  1.00  0.00    -0.237 OA
ATOM     90  O   UNL     1       7.856 -24.005   0.131  1.00  0.00    -0.237 OA
ATOM     91  O   UNL     1       8.300 -24.573   2.488  1.00  0.00    -0.744 OA
ENDBRANCH  87  88
ENDBRANCH  61  82
ENDBRANCH  35  36
ENDBRANCH  27  30
ENDBRANCH  25  26
ENDBRANCH   1  25
TORSDOF 16
