REMARK SMILES CCOc1cccc(-c2ccc([C@@H](C)C(=O)NCCCNC(=O)c3ccc(-c4c5nc(c(-c6ccc(S(=O)(=O)[O-])cc6)c6ccc([nH]6)c(-c6ccc(S(=O)(=O)[O-])cc6)c6nc(c(-c7ccc(S(=O)(=O)[O-])cc7)c7ccc4[nH]7)C=C6)C=C5)cc3)cc2F)c1
REMARK SMILES IDX 18 1 17 2 15 3 16 4 13 6 14 7 12 8 9 9 10 10 85 11 11 12
REMARK SMILES IDX 84 13 86 14 8 15 4 16 5 17 87 18 6 19 7 20 3 21 2 22 1 23
REMARK SMILES IDX 19 24 20 25 21 26 22 27 23 29 24 30 25 31 83 32 26 33 82 34
REMARK SMILES IDX 27 35 28 36 29 37 76 38 30 39 81 40 75 41 77 42 31 43 80 44
REMARK SMILES IDX 74 45 73 46 32 48 62 49 43 50 61 51 44 52 47 53 60 54 78 55
REMARK SMILES IDX 45 56 46 57 59 59 79 60 48 61 33 62 34 63 42 64 35 65 41 66
REMARK SMILES IDX 36 67 37 68 38 69 39 70 40 71 63 72 64 73 72 74 65 75 71 76
REMARK SMILES IDX 66 77 67 78 68 79 69 80 70 81 49 82 50 83 58 84 51 85 57 86
REMARK SMILES IDX 52 87 53 88 54 89 55 90 56 91
REMARK H PARENT 17 5 21 28 77 47 47 58
REMARK Flexibility Score: inf
ROOT
ATOM      1  C   UNL     1       9.445  -2.334   0.347  1.00  0.00     0.117 C 
ENDROOT
BRANCH   1   2
ATOM      2  N   UNL     1       8.623  -3.457  -0.059  1.00  0.00    -0.356 N 
ATOM      3  C   UNL     1       7.955  -3.724  -1.214  1.00  0.00     0.227 C 
ATOM      4  O   UNL     1       7.292  -4.769  -1.232  1.00  0.00    -0.274 OA
ATOM      5  H   UNL     1       8.531  -4.156   0.628  1.00  0.00     0.163 HD
BRANCH   3   6
ATOM      6  C   UNL     1       7.990  -2.823  -2.458  1.00  0.00     0.105 C 
ATOM      7  C   UNL     1       9.381  -2.595  -3.045  1.00  0.00     0.023 C 
BRANCH   6   8
ATOM      8  C   UNL     1       7.113  -1.588  -2.336  1.00  0.00    -0.033 A 
ATOM      9  C   UNL     1       5.313   0.615  -1.948  1.00  0.00     0.018 A 
ATOM     10  C   UNL     1       6.669   0.689  -1.582  1.00  0.00     0.012 A 
ATOM     11  C   UNL     1       4.911  -0.576  -2.575  1.00  0.00     0.131 A 
ATOM     12  C   UNL     1       7.556  -0.377  -1.801  1.00  0.00     0.005 A 
ATOM     13  C   UNL     1       5.776  -1.661  -2.742  1.00  0.00     0.044 A 
ATOM     14  F   UNL     1       3.660  -0.725  -3.038  1.00  0.00    -0.206 F 
BRANCH   9  15
ATOM     15  C   UNL     1       4.366   1.716  -1.627  1.00  0.00    -0.012 A 
ATOM     16  C   UNL     1       2.117   2.461  -1.004  1.00  0.00     0.119 A 
ATOM     17  C   UNL     1       2.544   3.778  -0.920  1.00  0.00     0.046 A 
ATOM     18  C   UNL     1       3.009   1.451  -1.367  1.00  0.00     0.055 A 
ATOM     19  C   UNL     1       3.879   4.077  -1.175  1.00  0.00     0.004 A 
ATOM     20  C   UNL     1       4.776   3.059  -1.528  1.00  0.00     0.009 A 
BRANCH  16  21
ATOM     21  O   UNL     1       0.788   2.184  -0.835  1.00  0.00    -0.494 OA
BRANCH  21  22
ATOM     22  C   UNL     1       0.513   1.521   0.406  1.00  0.00     0.226 C 
ATOM     23  C   UNL     1       0.481   0.009   0.236  1.00  0.00     0.049 C 
ENDBRANCH  21  22
ENDBRANCH  16  21
ENDBRANCH   9  15
ENDBRANCH   6   8
ENDBRANCH   3   6
ENDBRANCH   1   2
BRANCH   1  24
ATOM     24  C   UNL     1       8.692  -1.348   1.237  1.00  0.00     0.042 C 
BRANCH  24  25
ATOM     25  C   UNL     1       8.604  -1.766   2.701  1.00  0.00     0.118 C 
BRANCH  25  26
ATOM     26  N   UNL     1       9.902  -1.737   3.361  1.00  0.00    -0.352 N 
ATOM     27  C   UNL     1      10.361  -0.992   4.418  1.00  0.00     0.251 C 
ATOM     28  H   UNL     1      10.564  -2.358   2.982  1.00  0.00     0.163 HD
ATOM     29  O   UNL     1      11.568  -0.992   4.650  1.00  0.00    -0.269 OA
BRANCH  27  30
ATOM     30  C   UNL     1       9.449  -0.192   5.272  1.00  0.00     0.039 A 
ATOM     31  C   UNL     1       9.926   1.011   5.806  1.00  0.00     0.014 A 
ATOM     32  C   UNL     1       8.171  -0.636   5.620  1.00  0.00     0.014 A 
ATOM     33  C   UNL     1       9.112   1.780   6.643  1.00  0.00     0.010 A 
ATOM     34  C   UNL     1       7.331   0.169   6.391  1.00  0.00     0.010 A 
ATOM     35  C   UNL     1       7.796   1.380   6.922  1.00  0.00    -0.014 A 
BRANCH  35  36
ATOM     36  C   UNL     1       6.909   2.221   7.769  1.00  0.00     0.031 A 
ATOM     37  C   UNL     1       6.413   1.720   9.100  1.00  0.00     0.074 A 
ATOM     38  C   UNL     1       6.521   3.432   7.321  1.00  0.00     0.049 A 
ATOM     39  N   UNL     1       5.638   2.319   9.969  1.00  0.00    -0.248 NA
ATOM     40  C   UNL     1       6.821   0.364   9.498  1.00  0.00     0.031 C 
ATOM     41  C   UNL     1       6.886   4.012   6.026  1.00  0.00     0.029 A 
ATOM     42  N   UNL     1       5.735   4.393   7.905  1.00  0.00    -0.354 N 
ATOM     43  C   UNL     1       5.456   1.412  11.007  1.00  0.00     0.074 A 
ATOM     44  C   UNL     1       6.161   0.204  10.636  1.00  0.00     0.031 C 
ATOM     45  C   UNL     1       6.350   5.239   5.928  1.00  0.00     0.029 A 
ATOM     46  C   UNL     1       5.581   5.522   7.136  1.00  0.00     0.049 A 
ATOM     47  H   UNL     1       5.320   4.285   8.791  1.00  0.00     0.167 HD
ATOM     48  C   UNL     1       4.784   1.573  12.173  1.00  0.00     0.031 A 
ATOM     49  C   UNL     1       4.902   6.660   7.373  1.00  0.00     0.031 A 
ATOM     50  C   UNL     1       4.087   2.777  12.546  1.00  0.00     0.049 A 
ATOM     51  C   UNL     1       4.184   6.827   8.682  1.00  0.00     0.074 A 
ATOM     52  C   UNL     1       3.417   3.056  13.724  1.00  0.00     0.029 A 
ATOM     53  N   UNL     1       3.973   3.905  11.746  1.00  0.00    -0.354 N 
ATOM     54  N   UNL     1       4.077   5.979   9.676  1.00  0.00    -0.248 NA
ATOM     55  C   UNL     1       3.510   8.113   8.907  1.00  0.00     0.031 C 
ATOM     56  C   UNL     1       2.862   4.337  13.621  1.00  0.00     0.029 A 
ATOM     57  C   UNL     1       3.229   4.875  12.398  1.00  0.00     0.049 A 
ATOM     58  H   UNL     1       4.362   4.001  10.847  1.00  0.00     0.167 HD
ATOM     59  C   UNL     1       3.334   6.633  10.652  1.00  0.00     0.074 A 
ATOM     60  C   UNL     1       3.042   7.956  10.137  1.00  0.00     0.031 C 
ATOM     61  C   UNL     1       2.929   6.179  11.864  1.00  0.00     0.031 A 
BRANCH  48  62
ATOM     62  C   UNL     1       4.771   0.410  13.130  1.00  0.00    -0.014 A 
ATOM     63  C   UNL     1       5.936   0.029  13.822  1.00  0.00     0.010 A 
ATOM     64  C   UNL     1       3.577  -0.298  13.363  1.00  0.00     0.010 A 
ATOM     65  C   UNL     1       5.919  -1.067  14.689  1.00  0.00     0.020 A 
ATOM     66  C   UNL     1       3.550  -1.378  14.251  1.00  0.00     0.020 A 
ATOM     67  C   UNL     1       4.727  -1.768  14.893  1.00  0.00     0.054 A 
BRANCH  67  68
ATOM     68  S   UNL     1       4.732  -3.182  16.029  1.00  0.00     0.124 S 
ATOM     69  O   UNL     1       5.410  -4.204  15.235  1.00  0.00    -0.237 OA
ATOM     70  O   UNL     1       5.486  -2.674  17.173  1.00  0.00    -0.237 OA
ATOM     71  O   UNL     1       3.314  -3.428  16.282  1.00  0.00    -0.744 OA
ENDBRANCH  67  68
ENDBRANCH  48  62
BRANCH  49  72
ATOM     72  C   UNL     1       4.897   7.741   6.351  1.00  0.00    -0.014 A 
ATOM     73  C   UNL     1       5.638   8.918   6.551  1.00  0.00     0.010 A 
ATOM     74  C   UNL     1       4.174   7.581   5.154  1.00  0.00     0.010 A 
ATOM     75  C   UNL     1       5.651   9.921   5.577  1.00  0.00     0.020 A 
ATOM     76  C   UNL     1       4.205   8.570   4.168  1.00  0.00     0.020 A 
ATOM     77  C   UNL     1       4.936   9.738   4.389  1.00  0.00     0.054 A 
BRANCH  77  78
ATOM     78  S   UNL     1       5.026  11.018   3.105  1.00  0.00     0.124 S 
ATOM     79  O   UNL     1       4.137  12.045   3.637  1.00  0.00    -0.237 OA
ATOM     80  O   UNL     1       6.448  11.354   3.092  1.00  0.00    -0.237 OA
ATOM     81  O   UNL     1       4.548  10.330   1.908  1.00  0.00    -0.744 OA
ENDBRANCH  77  78
ENDBRANCH  49  72
BRANCH  61  82
ATOM     82  C   UNL     1       2.134   7.131  12.717  1.00  0.00    -0.014 A 
ATOM     83  C   UNL     1       0.805   7.460  12.392  1.00  0.00     0.010 A 
ATOM     84  C   UNL     1       2.719   7.695  13.865  1.00  0.00     0.010 A 
ATOM     85  C   UNL     1       0.093   8.376  13.171  1.00  0.00     0.020 A 
ATOM     86  C   UNL     1       2.001   8.590  14.662  1.00  0.00     0.020 A 
ATOM     87  C   UNL     1       0.700   8.941  14.297  1.00  0.00     0.054 A 
BRANCH  87  88
ATOM     88  S   UNL     1      -0.244  10.123  15.299  1.00  0.00     0.124 S 
ATOM     89  O   UNL     1      -0.172  11.334  14.486  1.00  0.00    -0.237 OA
ATOM     90  O   UNL     1      -1.562   9.498  15.381  1.00  0.00    -0.237 OA
ATOM     91  O   UNL     1       0.494  10.174  16.559  1.00  0.00    -0.744 OA
ENDBRANCH  87  88
ENDBRANCH  61  82
ENDBRANCH  35  36
ENDBRANCH  27  30
ENDBRANCH  25  26
ENDBRANCH  24  25
ENDBRANCH   1  24
TORSDOF 17
