REMARK SMILES O=C(NCCCNC(=O)[C@H]1C[C@](O)(c2ccc(Cl)cc2)[C@@H](c2ccc(Cl)cc2)O1)c1ccc(-c2c3nc(c(-c4ccc(S(=O)(=O)[O-])cc4)c4ccc([nH]4)c(-c4ccc(S(=O)(=O)[O-])cc4)c4nc(c(-c5ccc(S(=O)(=O)[O-])cc5)c5ccc2[nH]5)C=C4)C=C3)cc1
REMARK SMILES IDX 4 1 3 2 1 3 2 4 30 6 31 7 89 8 32 9 88 10 33 11 34 12 35 13
REMARK SMILES IDX 82 14 36 15 87 16 81 17 83 18 37 19 86 20 80 21 79 22 38 24
REMARK SMILES IDX 68 25 49 26 67 27 50 28 53 29 66 30 84 31 51 32 52 33 65 35
REMARK SMILES IDX 85 36 54 37 39 38 40 39 48 40 41 41 47 42 42 43 43 44 44 45
REMARK SMILES IDX 45 46 46 47 69 48 70 49 78 50 71 51 77 52 72 53 73 54 74 55
REMARK SMILES IDX 75 56 76 57 55 58 56 59 64 60 57 61 63 62 58 63 59 64 60 65
REMARK SMILES IDX 61 66 62 67 5 68 6 69 7 70 8 71 9 73 10 74 11 75 29 76 12 77
REMARK SMILES IDX 21 78 14 79 15 80 20 81 16 82 19 83 17 84 18 85 13 86 22 88
REMARK SMILES IDX 23 89 28 90 24 91 27 92 25 93 26 94
REMARK H PARENT 3 5 83 23 53 34 7 72 13 87
REMARK Flexibility Score: inf
ROOT
ATOM      1  C   UNL     1       9.990  -7.421   6.563  1.00  0.00     0.118 C 
ENDROOT
BRANCH   1   2
ATOM      2  N   UNL     1      10.314  -6.612   7.740  1.00  0.00    -0.352 N 
ATOM      3  O   UNL     1      10.807  -6.185   9.901  1.00  0.00    -0.269 OA
ATOM      4  C   UNL     1      10.744  -7.001   8.986  1.00  0.00     0.251 C 
ATOM      5  H   UNL     1      10.207  -5.641   7.620  1.00  0.00     0.163 HD
BRANCH   4   6
ATOM      6  C   UNL     1      11.092  -8.415   9.223  1.00  0.00     0.039 A 
ATOM      7  C   UNL     1      11.801  -9.131   8.260  1.00  0.00     0.014 A 
ATOM      8  C   UNL     1      10.666  -9.041  10.397  1.00  0.00     0.014 A 
ATOM      9  C   UNL     1      11.896 -10.508   8.366  1.00  0.00     0.010 A 
ATOM     10  C   UNL     1      10.882 -10.411  10.563  1.00  0.00     0.010 A 
ATOM     11  C   UNL     1      11.460 -11.162   9.528  1.00  0.00    -0.014 A 
BRANCH  11  12
ATOM     12  C   UNL     1      11.671 -12.624   9.651  1.00  0.00     0.031 A 
ATOM     13  C   UNL     1      10.511 -13.566   9.804  1.00  0.00     0.074 A 
ATOM     14  C   UNL     1      12.933 -13.092   9.585  1.00  0.00     0.049 A 
ATOM     15  N   UNL     1      10.527 -14.865   9.960  1.00  0.00    -0.248 NA
ATOM     16  C   UNL     1       9.161 -12.980   9.793  1.00  0.00     0.031 C 
ATOM     17  C   UNL     1      14.133 -12.263   9.426  1.00  0.00     0.029 A 
ATOM     18  N   UNL     1      13.420 -14.371   9.617  1.00  0.00    -0.354 N 
ATOM     19  C   UNL     1       9.198 -15.248  10.108  1.00  0.00     0.074 A 
ATOM     20  C   UNL     1       8.402 -14.042  10.030  1.00  0.00     0.031 C 
ATOM     21  C   UNL     1      15.206 -13.056   9.309  1.00  0.00     0.029 A 
ATOM     22  C   UNL     1      14.785 -14.439   9.479  1.00  0.00     0.049 A 
ATOM     23  H   UNL     1      12.848 -15.165   9.728  1.00  0.00     0.167 HD
ATOM     24  C   UNL     1       8.695 -16.492  10.297  1.00  0.00     0.031 A 
ATOM     25  C   UNL     1      15.619 -15.494   9.518  1.00  0.00     0.031 A 
ATOM     26  C   UNL     1       9.504 -17.682  10.362  1.00  0.00     0.049 A 
ATOM     27  C   UNL     1      15.040 -16.856   9.742  1.00  0.00     0.074 A 
ATOM     28  C   UNL     1       9.097 -18.992  10.539  1.00  0.00     0.029 A 
ATOM     29  N   UNL     1      10.887 -17.705  10.248  1.00  0.00    -0.354 N 
ATOM     30  N   UNL     1      13.782 -17.195   9.895  1.00  0.00    -0.248 NA
ATOM     31  C   UNL     1      15.986 -17.974   9.809  1.00  0.00     0.031 C 
ATOM     32  C   UNL     1      10.238 -19.802  10.574  1.00  0.00     0.029 A 
ATOM     33  C   UNL     1      11.351 -19.003  10.366  1.00  0.00     0.049 A 
ATOM     34  H   UNL     1      11.455 -16.913  10.104  1.00  0.00     0.167 HD
ATOM     35  C   UNL     1      13.782 -18.572  10.069  1.00  0.00     0.074 A 
ATOM     36  C   UNL     1      15.165 -19.002   9.983  1.00  0.00     0.031 C 
ATOM     37  C   UNL     1      12.734 -19.404  10.284  1.00  0.00     0.031 A 
BRANCH  24  38
ATOM     38  C   UNL     1       7.207 -16.618  10.496  1.00  0.00    -0.014 A 
ATOM     39  C   UNL     1       6.305 -16.437   9.432  1.00  0.00     0.010 A 
ATOM     40  C   UNL     1       6.703 -16.940  11.770  1.00  0.00     0.010 A 
ATOM     41  C   UNL     1       4.926 -16.526   9.650  1.00  0.00     0.020 A 
ATOM     42  C   UNL     1       5.327 -17.055  11.987  1.00  0.00     0.020 A 
ATOM     43  C   UNL     1       4.445 -16.824  10.930  1.00  0.00     0.054 A 
BRANCH  43  44
ATOM     44  S   UNL     1       2.652 -16.923  11.189  1.00  0.00     0.124 S 
ATOM     45  O   UNL     1       2.272 -15.512  11.186  1.00  0.00    -0.237 OA
ATOM     46  O   UNL     1       2.201 -17.696  10.035  1.00  0.00    -0.237 OA
ATOM     47  O   UNL     1       2.525 -17.600  12.477  1.00  0.00    -0.744 OA
ENDBRANCH  43  44
ENDBRANCH  24  38
BRANCH  25  48
ATOM     48  C   UNL     1      17.080 -15.270   9.368  1.00  0.00    -0.014 A 
ATOM     49  C   UNL     1      17.744 -15.640   8.188  1.00  0.00     0.010 A 
ATOM     50  C   UNL     1      17.797 -14.598  10.378  1.00  0.00     0.010 A 
ATOM     51  C   UNL     1      19.098 -15.336   8.015  1.00  0.00     0.020 A 
ATOM     52  C   UNL     1      19.142 -14.269  10.197  1.00  0.00     0.020 A 
ATOM     53  C   UNL     1      19.785 -14.645   9.018  1.00  0.00     0.054 A 
BRANCH  53  54
ATOM     54  S   UNL     1      21.515 -14.176   8.733  1.00  0.00     0.124 S 
ATOM     55  O   UNL     1      22.210 -15.440   8.947  1.00  0.00    -0.237 OA
ATOM     56  O   UNL     1      21.490 -13.691   7.355  1.00  0.00    -0.237 OA
ATOM     57  O   UNL     1      21.758 -13.146   9.741  1.00  0.00    -0.744 OA
ENDBRANCH  53  54
ENDBRANCH  25  48
BRANCH  37  58
ATOM     58  C   UNL     1      13.045 -20.867  10.413  1.00  0.00    -0.014 A 
ATOM     59  C   UNL     1      13.622 -21.385  11.585  1.00  0.00     0.010 A 
ATOM     60  C   UNL     1      12.712 -21.740   9.362  1.00  0.00     0.010 A 
ATOM     61  C   UNL     1      13.885 -22.752  11.694  1.00  0.00     0.020 A 
ATOM     62  C   UNL     1      12.953 -23.110   9.476  1.00  0.00     0.020 A 
ATOM     63  C   UNL     1      13.550 -23.606  10.637  1.00  0.00     0.054 A 
BRANCH  63  64
ATOM     64  S   UNL     1      13.857 -25.384  10.819  1.00  0.00     0.124 S 
ATOM     65  O   UNL     1      15.301 -25.464  10.616  1.00  0.00    -0.237 OA
ATOM     66  O   UNL     1      13.396 -25.653  12.178  1.00  0.00    -0.237 OA
ATOM     67  O   UNL     1      13.044 -25.983   9.762  1.00  0.00    -0.744 OA
ENDBRANCH  63  64
ENDBRANCH  37  58
ENDBRANCH  11  12
ENDBRANCH   4   6
ENDBRANCH   1   2
BRANCH   1  68
ATOM     68  C   UNL     1       8.566  -7.208   6.084  1.00  0.00     0.042 C 
BRANCH  68  69
ATOM     69  C   UNL     1       8.373  -5.808   5.540  1.00  0.00     0.117 C 
BRANCH  69  70
ATOM     70  N   UNL     1       8.390  -5.728   4.099  1.00  0.00    -0.354 N 
ATOM     71  C   UNL     1       7.438  -5.267   3.240  1.00  0.00     0.249 C 
ATOM     72  H   UNL     1       9.214  -6.056   3.672  1.00  0.00     0.163 HD
ATOM     73  O   UNL     1       7.795  -5.091   2.069  1.00  0.00    -0.272 OA
BRANCH  71  74
ATOM     74  C   UNL     1       5.975  -4.954   3.661  1.00  0.00     0.211 C 
ATOM     75  C   UNL     1       5.296  -5.987   4.534  1.00  0.00     0.085 C 
ATOM     76  O   UNL     1       5.729  -3.666   4.205  1.00  0.00    -0.357 OA
ATOM     77  C   UNL     1       4.810  -5.254   5.801  1.00  0.00     0.123 C 
ATOM     78  C   UNL     1       5.331  -3.771   5.589  1.00  0.00     0.186 C 
BRANCH  77  79
ATOM     79  C   UNL     1       3.303  -5.500   5.983  1.00  0.00    -0.013 A 
ATOM     80  C   UNL     1       2.826  -6.835   5.940  1.00  0.00     0.008 A 
ATOM     81  C   UNL     1       2.367  -4.494   6.255  1.00  0.00     0.008 A 
ATOM     82  C   UNL     1       1.476  -7.145   6.114  1.00  0.00     0.021 A 
ATOM     83  C   UNL     1       1.010  -4.803   6.431  1.00  0.00     0.021 A 
ATOM     84  C   UNL     1       0.570  -6.122   6.353  1.00  0.00     0.041 A 
ATOM     85  Cl  UNL     1      -1.097  -6.486   6.564  1.00  0.00    -0.084 Cl
ENDBRANCH  77  79
BRANCH  77  86
ATOM     86  O   UNL     1       5.439  -5.888   6.930  1.00  0.00    -0.382 OA
ATOM     87  H   UNL     1       6.399  -5.769   6.874  1.00  0.00     0.212 HD
ENDBRANCH  77  86
BRANCH  78  88
ATOM     88  C   UNL     1       6.484  -3.233   6.451  1.00  0.00    -0.016 A 
ATOM     89  C   UNL     1       7.633  -2.660   5.862  1.00  0.00     0.008 A 
ATOM     90  C   UNL     1       6.445  -3.311   7.852  1.00  0.00     0.008 A 
ATOM     91  C   UNL     1       8.743  -2.295   6.631  1.00  0.00     0.021 A 
ATOM     92  C   UNL     1       7.552  -2.936   8.625  1.00  0.00     0.021 A 
ATOM     93  C   UNL     1       8.703  -2.451   8.010  1.00  0.00     0.041 A 
ATOM     94  Cl  UNL     1      10.086  -2.054   8.951  1.00  0.00    -0.084 Cl
ENDBRANCH  78  88
ENDBRANCH  71  74
ENDBRANCH  69  70
ENDBRANCH  68  69
ENDBRANCH   1  68
TORSDOF 16
