REMARK SMILES COc1ccc(C2=NN(C(=O)CCC(=O)NCCCNC(=O)c3ccc(-c4c5nc(c(-c6ccc(S(=O)(=O)[O-])cc6)c6ccc([nH]6)c(-c6ccc(S(=O)(=O)[O-])cc6)c6nc(c(-c7ccc(S(=O)(=O)[O-])cc7)c7ccc4[nH]7)C=C6)C=C5)cc3)[C@H](c3ccc(Cl)cc3Cl)C2)cc1
REMARK SMILES IDX 17 1 16 2 14 3 15 4 13 6 12 7 10 8 11 9 9 10 7 11 8 12 92 13
REMARK SMILES IDX 83 14 6 15 3 16 4 17 94 18 5 19 93 20 2 21 1 22 84 23 85 24
REMARK SMILES IDX 90 25 86 26 89 27 91 28 87 29 88 30 18 31 19 32 20 33 21 34
REMARK SMILES IDX 22 36 23 37 24 38 82 39 25 40 81 41 26 42 27 43 28 44 75 45
REMARK SMILES IDX 29 46 80 47 74 48 76 49 30 50 79 51 73 52 72 53 31 55 61 56
REMARK SMILES IDX 42 57 60 58 43 59 46 60 59 61 77 62 44 63 45 64 58 66 78 67
REMARK SMILES IDX 47 68 32 69 33 70 41 71 34 72 40 73 35 74 36 75 37 76 38 77
REMARK SMILES IDX 39 78 62 79 63 80 71 81 64 82 70 83 65 84 66 85 67 86 68 87
REMARK SMILES IDX 69 88 48 89 49 90 57 91 50 92 56 93 51 94 52 95 53 96 54 97
REMARK SMILES IDX 55 98
REMARK H PARENT 16 5 20 35 76 54 46 65
REMARK Flexibility Score: inf
ROOT
ATOM      1  C   UNL     1       4.074  -7.938   0.299  1.00  0.00     0.117 C 
ENDROOT
BRANCH   1   2
ATOM      2  N   UNL     1       5.155  -9.076   0.313  1.00  0.00    -0.356 N 
ATOM      3  C   UNL     1       5.345 -10.286  -0.290  1.00  0.00     0.220 C 
ATOM      4  O   UNL     1       6.420 -10.835  -0.012  1.00  0.00    -0.275 OA
ATOM      5  H   UNL     1       5.897  -8.858   0.922  1.00  0.00     0.163 HD
BRANCH   3   6
ATOM      6  C   UNL     1       4.414 -10.976  -1.290  1.00  0.00     0.110 C 
BRANCH   6   7
ATOM      7  C   UNL     1       2.919 -11.105  -1.058  1.00  0.00     0.112 C 
BRANCH   7   8
ATOM      8  C   UNL     1       2.335  -9.765  -1.247  1.00  0.00     0.243 C 
ATOM      9  O   UNL     1       1.792  -9.416  -2.288  1.00  0.00    -0.273 OA
BRANCH   8  10
ATOM     10  N   UNL     1       2.603  -8.963  -0.169  1.00  0.00    -0.225 N 
ATOM     11  C   UNL     1       3.083  -6.215   0.730  1.00  0.00     0.071 C 
ATOM     12  N   UNL     1       2.660  -7.074  -0.557  1.00  0.00    -0.174 NA
ATOM     13  C   UNL     1       3.703  -7.340   2.213  1.00  0.00     0.091 C 
ATOM     14  C   UNL     1       3.239  -9.188   1.693  1.00  0.00     0.149 C 
BRANCH  11  15
ATOM     15  C   UNL     1       2.429  -4.932   1.171  1.00  0.00    -0.002 A 
ATOM     16  C   UNL     1       0.561  -1.855   1.066  1.00  0.00     0.118 A 
ATOM     17  C   UNL     1      -0.326  -3.603   1.573  1.00  0.00     0.047 A 
ATOM     18  C   UNL     1       2.312  -1.905   0.648  1.00  0.00     0.047 A 
ATOM     19  C   UNL     1       0.721  -5.058   1.693  1.00  0.00     0.014 A 
ATOM     20  C   UNL     1       3.167  -3.426   0.690  1.00  0.00     0.014 A 
BRANCH  16  21
ATOM     21  O   UNL     1       0.109  -0.526   1.167  1.00  0.00    -0.497 OA
ATOM     22  C   UNL     1       0.634   0.367   0.190  1.00  0.00     0.278 C 
ENDBRANCH  16  21
ENDBRANCH  11  15
BRANCH  14  23
ATOM     23  C   UNL     1       2.556  -9.975   2.877  1.00  0.00    -0.004 A 
ATOM     24  C   UNL     1       2.166  -9.259   4.037  1.00  0.00     0.009 A 
ATOM     25  C   UNL     1       2.726 -11.372   3.067  1.00  0.00     0.047 A 
ATOM     26  C   UNL     1       2.012  -9.870   5.292  1.00  0.00     0.021 A 
ATOM     27  C   UNL     1       2.459 -11.997   4.299  1.00  0.00     0.041 A 
ATOM     28  Cl  UNL     1       3.531 -12.419   1.954  1.00  0.00    -0.084 Cl
ATOM     29  C   UNL     1       2.145 -11.241   5.414  1.00  0.00     0.042 A 
ATOM     30  Cl  UNL     1       2.018 -11.991   6.955  1.00  0.00    -0.084 Cl
ENDBRANCH  14  23
ENDBRANCH   8  10
ENDBRANCH   7   8
ENDBRANCH   6   7
ENDBRANCH   3   6
ENDBRANCH   1   2
BRANCH   1  31
ATOM     31  C   UNL     1       1.982  -7.763   1.060  1.00  0.00     0.042 C 
BRANCH  31  32
ATOM     32  C   UNL     1       0.558  -7.095   0.000  1.00  0.00     0.118 C 
BRANCH  32  33
ATOM     33  N   UNL     1       0.713  -5.880  -0.970  1.00  0.00    -0.352 N 
ATOM     34  C   UNL     1       1.199  -4.560  -0.961  1.00  0.00     0.251 C 
ATOM     35  H   UNL     1       0.363  -6.108  -1.861  1.00  0.00     0.163 HD
ATOM     36  O   UNL     1       1.700  -4.103  -1.992  1.00  0.00    -0.269 OA
BRANCH  34  37
ATOM     37  C   UNL     1       0.932  -3.529   0.183  1.00  0.00     0.039 A 
ATOM     38  C   UNL     1      -0.617  -2.864  -0.434  1.00  0.00     0.014 A 
ATOM     39  C   UNL     1       1.411  -3.165   2.124  1.00  0.00     0.014 A 
ATOM     40  C   UNL     1      -1.694  -2.054   0.660  1.00  0.00     0.010 A 
ATOM     41  C   UNL     1       0.149  -2.353   3.157  1.00  0.00     0.010 A 
ATOM     42  C   UNL     1      -1.413  -1.889   2.406  1.00  0.00    -0.014 A 
BRANCH  42  43
ATOM     43  C   UNL     1      -2.720  -1.900   3.215  1.00  0.00     0.031 A 
ATOM     44  C   UNL     1      -2.765  -1.231   4.559  1.00  0.00     0.074 A 
ATOM     45  C   UNL     1      -3.817  -2.630   2.839  1.00  0.00     0.049 A 
ATOM     46  N   UNL     1      -3.743  -1.188   5.429  1.00  0.00    -0.248 NA
ATOM     47  C   UNL     1      -1.523  -0.606   5.027  1.00  0.00     0.031 C 
ATOM     48  C   UNL     1      -3.948  -3.519   1.671  1.00  0.00     0.029 A 
ATOM     49  N   UNL     1      -5.070  -2.760   3.423  1.00  0.00    -0.354 N 
ATOM     50  C   UNL     1      -3.209  -0.570   6.550  1.00  0.00     0.074 A 
ATOM     51  C   UNL     1      -1.793  -0.415   6.307  1.00  0.00     0.031 C 
ATOM     52  C   UNL     1      -5.184  -4.026   1.588  1.00  0.00     0.029 A 
ATOM     53  C   UNL     1      -5.959  -3.554   2.715  1.00  0.00     0.049 A 
ATOM     54  H   UNL     1      -5.308  -2.323   4.272  1.00  0.00     0.167 HD
ATOM     55  C   UNL     1      -3.840  -0.078   7.643  1.00  0.00     0.031 A 
ATOM     56  C   UNL     1      -7.257  -3.873   2.910  1.00  0.00     0.031 A 
ATOM     57  C   UNL     1      -5.255  -0.172   7.858  1.00  0.00     0.049 A 
ATOM     58  C   UNL     1      -7.969  -3.276   4.088  1.00  0.00     0.074 A 
ATOM     59  C   UNL     1      -6.015   0.406   8.859  1.00  0.00     0.029 A 
ATOM     60  N   UNL     1      -6.126  -0.893   7.056  1.00  0.00    -0.354 N 
ATOM     61  N   UNL     1      -7.479  -2.522   5.042  1.00  0.00    -0.248 NA
ATOM     62  C   UNL     1      -9.410  -3.539   4.204  1.00  0.00     0.031 C 
ATOM     63  C   UNL     1      -7.337  -0.020   8.698  1.00  0.00     0.029 A 
ATOM     64  C   UNL     1      -7.412  -0.802   7.556  1.00  0.00     0.049 A 
ATOM     65  H   UNL     1      -5.867  -1.396   6.250  1.00  0.00     0.167 HD
ATOM     66  C   UNL     1      -8.558  -2.187   5.849  1.00  0.00     0.074 A 
ATOM     67  C   UNL     1      -9.728  -2.811   5.266  1.00  0.00     0.031 C 
ATOM     68  C   UNL     1      -8.573  -1.422   6.967  1.00  0.00     0.031 A 
BRANCH  55  69
ATOM     69  C   UNL     1      -2.982   0.650   8.646  1.00  0.00    -0.014 A 
ATOM     70  C   UNL     1      -2.288   1.822   8.283  1.00  0.00     0.010 A 
ATOM     71  C   UNL     1      -2.824   0.139   9.945  1.00  0.00     0.010 A 
ATOM     72  C   UNL     1      -1.371   2.404   9.158  1.00  0.00     0.020 A 
ATOM     73  C   UNL     1      -1.943   0.749  10.843  1.00  0.00     0.020 A 
ATOM     74  C   UNL     1      -1.197   1.856  10.430  1.00  0.00     0.054 A 
BRANCH  74  75
ATOM     75  S   UNL     1       0.026   2.613  11.532  1.00  0.00     0.124 S 
ATOM     76  O   UNL     1       1.283   2.208  10.907  1.00  0.00    -0.237 OA
ATOM     77  O   UNL     1      -0.293   4.035  11.433  1.00  0.00    -0.237 OA
ATOM     78  O   UNL     1      -0.251   2.002  12.829  1.00  0.00    -0.744 OA
ENDBRANCH  74  75
ENDBRANCH  55  69
BRANCH  56  79
ATOM     79  C   UNL     1      -7.996  -4.739   1.930  1.00  0.00    -0.014 A 
ATOM     80  C   UNL     1      -8.968  -4.182   1.075  1.00  0.00     0.010 A 
ATOM     81  C   UNL     1      -7.736  -6.119   1.836  1.00  0.00     0.010 A 
ATOM     82  C   UNL     1      -9.673  -4.983   0.166  1.00  0.00     0.020 A 
ATOM     83  C   UNL     1      -8.420  -6.921   0.909  1.00  0.00     0.020 A 
ATOM     84  C   UNL     1      -9.390  -6.349   0.084  1.00  0.00     0.054 A 
BRANCH  84  85
ATOM     85  S   UNL     1     -10.276  -7.353  -1.146  1.00  0.00     0.124 S 
ATOM     86  O   UNL     1     -11.636  -7.360  -0.616  1.00  0.00    -0.237 OA
ATOM     87  O   UNL     1     -10.080  -6.587  -2.374  1.00  0.00    -0.237 OA
ATOM     88  O   UNL     1      -9.582  -8.638  -1.103  1.00  0.00    -0.744 OA
ENDBRANCH  84  85
ENDBRANCH  56  79
BRANCH  68  89
ATOM     89  C   UNL     1      -9.901  -1.172   7.627  1.00  0.00    -0.014 A 
ATOM     90  C   UNL     1     -10.585  -2.192   8.309  1.00  0.00     0.010 A 
ATOM     91  C   UNL     1     -10.424   0.134   7.638  1.00  0.00     0.010 A 
ATOM     92  C   UNL     1     -11.779  -1.913   8.977  1.00  0.00     0.020 A 
ATOM     93  C   UNL     1     -11.597   0.425   8.334  1.00  0.00     0.020 A 
ATOM     94  C   UNL     1     -12.273  -0.604   8.992  1.00  0.00     0.054 A 
BRANCH  94  95
ATOM     95  S   UNL     1     -13.786  -0.255   9.928  1.00  0.00     0.124 S 
ATOM     96  O   UNL     1     -14.806  -0.905   9.110  1.00  0.00    -0.237 OA
ATOM     97  O   UNL     1     -13.515  -0.888  11.217  1.00  0.00    -0.237 OA
ATOM     98  O   UNL     1     -13.847   1.204   9.957  1.00  0.00    -0.744 OA
ENDBRANCH  94  95
ENDBRANCH  68  89
ENDBRANCH  42  43
ENDBRANCH  34  37
ENDBRANCH  32  33
ENDBRANCH  31  32
ENDBRANCH   1  31
TORSDOF 19
