REMARK SMILES CC[C@@H](C)[NH2+][C@H](CN=[N+]=[N-])C(=O)NCCCNC(=O)c1ccc(-c2c3nc(c(-c4ccc(S(=O)(=O)[O-])cc4)c4ccc([nH]4)c(-c4ccc(S(=O)(=O)[O-])cc4)c4nc(c(-c5ccc(S(=O)(=O)[O-])cc5)c5ccc2[nH]5)C=C4)C=C3)cc1
REMARK SMILES IDX 15 1 14 2 13 3 11 4 12 5 6 7 5 8 3 11 4 12 2 13 1 14 7 15
REMARK SMILES IDX 8 16 9 17 10 18 16 19 17 20 18 21 19 23 20 24 21 25 79 26
REMARK SMILES IDX 22 27 78 28 23 29 24 30 25 31 72 32 26 33 77 34 71 35 73 36
REMARK SMILES IDX 27 37 76 38 70 39 69 40 28 42 58 43 39 44 57 45 40 46 43 47
REMARK SMILES IDX 56 48 74 49 41 50 42 51 55 53 75 54 44 55 29 56 30 57 38 58
REMARK SMILES IDX 31 59 37 60 32 61 33 62 34 63 35 64 36 65 59 66 60 67 68 68
REMARK SMILES IDX 61 69 67 70 62 71 63 72 64 73 65 74 66 75 45 76 46 77 54 78
REMARK SMILES IDX 47 79 53 80 48 81 49 82 50 83 51 84 52 85
REMARK H PARENT 13 6 5 9 5 10 17 22 73 41 43 52
REMARK Flexibility Score: inf
ROOT
ATOM      1  C   UNL     1      -2.752   0.549   5.158  1.00  0.00     0.042 C 
ENDROOT
BRANCH   1   2
ATOM      2  C   UNL     1      -1.881   1.786   5.306  1.00  0.00     0.118 C 
BRANCH   2   3
ATOM      3  N   UNL     1      -0.746   1.589   6.193  1.00  0.00    -0.351 N 
ATOM      4  C   UNL     1       0.595   1.600   5.916  1.00  0.00     0.278 C 
ATOM      5  O   UNL     1       1.380   1.549   6.868  1.00  0.00    -0.268 OA
ATOM      6  H   UNL     1      -0.976   1.423   7.136  1.00  0.00     0.163 HD
BRANCH   4   7
ATOM      7  C   UNL     1       1.117   1.650   4.458  1.00  0.00     0.278 C 
BRANCH   7   8
ATOM      8  N   UNL     1       0.594   2.880   3.824  1.00  0.00    -0.334 N 
ATOM      9  H   UNL     1      -0.207   3.183   4.377  1.00  0.00     0.347 HD
ATOM     10  H   UNL     1       1.398   3.507   3.805  1.00  0.00     0.347 HD
BRANCH   8  11
ATOM     11  C   UNL     1       0.159   2.827   2.433  1.00  0.00     0.179 C 
ATOM     12  C   UNL     1       1.343   2.773   1.470  1.00  0.00     0.075 C 
BRANCH  11  13
ATOM     13  C   UNL     1      -0.712   4.078   2.190  1.00  0.00     0.061 C 
ATOM     14  C   UNL     1      -1.538   3.983   0.916  1.00  0.00     0.010 C 
ENDBRANCH  11  13
ENDBRANCH   8  11
ENDBRANCH   7   8
BRANCH   7  15
ATOM     15  C   UNL     1       0.876   0.267   3.804  1.00  0.00     0.166 C 
BRANCH  15  16
ATOM     16  N   UNL     1       1.901  -0.709   4.239  1.00  0.00    -0.087 NA
ATOM     17  N   UNL     1       3.015  -0.598   3.695  1.00  0.00     0.001 N 
ATOM     18  N   UNL     1       4.029  -0.471   3.189  1.00  0.00    -0.003 NA
ENDBRANCH  15  16
ENDBRANCH   7  15
ENDBRANCH   4   7
ENDBRANCH   2   3
ENDBRANCH   1   2
BRANCH   1  19
ATOM     19  C   UNL     1      -3.492   0.169   6.428  1.00  0.00     0.118 C 
BRANCH  19  20
ATOM     20  N   UNL     1      -4.465   1.177   6.825  1.00  0.00    -0.352 N 
ATOM     21  C   UNL     1      -5.835   1.104   6.897  1.00  0.00     0.251 C 
ATOM     22  H   UNL     1      -4.081   2.047   7.083  1.00  0.00     0.163 HD
ATOM     23  O   UNL     1      -6.488   2.133   7.045  1.00  0.00    -0.269 OA
BRANCH  21  24
ATOM     24  C   UNL     1      -6.520  -0.201   6.780  1.00  0.00     0.039 A 
ATOM     25  C   UNL     1      -7.713  -0.280   6.057  1.00  0.00     0.014 A 
ATOM     26  C   UNL     1      -5.998  -1.344   7.391  1.00  0.00     0.014 A 
ATOM     27  C   UNL     1      -8.343  -1.516   5.894  1.00  0.00     0.010 A 
ATOM     28  C   UNL     1      -6.569  -2.587   7.141  1.00  0.00     0.010 A 
ATOM     29  C   UNL     1      -7.756  -2.686   6.403  1.00  0.00    -0.014 A 
BRANCH  29  30
ATOM     30  C   UNL     1      -8.373  -4.020   6.191  1.00  0.00     0.031 A 
ATOM     31  C   UNL     1      -8.815  -4.842   7.373  1.00  0.00     0.074 A 
ATOM     32  C   UNL     1      -8.475  -4.519   4.944  1.00  0.00     0.049 A 
ATOM     33  N   UNL     1      -9.315  -6.051   7.396  1.00  0.00    -0.248 NA
ATOM     34  C   UNL     1      -8.648  -4.239   8.706  1.00  0.00     0.031 C 
ATOM     35  C   UNL     1      -8.046  -3.837   3.720  1.00  0.00     0.029 A 
ATOM     36  N   UNL     1      -8.967  -5.720   4.497  1.00  0.00    -0.354 N 
ATOM     37  C   UNL     1      -9.503  -6.357   8.739  1.00  0.00     0.074 A 
ATOM     38  C   UNL     1      -9.010  -5.233   9.502  1.00  0.00     0.031 C 
ATOM     39  C   UNL     1      -8.324  -4.615   2.662  1.00  0.00     0.029 A 
ATOM     40  C   UNL     1      -8.902  -5.870   3.132  1.00  0.00     0.049 A 
ATOM     41  H   UNL     1      -9.333  -6.409   5.098  1.00  0.00     0.167 HD
ATOM     42  C   UNL     1     -10.057  -7.464   9.288  1.00  0.00     0.031 A 
ATOM     43  C   UNL     1      -9.258  -6.905   2.345  1.00  0.00     0.031 A 
ATOM     44  C   UNL     1     -10.551  -8.578   8.523  1.00  0.00     0.049 A 
ATOM     45  C   UNL     1      -9.849  -8.134   2.978  1.00  0.00     0.074 A 
ATOM     46  C   UNL     1     -11.178  -9.724   8.979  1.00  0.00     0.029 A 
ATOM     47  N   UNL     1     -10.467  -8.690   7.143  1.00  0.00    -0.354 N 
ATOM     48  N   UNL     1     -10.083  -8.377   4.247  1.00  0.00    -0.248 NA
ATOM     49  C   UNL     1     -10.237  -9.225   2.074  1.00  0.00     0.031 C 
ATOM     50  C   UNL     1     -11.414 -10.558   7.882  1.00  0.00     0.029 A 
ATOM     51  C   UNL     1     -11.004  -9.900   6.733  1.00  0.00     0.049 A 
ATOM     52  H   UNL     1     -10.084  -8.011   6.543  1.00  0.00     0.167 HD
ATOM     53  C   UNL     1     -10.672  -9.636   4.289  1.00  0.00     0.074 A 
ATOM     54  C   UNL     1     -10.773 -10.095   2.918  1.00  0.00     0.031 C 
ATOM     55  C   UNL     1     -11.094 -10.346   5.365  1.00  0.00     0.031 A 
BRANCH  42  56
ATOM     56  C   UNL     1     -10.146  -7.527  10.793  1.00  0.00    -0.014 A 
ATOM     57  C   UNL     1     -10.992  -6.664  11.512  1.00  0.00     0.010 A 
ATOM     58  C   UNL     1      -9.394  -8.486  11.496  1.00  0.00     0.010 A 
ATOM     59  C   UNL     1     -11.048  -6.725  12.907  1.00  0.00     0.020 A 
ATOM     60  C   UNL     1      -9.473  -8.574  12.889  1.00  0.00     0.020 A 
ATOM     61  C   UNL     1     -10.286  -7.679  13.587  1.00  0.00     0.054 A 
BRANCH  61  62
ATOM     62  S   UNL     1     -10.393  -7.745  15.396  1.00  0.00     0.124 S 
ATOM     63  O   UNL     1      -9.695  -6.521  15.784  1.00  0.00    -0.237 OA
ATOM     64  O   UNL     1     -11.834  -7.747  15.631  1.00  0.00    -0.237 OA
ATOM     65  O   UNL     1      -9.706  -8.988  15.740  1.00  0.00    -0.744 OA
ENDBRANCH  61  62
ENDBRANCH  42  56
BRANCH  43  66
ATOM     66  C   UNL     1      -9.072  -6.813   0.870  1.00  0.00    -0.014 A 
ATOM     67  C   UNL     1     -10.183  -6.726   0.013  1.00  0.00     0.010 A 
ATOM     68  C   UNL     1      -7.779  -6.790   0.315  1.00  0.00     0.010 A 
ATOM     69  C   UNL     1     -10.006  -6.633  -1.371  1.00  0.00     0.020 A 
ATOM     70  C   UNL     1      -7.597  -6.664  -1.065  1.00  0.00     0.020 A 
ATOM     71  C   UNL     1      -8.713  -6.597  -1.901  1.00  0.00     0.054 A 
BRANCH  71  72
ATOM     72  S   UNL     1      -8.507  -6.413  -3.694  1.00  0.00     0.124 S 
ATOM     73  O   UNL     1      -8.947  -7.715  -4.185  1.00  0.00    -0.237 OA
ATOM     74  O   UNL     1      -9.390  -5.290  -3.997  1.00  0.00    -0.237 OA
ATOM     75  O   UNL     1      -7.081  -6.134  -3.848  1.00  0.00    -0.744 OA
ENDBRANCH  71  72
ENDBRANCH  43  66
BRANCH  55  76
ATOM     76  C   UNL     1     -11.740 -11.682   5.106  1.00  0.00    -0.014 A 
ATOM     77  C   UNL     1     -10.993 -12.785   4.657  1.00  0.00     0.010 A 
ATOM     78  C   UNL     1     -13.112 -11.849   5.376  1.00  0.00     0.010 A 
ATOM     79  C   UNL     1     -11.612 -14.021   4.449  1.00  0.00     0.020 A 
ATOM     80  C   UNL     1     -13.727 -13.091   5.203  1.00  0.00     0.020 A 
ATOM     81  C   UNL     1     -12.975 -14.166   4.726  1.00  0.00     0.054 A 
BRANCH  81  82
ATOM     82  S   UNL     1     -13.744 -15.792   4.492  1.00  0.00     0.124 S 
ATOM     83  O   UNL     1     -13.771 -15.909   3.037  1.00  0.00    -0.237 OA
ATOM     84  O   UNL     1     -12.814 -16.686   5.178  1.00  0.00    -0.237 OA
ATOM     85  O   UNL     1     -15.051 -15.654   5.130  1.00  0.00    -0.744 OA
ENDBRANCH  81  82
ENDBRANCH  55  76
ENDBRANCH  29  30
ENDBRANCH  21  24
ENDBRANCH  19  20
ENDBRANCH   1  19
TORSDOF 18
