REMARK SMILES O=C(NCCCNC(=O)[C@H]1[C@H](C(=O)NC2CC[NH+](Cc3ccccc3)CC2)[C@H]2C=C[C@@H]1C2)c1ccc(-c2c3nc(c(-c4ccc(S(=O)(=O)[O-])cc4)c4ccc([nH]4)c(-c4ccc(S(=O)(=O)[O-])cc4)c4nc(c(-c5ccc(S(=O)(=O)[O-])cc5)c5ccc2[nH]5)C=C4)C=C3)cc1
REMARK SMILES IDX 5 1 4 2 3 3 1 4 2 5 33 7 34 8 92 9 35 10 91 11 36 12 37 13
REMARK SMILES IDX 38 14 85 15 39 16 90 17 84 18 86 19 40 20 89 21 83 22 82 23
REMARK SMILES IDX 41 25 71 26 52 27 70 28 53 29 56 30 69 31 87 32 54 33 55 34
REMARK SMILES IDX 68 36 88 37 57 38 42 39 43 40 51 41 44 42 50 43 45 44 46 45
REMARK SMILES IDX 47 46 48 47 49 48 72 49 73 50 81 51 74 52 80 53 75 54 76 55
REMARK SMILES IDX 77 56 78 57 79 58 58 59 59 60 67 61 60 62 66 63 61 64 62 65
REMARK SMILES IDX 63 66 64 67 65 68 6 69 7 70 8 71 9 73 10 74 11 75 31 76
REMARK SMILES IDX 28 77 30 78 32 79 29 80 12 81 13 82 14 83 15 85 16 86 27 87
REMARK SMILES IDX 17 88 26 89 18 90 19 92 20 93 21 94 25 95 22 96 24 97 23 98
REMARK H PARENT 3 6 86 24 56 35 7 72 14 84 18 91
REMARK Flexibility Score: inf
ROOT
ATOM      1  C   UNL     1       5.887   4.165  -4.348  1.00  0.00     0.042 C 
ENDROOT
BRANCH   1   2
ATOM      2  C   UNL     1       5.038   3.594  -5.467  1.00  0.00     0.118 C 
BRANCH   2   3
ATOM      3  N   UNL     1       5.482   4.102  -6.760  1.00  0.00    -0.352 N 
ATOM      4  O   UNL     1       6.942   4.495  -8.413  1.00  0.00    -0.269 OA
ATOM      5  C   UNL     1       6.515   3.698  -7.578  1.00  0.00     0.251 C 
ATOM      6  H   UNL     1       4.956   4.859  -7.106  1.00  0.00     0.163 HD
BRANCH   5   7
ATOM      7  C   UNL     1       7.107   2.336  -7.495  1.00  0.00     0.039 A 
ATOM      8  C   UNL     1       6.358   1.250  -7.054  1.00  0.00     0.014 A 
ATOM      9  C   UNL     1       8.396   2.103  -7.999  1.00  0.00     0.014 A 
ATOM     10  C   UNL     1       6.917  -0.017  -6.976  1.00  0.00     0.010 A 
ATOM     11  C   UNL     1       8.899   0.795  -8.084  1.00  0.00     0.010 A 
ATOM     12  C   UNL     1       8.151  -0.280  -7.584  1.00  0.00    -0.014 A 
BRANCH  12  13
ATOM     13  C   UNL     1       8.502  -1.704  -7.834  1.00  0.00     0.031 A 
ATOM     14  C   UNL     1       9.734  -2.330  -7.253  1.00  0.00     0.074 A 
ATOM     15  C   UNL     1       7.632  -2.443  -8.560  1.00  0.00     0.049 A 
ATOM     16  N   UNL     1      10.136  -3.571  -7.344  1.00  0.00    -0.248 NA
ATOM     17  C   UNL     1      10.637  -1.461  -6.482  1.00  0.00     0.031 C 
ATOM     18  C   UNL     1       6.407  -1.926  -9.189  1.00  0.00     0.029 A 
ATOM     19  N   UNL     1       7.600  -3.781  -8.855  1.00  0.00    -0.354 N 
ATOM     20  C   UNL     1      11.350  -3.630  -6.671  1.00  0.00     0.074 A 
ATOM     21  C   UNL     1      11.626  -2.295  -6.184  1.00  0.00     0.031 C 
ATOM     22  C   UNL     1       5.703  -2.943  -9.700  1.00  0.00     0.029 A 
ATOM     23  C   UNL     1       6.471  -4.168  -9.542  1.00  0.00     0.049 A 
ATOM     24  H   UNL     1       8.316  -4.407  -8.600  1.00  0.00     0.167 HD
ATOM     25  C   UNL     1      12.156  -4.703  -6.485  1.00  0.00     0.031 A 
ATOM     26  C   UNL     1       6.099  -5.368 -10.024  1.00  0.00     0.031 A 
ATOM     27  C   UNL     1      11.857  -6.026  -6.973  1.00  0.00     0.049 A 
ATOM     28  C   UNL     1       7.025  -6.529  -9.816  1.00  0.00     0.074 A 
ATOM     29  C   UNL     1      12.597  -7.186  -6.819  1.00  0.00     0.029 A 
ATOM     30  N   UNL     1      10.730  -6.367  -7.708  1.00  0.00    -0.354 N 
ATOM     31  N   UNL     1       8.160  -6.564  -9.160  1.00  0.00    -0.248 NA
ATOM     32  C   UNL     1       6.632  -7.806 -10.422  1.00  0.00     0.031 C 
ATOM     33  C   UNL     1      11.948  -8.214  -7.510  1.00  0.00     0.029 A 
ATOM     34  C   UNL     1      10.769  -7.712  -8.039  1.00  0.00     0.049 A 
ATOM     35  H   UNL     1      10.009  -5.745  -7.958  1.00  0.00     0.167 HD
ATOM     36  C   UNL     1       8.615  -7.870  -9.266  1.00  0.00     0.074 A 
ATOM     37  C   UNL     1       7.615  -8.600 -10.021  1.00  0.00     0.031 C 
ATOM     38  C   UNL     1       9.761  -8.415  -8.792  1.00  0.00     0.031 A 
BRANCH  25  39
ATOM     39  C   UNL     1      13.458  -4.494  -5.756  1.00  0.00    -0.014 A 
ATOM     40  C   UNL     1      13.497  -4.271  -4.369  1.00  0.00     0.010 A 
ATOM     41  C   UNL     1      14.671  -4.602  -6.464  1.00  0.00     0.010 A 
ATOM     42  C   UNL     1      14.722  -4.141  -3.707  1.00  0.00     0.020 A 
ATOM     43  C   UNL     1      15.898  -4.497  -5.802  1.00  0.00     0.020 A 
ATOM     44  C   UNL     1      15.915  -4.258  -4.427  1.00  0.00     0.054 A 
BRANCH  44  45
ATOM     45  S   UNL     1      17.490  -4.139  -3.533  1.00  0.00     0.124 S 
ATOM     46  O   UNL     1      17.539  -2.719  -3.193  1.00  0.00    -0.237 OA
ATOM     47  O   UNL     1      17.287  -5.046  -2.406  1.00  0.00    -0.237 OA
ATOM     48  O   UNL     1      18.481  -4.579  -4.511  1.00  0.00    -0.744 OA
ENDBRANCH  44  45
ENDBRANCH  25  39
BRANCH  26  49
ATOM     49  C   UNL     1       4.833  -5.511 -10.797  1.00  0.00    -0.014 A 
ATOM     50  C   UNL     1       3.773  -6.300 -10.319  1.00  0.00     0.010 A 
ATOM     51  C   UNL     1       4.683  -4.848 -12.031  1.00  0.00     0.010 A 
ATOM     52  C   UNL     1       2.602  -6.446 -11.071  1.00  0.00     0.020 A 
ATOM     53  C   UNL     1       3.502  -4.960 -12.767  1.00  0.00     0.020 A 
ATOM     54  C   UNL     1       2.476  -5.776 -12.292  1.00  0.00     0.054 A 
BRANCH  54  55
ATOM     55  S   UNL     1       0.943  -5.961 -13.244  1.00  0.00     0.124 S 
ATOM     56  O   UNL     1       1.083  -7.310 -13.783  1.00  0.00    -0.237 OA
ATOM     57  O   UNL     1      -0.088  -5.789 -12.223  1.00  0.00    -0.237 OA
ATOM     58  O   UNL     1       1.019  -4.882 -14.227  1.00  0.00    -0.744 OA
ENDBRANCH  54  55
ENDBRANCH  26  49
BRANCH  38  59
ATOM     59  C   UNL     1       9.973  -9.880  -9.052  1.00  0.00    -0.014 A 
ATOM     60  C   UNL     1      10.278 -10.355 -10.340  1.00  0.00     0.010 A 
ATOM     61  C   UNL     1       9.900 -10.790  -7.982  1.00  0.00     0.010 A 
ATOM     62  C   UNL     1      10.471 -11.720 -10.559  1.00  0.00     0.020 A 
ATOM     63  C   UNL     1      10.123 -12.151  -8.192  1.00  0.00     0.020 A 
ATOM     64  C   UNL     1      10.392 -12.610  -9.483  1.00  0.00     0.054 A 
BRANCH  64  65
ATOM     65  S   UNL     1      10.685 -14.372  -9.786  1.00  0.00     0.124 S 
ATOM     66  O   UNL     1       9.460 -14.770 -10.473  1.00  0.00    -0.237 OA
ATOM     67  O   UNL     1      11.892 -14.359 -10.610  1.00  0.00    -0.237 OA
ATOM     68  O   UNL     1      10.859 -14.930  -8.447  1.00  0.00    -0.744 OA
ENDBRANCH  64  65
ENDBRANCH  38  59
ENDBRANCH  12  13
ENDBRANCH   5   7
ENDBRANCH   2   3
ENDBRANCH   1   2
BRANCH   1  69
ATOM     69  C   UNL     1       5.442   5.555  -3.909  1.00  0.00     0.117 C 
BRANCH  69  70
ATOM     70  N   UNL     1       4.864   5.498  -2.577  1.00  0.00    -0.356 N 
ATOM     71  C   UNL     1       5.282   5.403  -1.305  1.00  0.00     0.224 C 
ATOM     72  H   UNL     1       3.881   5.542  -2.621  1.00  0.00     0.163 HD
ATOM     73  O   UNL     1       4.333   5.014  -0.585  1.00  0.00    -0.275 OA
BRANCH  71  74
ATOM     74  C   UNL     1       6.550   5.918  -0.496  1.00  0.00     0.098 C 
ATOM     75  C   UNL     1       8.621   6.345  -0.259  1.00  0.00     0.098 C 
ATOM     76  C   UNL     1       5.758   7.824  -0.249  1.00  0.00     0.025 C 
ATOM     77  C   UNL     1       8.427   8.470  -0.093  1.00  0.00     0.025 C 
ATOM     78  C   UNL     1       6.126   9.123  -1.288  1.00  0.00    -0.027 C 
ATOM     79  C   UNL     1       6.809   8.972   0.726  1.00  0.00     0.017 C 
ATOM     80  C   UNL     1       7.467   9.498  -1.215  1.00  0.00    -0.027 C 
BRANCH  75  81
ATOM     81  C   UNL     1       9.053   5.053   0.648  1.00  0.00     0.224 C 
ATOM     82  O   UNL     1       9.699   4.151   0.085  1.00  0.00    -0.275 OA
ATOM     83  N   UNL     1       8.690   4.701   1.914  1.00  0.00    -0.353 N 
ATOM     84  H   UNL     1       8.756   3.734   2.087  1.00  0.00     0.163 HD
BRANCH  83  85
ATOM     85  C   UNL     1       8.227   5.465   3.058  1.00  0.00     0.093 C 
ATOM     86  C   UNL     1       6.764   5.838   3.102  1.00  0.00     0.086 C 
ATOM     87  C   UNL     1       8.984   6.736   3.152  1.00  0.00     0.086 C 
ATOM     88  C   UNL     1       6.241   6.472   1.818  1.00  0.00     0.264 C 
ATOM     89  C   UNL     1       8.719   7.484   1.873  1.00  0.00     0.264 C 
ATOM     90  N   UNL     1       7.371   7.044   0.797  1.00  0.00    -0.331 N 
ATOM     91  H   UNL     1       6.934   7.110  -0.122  1.00  0.00     0.348 HD
BRANCH  90  92
ATOM     92  C   UNL     1       7.478   7.232  -1.330  1.00  0.00     0.299 C 
BRANCH  92  93
ATOM     93  C   UNL     1       8.171   6.081  -2.572  1.00  0.00     0.006 A 
ATOM     94  C   UNL     1       8.824   6.744  -3.657  1.00  0.00     0.009 A 
ATOM     95  C   UNL     1       8.297   4.683  -2.469  1.00  0.00     0.009 A 
ATOM     96  C   UNL     1       9.664   6.044  -4.521  1.00  0.00     0.001 A 
ATOM     97  C   UNL     1       9.158   4.000  -3.340  1.00  0.00     0.001 A 
ATOM     98  C   UNL     1       9.850   4.677  -4.346  1.00  0.00     0.000 A 
ENDBRANCH  92  93
ENDBRANCH  90  92
ENDBRANCH  83  85
ENDBRANCH  75  81
ENDBRANCH  71  74
ENDBRANCH  69  70
ENDBRANCH   1  69
TORSDOF 17
