REMARK SMILES O=C(C[NH+]1CCN(c2ncc(C(F)(F)F)cc2Cl)CC1)NCCCNC(=O)c1ccc(-c2c3nc(c(-c4ccc(S(=O)(=O)[O-])cc4)c4ccc([nH]4)c(-c4ccc(S(=O)(=O)[O-])cc4)c4nc(c(-c5ccc(S(=O)(=O)[O-])cc5)c5ccc2[nH]5)C=C4)C=C3)cc1
REMARK SMILES IDX 23 1 22 2 21 3 1 4 2 5 3 7 4 8 5 9 20 10 6 12 19 13 7 14
REMARK SMILES IDX 8 15 9 16 17 17 10 18 16 19 18 20 11 21 12 22 13 23 14 24
REMARK SMILES IDX 15 25 24 26 25 27 26 28 27 30 28 31 29 32 87 33 30 34 86 35
REMARK SMILES IDX 31 36 32 37 33 38 80 39 34 40 85 41 79 42 81 43 35 44 84 45
REMARK SMILES IDX 78 46 77 47 36 49 66 50 47 51 65 52 48 53 51 54 64 55 82 56
REMARK SMILES IDX 49 57 50 58 63 60 83 61 52 62 37 63 38 64 46 65 39 66 45 67
REMARK SMILES IDX 40 68 41 69 42 70 43 71 44 72 67 73 68 74 76 75 69 76 75 77
REMARK SMILES IDX 70 78 71 79 72 80 73 81 74 82 53 83 54 84 62 85 55 86 61 87
REMARK SMILES IDX 56 88 57 89 58 90 59 91 60 92
REMARK H PARENT 21 6 4 11 25 29 81 48 51 59
REMARK Flexibility Score: inf
ROOT
ATOM      1  C   UNL     1       1.946   0.577   3.648  1.00  0.00     0.042 C 
ENDROOT
BRANCH   1   2
ATOM      2  C   UNL     1       1.601   1.031   2.235  1.00  0.00     0.118 C 
BRANCH   2   3
ATOM      3  N   UNL     1       2.208   0.211   1.208  1.00  0.00    -0.351 N 
ATOM      4  O   UNL     1       0.806   0.939  -0.459  1.00  0.00    -0.269 OA
ATOM      5  C   UNL     1       1.771   0.268  -0.101  1.00  0.00     0.275 C 
ATOM      6  H   UNL     1       2.945  -0.398   1.446  1.00  0.00     0.163 HD
BRANCH   5   7
ATOM      7  C   UNL     1       2.618  -0.554  -1.072  1.00  0.00     0.363 C 
BRANCH   7   8
ATOM      8  N   UNL     1       3.727   0.168  -1.725  1.00  0.00    -0.324 N 
ATOM      9  C   UNL     1       3.907   1.603  -1.419  1.00  0.00     0.284 C 
ATOM     10  C   UNL     1       5.017  -0.543  -1.622  1.00  0.00     0.284 C 
ATOM     11  H   UNL     1       3.399   0.168  -2.691  1.00  0.00     0.348 HD
ATOM     12  C   UNL     1       4.734   1.950  -0.151  1.00  0.00     0.179 C 
ATOM     13  C   UNL     1       5.773  -0.298  -0.298  1.00  0.00     0.179 C 
ATOM     14  N   UNL     1       5.955   1.142  -0.107  1.00  0.00    -0.344 N 
BRANCH  14  15
ATOM     15  C   UNL     1       6.947   1.540   0.778  1.00  0.00     0.147 A 
ATOM     16  N   UNL     1       6.562   2.036   1.978  1.00  0.00    -0.237 NA
ATOM     17  C   UNL     1       8.310   1.475   0.432  1.00  0.00     0.084 A 
ATOM     18  C   UNL     1       7.522   2.471   2.834  1.00  0.00     0.126 A 
ATOM     19  C   UNL     1       9.275   1.919   1.337  1.00  0.00     0.039 A 
ATOM     20  Cl  UNL     1       8.852   0.942  -1.123  1.00  0.00    -0.080 Cl
ATOM     21  C   UNL     1       8.880   2.435   2.571  1.00  0.00     0.075 A 
BRANCH  21  22
ATOM     22  C   UNL     1       9.854   2.940   3.590  1.00  0.00     0.417 C 
ATOM     23  F   UNL     1       9.559   4.198   4.016  1.00  0.00    -0.166 F 
ATOM     24  F   UNL     1       9.889   2.160   4.702  1.00  0.00    -0.166 F 
ATOM     25  F   UNL     1      11.132   2.996   3.125  1.00  0.00    -0.166 F 
ENDBRANCH  21  22
ENDBRANCH  14  15
ENDBRANCH   7   8
ENDBRANCH   5   7
ENDBRANCH   2   3
ENDBRANCH   1   2
BRANCH   1  26
ATOM     26  C   UNL     1       3.417   0.709   4.035  1.00  0.00     0.118 C 
BRANCH  26  27
ATOM     27  N   UNL     1       3.886   2.082   4.100  1.00  0.00    -0.352 N 
ATOM     28  C   UNL     1       4.707   2.692   5.013  1.00  0.00     0.251 C 
ATOM     29  H   UNL     1       3.564   2.665   3.375  1.00  0.00     0.163 HD
ATOM     30  O   UNL     1       4.941   3.899   4.900  1.00  0.00    -0.269 OA
BRANCH  28  31
ATOM     31  C   UNL     1       5.322   1.944   6.136  1.00  0.00     0.039 A 
ATOM     32  C   UNL     1       5.422   2.583   7.375  1.00  0.00     0.014 A 
ATOM     33  C   UNL     1       5.835   0.652   5.986  1.00  0.00     0.014 A 
ATOM     34  C   UNL     1       5.946   1.901   8.476  1.00  0.00     0.010 A 
ATOM     35  C   UNL     1       6.294  -0.055   7.100  1.00  0.00     0.010 A 
ATOM     36  C   UNL     1       6.338   0.556   8.361  1.00  0.00    -0.014 A 
BRANCH  36  37
ATOM     37  C   UNL     1       6.713  -0.220   9.573  1.00  0.00     0.031 A 
ATOM     38  C   UNL     1       8.105  -0.754   9.767  1.00  0.00     0.074 A 
ATOM     39  C   UNL     1       5.763  -0.474  10.497  1.00  0.00     0.049 A 
ATOM     40  N   UNL     1       8.599  -1.404  10.790  1.00  0.00    -0.248 NA
ATOM     41  C   UNL     1       9.059  -0.554   8.665  1.00  0.00     0.031 C 
ATOM     42  C   UNL     1       4.357  -0.073  10.396  1.00  0.00     0.029 A 
ATOM     43  N   UNL     1       5.836  -1.122  11.705  1.00  0.00    -0.354 N 
ATOM     44  C   UNL     1       9.917  -1.696  10.458  1.00  0.00     0.074 A 
ATOM     45  C   UNL     1      10.130  -1.193   9.117  1.00  0.00     0.031 C 
ATOM     46  C   UNL     1       3.712  -0.444  11.513  1.00  0.00     0.029 A 
ATOM     47  C   UNL     1       4.647  -1.132  12.396  1.00  0.00     0.049 A 
ATOM     48  H   UNL     1       6.660  -1.540  12.044  1.00  0.00     0.167 HD
ATOM     49  C   UNL     1      10.867  -2.309  11.206  1.00  0.00     0.031 A 
ATOM     50  C   UNL     1       4.341  -1.626  13.611  1.00  0.00     0.031 A 
ATOM     51  C   UNL     1      10.654  -2.807  12.541  1.00  0.00     0.049 A 
ATOM     52  C   UNL     1       5.420  -2.269  14.435  1.00  0.00     0.074 A 
ATOM     53  C   UNL     1      11.570  -3.393  13.399  1.00  0.00     0.029 A 
ATOM     54  N   UNL     1       9.442  -2.780  13.214  1.00  0.00    -0.354 N 
ATOM     55  N   UNL     1       6.681  -2.464  14.132  1.00  0.00    -0.248 NA
ATOM     56  C   UNL     1       5.038  -2.738  15.773  1.00  0.00     0.031 C 
ATOM     57  C   UNL     1      10.902  -3.757  14.574  1.00  0.00     0.029 A 
ATOM     58  C   UNL     1       9.582  -3.353  14.469  1.00  0.00     0.049 A 
ATOM     59  H   UNL     1       8.604  -2.409  12.854  1.00  0.00     0.167 HD
ATOM     60  C   UNL     1       7.249  -3.059  15.252  1.00  0.00     0.074 A 
ATOM     61  C   UNL     1       6.199  -3.171  16.244  1.00  0.00     0.031 C 
ATOM     62  C   UNL     1       8.527  -3.473  15.442  1.00  0.00     0.031 A 
BRANCH  49  63
ATOM     63  C   UNL     1      12.233  -2.478  10.591  1.00  0.00    -0.014 A 
ATOM     64  C   UNL     1      13.078  -1.371  10.390  1.00  0.00     0.010 A 
ATOM     65  C   UNL     1      12.696  -3.761  10.248  1.00  0.00     0.010 A 
ATOM     66  C   UNL     1      14.341  -1.538   9.817  1.00  0.00     0.020 A 
ATOM     67  C   UNL     1      13.970  -3.935   9.697  1.00  0.00     0.020 A 
ATOM     68  C   UNL     1      14.777  -2.819   9.468  1.00  0.00     0.054 A 
BRANCH  68  69
ATOM     69  S   UNL     1      16.426  -3.010   8.737  1.00  0.00     0.124 S 
ATOM     70  O   UNL     1      16.211  -2.516   7.379  1.00  0.00    -0.237 OA
ATOM     71  O   UNL     1      17.256  -2.162   9.589  1.00  0.00    -0.237 OA
ATOM     72  O   UNL     1      16.689  -4.443   8.844  1.00  0.00    -0.744 OA
ENDBRANCH  68  69
ENDBRANCH  49  63
BRANCH  50  73
ATOM     73  C   UNL     1       2.956  -1.489  14.137  1.00  0.00    -0.014 A 
ATOM     74  C   UNL     1       2.674  -0.577  15.169  1.00  0.00     0.010 A 
ATOM     75  C   UNL     1       1.910  -2.255  13.593  1.00  0.00     0.010 A 
ATOM     76  C   UNL     1       1.372  -0.445  15.660  1.00  0.00     0.020 A 
ATOM     77  C   UNL     1       0.602  -2.107  14.064  1.00  0.00     0.020 A 
ATOM     78  C   UNL     1       0.344  -1.211  15.104  1.00  0.00     0.054 A 
BRANCH  78  79
ATOM     79  S   UNL     1      -1.349  -0.984  15.716  1.00  0.00     0.124 S 
ATOM     80  O   UNL     1      -1.312  -1.705  16.984  1.00  0.00    -0.237 OA
ATOM     81  O   UNL     1      -1.458   0.469  15.816  1.00  0.00    -0.237 OA
ATOM     82  O   UNL     1      -2.171  -1.591  14.672  1.00  0.00    -0.744 OA
ENDBRANCH  78  79
ENDBRANCH  50  73
BRANCH  62  83
ATOM     83  C   UNL     1       8.858  -4.063  16.787  1.00  0.00    -0.014 A 
ATOM     84  C   UNL     1       8.383  -5.332  17.163  1.00  0.00     0.010 A 
ATOM     85  C   UNL     1       9.661  -3.338  17.685  1.00  0.00     0.010 A 
ATOM     86  C   UNL     1       8.660  -5.842  18.434  1.00  0.00     0.020 A 
ATOM     87  C   UNL     1       9.963  -3.856  18.947  1.00  0.00     0.020 A 
ATOM     88  C   UNL     1       9.440  -5.096  19.322  1.00  0.00     0.054 A 
BRANCH  88  89
ATOM     89  S   UNL     1       9.790  -5.775  20.967  1.00  0.00     0.124 S 
ATOM     90  O   UNL     1       8.534  -5.528  21.670  1.00  0.00    -0.237 OA
ATOM     91  O   UNL     1      10.086  -7.177  20.683  1.00  0.00    -0.237 OA
ATOM     92  O   UNL     1      10.930  -4.987  21.431  1.00  0.00    -0.744 OA
ENDBRANCH  88  89
ENDBRANCH  62  83
ENDBRANCH  36  37
ENDBRANCH  28  31
ENDBRANCH  26  27
ENDBRANCH   1  26
TORSDOF 16
