REMARK SMILES O=C(C[C@H](NS(=O)(=O)c1cccs1)c1ccccc1Cl)NCCCNC(=O)c1ccc(-c2c3nc(c(-c4ccc(S(=O)(=O)[O-])cc4)c4ccc([nH]4)c(-c4ccc(S(=O)(=O)[O-])cc4)c4nc(c(-c5ccc(S(=O)(=O)[O-])cc5)c5ccc2[nH]5)C=C4)C=C3)cc1
REMARK SMILES IDX 22 1 21 2 1 3 2 4 3 6 4 7 14 8 15 9 19 10 16 11 18 12 20 13
REMARK SMILES IDX 17 14 5 15 6 17 7 18 8 19 9 20 10 21 13 22 11 23 12 24 23 25
REMARK SMILES IDX 24 26 25 27 26 28 27 30 28 31 29 32 87 33 30 34 86 35 31 36
REMARK SMILES IDX 32 37 33 38 80 39 34 40 85 41 79 42 81 43 35 44 84 45 78 46
REMARK SMILES IDX 77 47 36 49 66 50 47 51 65 52 48 53 51 54 64 55 82 56 49 57
REMARK SMILES IDX 50 58 63 60 83 61 52 62 37 63 38 64 46 65 39 66 45 67 40 68
REMARK SMILES IDX 41 69 42 70 43 71 44 72 67 73 68 74 76 75 69 76 75 77 70 78
REMARK SMILES IDX 71 79 72 80 73 81 74 82 53 83 54 84 62 85 55 86 61 87 56 88
REMARK SMILES IDX 57 89 58 90 59 91 60 92
REMARK H PARENT 21 5 5 16 25 29 81 48 51 59
REMARK Flexibility Score: inf
ROOT
ATOM      1  C   UNL     1       5.514  -1.889   1.954  1.00  0.00     0.117 C 
ENDROOT
BRANCH   1   2
ATOM      2  N   UNL     1       5.135  -0.772   1.111  1.00  0.00    -0.356 N 
ATOM      3  O   UNL     1       6.582  -1.321  -0.584  1.00  0.00    -0.275 OA
ATOM      4  C   UNL     1       5.698  -0.599  -0.135  1.00  0.00     0.221 C 
ATOM      5  H   UNL     1       4.465  -0.127   1.434  1.00  0.00     0.163 HD
BRANCH   4   6
ATOM      6  C   UNL     1       5.079   0.516  -0.944  1.00  0.00     0.125 C 
BRANCH   6   7
ATOM      7  C   UNL     1       3.948   0.018  -1.859  1.00  0.00     0.111 C 
BRANCH   7   8
ATOM      8  C   UNL     1       4.503  -0.750  -3.062  1.00  0.00    -0.011 A 
ATOM      9  C   UNL     1       4.596  -2.157  -3.038  1.00  0.00     0.007 A 
ATOM     10  C   UNL     1       4.992  -0.088  -4.205  1.00  0.00     0.045 A 
ATOM     11  C   UNL     1       5.145  -2.871  -4.106  1.00  0.00     0.000 A 
ATOM     12  C   UNL     1       5.543  -0.807  -5.274  1.00  0.00     0.021 A 
ATOM     13  Cl  UNL     1       4.955   1.635  -4.360  1.00  0.00    -0.084 Cl
ATOM     14  C   UNL     1       5.620  -2.197  -5.225  1.00  0.00     0.002 A 
ENDBRANCH   7   8
BRANCH   7  15
ATOM     15  N   UNL     1       2.914  -0.768  -1.137  1.00  0.00    -0.202 NA
ATOM     16  H   UNL     1       3.412  -1.417  -0.527  1.00  0.00     0.142 HD
BRANCH  15  17
ATOM     17  S   UNL     1       1.774   0.009  -0.186  1.00  0.00     0.250 S 
ATOM     18  O   UNL     1       0.961  -1.034   0.397  1.00  0.00    -0.206 OA
ATOM     19  O   UNL     1       2.490   0.943   0.653  1.00  0.00    -0.206 OA
BRANCH  17  20
ATOM     20  C   UNL     1       0.673   0.980  -1.176  1.00  0.00     0.134 A 
ATOM     21  C   UNL     1      -0.004   2.158  -0.920  1.00  0.00     0.033 A 
ATOM     22  S   UNL     1       0.302   0.372  -2.732  1.00  0.00    -0.131 S 
ATOM     23  C   UNL     1      -0.821   2.566  -2.014  1.00  0.00     0.013 A 
ATOM     24  C   UNL     1      -0.741   1.685  -3.070  1.00  0.00     0.066 A 
ENDBRANCH  17  20
ENDBRANCH  15  17
ENDBRANCH   7  15
ENDBRANCH   6   7
ENDBRANCH   4   6
ENDBRANCH   1   2
BRANCH   1  25
ATOM     25  C   UNL     1       5.340  -1.628   3.445  1.00  0.00     0.042 C 
BRANCH  25  26
ATOM     26  C   UNL     1       3.908  -1.373   3.909  1.00  0.00     0.118 C 
BRANCH  26  27
ATOM     27  N   UNL     1       3.005  -2.477   3.631  1.00  0.00    -0.352 N 
ATOM     28  C   UNL     1       2.030  -3.042   4.416  1.00  0.00     0.251 C 
ATOM     29  H   UNL     1       3.108  -2.883   2.740  1.00  0.00     0.163 HD
ATOM     30  O   UNL     1       1.466  -4.061   4.023  1.00  0.00    -0.269 OA
BRANCH  28  31
ATOM     31  C   UNL     1       1.675  -2.469   5.736  1.00  0.00     0.039 A 
ATOM     32  C   UNL     1       1.437  -3.353   6.795  1.00  0.00     0.014 A 
ATOM     33  C   UNL     1       1.526  -1.093   5.935  1.00  0.00     0.014 A 
ATOM     34  C   UNL     1       1.113  -2.860   8.061  1.00  0.00     0.010 A 
ATOM     35  C   UNL     1       1.239  -0.598   7.209  1.00  0.00     0.010 A 
ATOM     36  C   UNL     1       1.036  -1.477   8.283  1.00  0.00    -0.014 A 
BRANCH  36  37
ATOM     37  C   UNL     1       0.762  -0.947   9.640  1.00  0.00     0.031 A 
ATOM     38  C   UNL     1      -0.567  -0.330   9.969  1.00  0.00     0.074 A 
ATOM     39  C   UNL     1       1.732  -0.986  10.573  1.00  0.00     0.049 A 
ATOM     40  N   UNL     1      -0.964   0.216  11.090  1.00  0.00    -0.248 NA
ATOM     41  C   UNL     1      -1.571  -0.309   8.895  1.00  0.00     0.031 C 
ATOM     42  C   UNL     1       3.080  -1.520  10.373  1.00  0.00     0.029 A 
ATOM     43  N   UNL     1       1.728  -0.565  11.879  1.00  0.00    -0.354 N 
ATOM     44  C   UNL     1      -2.250   0.680  10.849  1.00  0.00     0.074 A 
ATOM     45  C   UNL     1      -2.568   0.345   9.476  1.00  0.00     0.031 C 
ATOM     46  C   UNL     1       3.768  -1.411  11.522  1.00  0.00     0.029 A 
ATOM     47  C   UNL     1       2.914  -0.793  12.532  1.00  0.00     0.049 A 
ATOM     48  H   UNL     1       0.950  -0.140  12.306  1.00  0.00     0.167 HD
ATOM     49  C   UNL     1      -3.091   1.329  11.690  1.00  0.00     0.031 A 
ATOM     50  C   UNL     1       3.273  -0.542  13.804  1.00  0.00     0.031 A 
ATOM     51  C   UNL     1      -2.800   1.638  13.063  1.00  0.00     0.049 A 
ATOM     52  C   UNL     1       2.290   0.083  14.747  1.00  0.00     0.074 A 
ATOM     53  C   UNL     1      -3.602   2.276  13.995  1.00  0.00     0.029 A 
ATOM     54  N   UNL     1      -1.617   1.316  13.708  1.00  0.00    -0.354 N 
ATOM     55  N   UNL     1       1.072   0.499  14.503  1.00  0.00    -0.248 NA
ATOM     56  C   UNL     1       2.727   0.258  16.139  1.00  0.00     0.031 C 
ATOM     57  C   UNL     1      -2.902   2.334  15.209  1.00  0.00     0.029 A 
ATOM     58  C   UNL     1      -1.669   1.730  15.028  1.00  0.00     0.049 A 
ATOM     59  H   UNL     1      -0.852   0.860  13.289  1.00  0.00     0.167 HD
ATOM     60  C   UNL     1       0.592   0.983  15.714  1.00  0.00     0.074 A 
ATOM     61  C   UNL     1       1.648   0.801  16.690  1.00  0.00     0.031 C 
ATOM     62  C   UNL     1      -0.616   1.532  15.988  1.00  0.00     0.031 A 
BRANCH  49  63
ATOM     63  C   UNL     1      -4.407   1.763  11.116  1.00  0.00    -0.014 A 
ATOM     64  C   UNL     1      -5.486   0.866  11.034  1.00  0.00     0.010 A 
ATOM     65  C   UNL     1      -4.555   3.072  10.626  1.00  0.00     0.010 A 
ATOM     66  C   UNL     1      -6.682   1.259  10.428  1.00  0.00     0.020 A 
ATOM     67  C   UNL     1      -5.752   3.470  10.027  1.00  0.00     0.020 A 
ATOM     68  C   UNL     1      -6.800   2.553   9.911  1.00  0.00     0.054 A 
BRANCH  68  69
ATOM     69  S   UNL     1      -8.339   3.060   9.096  1.00  0.00     0.124 S 
ATOM     70  O   UNL     1      -8.052   2.750   7.697  1.00  0.00    -0.237 OA
ATOM     71  O   UNL     1      -9.350   2.216   9.729  1.00  0.00    -0.237 OA
ATOM     72  O   UNL     1      -8.434   4.482   9.415  1.00  0.00    -0.744 OA
ENDBRANCH  68  69
ENDBRANCH  49  63
BRANCH  50  73
ATOM     73  C   UNL     1       4.630  -0.924  14.264  1.00  0.00    -0.014 A 
ATOM     74  C   UNL     1       4.839  -2.175  14.868  1.00  0.00     0.010 A 
ATOM     75  C   UNL     1       5.719  -0.062  14.055  1.00  0.00     0.010 A 
ATOM     76  C   UNL     1       6.124  -2.564  15.254  1.00  0.00     0.020 A 
ATOM     77  C   UNL     1       7.006  -0.452  14.434  1.00  0.00     0.020 A 
ATOM     78  C   UNL     1       7.200  -1.700  15.035  1.00  0.00     0.054 A 
BRANCH  78  79
ATOM     79  S   UNL     1       8.882  -2.236  15.453  1.00  0.00     0.124 S 
ATOM     80  O   UNL     1       9.042  -1.706  16.803  1.00  0.00    -0.237 OA
ATOM     81  O   UNL     1       8.800  -3.692  15.352  1.00  0.00    -0.237 OA
ATOM     82  O   UNL     1       9.696  -1.596  14.422  1.00  0.00    -0.744 OA
ENDBRANCH  78  79
ENDBRANCH  50  73
BRANCH  62  83
ATOM     83  C   UNL     1      -0.858   1.956  17.406  1.00  0.00    -0.014 A 
ATOM     84  C   UNL     1      -0.444   3.224  17.851  1.00  0.00     0.010 A 
ATOM     85  C   UNL     1      -1.517   1.090  18.294  1.00  0.00     0.010 A 
ATOM     86  C   UNL     1      -0.668   3.612  19.174  1.00  0.00     0.020 A 
ATOM     87  C   UNL     1      -1.746   1.478  19.617  1.00  0.00     0.020 A 
ATOM     88  C   UNL     1      -1.308   2.733  20.052  1.00  0.00     0.054 A 
BRANCH  88  89
ATOM     89  S   UNL     1      -1.627   3.245  21.763  1.00  0.00     0.124 S 
ATOM     90  O   UNL     1      -0.441   2.747  22.454  1.00  0.00    -0.237 OA
ATOM     91  O   UNL     1      -1.730   4.699  21.665  1.00  0.00    -0.237 OA
ATOM     92  O   UNL     1      -2.876   2.562  22.090  1.00  0.00    -0.744 OA
ENDBRANCH  88  89
ENDBRANCH  62  83
ENDBRANCH  36  37
ENDBRANCH  28  31
ENDBRANCH  26  27
ENDBRANCH  25  26
ENDBRANCH   1  25
TORSDOF 18
