REMARK SMILES Cc1cc(C(=O)NCCCNC(=O)c2ccc(-c3c4nc(c(-c5ccc(S(=O)(=O)[O-])cc5)c5ccc([nH]5)c(-c5ccc(S(=O)(=O)[O-])cc5)c5nc(c(-c6ccc(S(=O)(=O)[O-])cc6)c6ccc3[nH]6)C=C5)C=C4)cc2)ccc1NS(=O)(=O)c1c(F)cccc1F
REMARK SMILES IDX 9 1 8 2 7 3 5 4 6 5 4 7 1 8 2 9 3 10 76 11 75 12 74 13 77 14
REMARK SMILES IDX 78 16 79 17 80 18 81 19 82 20 87 21 83 22 84 23 86 24 88 25
REMARK SMILES IDX 85 26 10 27 11 28 12 29 13 31 14 32 15 33 73 34 16 35 72 36
REMARK SMILES IDX 17 37 18 38 19 39 66 40 20 41 71 42 65 43 67 44 21 45 70 46
REMARK SMILES IDX 64 47 63 48 22 50 52 51 33 52 51 53 34 54 37 55 50 56 68 57
REMARK SMILES IDX 35 58 36 59 49 61 69 62 38 63 23 64 24 65 32 66 25 67 31 68
REMARK SMILES IDX 26 69 27 70 28 71 29 72 30 73 53 74 54 75 62 76 55 77 61 78
REMARK SMILES IDX 56 79 57 80 58 81 59 82 60 83 39 84 40 85 48 86 41 87 47 88
REMARK SMILES IDX 42 89 43 90 44 91 45 92 46 93
REMARK H PARENT 7 6 77 15 11 30 67 49 37 60
REMARK Flexibility Score: inf
ROOT
ATOM      1  C   UNL     1      -5.157  -0.043   0.402  1.00  0.00     0.042 C 
ENDROOT
BRANCH   1   2
ATOM      2  C   UNL     1      -4.034  -0.860   1.237  1.00  0.00     0.118 C 
BRANCH   2   3
ATOM      3  N   UNL     1      -3.106  -1.788   0.506  1.00  0.00    -0.352 N 
ATOM      4  C   UNL     1      -1.749  -1.934   0.248  1.00  0.00     0.251 C 
ATOM      5  O   UNL     1      -1.274  -3.001  -0.143  1.00  0.00    -0.269 OA
ATOM      6  H   UNL     1      -3.615  -2.514   0.079  1.00  0.00     0.163 HD
BRANCH   4   7
ATOM      7  C   UNL     1      -0.808  -0.799   0.384  1.00  0.00     0.040 A 
ATOM      8  C   UNL     1       2.828   0.197  -0.199  1.00  0.00     0.046 C 
ATOM      9  C   UNL     1       1.357   0.298   0.099  1.00  0.00    -0.026 A 
ATOM     10  C   UNL     1       0.580  -0.888   0.173  1.00  0.00     0.019 A 
ATOM     11  C   UNL     1       0.717   1.532   0.327  1.00  0.00     0.052 A 
ATOM     12  C   UNL     1      -0.538   1.532   0.884  1.00  0.00     0.028 A 
ATOM     13  C   UNL     1      -1.332   0.440   0.657  1.00  0.00     0.016 A 
BRANCH  11  14
ATOM     14  N   UNL     1       1.173   2.735  -0.299  1.00  0.00    -0.279 N 
ATOM     15  H   UNL     1       1.980   2.672  -0.860  1.00  0.00     0.180 HD
BRANCH  14  16
ATOM     16  S   UNL     1       0.446   4.255  -0.155  1.00  0.00     0.267 S 
ATOM     17  O   UNL     1       0.651   4.637   1.238  1.00  0.00    -0.201 OA
ATOM     18  O   UNL     1       0.988   5.059  -1.222  1.00  0.00    -0.201 OA
BRANCH  16  19
ATOM     19  C   UNL     1      -1.307   4.186  -0.419  1.00  0.00     0.158 A 
ATOM     20  C   UNL     1      -2.120   5.017   0.354  1.00  0.00     0.146 A 
ATOM     21  C   UNL     1      -1.917   3.225  -1.218  1.00  0.00     0.146 A 
ATOM     22  F   UNL     1      -1.600   6.011   1.087  1.00  0.00    -0.205 F 
ATOM     23  C   UNL     1      -3.506   4.841   0.403  1.00  0.00     0.041 A 
ATOM     24  C   UNL     1      -3.305   3.022  -1.155  1.00  0.00     0.041 A 
ATOM     25  F   UNL     1      -1.192   2.411  -1.995  1.00  0.00    -0.205 F 
ATOM     26  C   UNL     1      -4.100   3.819  -0.330  1.00  0.00     0.006 A 
ENDBRANCH  16  19
ENDBRANCH  14  16
ENDBRANCH  11  14
ENDBRANCH   4   7
ENDBRANCH   2   3
ENDBRANCH   1   2
BRANCH   1  27
ATOM     27  C   UNL     1      -6.665  -0.540   0.649  1.00  0.00     0.118 C 
BRANCH  27  28
ATOM     28  N   UNL     1      -7.944  -0.176  -0.153  1.00  0.00    -0.352 N 
ATOM     29  C   UNL     1      -9.214  -0.896  -0.286  1.00  0.00     0.251 C 
ATOM     30  H   UNL     1      -7.895   0.672  -0.650  1.00  0.00     0.163 HD
ATOM     31  O   UNL     1     -10.129  -0.461   0.432  1.00  0.00    -0.269 OA
BRANCH  29  32
ATOM     32  C   UNL     1      -9.654  -2.075  -1.274  1.00  0.00     0.039 A 
ATOM     33  C   UNL     1     -10.583  -3.083  -0.852  1.00  0.00     0.014 A 
ATOM     34  C   UNL     1      -9.124  -2.340  -2.534  1.00  0.00     0.014 A 
ATOM     35  C   UNL     1     -10.535  -4.446  -1.385  1.00  0.00     0.010 A 
ATOM     36  C   UNL     1      -9.070  -3.683  -3.059  1.00  0.00     0.010 A 
ATOM     37  C   UNL     1      -9.569  -4.793  -2.353  1.00  0.00    -0.014 A 
BRANCH  37  38
ATOM     38  C   UNL     1      -8.817  -6.145  -2.397  1.00  0.00     0.031 A 
ATOM     39  C   UNL     1      -9.057  -7.132  -3.447  1.00  0.00     0.074 A 
ATOM     40  C   UNL     1      -7.751  -6.577  -1.646  1.00  0.00     0.049 A 
ATOM     41  N   UNL     1      -9.309  -8.388  -3.245  1.00  0.00    -0.248 NA
ATOM     42  C   UNL     1      -8.844  -6.759  -4.833  1.00  0.00     0.031 C 
ATOM     43  C   UNL     1      -6.868  -7.762  -1.680  1.00  0.00     0.029 A 
ATOM     44  N   UNL     1      -7.139  -5.929  -0.605  1.00  0.00    -0.354 N 
ATOM     45  C   UNL     1      -8.959  -9.015  -4.424  1.00  0.00     0.074 A 
ATOM     46  C   UNL     1      -8.891  -7.957  -5.419  1.00  0.00     0.031 C 
ATOM     47  C   UNL     1      -6.189  -7.868  -0.508  1.00  0.00     0.029 A 
ATOM     48  C   UNL     1      -6.633  -6.793   0.355  1.00  0.00     0.049 A 
ATOM     49  H   UNL     1      -7.065  -4.949  -0.545  1.00  0.00     0.167 HD
ATOM     50  C   UNL     1      -8.427 -10.277  -4.458  1.00  0.00     0.031 A 
ATOM     51  C   UNL     1      -7.193  -6.812   1.611  1.00  0.00     0.031 A 
ATOM     52  C   UNL     1      -8.020 -10.774  -3.129  1.00  0.00     0.049 A 
ATOM     53  C   UNL     1      -7.933  -8.099   1.812  1.00  0.00     0.074 A 
ATOM     54  C   UNL     1      -6.779 -11.087  -2.584  1.00  0.00     0.029 A 
ATOM     55  N   UNL     1      -8.896 -10.734  -2.048  1.00  0.00    -0.354 N 
ATOM     56  N   UNL     1      -7.941  -9.043   0.922  1.00  0.00    -0.248 NA
ATOM     57  C   UNL     1      -8.774  -8.419   2.956  1.00  0.00     0.031 C 
ATOM     58  C   UNL     1      -6.917 -11.213  -1.173  1.00  0.00     0.029 A 
ATOM     59  C   UNL     1      -8.247 -11.014  -0.852  1.00  0.00     0.049 A 
ATOM     60  H   UNL     1      -9.857 -10.533  -2.121  1.00  0.00     0.167 HD
ATOM     61  C   UNL     1      -8.798 -10.033   1.272  1.00  0.00     0.074 A 
ATOM     62  C   UNL     1      -9.275  -9.612   2.582  1.00  0.00     0.031 C 
ATOM     63  C   UNL     1      -9.008 -11.068   0.405  1.00  0.00     0.031 A 
BRANCH  50  64
ATOM     64  C   UNL     1      -7.978 -10.918  -5.768  1.00  0.00    -0.014 A 
ATOM     65  C   UNL     1      -7.054 -11.980  -5.795  1.00  0.00     0.010 A 
ATOM     66  C   UNL     1      -8.495 -10.529  -7.023  1.00  0.00     0.010 A 
ATOM     67  C   UNL     1      -6.603 -12.547  -7.002  1.00  0.00     0.020 A 
ATOM     68  C   UNL     1      -8.006 -11.033  -8.237  1.00  0.00     0.020 A 
ATOM     69  C   UNL     1      -7.065 -12.051  -8.220  1.00  0.00     0.054 A 
BRANCH  69  70
ATOM     70  S   UNL     1      -6.491 -12.791  -9.771  1.00  0.00     0.124 S 
ATOM     71  O   UNL     1      -5.039 -12.678  -9.665  1.00  0.00    -0.237 OA
ATOM     72  O   UNL     1      -7.026 -14.147  -9.685  1.00  0.00    -0.237 OA
ATOM     73  O   UNL     1      -7.099 -11.952 -10.803  1.00  0.00    -0.744 OA
ENDBRANCH  69  70
ENDBRANCH  50  64
BRANCH  51  74
ATOM     74  C   UNL     1      -7.653  -5.457   2.211  1.00  0.00    -0.014 A 
ATOM     75  C   UNL     1      -6.588  -4.603   2.551  1.00  0.00     0.010 A 
ATOM     76  C   UNL     1      -8.645  -4.855   1.455  1.00  0.00     0.010 A 
ATOM     77  C   UNL     1      -6.096  -3.718   1.581  1.00  0.00     0.020 A 
ATOM     78  C   UNL     1      -8.150  -3.947   0.499  1.00  0.00     0.020 A 
ATOM     79  C   UNL     1      -6.839  -3.527   0.435  1.00  0.00     0.054 A 
BRANCH  79  80
ATOM     80  S   UNL     1      -5.987  -3.096  -1.314  1.00  0.00     0.124 S 
ATOM     81  O   UNL     1      -4.599  -3.055  -0.904  1.00  0.00    -0.237 OA
ATOM     82  O   UNL     1      -6.278  -4.216  -2.189  1.00  0.00    -0.237 OA
ATOM     83  O   UNL     1      -6.521  -1.824  -1.768  1.00  0.00    -0.744 OA
ENDBRANCH  79  80
ENDBRANCH  51  74
BRANCH  63  84
ATOM     84  C   UNL     1      -9.911 -12.255   0.617  1.00  0.00    -0.014 A 
ATOM     85  C   UNL     1     -10.618 -12.535   1.790  1.00  0.00     0.010 A 
ATOM     86  C   UNL     1     -10.046 -13.189  -0.442  1.00  0.00     0.010 A 
ATOM     87  C   UNL     1     -11.453 -13.655   1.887  1.00  0.00     0.020 A 
ATOM     88  C   UNL     1     -10.880 -14.300  -0.366  1.00  0.00     0.020 A 
ATOM     89  C   UNL     1     -11.586 -14.523   0.804  1.00  0.00     0.054 A 
BRANCH  89  90
ATOM     90  S   UNL     1     -12.691 -15.939   0.954  1.00  0.00     0.124 S 
ATOM     91  O   UNL     1     -12.054 -16.712   2.018  1.00  0.00    -0.237 OA
ATOM     92  O   UNL     1     -13.958 -15.305   1.312  1.00  0.00    -0.237 OA
ATOM     93  O   UNL     1     -12.656 -16.555  -0.370  1.00  0.00    -0.744 OA
ENDBRANCH  89  90
ENDBRANCH  63  84
ENDBRANCH  37  38
ENDBRANCH  29  32
ENDBRANCH  27  28
ENDBRANCH   1  27
TORSDOF 16
