REMARK SMILES CCc1noc(C)c1C(=O)Nc1cc(Cl)ccc1C(=O)NCCCNC(=O)c1ccc(-c2c3nc(c(-c4ccc(S(=O)(=O)[O-])cc4)c4ccc([nH]4)c(-c4ccc(S(=O)(=O)[O-])cc4)c4nc(c(-c5ccc(S(=O)(=O)[O-])cc5)c5ccc2[nH]5)C=C4)C=C3)cc1
REMARK SMILES IDX 23 1 22 2 21 3 19 4 20 5 18 7 12 8 13 9 14 10 17 11 15 12
REMARK SMILES IDX 16 13 11 14 9 15 10 16 8 18 3 19 4 20 5 21 6 22 7 23 2 24
REMARK SMILES IDX 1 25 24 26 25 27 26 28 27 30 28 31 29 32 87 33 30 34 86 35
REMARK SMILES IDX 31 36 32 37 33 38 80 39 34 40 85 41 79 42 81 43 35 44 84 45
REMARK SMILES IDX 78 46 77 47 36 49 66 50 47 51 65 52 48 53 51 54 64 55 82 56
REMARK SMILES IDX 49 57 50 58 63 60 83 61 52 62 37 63 38 64 46 65 39 66 45 67
REMARK SMILES IDX 40 68 41 69 42 70 43 71 44 72 67 73 68 74 76 75 69 76 75 77
REMARK SMILES IDX 70 78 71 79 72 80 73 81 74 82 53 83 54 84 62 85 55 86 61 87
REMARK SMILES IDX 56 88 57 89 58 90 59 91 60 92
REMARK H PARENT 21 6 11 17 25 29 81 48 51 59
REMARK Flexibility Score: inf
ROOT
ATOM      1  C   UNL     1       4.916   0.391  -1.009  1.00  0.00     0.042 C 
ENDROOT
BRANCH   1   2
ATOM      2  C   UNL     1       5.389   1.295   0.110  1.00  0.00     0.118 C 
BRANCH   2   3
ATOM      3  N   UNL     1       6.552   2.106  -0.142  1.00  0.00    -0.352 N 
ATOM      4  C   UNL     1       6.958   3.313   0.369  1.00  0.00     0.253 C 
ATOM      5  O   UNL     1       8.060   3.703  -0.033  1.00  0.00    -0.269 OA
ATOM      6  H   UNL     1       7.172   1.722  -0.804  1.00  0.00     0.163 HD
BRANCH   4   7
ATOM      7  C   UNL     1       6.201   4.213   1.319  1.00  0.00     0.063 A 
ATOM      8  C   UNL     1       5.174   3.925   2.247  1.00  0.00     0.055 A 
ATOM      9  C   UNL     1       4.692   4.926   3.114  1.00  0.00     0.047 A 
ATOM     10  C   UNL     1       5.151   6.236   3.016  1.00  0.00     0.043 A 
ATOM     11  C   UNL     1       6.606   5.568   1.223  1.00  0.00     0.017 A 
ATOM     12  Cl  UNL     1       4.532   7.443   4.069  1.00  0.00    -0.084 Cl
ATOM     13  C   UNL     1       6.085   6.569   2.049  1.00  0.00     0.021 A 
BRANCH   8  14
ATOM     14  N   UNL     1       4.671   2.651   2.483  1.00  0.00    -0.321 N 
ATOM     15  C   UNL     1       3.385   2.139   2.406  1.00  0.00     0.261 C 
ATOM     16  O   UNL     1       3.290   0.980   2.824  1.00  0.00    -0.269 OA
ATOM     17  H   UNL     1       5.351   1.993   2.754  1.00  0.00     0.170 HD
BRANCH  15  18
ATOM     18  C   UNL     1       2.232   2.788   1.763  1.00  0.00     0.105 A 
ATOM     19  C   UNL     1       0.967   2.120   1.515  1.00  0.00     0.096 A 
ATOM     20  N   UNL     1       0.055   2.953   1.012  1.00  0.00    -0.084 NA
ATOM     21  O   UNL     1       0.709   4.121   0.779  1.00  0.00    -0.361 OA
ATOM     22  C   UNL     1       2.020   4.006   1.123  1.00  0.00     0.146 A 
ATOM     23  C   UNL     1       2.775   5.183   0.659  1.00  0.00     0.092 C 
BRANCH  19  24
ATOM     24  C   UNL     1       0.576   0.680   1.624  1.00  0.00     0.057 C 
ATOM     25  C   UNL     1       0.856  -0.066   0.321  1.00  0.00     0.011 C 
ENDBRANCH  19  24
ENDBRANCH  15  18
ENDBRANCH   8  14
ENDBRANCH   4   7
ENDBRANCH   2   3
ENDBRANCH   1   2
BRANCH   1  26
ATOM     26  C   UNL     1       5.915  -0.637  -1.500  1.00  0.00     0.118 C 
BRANCH  26  27
ATOM     27  N   UNL     1       6.209  -1.692  -0.538  1.00  0.00    -0.352 N 
ATOM     28  C   UNL     1       5.697  -2.960  -0.372  1.00  0.00     0.251 C 
ATOM     29  H   UNL     1       6.904  -1.453   0.116  1.00  0.00     0.163 HD
ATOM     30  O   UNL     1       6.056  -3.618   0.605  1.00  0.00    -0.269 OA
BRANCH  28  31
ATOM     31  C   UNL     1       4.698  -3.528  -1.308  1.00  0.00     0.039 A 
ATOM     32  C   UNL     1       3.670  -4.337  -0.807  1.00  0.00     0.014 A 
ATOM     33  C   UNL     1       4.764  -3.294  -2.678  1.00  0.00     0.014 A 
ATOM     34  C   UNL     1       2.668  -4.811  -1.663  1.00  0.00     0.010 A 
ATOM     35  C   UNL     1       3.699  -3.642  -3.501  1.00  0.00     0.010 A 
ATOM     36  C   UNL     1       2.640  -4.417  -3.010  1.00  0.00    -0.014 A 
BRANCH  36  37
ATOM     37  C   UNL     1       1.544  -4.811  -3.938  1.00  0.00     0.031 A 
ATOM     38  C   UNL     1       1.868  -5.548  -5.215  1.00  0.00     0.074 A 
ATOM     39  C   UNL     1       0.274  -4.429  -3.686  1.00  0.00     0.049 A 
ATOM     40  N   UNL     1       1.083  -5.851  -6.217  1.00  0.00    -0.248 NA
ATOM     41  C   UNL     1       3.269  -5.965  -5.410  1.00  0.00     0.031 C 
ATOM     42  C   UNL     1      -0.173  -3.677  -2.510  1.00  0.00     0.029 A 
ATOM     43  N   UNL     1      -0.877  -4.612  -4.413  1.00  0.00    -0.354 N 
ATOM     44  C   UNL     1       1.897  -6.464  -7.165  1.00  0.00     0.074 A 
ATOM     45  C   UNL     1       3.247  -6.431  -6.649  1.00  0.00     0.031 C 
ATOM     46  C   UNL     1      -1.502  -3.497  -2.579  1.00  0.00     0.029 A 
ATOM     47  C   UNL     1      -1.996  -4.067  -3.828  1.00  0.00     0.049 A 
ATOM     48  H   UNL     1      -0.898  -5.089  -5.274  1.00  0.00     0.167 HD
ATOM     49  C   UNL     1       1.553  -7.032  -8.345  1.00  0.00     0.031 A 
ATOM     50  C   UNL     1      -3.275  -4.019  -4.252  1.00  0.00     0.031 A 
ATOM     51  C   UNL     1       0.205  -7.093  -8.843  1.00  0.00     0.049 A 
ATOM     52  C   UNL     1      -3.630  -4.643  -5.575  1.00  0.00     0.074 A 
ATOM     53  C   UNL     1      -0.256  -7.693 -10.002  1.00  0.00     0.029 A 
ATOM     54  N   UNL     1      -0.898  -6.545  -8.208  1.00  0.00    -0.354 N 
ATOM     55  N   UNL     1      -2.852  -5.263  -6.431  1.00  0.00    -0.248 NA
ATOM     56  C   UNL     1      -5.039  -4.569  -5.987  1.00  0.00     0.031 C 
ATOM     57  C   UNL     1      -1.632  -7.463 -10.092  1.00  0.00     0.029 A 
ATOM     58  C   UNL     1      -2.037  -6.777  -8.959  1.00  0.00     0.049 A 
ATOM     59  H   UNL     1      -0.875  -6.063  -7.350  1.00  0.00     0.167 HD
ATOM     60  C   UNL     1      -3.684  -5.684  -7.463  1.00  0.00     0.074 A 
ATOM     61  C   UNL     1      -5.026  -5.260  -7.119  1.00  0.00     0.031 C 
ATOM     62  C   UNL     1      -3.368  -6.362  -8.593  1.00  0.00     0.031 A 
BRANCH  49  63
ATOM     63  C   UNL     1       2.651  -7.647  -9.175  1.00  0.00    -0.014 A 
ATOM     64  C   UNL     1       3.314  -8.813  -8.750  1.00  0.00     0.010 A 
ATOM     65  C   UNL     1       2.991  -7.084 -10.419  1.00  0.00     0.010 A 
ATOM     66  C   UNL     1       4.321  -9.382  -9.533  1.00  0.00     0.020 A 
ATOM     67  C   UNL     1       3.975  -7.669 -11.221  1.00  0.00     0.020 A 
ATOM     68  C   UNL     1       4.644  -8.807 -10.765  1.00  0.00     0.054 A 
BRANCH  68  69
ATOM     69  S   UNL     1       5.930  -9.592 -11.776  1.00  0.00     0.124 S 
ATOM     70  O   UNL     1       7.140  -9.278 -11.020  1.00  0.00    -0.237 OA
ATOM     71  O   UNL     1       5.530 -10.996 -11.766  1.00  0.00    -0.237 OA
ATOM     72  O   UNL     1       5.813  -8.922 -13.068  1.00  0.00    -0.744 OA
ENDBRANCH  68  69
ENDBRANCH  49  63
BRANCH  50  73
ATOM     73  C   UNL     1      -4.323  -3.369  -3.414  1.00  0.00    -0.014 A 
ATOM     74  C   UNL     1      -5.341  -4.140  -2.823  1.00  0.00     0.010 A 
ATOM     75  C   UNL     1      -4.321  -1.977  -3.213  1.00  0.00     0.010 A 
ATOM     76  C   UNL     1      -6.354  -3.529  -2.080  1.00  0.00     0.020 A 
ATOM     77  C   UNL     1      -5.314  -1.365  -2.442  1.00  0.00     0.020 A 
ATOM     78  C   UNL     1      -6.336  -2.144  -1.895  1.00  0.00     0.054 A 
BRANCH  78  79
ATOM     79  S   UNL     1      -7.652  -1.378  -0.909  1.00  0.00     0.124 S 
ATOM     80  O   UNL     1      -8.801  -1.483  -1.803  1.00  0.00    -0.237 OA
ATOM     81  O   UNL     1      -7.693  -2.229   0.277  1.00  0.00    -0.237 OA
ATOM     82  O   UNL     1      -7.161  -0.021  -0.678  1.00  0.00    -0.744 OA
ENDBRANCH  78  79
ENDBRANCH  50  73
BRANCH  62  83
ATOM     83  C   UNL     1      -4.492  -6.738  -9.521  1.00  0.00    -0.014 A 
ATOM     84  C   UNL     1      -5.150  -5.774 -10.304  1.00  0.00     0.010 A 
ATOM     85  C   UNL     1      -4.845  -8.093  -9.661  1.00  0.00     0.010 A 
ATOM     86  C   UNL     1      -6.159  -6.156 -11.192  1.00  0.00     0.020 A 
ATOM     87  C   UNL     1      -5.831  -8.482 -10.570  1.00  0.00     0.020 A 
ATOM     88  C   UNL     1      -6.490  -7.509 -11.322  1.00  0.00     0.054 A 
BRANCH  88  89
ATOM     89  S   UNL     1      -7.761  -7.983 -12.526  1.00  0.00     0.124 S 
ATOM     90  O   UNL     1      -8.982  -7.507 -11.882  1.00  0.00    -0.237 OA
ATOM     91  O   UNL     1      -7.356  -7.251 -13.723  1.00  0.00    -0.237 OA
ATOM     92  O   UNL     1      -7.630  -9.435 -12.616  1.00  0.00    -0.744 OA
ENDBRANCH  88  89
ENDBRANCH  62  83
ENDBRANCH  36  37
ENDBRANCH  28  31
ENDBRANCH  26  27
ENDBRANCH   1  26
TORSDOF 16
