REMARK SMILES COCc1cccc(C[NH2+][C@H](C)[C@H](C)C(=O)NCCCNC(=O)c2ccc(-c3c4nc(c(-c5ccc(S(=O)(=O)[O-])cc5)c5ccc([nH]5)c(-c5ccc(S(=O)(=O)[O-])cc5)c5nc(c(-c6ccc(S(=O)(=O)[O-])cc6)c6ccc3[nH]6)C=C5)C=C4)cc2)c1
REMARK SMILES IDX 15 1 16 2 17 3 13 5 14 6 11 7 12 8 10 9 9 12 8 13 4 14 5 15
REMARK SMILES IDX 84 16 6 17 7 18 3 19 2 20 1 21 18 22 19 23 20 24 21 25 22 26
REMARK SMILES IDX 23 28 24 29 25 30 83 31 26 32 82 33 27 34 28 35 29 36 76 37
REMARK SMILES IDX 30 38 81 39 75 40 77 41 31 42 80 43 74 44 73 45 32 47 62 48
REMARK SMILES IDX 43 49 61 50 44 51 47 52 60 53 78 54 45 55 46 56 59 58 79 59
REMARK SMILES IDX 48 60 33 61 34 62 42 63 35 64 41 65 36 66 37 67 38 68 39 69
REMARK SMILES IDX 40 70 63 71 64 72 72 73 65 74 71 75 66 76 67 77 68 78 69 79
REMARK SMILES IDX 70 80 49 81 50 82 58 83 51 84 57 85 52 86 53 87 54 88 55 89
REMARK SMILES IDX 56 90
REMARK H PARENT 17 4 10 10 10 11 21 27 77 46 47 57
REMARK Flexibility Score: inf
ROOT
ATOM      1  C   UNL     1       1.191  -0.537   7.706  1.00  0.00     0.228 C 
ATOM      2  O   UNL     1       1.975  -1.455   7.973  1.00  0.00    -0.275 OA
ATOM      3  N   UNL     1       0.032  -0.521   8.407  1.00  0.00    -0.356 N 
ATOM      4  H   UNL     1      -0.043  -1.243   9.073  1.00  0.00     0.163 HD
ENDROOT
BRANCH   1   5
ATOM      5  C   UNL     1       1.566   0.520   6.668  1.00  0.00     0.133 C 
ATOM      6  C   UNL     1       0.515   0.658   5.562  1.00  0.00     0.024 C 
BRANCH   5   7
ATOM      7  C   UNL     1       2.052   1.888   7.232  1.00  0.00     0.191 C 
ATOM      8  C   UNL     1       1.253   2.482   8.399  1.00  0.00     0.076 C 
BRANCH   7   9
ATOM      9  N   UNL     1       3.493   1.959   7.557  1.00  0.00    -0.340 N 
ATOM     10  H   UNL     1       4.015   1.974   6.681  1.00  0.00     0.346 HD
ATOM     11  H   UNL     1       3.618   2.801   8.118  1.00  0.00     0.346 HD
BRANCH   9  12
ATOM     12  C   UNL     1       3.999   0.847   8.368  1.00  0.00     0.297 C 
BRANCH  12  13
ATOM     13  C   UNL     1       5.225   1.251   9.155  1.00  0.00     0.006 A 
ATOM     14  C   UNL     1       6.366   1.359  11.315  1.00  0.00    -0.022 A 
ATOM     15  C   UNL     1       7.409   2.069  10.701  1.00  0.00     0.006 A 
ATOM     16  C   UNL     1       5.296   0.933  10.520  1.00  0.00     0.015 A 
ATOM     17  C   UNL     1       7.378   2.344   9.332  1.00  0.00     0.001 A 
ATOM     18  C   UNL     1       6.291   1.937   8.562  1.00  0.00     0.009 A 
BRANCH  14  19
ATOM     19  C   UNL     1       6.418   1.104  12.805  1.00  0.00     0.195 C 
BRANCH  19  20
ATOM     20  O   UNL     1       5.381   0.248  13.289  1.00  0.00    -0.380 OA
ATOM     21  C   UNL     1       4.220   0.955  13.708  1.00  0.00     0.195 C 
ENDBRANCH  19  20
ENDBRANCH  14  19
ENDBRANCH  12  13
ENDBRANCH   9  12
ENDBRANCH   7   9
ENDBRANCH   5   7
ENDBRANCH   1   5
BRANCH   3  22
ATOM     22  C   UNL     1      -1.119   0.359   8.360  1.00  0.00     0.117 C 
BRANCH  22  23
ATOM     23  C   UNL     1      -2.406  -0.395   8.081  1.00  0.00     0.042 C 
BRANCH  23  24
ATOM     24  C   UNL     1      -2.786  -1.360   9.193  1.00  0.00     0.118 C 
BRANCH  24  25
ATOM     25  N   UNL     1      -3.089  -0.682  10.449  1.00  0.00    -0.352 N 
ATOM     26  C   UNL     1      -4.291  -0.538  11.103  1.00  0.00     0.251 C 
ATOM     27  H   UNL     1      -2.317  -0.264  10.896  1.00  0.00     0.163 HD
ATOM     28  O   UNL     1      -4.390   0.236  12.046  1.00  0.00    -0.269 OA
BRANCH  26  29
ATOM     29  C   UNL     1      -5.463  -1.307  10.636  1.00  0.00     0.039 A 
ATOM     30  C   UNL     1      -6.696  -0.666  10.492  1.00  0.00     0.014 A 
ATOM     31  C   UNL     1      -5.327  -2.655  10.305  1.00  0.00     0.014 A 
ATOM     32  C   UNL     1      -7.770  -1.361   9.930  1.00  0.00     0.010 A 
ATOM     33  C   UNL     1      -6.358  -3.307   9.646  1.00  0.00     0.010 A 
ATOM     34  C   UNL     1      -7.595  -2.672   9.459  1.00  0.00    -0.014 A 
BRANCH  34  35
ATOM     35  C   UNL     1      -8.684  -3.428   8.789  1.00  0.00     0.031 A 
ATOM     36  C   UNL     1      -9.148  -4.733   9.379  1.00  0.00     0.074 A 
ATOM     37  C   UNL     1      -9.173  -3.004   7.606  1.00  0.00     0.049 A 
ATOM     38  N   UNL     1      -9.965  -5.623   8.877  1.00  0.00    -0.248 NA
ATOM     39  C   UNL     1      -8.584  -5.108  10.687  1.00  0.00     0.031 C 
ATOM     40  C   UNL     1      -8.775  -1.778   6.908  1.00  0.00     0.029 A 
ATOM     41  N   UNL     1     -10.106  -3.569   6.774  1.00  0.00    -0.354 N 
ATOM     42  C   UNL     1      -9.969  -6.680   9.780  1.00  0.00     0.074 A 
ATOM     43  C   UNL     1      -9.042  -6.341  10.836  1.00  0.00     0.031 C 
ATOM     44  C   UNL     1      -9.485  -1.668   5.773  1.00  0.00     0.029 A 
ATOM     45  C   UNL     1     -10.350  -2.835   5.637  1.00  0.00     0.049 A 
ATOM     46  H   UNL     1     -10.558  -4.421   6.972  1.00  0.00     0.167 HD
ATOM     47  C   UNL     1     -10.693  -7.823   9.743  1.00  0.00     0.031 A 
ATOM     48  C   UNL     1     -11.175  -3.078   4.599  1.00  0.00     0.031 A 
ATOM     49  C   UNL     1     -11.652  -8.130   8.718  1.00  0.00     0.049 A 
ATOM     50  C   UNL     1     -11.996  -4.337   4.597  1.00  0.00     0.074 A 
ATOM     51  C   UNL     1     -12.501  -9.219   8.633  1.00  0.00     0.029 A 
ATOM     52  N   UNL     1     -11.896  -7.339   7.606  1.00  0.00    -0.354 N 
ATOM     53  N   UNL     1     -12.028  -5.300   5.488  1.00  0.00    -0.248 NA
ATOM     54  C   UNL     1     -12.897  -4.540   3.454  1.00  0.00     0.031 C 
ATOM     55  C   UNL     1     -13.234  -9.105   7.447  1.00  0.00     0.029 A 
ATOM     56  C   UNL     1     -12.874  -7.922   6.820  1.00  0.00     0.049 A 
ATOM     57  H   UNL     1     -11.441  -6.490   7.405  1.00  0.00     0.167 HD
ATOM     58  C   UNL     1     -12.978  -6.206   5.030  1.00  0.00     0.074 A 
ATOM     59  C   UNL     1     -13.498  -5.676   3.786  1.00  0.00     0.031 C 
ATOM     60  C   UNL     1     -13.387  -7.370   5.593  1.00  0.00     0.031 A 
BRANCH  47  61
ATOM     61  C   UNL     1     -10.466  -8.823  10.846  1.00  0.00    -0.014 A 
ATOM     62  C   UNL     1     -10.877  -8.561  12.166  1.00  0.00     0.010 A 
ATOM     63  C   UNL     1      -9.843 -10.050  10.555  1.00  0.00     0.010 A 
ATOM     64  C   UNL     1     -10.617  -9.482  13.184  1.00  0.00     0.020 A 
ATOM     65  C   UNL     1      -9.609 -10.988  11.565  1.00  0.00     0.020 A 
ATOM     66  C   UNL     1      -9.978 -10.687  12.878  1.00  0.00     0.054 A 
BRANCH  66  67
ATOM     67  S   UNL     1      -9.656 -11.867  14.217  1.00  0.00     0.124 S 
ATOM     68  O   UNL     1      -8.520 -11.248  14.895  1.00  0.00    -0.237 OA
ATOM     69  O   UNL     1     -10.912 -11.858  14.963  1.00  0.00    -0.237 OA
ATOM     70  O   UNL     1      -9.360 -13.114  13.515  1.00  0.00    -0.744 OA
ENDBRANCH  66  67
ENDBRANCH  47  61
BRANCH  48  71
ATOM     71  C   UNL     1     -11.294  -2.085   3.497  1.00  0.00    -0.014 A 
ATOM     72  C   UNL     1     -12.450  -1.292   3.388  1.00  0.00     0.010 A 
ATOM     73  C   UNL     1     -10.252  -1.907   2.569  1.00  0.00     0.010 A 
ATOM     74  C   UNL     1     -12.568  -0.347   2.365  1.00  0.00     0.020 A 
ATOM     75  C   UNL     1     -10.357  -0.947   1.558  1.00  0.00     0.020 A 
ATOM     76  C   UNL     1     -11.519  -0.179   1.457  1.00  0.00     0.054 A 
BRANCH  76  77
ATOM     77  S   UNL     1     -11.670   1.097   0.175  1.00  0.00     0.124 S 
ATOM     78  O   UNL     1     -12.610   0.481  -0.756  1.00  0.00    -0.237 OA
ATOM     79  O   UNL     1     -12.180   2.241   0.926  1.00  0.00    -0.237 OA
ATOM     80  O   UNL     1     -10.303   1.246  -0.319  1.00  0.00    -0.744 OA
ENDBRANCH  76  77
ENDBRANCH  48  71
BRANCH  60  81
ATOM     81  C   UNL     1     -14.484  -8.129   4.900  1.00  0.00    -0.014 A 
ATOM     82  C   UNL     1     -14.233  -8.868   3.732  1.00  0.00     0.010 A 
ATOM     83  C   UNL     1     -15.766  -8.166   5.479  1.00  0.00     0.010 A 
ATOM     84  C   UNL     1     -15.254  -9.620   3.144  1.00  0.00     0.020 A 
ATOM     85  C   UNL     1     -16.781  -8.935   4.907  1.00  0.00     0.020 A 
ATOM     86  C   UNL     1     -16.521  -9.651   3.736  1.00  0.00     0.054 A 
BRANCH  86  87
ATOM     87  S   UNL     1     -17.810 -10.688   2.993  1.00  0.00     0.124 S 
ATOM     88  O   UNL     1     -18.200  -9.898   1.829  1.00  0.00    -0.237 OA
ATOM     89  O   UNL     1     -17.096 -11.928   2.701  1.00  0.00    -0.237 OA
ATOM     90  O   UNL     1     -18.820 -10.790   4.044  1.00  0.00    -0.744 OA
ENDBRANCH  86  87
ENDBRANCH  60  81
ENDBRANCH  34  35
ENDBRANCH  26  29
ENDBRANCH  24  25
ENDBRANCH  23  24
ENDBRANCH  22  23
ENDBRANCH   3  22
TORSDOF 19
