REMARK SMILES O=C(C[C@H]1N=NC(=O)c2ccccc21)N[C@@H](CC1=c2ccccc2=NC1)C(=O)NCCCNC(=O)c1ccc(-c2c3nc(c(-c4ccc(S(=O)(=O)[O-])cc4)c4ccc([nH]4)c(-c4ccc(S(=O)(=O)[O-])cc4)c4nc(c(-c5ccc(S(=O)(=O)[O-])cc5)c5ccc2[nH]5)C=C4)C=C3)cc1
REMARK SMILES IDX 31 1 30 2 29 3 27 4 28 5 16 7 15 8 1 9 2 10 3 12 4 13 5 14
REMARK SMILES IDX 14 15 6 16 9 17 13 18 7 19 10 20 12 21 8 22 11 23 17 24
REMARK SMILES IDX 18 25 19 26 26 27 20 28 24 29 25 30 21 31 23 32 22 33 32 34
REMARK SMILES IDX 33 35 34 36 35 38 36 39 37 40 95 41 38 42 94 43 39 44 40 45
REMARK SMILES IDX 41 46 88 47 42 48 93 49 87 50 89 51 43 52 92 53 86 54 85 55
REMARK SMILES IDX 44 57 74 58 55 59 73 60 56 61 59 62 72 63 90 64 57 65 58 66
REMARK SMILES IDX 71 68 91 69 60 70 45 71 46 72 54 73 47 74 53 75 48 76 49 77
REMARK SMILES IDX 50 78 51 79 52 80 75 81 76 82 84 83 77 84 83 85 78 86 79 87
REMARK SMILES IDX 80 88 81 89 82 90 61 91 62 92 70 93 63 94 69 95 64 96 65 97
REMARK SMILES IDX 66 98 67 99 68 100
REMARK H PARENT 29 6 15 11 33 37 89 56 59 67
REMARK Flexibility Score: inf
ROOT
ATOM      1  C   UNL     1       2.355   3.752   0.366  1.00  0.00     0.042 C 
ENDROOT
BRANCH   1   2
ATOM      2  C   UNL     1       2.369   4.622  -0.891  1.00  0.00     0.117 C 
BRANCH   2   3
ATOM      3  N   UNL     1       3.274   4.217  -2.000  1.00  0.00    -0.354 N 
ATOM      4  C   UNL     1       3.244   3.725  -3.276  1.00  0.00     0.242 C 
ATOM      5  O   UNL     1       4.054   4.335  -4.004  1.00  0.00    -0.273 OA
ATOM      6  H   UNL     1       4.209   4.348  -1.722  1.00  0.00     0.163 HD
BRANCH   4   7
ATOM      7  C   UNL     1       2.474   2.487  -3.947  1.00  0.00     0.175 C 
BRANCH   7   8
ATOM      8  N   UNL     1       2.772   1.196  -3.310  1.00  0.00    -0.344 N 
ATOM      9  O   UNL     1       4.201   0.383  -4.911  1.00  0.00    -0.275 OA
ATOM     10  C   UNL     1       3.566   0.220  -3.873  1.00  0.00     0.223 C 
ATOM     11  H   UNL     1       2.380   1.017  -2.424  1.00  0.00     0.164 HD
BRANCH  10  12
ATOM     12  C   UNL     1       3.518  -1.142  -3.192  1.00  0.00     0.134 C 
BRANCH  12  13
ATOM     13  C   UNL     1       4.306  -1.355  -1.883  1.00  0.00     0.169 C 
ATOM     14  N   UNL     1       5.072  -2.614  -2.013  1.00  0.00    -0.177 NA
ATOM     15  C   UNL     1       5.138  -0.205  -1.424  1.00  0.00    -0.008 A 
ATOM     16  N   UNL     1       6.312  -2.638  -2.183  1.00  0.00    -0.111 NA
ATOM     17  C   UNL     1       6.502  -0.230  -1.677  1.00  0.00     0.049 A 
ATOM     18  C   UNL     1       4.584   0.913  -0.803  1.00  0.00     0.007 A 
ATOM     19  C   UNL     1       7.101  -1.500  -2.138  1.00  0.00     0.295 C 
ATOM     20  C   UNL     1       7.287   0.908  -1.461  1.00  0.00     0.014 A 
ATOM     21  C   UNL     1       5.366   2.045  -0.584  1.00  0.00     0.000 A 
ATOM     22  O   UNL     1       8.293  -1.508  -2.398  1.00  0.00    -0.265 OA
ATOM     23  C   UNL     1       6.705   2.061  -0.946  1.00  0.00     0.001 A 
ENDBRANCH  12  13
ENDBRANCH  10  12
ENDBRANCH   7   8
BRANCH   7  24
ATOM     24  C   UNL     1       0.989   2.531  -4.533  1.00  0.00     0.068 C 
BRANCH  24  25
ATOM     25  C   UNL     1      -0.245   2.580  -3.590  1.00  0.00    -0.037 C 
ATOM     26  C   UNL     1      -0.885   1.530  -3.018  1.00  0.00     0.001 A 
ATOM     27  C   UNL     1       0.131   3.449  -2.465  1.00  0.00     0.174 C 
ATOM     28  C   UNL     1      -2.154   1.628  -2.243  1.00  0.00     0.010 A 
ATOM     29  C   UNL     1       0.142   1.366  -1.943  1.00  0.00     0.065 A 
ATOM     30  N   UNL     1       0.785   2.441  -1.585  1.00  0.00    -0.280 NA
ATOM     31  C   UNL     1      -2.248   0.948  -1.074  1.00  0.00     0.001 A 
ATOM     32  C   UNL     1       0.047   0.128  -1.169  1.00  0.00     0.028 A 
ATOM     33  C   UNL     1      -1.198   0.002  -0.681  1.00  0.00     0.002 A 
ENDBRANCH  24  25
ENDBRANCH   7  24
ENDBRANCH   4   7
ENDBRANCH   2   3
ENDBRANCH   1   2
BRANCH   1  34
ATOM     34  C   UNL     1       3.072   4.437   1.520  1.00  0.00     0.118 C 
BRANCH  34  35
ATOM     35  N   UNL     1       2.188   5.389   2.188  1.00  0.00    -0.352 N 
ATOM     36  C   UNL     1       1.345   5.205   3.263  1.00  0.00     0.251 C 
ATOM     37  H   UNL     1       2.195   6.300   1.814  1.00  0.00     0.163 HD
ATOM     38  O   UNL     1       0.426   5.999   3.450  1.00  0.00    -0.269 OA
BRANCH  36  39
ATOM     39  C   UNL     1       1.535   4.056   4.178  1.00  0.00     0.039 A 
ATOM     40  C   UNL     1       2.817   3.602   4.480  1.00  0.00     0.014 A 
ATOM     41  C   UNL     1       0.430   3.447   4.782  1.00  0.00     0.014 A 
ATOM     42  C   UNL     1       2.989   2.431   5.201  1.00  0.00     0.010 A 
ATOM     43  C   UNL     1       0.616   2.353   5.636  1.00  0.00     0.010 A 
ATOM     44  C   UNL     1       1.897   1.812   5.826  1.00  0.00    -0.014 A 
BRANCH  44  45
ATOM     45  C   UNL     1       2.143   0.658   6.731  1.00  0.00     0.031 A 
ATOM     46  C   UNL     1       1.514  -0.683   6.473  1.00  0.00     0.074 A 
ATOM     47  C   UNL     1       2.982   0.823   7.777  1.00  0.00     0.049 A 
ATOM     48  N   UNL     1       1.625  -1.785   7.168  1.00  0.00    -0.248 NA
ATOM     49  C   UNL     1       0.644  -0.808   5.292  1.00  0.00     0.031 C 
ATOM     50  C   UNL     1       3.673   2.074   8.107  1.00  0.00     0.029 A 
ATOM     51  N   UNL     1       3.430  -0.058   8.729  1.00  0.00    -0.354 N 
ATOM     52  C   UNL     1       0.818  -2.722   6.534  1.00  0.00     0.074 A 
ATOM     53  C   UNL     1       0.204  -2.055   5.407  1.00  0.00     0.031 C 
ATOM     54  C   UNL     1       4.519   1.857   9.121  1.00  0.00     0.029 A 
ATOM     55  C   UNL     1       4.349   0.489   9.595  1.00  0.00     0.049 A 
ATOM     56  H   UNL     1       3.123  -0.991   8.787  1.00  0.00     0.167 HD
ATOM     57  C   UNL     1       0.615  -4.019   6.866  1.00  0.00     0.031 A 
ATOM     58  C   UNL     1       4.973  -0.030  10.671  1.00  0.00     0.031 A 
ATOM     59  C   UNL     1       1.258  -4.669   7.980  1.00  0.00     0.049 A 
ATOM     60  C   UNL     1       4.682  -1.448  11.054  1.00  0.00     0.074 A 
ATOM     61  C   UNL     1       1.156  -5.993   8.367  1.00  0.00     0.029 A 
ATOM     62  N   UNL     1       2.111  -4.053   8.885  1.00  0.00    -0.354 N 
ATOM     63  N   UNL     1       3.934  -2.325  10.428  1.00  0.00    -0.248 NA
ATOM     64  C   UNL     1       5.297  -1.947  12.290  1.00  0.00     0.031 C 
ATOM     65  C   UNL     1       1.869  -6.155   9.556  1.00  0.00     0.029 A 
ATOM     66  C   UNL     1       2.495  -4.956   9.862  1.00  0.00     0.049 A 
ATOM     67  H   UNL     1       2.401  -3.113   8.839  1.00  0.00     0.167 HD
ATOM     68  C   UNL     1       3.989  -3.483  11.191  1.00  0.00     0.074 A 
ATOM     69  C   UNL     1       4.865  -3.203  12.312  1.00  0.00     0.031 C 
ATOM     70  C   UNL     1       3.360  -4.664  10.982  1.00  0.00     0.031 A 
BRANCH  57  71
ATOM     71  C   UNL     1      -0.352  -4.835   6.042  1.00  0.00    -0.014 A 
ATOM     72  C   UNL     1      -1.524  -5.333   6.646  1.00  0.00     0.010 A 
ATOM     73  C   UNL     1      -0.055  -5.215   4.721  1.00  0.00     0.010 A 
ATOM     74  C   UNL     1      -2.363  -6.215   5.960  1.00  0.00     0.020 A 
ATOM     75  C   UNL     1      -0.911  -6.071   4.018  1.00  0.00     0.020 A 
ATOM     76  C   UNL     1      -2.047  -6.583   4.651  1.00  0.00     0.054 A 
BRANCH  76  77
ATOM     77  S   UNL     1      -3.139  -7.742   3.780  1.00  0.00     0.124 S 
ATOM     78  O   UNL     1      -2.823  -9.011   4.428  1.00  0.00    -0.237 OA
ATOM     79  O   UNL     1      -4.466  -7.199   4.061  1.00  0.00    -0.237 OA
ATOM     80  O   UNL     1      -2.714  -7.627   2.386  1.00  0.00    -0.744 OA
ENDBRANCH  76  77
ENDBRANCH  57  71
BRANCH  58  81
ATOM     81  C   UNL     1       5.935   0.824  11.424  1.00  0.00    -0.014 A 
ATOM     82  C   UNL     1       5.493   1.990  12.080  1.00  0.00     0.010 A 
ATOM     83  C   UNL     1       7.314   0.561  11.357  1.00  0.00     0.010 A 
ATOM     84  C   UNL     1       6.411   2.925  12.562  1.00  0.00     0.020 A 
ATOM     85  C   UNL     1       8.236   1.477  11.874  1.00  0.00     0.020 A 
ATOM     86  C   UNL     1       7.779   2.673  12.433  1.00  0.00     0.054 A 
BRANCH  86  87
ATOM     87  S   UNL     1       8.949   3.958  12.953  1.00  0.00     0.124 S 
ATOM     88  O   UNL     1       8.765   4.967  11.913  1.00  0.00    -0.237 OA
ATOM     89  O   UNL     1       8.454   4.321  14.278  1.00  0.00    -0.237 OA
ATOM     90  O   UNL     1      10.239   3.273  12.938  1.00  0.00    -0.744 OA
ENDBRANCH  86  87
ENDBRANCH  58  81
BRANCH  70  91
ATOM     91  C   UNL     1       3.557  -5.763  11.993  1.00  0.00    -0.014 A 
ATOM     92  C   UNL     1       4.209  -6.953  11.617  1.00  0.00     0.010 A 
ATOM     93  C   UNL     1       2.946  -5.685  13.258  1.00  0.00     0.010 A 
ATOM     94  C   UNL     1       4.188  -8.067  12.458  1.00  0.00     0.020 A 
ATOM     95  C   UNL     1       2.955  -6.787  14.117  1.00  0.00     0.020 A 
ATOM     96  C   UNL     1       3.544  -7.981  13.695  1.00  0.00     0.054 A 
BRANCH  96  97
ATOM     97  S   UNL     1       3.449  -9.467  14.731  1.00  0.00     0.124 S 
ATOM     98  O   UNL     1       2.495 -10.293  13.996  1.00  0.00    -0.237 OA
ATOM     99  O   UNL     1       4.829  -9.945  14.730  1.00  0.00    -0.237 OA
ATOM    100  O   UNL     1       2.973  -8.960  16.017  1.00  0.00    -0.744 OA
ENDBRANCH  96  97
ENDBRANCH  70  91
ENDBRANCH  44  45
ENDBRANCH  36  39
ENDBRANCH  34  35
ENDBRANCH   1  34
TORSDOF 18
