REMARK SMILES C[C@@H](C(=O)NCCCNC(=O)c1ccc(-c2c3nc(c(-c4ccc(S(=O)(=O)[O-])cc4)c4ccc([nH]4)c(-c4ccc(S(=O)(=O)[O-])cc4)c4nc(c(-c5ccc(S(=O)(=O)[O-])cc5)c5ccc2[nH]5)C=C4)C=C3)cc1)c1ccc(-c2cccc(OC(=O)NC3CC3)c2)c(F)c1
REMARK SMILES IDX 6 1 5 2 3 3 4 4 2 6 1 7 72 8 73 9 91 10 74 11 89 12 75 13
REMARK SMILES IDX 90 14 76 15 77 16 88 17 78 18 80 19 79 20 81 21 82 22 83 23
REMARK SMILES IDX 84 24 85 26 86 27 87 28 7 29 8 30 9 31 10 32 11 34 12 35
REMARK SMILES IDX 13 36 71 37 14 38 70 39 15 40 16 41 17 42 64 43 18 44 69 45
REMARK SMILES IDX 63 46 65 47 19 48 68 49 62 50 61 51 20 53 50 54 31 55 49 56
REMARK SMILES IDX 32 57 35 58 48 59 66 60 33 61 34 62 47 64 67 65 36 66 21 67
REMARK SMILES IDX 22 68 30 69 23 70 29 71 24 72 25 73 26 74 27 75 28 76 51 77
REMARK SMILES IDX 52 78 60 79 53 80 59 81 54 82 55 83 56 84 57 85 58 86 37 87
REMARK SMILES IDX 38 88 46 89 39 90 45 91 40 92 41 93 42 94 43 95 44 96
REMARK H PARENT 5 5 84 25 9 33 65 52 35 63
REMARK Flexibility Score: inf
ROOT
ATOM      1  C   UNL     1       3.632   0.978   1.536  1.00  0.00     0.117 C 
ENDROOT
BRANCH   1   2
ATOM      2  N   UNL     1       2.640   2.029   1.621  1.00  0.00    -0.356 N 
ATOM      3  C   UNL     1       1.312   2.035   1.317  1.00  0.00     0.227 C 
ATOM      4  O   UNL     1       0.791   3.151   1.316  1.00  0.00    -0.274 OA
ATOM      5  H   UNL     1       2.985   2.888   1.957  1.00  0.00     0.163 HD
BRANCH   3   6
ATOM      6  C   UNL     1       0.574   0.712   1.037  1.00  0.00     0.105 C 
ATOM      7  C   UNL     1       0.942   0.134  -0.333  1.00  0.00     0.023 C 
BRANCH   6   8
ATOM      8  C   UNL     1      -0.953   0.724   1.143  1.00  0.00    -0.033 A 
ATOM      9  C   UNL     1      -1.743   1.875   1.032  1.00  0.00     0.005 A 
ATOM     10  C   UNL     1      -1.619  -0.506   1.282  1.00  0.00     0.044 A 
ATOM     11  C   UNL     1      -3.138   1.809   1.092  1.00  0.00     0.012 A 
ATOM     12  C   UNL     1      -3.011  -0.569   1.311  1.00  0.00     0.131 A 
ATOM     13  C   UNL     1      -3.799   0.585   1.231  1.00  0.00     0.018 A 
ATOM     14  F   UNL     1      -3.585  -1.778   1.419  1.00  0.00    -0.206 F 
BRANCH  13  15
ATOM     15  C   UNL     1      -5.257   0.551   1.372  1.00  0.00    -0.012 A 
ATOM     16  C   UNL     1      -6.106   1.195   0.456  1.00  0.00     0.009 A 
ATOM     17  C   UNL     1      -5.827  -0.068   2.494  1.00  0.00     0.056 A 
ATOM     18  C   UNL     1      -7.486   1.231   0.664  1.00  0.00     0.004 A 
ATOM     19  C   UNL     1      -7.198  -0.024   2.705  1.00  0.00     0.133 A 
ATOM     20  C   UNL     1      -8.033   0.625   1.794  1.00  0.00     0.047 A 
BRANCH  19  21
ATOM     21  O   UNL     1      -7.844  -0.595   3.827  1.00  0.00    -0.410 OA
BRANCH  21  22
ATOM     22  C   UNL     1      -7.250  -1.375   4.814  1.00  0.00     0.412 C 
ATOM     23  O   UNL     1      -6.056  -1.637   4.921  1.00  0.00    -0.224 OA
ATOM     24  N   UNL     1      -8.137  -1.889   5.722  1.00  0.00    -0.318 N 
ATOM     25  H   UNL     1      -7.744  -2.487   6.398  1.00  0.00     0.167 HD
BRANCH  24  26
ATOM     26  C   UNL     1      -9.542  -1.688   5.837  1.00  0.00     0.085 C 
ATOM     27  C   UNL     1     -10.498  -1.312   4.742  1.00  0.00     0.027 C 
ATOM     28  C   UNL     1     -10.464  -2.722   5.243  1.00  0.00     0.027 C 
ENDBRANCH  24  26
ENDBRANCH  21  22
ENDBRANCH  19  21
ENDBRANCH  13  15
ENDBRANCH   6   8
ENDBRANCH   3   6
ENDBRANCH   1   2
BRANCH   1  29
ATOM     29  C   UNL     1       4.479   1.116   0.272  1.00  0.00     0.042 C 
BRANCH  29  30
ATOM     30  C   UNL     1       5.172   2.466   0.125  1.00  0.00     0.118 C 
BRANCH  30  31
ATOM     31  N   UNL     1       6.111   2.733   1.202  1.00  0.00    -0.352 N 
ATOM     32  C   UNL     1       7.468   2.935   1.149  1.00  0.00     0.251 C 
ATOM     33  H   UNL     1       5.716   2.775   2.103  1.00  0.00     0.163 HD
ATOM     34  O   UNL     1       8.121   2.939   2.188  1.00  0.00    -0.269 OA
BRANCH  32  35
ATOM     35  C   UNL     1       8.141   3.124  -0.154  1.00  0.00     0.039 A 
ATOM     36  C   UNL     1       9.350   2.467  -0.390  1.00  0.00     0.014 A 
ATOM     37  C   UNL     1       7.590   3.952  -1.137  1.00  0.00     0.014 A 
ATOM     38  C   UNL     1       9.974   2.591  -1.633  1.00  0.00     0.010 A 
ATOM     39  C   UNL     1       8.168   4.007  -2.402  1.00  0.00     0.010 A 
ATOM     40  C   UNL     1       9.370   3.331  -2.663  1.00  0.00    -0.014 A 
BRANCH  40  41
ATOM     41  C   UNL     1       9.977   3.405  -4.017  1.00  0.00     0.031 A 
ATOM     42  C   UNL     1      10.430   4.728  -4.575  1.00  0.00     0.074 A 
ATOM     43  C   UNL     1      10.066   2.289  -4.769  1.00  0.00     0.049 A 
ATOM     44  N   UNL     1      10.934   4.996  -5.752  1.00  0.00    -0.248 NA
ATOM     45  C   UNL     1      10.277   5.907  -3.706  1.00  0.00     0.031 C 
ATOM     46  C   UNL     1       9.628   0.953  -4.357  1.00  0.00     0.029 A 
ATOM     47  N   UNL     1      10.551   2.100  -6.039  1.00  0.00    -0.354 N 
ATOM     48  C   UNL     1      11.143   6.371  -5.771  1.00  0.00     0.074 A 
ATOM     49  C   UNL     1      10.662   6.888  -4.509  1.00  0.00     0.031 C 
ATOM     50  C   UNL     1       9.890   0.080  -5.343  1.00  0.00     0.029 A 
ATOM     51  C   UNL     1      10.468   0.798  -6.474  1.00  0.00     0.049 A 
ATOM     52  H   UNL     1      10.922   2.829  -6.588  1.00  0.00     0.167 HD
ATOM     53  C   UNL     1      11.702   7.132  -6.743  1.00  0.00     0.031 A 
ATOM     54  C   UNL     1      10.808   0.243  -7.654  1.00  0.00     0.031 A 
ATOM     55  C   UNL     1      12.181   6.612  -7.997  1.00  0.00     0.049 A 
ATOM     56  C   UNL     1      11.402   1.113  -8.728  1.00  0.00     0.074 A 
ATOM     57  C   UNL     1      12.810   7.292  -9.025  1.00  0.00     0.029 A 
ATOM     58  N   UNL     1      12.078   5.288  -8.398  1.00  0.00    -0.354 N 
ATOM     59  N   UNL     1      11.656   2.400  -8.699  1.00  0.00    -0.248 NA
ATOM     60  C   UNL     1      11.768   0.454  -9.989  1.00  0.00     0.031 C 
ATOM     61  C   UNL     1      13.029   6.393 -10.073  1.00  0.00     0.029 A 
ATOM     62  C   UNL     1      12.604   5.137  -9.670  1.00  0.00     0.049 A 
ATOM     63  H   UNL     1      11.689   4.562  -7.858  1.00  0.00     0.167 HD
ATOM     64  C   UNL     1      12.238   2.698  -9.927  1.00  0.00     0.074 A 
ATOM     65  C   UNL     1      12.313   1.455 -10.666  1.00  0.00     0.031 C 
ATOM     66  C   UNL     1      12.673   3.893 -10.397  1.00  0.00     0.031 A 
BRANCH  53  67
ATOM     67  C   UNL     1      11.814   8.614  -6.492  1.00  0.00    -0.014 A 
ATOM     68  C   UNL     1      12.689   9.125  -5.516  1.00  0.00     0.010 A 
ATOM     69  C   UNL     1      11.067   9.514  -7.274  1.00  0.00     0.010 A 
ATOM     70  C   UNL     1      12.781  10.502  -5.296  1.00  0.00     0.020 A 
ATOM     71  C   UNL     1      11.180  10.894  -7.081  1.00  0.00     0.020 A 
ATOM     72  C   UNL     1      12.024  11.378  -6.080  1.00  0.00     0.054 A 
BRANCH  72  73
ATOM     73  S   UNL     1      12.182  13.161  -5.788  1.00  0.00     0.124 S 
ATOM     74  O   UNL     1      11.514  13.315  -4.498  1.00  0.00    -0.237 OA
ATOM     75  O   UNL     1      13.630  13.354  -5.771  1.00  0.00    -0.237 OA
ATOM     76  O   UNL     1      11.489  13.763  -6.923  1.00  0.00    -0.744 OA
ENDBRANCH  72  73
ENDBRANCH  53  67
BRANCH  54  77
ATOM     77  C   UNL     1      10.600  -1.215  -7.878  1.00  0.00    -0.014 A 
ATOM     78  C   UNL     1      11.697  -2.087  -7.994  1.00  0.00     0.010 A 
ATOM     79  C   UNL     1       9.297  -1.742  -7.964  1.00  0.00     0.010 A 
ATOM     80  C   UNL     1      11.496  -3.454  -8.213  1.00  0.00     0.020 A 
ATOM     81  C   UNL     1       9.093  -3.112  -8.150  1.00  0.00     0.020 A 
ATOM     82  C   UNL     1      10.195  -3.958  -8.286  1.00  0.00     0.054 A 
BRANCH  82  83
ATOM     83  S   UNL     1       9.960  -5.742  -8.519  1.00  0.00     0.124 S 
ATOM     84  O   UNL     1      10.371  -5.923  -9.908  1.00  0.00    -0.237 OA
ATOM     85  O   UNL     1      10.854  -6.310  -7.514  1.00  0.00    -0.237 OA
ATOM     86  O   UNL     1       8.536  -5.936  -8.256  1.00  0.00    -0.744 OA
ENDBRANCH  82  83
ENDBRANCH  54  77
BRANCH  66  87
ATOM     87  C   UNL     1      13.307   3.915 -11.764  1.00  0.00    -0.014 A 
ATOM     88  C   UNL     1      12.545   3.725 -12.930  1.00  0.00     0.010 A 
ATOM     89  C   UNL     1      14.683   4.189 -11.882  1.00  0.00     0.010 A 
ATOM     90  C   UNL     1      13.153   3.778 -14.187  1.00  0.00     0.020 A 
ATOM     91  C   UNL     1      15.288   4.275 -13.138  1.00  0.00     0.020 A 
ATOM     92  C   UNL     1      14.521   4.055 -14.283  1.00  0.00     0.054 A 
BRANCH  92  93
ATOM     93  S   UNL     1      15.274   4.165 -15.929  1.00  0.00     0.124 S 
ATOM     94  O   UNL     1      15.278   2.769 -16.356  1.00  0.00    -0.237 OA
ATOM     95  O   UNL     1      14.349   5.040 -16.646  1.00  0.00    -0.237 OA
ATOM     96  O   UNL     1      16.592   4.740 -15.670  1.00  0.00    -0.744 OA
ENDBRANCH  92  93
ENDBRANCH  66  87
ENDBRANCH  40  41
ENDBRANCH  32  35
ENDBRANCH  30  31
ENDBRANCH  29  30
ENDBRANCH   1  29
TORSDOF 18
