REMARK SMILES Cc1ccccc1C(=O)Nc1cc(C(=O)NCCCNC(=O)c2ccc(-c3c4nc(c(-c5ccc(S(=O)(=O)[O-])cc5)c5ccc([nH]5)c(-c5ccc(S(=O)(=O)[O-])cc5)c5nc(c(-c6ccc(S(=O)(=O)[O-])cc6)c6ccc3[nH]6)C=C5)C=C4)cc2)ccc1N1CC[NH+](CC(=O)Nc2ccc(F)cc2)CC1
REMARK SMILES IDX 17 1 16 2 14 3 15 4 13 6 11 7 12 8 85 9 84 10 83 11 10 12
REMARK SMILES IDX 8 13 9 14 7 16 1 17 2 18 3 19 4 20 6 21 5 22 86 23 87 24
REMARK SMILES IDX 102 25 88 26 101 27 89 28 90 30 91 31 92 32 93 33 94 35
REMARK SMILES IDX 95 36 100 37 96 38 99 39 97 40 98 41 18 42 19 43 20 44 21 45
REMARK SMILES IDX 22 47 23 48 24 49 82 50 25 51 81 52 26 53 27 54 28 55 75 56
REMARK SMILES IDX 29 57 80 58 74 59 76 60 30 61 79 62 73 63 72 64 31 66 61 67
REMARK SMILES IDX 42 68 60 69 43 70 46 71 59 72 77 73 44 74 45 75 58 77 78 78
REMARK SMILES IDX 47 79 32 80 33 81 41 82 34 83 40 84 35 85 36 86 37 87 38 88
REMARK SMILES IDX 39 89 62 90 63 91 71 92 64 93 70 94 65 95 66 96 67 97 68 98
REMARK SMILES IDX 69 99 48 100 49 101 57 102 50 103 56 104 51 105 52 106
REMARK SMILES IDX 53 107 54 108 55 109
REMARK H PARENT 16 5 10 15 89 29 93 34 20 46 76 65 46 76
REMARK Flexibility Score: inf
ROOT
ATOM      1  C   UNL     1       0.966  -0.677  -2.148  1.00  0.00     0.118 C 
ENDROOT
BRANCH   1   2
ATOM      2  N   UNL     1       2.127  -1.561  -2.519  1.00  0.00    -0.352 N 
ATOM      3  C   UNL     1       3.461  -1.711  -2.188  1.00  0.00     0.251 C 
ATOM      4  O   UNL     1       4.122  -2.705  -2.482  1.00  0.00    -0.269 OA
ATOM      5  H   UNL     1       1.859  -2.226  -3.193  1.00  0.00     0.163 HD
BRANCH   3   6
ATOM      6  C   UNL     1       4.125  -0.640  -1.437  1.00  0.00     0.042 A 
ATOM      7  C   UNL     1       3.760   1.508  -0.529  1.00  0.00     0.065 A 
ATOM      8  C   UNL     1       3.535   0.598  -1.517  1.00  0.00     0.042 A 
ATOM      9  C   UNL     1       4.957   1.447   0.228  1.00  0.00     0.061 A 
ATOM     10  C   UNL     1       5.695   0.250   0.158  1.00  0.00     0.029 A 
ATOM     11  C   UNL     1       5.238  -0.828  -0.615  1.00  0.00     0.016 A 
BRANCH   7  12
ATOM     12  N   UNL     1       2.810   2.528  -0.395  1.00  0.00    -0.320 N 
ATOM     13  C   UNL     1       1.511   2.510   0.118  1.00  0.00     0.255 C 
ATOM     14  O   UNL     1       1.030   3.629   0.358  1.00  0.00    -0.269 OA
ATOM     15  H   UNL     1       3.109   3.409  -0.718  1.00  0.00     0.170 HD
BRANCH  13  16
ATOM     16  C   UNL     1       0.611   1.332   0.429  1.00  0.00     0.043 A 
ATOM     17  C   UNL     1       2.199  -0.302   1.666  1.00  0.00     0.045 C 
ATOM     18  C   UNL     1       0.886   0.103   1.071  1.00  0.00    -0.038 A 
ATOM     19  C   UNL     1      -0.118  -0.909   1.099  1.00  0.00     0.004 A 
ATOM     20  C   UNL     1      -1.393  -0.699   0.580  1.00  0.00     0.000 A 
ATOM     21  C   UNL     1      -0.725   1.540  -0.003  1.00  0.00     0.014 A 
ATOM     22  C   UNL     1      -1.708   0.543   0.059  1.00  0.00     0.001 A 
ENDBRANCH  13  16
ENDBRANCH   7  12
BRANCH   9  23
ATOM     23  N   UNL     1       5.354   2.503   1.027  1.00  0.00    -0.359 N 
ATOM     24  C   UNL     1       6.738   2.745   1.487  1.00  0.00     0.178 C 
ATOM     25  C   UNL     1       4.356   3.094   1.895  1.00  0.00     0.178 C 
ATOM     26  C   UNL     1       6.926   4.214   2.026  1.00  0.00     0.284 C 
ATOM     27  C   UNL     1       4.592   4.606   1.890  1.00  0.00     0.284 C 
ATOM     28  N   UNL     1       5.784   4.913   2.661  1.00  0.00    -0.324 N 
ATOM     29  H   UNL     1       6.060   5.894   2.626  1.00  0.00     0.348 HD
BRANCH  28  30
ATOM     30  C   UNL     1       5.549   4.826   4.122  1.00  0.00     0.364 C 
BRANCH  30  31
ATOM     31  C   UNL     1       5.191   3.487   4.777  1.00  0.00     0.279 C 
ATOM     32  O   UNL     1       6.120   2.717   5.078  1.00  0.00    -0.268 OA
ATOM     33  N   UNL     1       3.949   3.054   5.169  1.00  0.00    -0.321 N 
ATOM     34  H   UNL     1       4.061   2.348   5.846  1.00  0.00     0.170 HD
BRANCH  33  35
ATOM     35  C   UNL     1       2.560   3.260   4.949  1.00  0.00     0.041 A 
ATOM     36  C   UNL     1       1.700   2.534   5.797  1.00  0.00     0.029 A 
ATOM     37  C   UNL     1       1.940   3.979   3.933  1.00  0.00     0.029 A 
ATOM     38  C   UNL     1       0.305   2.530   5.630  1.00  0.00     0.041 A 
ATOM     39  C   UNL     1       0.547   3.937   3.716  1.00  0.00     0.041 A 
ATOM     40  C   UNL     1      -0.262   3.223   4.576  1.00  0.00     0.123 A 
ATOM     41  F   UNL     1      -1.589   3.204   4.394  1.00  0.00    -0.207 F 
ENDBRANCH  33  35
ENDBRANCH  30  31
ENDBRANCH  28  30
ENDBRANCH   9  23
ENDBRANCH   3   6
ENDBRANCH   1   2
BRANCH   1  42
ATOM     42  C   UNL     1       0.295   0.476  -3.128  1.00  0.00     0.042 C 
BRANCH  42  43
ATOM     43  C   UNL     1      -1.200   0.144  -3.675  1.00  0.00     0.118 C 
BRANCH  43  44
ATOM     44  N   UNL     1      -2.064   0.792  -4.851  1.00  0.00    -0.352 N 
ATOM     45  C   UNL     1      -2.761   0.416  -6.095  1.00  0.00     0.251 C 
ATOM     46  H   UNL     1      -2.166   1.758  -4.694  1.00  0.00     0.163 HD
ATOM     47  O   UNL     1      -3.948   0.798  -6.113  1.00  0.00    -0.269 OA
BRANCH  45  48
ATOM     48  C   UNL     1      -2.358  -0.370  -7.422  1.00  0.00     0.039 A 
ATOM     49  C   UNL     1      -3.169  -1.396  -7.991  1.00  0.00     0.014 A 
ATOM     50  C   UNL     1      -1.207  -0.183  -8.154  1.00  0.00     0.014 A 
ATOM     51  C   UNL     1      -2.553  -2.558  -8.580  1.00  0.00     0.010 A 
ATOM     52  C   UNL     1      -0.606  -1.301  -8.798  1.00  0.00     0.010 A 
ATOM     53  C   UNL     1      -1.173  -2.586  -8.748  1.00  0.00    -0.014 A 
BRANCH  53  54
ATOM     54  C   UNL     1      -0.310  -3.845  -8.748  1.00  0.00     0.031 A 
ATOM     55  C   UNL     1       0.294  -4.301  -9.991  1.00  0.00     0.074 A 
ATOM     56  C   UNL     1       0.159  -4.591  -7.696  1.00  0.00     0.049 A 
ATOM     57  N   UNL     1       0.224  -5.506 -10.454  1.00  0.00    -0.248 NA
ATOM     58  C   UNL     1       1.089  -3.385 -10.787  1.00  0.00     0.031 C 
ATOM     59  C   UNL     1       1.112  -5.718  -7.584  1.00  0.00     0.029 A 
ATOM     60  N   UNL     1      -0.117  -4.430  -6.355  1.00  0.00    -0.354 N 
ATOM     61  C   UNL     1       1.232  -5.585 -11.390  1.00  0.00     0.074 A 
ATOM     62  C   UNL     1       1.546  -4.212 -11.724  1.00  0.00     0.031 C 
ATOM     63  C   UNL     1       0.959  -6.326  -6.381  1.00  0.00     0.029 A 
ATOM     64  C   UNL     1      -0.111  -5.642  -5.683  1.00  0.00     0.049 A 
ATOM     65  H   UNL     1      -0.297  -3.561  -5.928  1.00  0.00     0.167 HD
ATOM     66  C   UNL     1       1.927  -6.745 -11.588  1.00  0.00     0.031 A 
ATOM     67  C   UNL     1      -1.302  -6.111  -5.200  1.00  0.00     0.031 A 
ATOM     68  C   UNL     1       1.575  -7.781 -10.598  1.00  0.00     0.049 A 
ATOM     69  C   UNL     1      -1.745  -7.280  -6.010  1.00  0.00     0.074 A 
ATOM     70  C   UNL     1       2.285  -8.343  -9.544  1.00  0.00     0.029 A 
ATOM     71  N   UNL     1       0.245  -8.149 -10.395  1.00  0.00    -0.354 N 
ATOM     72  N   UNL     1      -1.147  -7.636  -7.106  1.00  0.00    -0.248 NA
ATOM     73  C   UNL     1      -2.866  -8.145  -5.680  1.00  0.00     0.031 C 
ATOM     74  C   UNL     1       1.359  -8.971  -8.666  1.00  0.00     0.029 A 
ATOM     75  C   UNL     1       0.089  -8.835  -9.201  1.00  0.00     0.049 A 
ATOM     76  H   UNL     1      -0.488  -7.948 -11.020  1.00  0.00     0.167 HD
ATOM     77  C   UNL     1      -1.723  -8.746  -7.621  1.00  0.00     0.074 A 
ATOM     78  C   UNL     1      -2.798  -9.038  -6.684  1.00  0.00     0.031 C 
ATOM     79  C   UNL     1      -1.232  -9.302  -8.765  1.00  0.00     0.031 A 
BRANCH  66  80
ATOM     80  C   UNL     1       3.174  -6.804 -12.463  1.00  0.00    -0.014 A 
ATOM     81  C   UNL     1       4.096  -7.861 -12.344  1.00  0.00     0.010 A 
ATOM     82  C   UNL     1       3.482  -5.844 -13.451  1.00  0.00     0.010 A 
ATOM     83  C   UNL     1       5.285  -7.904 -13.097  1.00  0.00     0.020 A 
ATOM     84  C   UNL     1       4.689  -5.832 -14.161  1.00  0.00     0.020 A 
ATOM     85  C   UNL     1       5.586  -6.873 -13.986  1.00  0.00     0.054 A 
BRANCH  85  86
ATOM     86  S   UNL     1       7.108  -6.939 -14.964  1.00  0.00     0.124 S 
ATOM     87  O   UNL     1       8.145  -7.018 -13.940  1.00  0.00    -0.237 OA
ATOM     88  O   UNL     1       6.913  -8.147 -15.761  1.00  0.00    -0.237 OA
ATOM     89  O   UNL     1       7.088  -5.690 -15.726  1.00  0.00    -0.744 OA
ENDBRANCH  85  86
ENDBRANCH  66  80
BRANCH  67  90
ATOM     90  C   UNL     1      -2.219  -5.055  -4.593  1.00  0.00    -0.014 A 
ATOM     91  C   UNL     1      -1.640  -4.402  -3.495  1.00  0.00     0.010 A 
ATOM     92  C   UNL     1      -2.854  -4.198  -5.479  1.00  0.00     0.010 A 
ATOM     93  C   UNL     1      -0.960  -3.205  -3.744  1.00  0.00     0.020 A 
ATOM     94  C   UNL     1      -2.319  -2.905  -5.597  1.00  0.00     0.020 A 
ATOM     95  C   UNL     1      -1.147  -2.549  -4.957  1.00  0.00     0.054 A 
BRANCH  95  96
ATOM     96  S   UNL     1       0.449  -1.528  -5.709  1.00  0.00     0.124 S 
ATOM     97  O   UNL     1       1.371  -1.772  -4.627  1.00  0.00    -0.237 OA
ATOM     98  O   UNL     1       0.975  -2.208  -6.883  1.00  0.00    -0.237 OA
ATOM     99  O   UNL     1       0.108  -0.148  -5.902  1.00  0.00    -0.744 OA
ENDBRANCH  95  96
ENDBRANCH  67  90
BRANCH  79 100
ATOM    100  C   UNL     1      -1.887 -10.414  -9.531  1.00  0.00    -0.014 A 
ATOM    101  C   UNL     1      -3.207 -10.840  -9.336  1.00  0.00     0.010 A 
ATOM    102  C   UNL     1      -1.160 -11.029 -10.577  1.00  0.00     0.010 A 
ATOM    103  C   UNL     1      -3.748 -11.887 -10.086  1.00  0.00     0.020 A 
ATOM    104  C   UNL     1      -1.709 -12.030 -11.374  1.00  0.00     0.020 A 
ATOM    105  C   UNL     1      -2.993 -12.477 -11.099  1.00  0.00     0.054 A 
BRANCH 105 106
ATOM    106  S   UNL     1      -3.730 -13.801 -12.075  1.00  0.00     0.124 S 
ATOM    107  O   UNL     1      -3.663 -14.929 -11.149  1.00  0.00    -0.237 OA
ATOM    108  O   UNL     1      -5.072 -13.290 -12.344  1.00  0.00    -0.237 OA
ATOM    109  O   UNL     1      -2.860 -13.898 -13.244  1.00  0.00    -0.744 OA
ENDBRANCH 105 106
ENDBRANCH  79 100
ENDBRANCH  53  54
ENDBRANCH  45  48
ENDBRANCH  43  44
ENDBRANCH  42  43
ENDBRANCH   1  42
TORSDOF 19
