REMARK SMILES N#C/C(=C\c1ccc(-c2cc(C(F)(F)F)ccc2Cl)o1)C(=O)NCCCNC(=O)c1ccc(-c2c3nc(c(-c4ccc(S(=O)(=O)[O-])cc4)c4ccc([nH]4)c(-c4ccc(S(=O)(=O)[O-])cc4)c4nc(c(-c5ccc(S(=O)(=O)[O-])cc5)c5ccc2[nH]5)C=C4)C=C3)cc1
REMARK SMILES IDX 25 1 24 2 23 3 21 4 22 5 3 7 4 8 2 9 1 10 5 11 6 12 20 13
REMARK SMILES IDX 7 14 8 15 9 16 10 17 18 18 11 19 17 20 19 21 16 22 12 23
REMARK SMILES IDX 13 24 14 25 15 26 26 27 27 28 28 29 29 31 30 32 31 33 89 34
REMARK SMILES IDX 32 35 88 36 33 37 34 38 35 39 82 40 36 41 87 42 81 43 83 44
REMARK SMILES IDX 37 45 86 46 80 47 79 48 38 50 68 51 49 52 67 53 50 54 53 55
REMARK SMILES IDX 66 56 84 57 51 58 52 59 65 61 85 62 54 63 39 64 40 65 48 66
REMARK SMILES IDX 41 67 47 68 42 69 43 70 44 71 45 72 46 73 69 74 70 75 78 76
REMARK SMILES IDX 71 77 77 78 72 79 73 80 74 81 75 82 76 83 55 84 56 85 64 86
REMARK SMILES IDX 57 87 63 88 58 89 59 90 60 91 61 92 62 93
REMARK H PARENT 23 6 27 30 83 49 53 60
REMARK Flexibility Score: inf
ROOT
ATOM      1  C   UNL     1       7.535   0.449  -0.348  1.00  0.00     0.042 C 
ENDROOT
BRANCH   1   2
ATOM      2  C   UNL     1       6.764  -0.174   0.814  1.00  0.00     0.118 C 
BRANCH   2   3
ATOM      3  N   UNL     1       5.710   0.706   1.288  1.00  0.00    -0.351 N 
ATOM      4  C   UNL     1       4.383   0.801   1.001  1.00  0.00     0.262 C 
ATOM      5  O   UNL     1       3.734   1.636   1.632  1.00  0.00    -0.268 OA
ATOM      6  H   UNL     1       6.018   1.367   1.949  1.00  0.00     0.163 HD
BRANCH   4   7
ATOM      7  C   UNL     1       3.699  -0.057   0.003  1.00  0.00     0.120 C 
ATOM      8  C   UNL     1       4.253  -0.805  -0.985  1.00  0.00     0.072 C 
BRANCH   7   9
ATOM      9  C   UNL     1       2.179  -0.057   0.003  1.00  0.00     0.105 C 
ATOM     10  N   UNL     1       0.918  -0.057   0.003  1.00  0.00    -0.192 NA
ENDBRANCH   7   9
BRANCH   8  11
ATOM     11  C   UNL     1       3.488  -1.590  -1.920  1.00  0.00     0.129 A 
ATOM     12  C   UNL     1       2.439  -1.207  -2.753  1.00  0.00     0.051 A 
ATOM     13  O   UNL     1       3.725  -2.937  -2.163  1.00  0.00    -0.457 OA
ATOM     14  C   UNL     1       2.002  -2.340  -3.470  1.00  0.00     0.051 A 
ATOM     15  C   UNL     1       2.836  -3.371  -3.108  1.00  0.00     0.136 A 
BRANCH  15  16
ATOM     16  C   UNL     1       2.934  -4.755  -3.564  1.00  0.00     0.036 A 
ATOM     17  C   UNL     1       2.772  -5.814  -2.650  1.00  0.00     0.026 A 
ATOM     18  C   UNL     1       3.087  -5.072  -4.928  1.00  0.00     0.052 A 
ATOM     19  C   UNL     1       2.734  -7.157  -3.081  1.00  0.00     0.056 A 
ATOM     20  C   UNL     1       3.064  -6.403  -5.362  1.00  0.00     0.022 A 
ATOM     21  Cl  UNL     1       3.312  -3.864  -6.147  1.00  0.00    -0.084 Cl
ATOM     22  C   UNL     1       2.883  -7.438  -4.447  1.00  0.00     0.014 A 
BRANCH  19  23
ATOM     23  C   UNL     1       2.516  -8.278  -2.091  1.00  0.00     0.416 C 
ATOM     24  F   UNL     1       3.519  -8.375  -1.177  1.00  0.00    -0.166 F 
ATOM     25  F   UNL     1       1.367  -8.127  -1.376  1.00  0.00    -0.166 F 
ATOM     26  F   UNL     1       2.426  -9.508  -2.674  1.00  0.00    -0.166 F 
ENDBRANCH  19  23
ENDBRANCH  15  16
ENDBRANCH   8  11
ENDBRANCH   4   7
ENDBRANCH   2   3
ENDBRANCH   1   2
BRANCH   1  27
ATOM     27  C   UNL     1       8.580   1.458   0.118  1.00  0.00     0.118 C 
BRANCH  27  28
ATOM     28  N   UNL     1       9.660   0.809   0.853  1.00  0.00    -0.352 N 
ATOM     29  C   UNL     1      11.013   0.825   0.614  1.00  0.00     0.251 C 
ATOM     30  H   UNL     1       9.378   0.283   1.635  1.00  0.00     0.163 HD
ATOM     31  O   UNL     1      11.743   0.030   1.189  1.00  0.00    -0.269 OA
BRANCH  29  32
ATOM     32  C   UNL     1      11.571   1.802  -0.342  1.00  0.00     0.039 A 
ATOM     33  C   UNL     1      12.537   1.386  -1.263  1.00  0.00     0.014 A 
ATOM     34  C   UNL     1      11.143   3.131  -0.316  1.00  0.00     0.014 A 
ATOM     35  C   UNL     1      13.031   2.294  -2.202  1.00  0.00     0.010 A 
ATOM     36  C   UNL     1      11.577   4.011  -1.296  1.00  0.00     0.010 A 
ATOM     37  C   UNL     1      12.530   3.604  -2.244  1.00  0.00    -0.014 A 
BRANCH  37  38
ATOM     38  C   UNL     1      12.982   4.594  -3.251  1.00  0.00     0.031 A 
ATOM     39  C   UNL     1      13.658   5.856  -2.791  1.00  0.00     0.074 A 
ATOM     40  C   UNL     1      12.665   4.424  -4.548  1.00  0.00     0.049 A 
ATOM     41  N   UNL     1      13.947   6.934  -3.471  1.00  0.00    -0.248 NA
ATOM     42  C   UNL     1      14.014   5.927  -1.364  1.00  0.00     0.031 C 
ATOM     43  C   UNL     1      11.982   3.256  -5.107  1.00  0.00     0.029 A 
ATOM     44  N   UNL     1      12.845   5.253  -5.626  1.00  0.00    -0.354 N 
ATOM     45  C   UNL     1      14.476   7.828  -2.547  1.00  0.00     0.074 A 
ATOM     46  C   UNL     1      14.431   7.179  -1.255  1.00  0.00     0.031 C 
ATOM     47  C   UNL     1      11.798   3.444  -6.423  1.00  0.00     0.029 A 
ATOM     48  C   UNL     1      12.302   4.764  -6.791  1.00  0.00     0.049 A 
ATOM     49  H   UNL     1      13.317   6.115  -5.571  1.00  0.00     0.167 HD
ATOM     50  C   UNL     1      14.961   9.075  -2.760  1.00  0.00     0.031 A 
ATOM     51  C   UNL     1      12.194   5.325  -8.011  1.00  0.00     0.031 A 
ATOM     52  C   UNL     1      15.010   9.701  -4.053  1.00  0.00     0.049 A 
ATOM     53  C   UNL     1      12.746   6.705  -8.233  1.00  0.00     0.074 A 
ATOM     54  C   UNL     1      15.545  10.930  -4.394  1.00  0.00     0.029 A 
ATOM     55  N   UNL     1      14.499   9.148  -5.219  1.00  0.00    -0.354 N 
ATOM     56  N   UNL     1      13.302   7.516  -7.364  1.00  0.00    -0.248 NA
ATOM     57  C   UNL     1      12.670   7.243  -9.598  1.00  0.00     0.031 C 
ATOM     58  C   UNL     1      15.307  11.144  -5.755  1.00  0.00     0.029 A 
ATOM     59  C   UNL     1      14.685  10.020  -6.277  1.00  0.00     0.049 A 
ATOM     60  H   UNL     1      14.068   8.265  -5.284  1.00  0.00     0.167 HD
ATOM     61  C   UNL     1      13.672   8.647  -8.082  1.00  0.00     0.074 A 
ATOM     62  C   UNL     1      13.275   8.417  -9.457  1.00  0.00     0.031 C 
ATOM     63  C   UNL     1      14.292   9.769  -7.642  1.00  0.00     0.031 A 
BRANCH  50  64
ATOM     64  C   UNL     1      15.441   9.845  -1.557  1.00  0.00    -0.014 A 
ATOM     65  C   UNL     1      16.577   9.443  -0.831  1.00  0.00     0.010 A 
ATOM     66  C   UNL     1      14.737  10.991  -1.141  1.00  0.00     0.010 A 
ATOM     67  C   UNL     1      16.955  10.125   0.329  1.00  0.00     0.020 A 
ATOM     68  C   UNL     1      15.133  11.697  -0.002  1.00  0.00     0.020 A 
ATOM     69  C   UNL     1      16.223  11.242   0.742  1.00  0.00     0.054 A 
BRANCH  69  70
ATOM     70  S   UNL     1      16.719  12.093   2.264  1.00  0.00     0.124 S 
ATOM     71  O   UNL     1      16.268  11.157   3.291  1.00  0.00    -0.237 OA
ATOM     72  O   UNL     1      18.168  12.206   2.112  1.00  0.00    -0.237 OA
ATOM     73  O   UNL     1      15.989  13.357   2.209  1.00  0.00    -0.744 OA
ENDBRANCH  69  70
ENDBRANCH  50  64
BRANCH  51  74
ATOM     74  C   UNL     1      11.540   4.560  -9.107  1.00  0.00    -0.014 A 
ATOM     75  C   UNL     1      12.310   3.985 -10.132  1.00  0.00     0.010 A 
ATOM     76  C   UNL     1      10.151   4.333  -9.085  1.00  0.00     0.010 A 
ATOM     77  C   UNL     1      11.706   3.190 -11.110  1.00  0.00     0.020 A 
ATOM     78  C   UNL     1       9.547   3.518 -10.047  1.00  0.00     0.020 A 
ATOM     79  C   UNL     1      10.329   2.952 -11.055  1.00  0.00     0.054 A 
BRANCH  79  80
ATOM     80  S   UNL     1       9.587   1.833 -12.275  1.00  0.00     0.124 S 
ATOM     81  O   UNL     1       9.626   2.639 -13.491  1.00  0.00    -0.237 OA
ATOM     82  O   UNL     1      10.495   0.688 -12.244  1.00  0.00    -0.237 OA
ATOM     83  O   UNL     1       8.254   1.574 -11.736  1.00  0.00    -0.744 OA
ENDBRANCH  79  80
ENDBRANCH  51  74
BRANCH  63  84
ATOM     84  C   UNL     1      14.638  10.827  -8.656  1.00  0.00    -0.014 A 
ATOM     85  C   UNL     1      13.656  11.677  -9.192  1.00  0.00     0.010 A 
ATOM     86  C   UNL     1      15.990  11.044  -8.982  1.00  0.00     0.010 A 
ATOM     87  C   UNL     1      14.022  12.727 -10.039  1.00  0.00     0.020 A 
ATOM     88  C   UNL     1      16.361  12.108  -9.807  1.00  0.00     0.020 A 
ATOM     89  C   UNL     1      15.373  12.941 -10.333  1.00  0.00     0.054 A 
BRANCH  89  90
ATOM     90  S   UNL     1      15.829  14.369 -11.356  1.00  0.00     0.124 S 
ATOM     91  O   UNL     1      15.383  13.949 -12.681  1.00  0.00    -0.237 OA
ATOM     92  O   UNL     1      15.062  15.454 -10.749  1.00  0.00    -0.237 OA
ATOM     93  O   UNL     1      17.277  14.468 -11.188  1.00  0.00    -0.744 OA
ENDBRANCH  89  90
ENDBRANCH  63  84
ENDBRANCH  37  38
ENDBRANCH  29  32
ENDBRANCH  27  28
ENDBRANCH   1  27
TORSDOF 17
