REMARK SMILES O=C(NCCCNC(=O)[C@@H](Cc1ccncc1)c1ccc(Cl)cc1)c1ccc(-c2c3nc(c(-c4ccc(S(=O)(=O)[O-])cc4)c4ccc([nH]4)c(-c4ccc(S(=O)(=O)[O-])cc4)c4nc(c(-c5ccc(S(=O)(=O)[O-])cc5)c5ccc2[nH]5)C=C4)C=C3)cc1
REMARK SMILES IDX 4 1 3 2 1 3 2 4 25 6 26 7 84 8 27 9 83 10 28 11 29 12 30 13
REMARK SMILES IDX 77 14 31 15 82 16 76 17 78 18 32 19 81 20 75 21 74 22 33 24
REMARK SMILES IDX 63 25 44 26 62 27 45 28 48 29 61 30 79 31 46 32 47 33 60 35
REMARK SMILES IDX 80 36 49 37 34 38 35 39 43 40 36 41 42 42 37 43 38 44 39 45
REMARK SMILES IDX 40 46 41 47 64 48 65 49 73 50 66 51 72 52 67 53 68 54 69 55
REMARK SMILES IDX 70 56 71 57 50 58 51 59 59 60 52 61 58 62 53 63 54 64 55 65
REMARK SMILES IDX 56 66 57 67 5 68 6 69 7 70 8 71 9 73 10 74 11 75 12 76 13 77
REMARK SMILES IDX 17 78 14 79 16 80 15 81 18 82 19 83 24 84 20 85 23 86 21 87
REMARK SMILES IDX 22 88
REMARK H PARENT 3 5 78 23 48 34 7 72
REMARK Flexibility Score: inf
ROOT
ATOM      1  C   UNL     1       4.162  -1.371  -1.113  1.00  0.00     0.118 C 
ENDROOT
BRANCH   1   2
ATOM      2  N   UNL     1       2.769  -0.973  -0.926  1.00  0.00    -0.352 N 
ATOM      3  O   UNL     1       1.005   0.159  -0.136  1.00  0.00    -0.269 OA
ATOM      4  C   UNL     1       2.204   0.184  -0.450  1.00  0.00     0.251 C 
ATOM      5  H   UNL     1       2.116  -1.661  -1.190  1.00  0.00     0.163 HD
BRANCH   4   6
ATOM      6  C   UNL     1       2.973   1.441  -0.291  1.00  0.00     0.039 A 
ATOM      7  C   UNL     1       4.036   1.749  -1.133  1.00  0.00     0.014 A 
ATOM      8  C   UNL     1       2.573   2.390   0.661  1.00  0.00     0.014 A 
ATOM      9  C   UNL     1       4.806   2.882  -0.917  1.00  0.00     0.010 A 
ATOM     10  C   UNL     1       3.252   3.612   0.773  1.00  0.00     0.010 A 
ATOM     11  C   UNL     1       4.390   3.862  -0.006  1.00  0.00    -0.014 A 
BRANCH  11  12
ATOM     12  C   UNL     1       5.108   5.166  -0.001  1.00  0.00     0.031 A 
ATOM     13  C   UNL     1       5.793   5.684   1.232  1.00  0.00     0.074 A 
ATOM     14  C   UNL     1       5.182   5.858  -1.159  1.00  0.00     0.049 A 
ATOM     15  N   UNL     1       6.504   6.774   1.374  1.00  0.00    -0.248 NA
ATOM     16  C   UNL     1       5.661   4.889   2.463  1.00  0.00     0.031 C 
ATOM     17  C   UNL     1       4.546   5.461  -2.422  1.00  0.00     0.029 A 
ATOM     18  N   UNL     1       5.852   7.010  -1.484  1.00  0.00    -0.354 N 
ATOM     19  C   UNL     1       6.881   6.813   2.712  1.00  0.00     0.074 A 
ATOM     20  C   UNL     1       6.303   5.646   3.344  1.00  0.00     0.031 C 
ATOM     21  C   UNL     1       4.927   6.298  -3.395  1.00  0.00     0.029 A 
ATOM     22  C   UNL     1       5.750   7.349  -2.814  1.00  0.00     0.049 A 
ATOM     23  H   UNL     1       6.358   7.543  -0.829  1.00  0.00     0.167 HD
ATOM     24  C   UNL     1       7.640   7.737   3.350  1.00  0.00     0.031 A 
ATOM     25  C   UNL     1       6.239   8.400  -3.497  1.00  0.00     0.031 A 
ATOM     26  C   UNL     1       8.210   8.895   2.710  1.00  0.00     0.049 A 
ATOM     27  C   UNL     1       7.050   9.422  -2.758  1.00  0.00     0.074 A 
ATOM     28  C   UNL     1       9.013   9.877   3.265  1.00  0.00     0.029 A 
ATOM     29  N   UNL     1       8.035   9.232   1.375  1.00  0.00    -0.354 N 
ATOM     30  N   UNL     1       7.411   9.426  -1.497  1.00  0.00    -0.248 NA
ATOM     31  C   UNL     1       7.510  10.584  -3.527  1.00  0.00     0.031 C 
ATOM     32  C   UNL     1       9.275  10.837   2.281  1.00  0.00     0.029 A 
ATOM     33  C   UNL     1       8.691  10.421   1.095  1.00  0.00     0.049 A 
ATOM     34  H   UNL     1       7.521   8.705   0.722  1.00  0.00     0.167 HD
ATOM     35  C   UNL     1       8.152  10.587  -1.322  1.00  0.00     0.074 A 
ATOM     36  C   UNL     1       8.209  11.244  -2.613  1.00  0.00     0.031 C 
ATOM     37  C   UNL     1       8.728  11.067  -0.193  1.00  0.00     0.031 A 
BRANCH  24  38
ATOM     38  C   UNL     1       7.868   7.554   4.830  1.00  0.00    -0.014 A 
ATOM     39  C   UNL     1       8.694   6.528   5.324  1.00  0.00     0.010 A 
ATOM     40  C   UNL     1       7.279   8.452   5.740  1.00  0.00     0.010 A 
ATOM     41  C   UNL     1       8.894   6.380   6.700  1.00  0.00     0.020 A 
ATOM     42  C   UNL     1       7.499   8.324   7.115  1.00  0.00     0.020 A 
ATOM     43  C   UNL     1       8.292   7.278   7.588  1.00  0.00     0.054 A 
BRANCH  43  44
ATOM     44  S   UNL     1       8.585   7.073   9.366  1.00  0.00     0.124 S 
ATOM     45  O   UNL     1       7.795   5.882   9.667  1.00  0.00    -0.237 OA
ATOM     46  O   UNL     1      10.033   6.900   9.435  1.00  0.00    -0.237 OA
ATOM     47  O   UNL     1       8.081   8.316   9.947  1.00  0.00    -0.744 OA
ENDBRANCH  43  44
ENDBRANCH  24  38
BRANCH  25  48
ATOM     48  C   UNL     1       5.940   8.545  -4.948  1.00  0.00    -0.014 A 
ATOM     49  C   UNL     1       6.955   8.416  -5.911  1.00  0.00     0.010 A 
ATOM     50  C   UNL     1       4.619   8.779  -5.376  1.00  0.00     0.010 A 
ATOM     51  C   UNL     1       6.657   8.528  -7.273  1.00  0.00     0.020 A 
ATOM     52  C   UNL     1       4.311   8.857  -6.736  1.00  0.00     0.020 A 
ATOM     53  C   UNL     1       5.335   8.742  -7.676  1.00  0.00     0.054 A 
BRANCH  53  54
ATOM     54  S   UNL     1       4.962   8.823  -9.450  1.00  0.00     0.124 S 
ATOM     55  O   UNL     1       5.493  10.132  -9.812  1.00  0.00    -0.237 OA
ATOM     56  O   UNL     1       5.691   7.673  -9.979  1.00  0.00    -0.237 OA
ATOM     57  O   UNL     1       3.506   8.702  -9.498  1.00  0.00    -0.744 OA
ENDBRANCH  53  54
ENDBRANCH  25  48
BRANCH  37  58
ATOM     58  C   UNL     1       9.492  12.358  -0.314  1.00  0.00    -0.014 A 
ATOM     59  C   UNL     1       8.828  13.583  -0.496  1.00  0.00     0.010 A 
ATOM     60  C   UNL     1      10.894  12.345  -0.207  1.00  0.00     0.010 A 
ATOM     61  C   UNL     1       9.556  14.771  -0.604  1.00  0.00     0.020 A 
ATOM     62  C   UNL     1      11.624  13.533  -0.284  1.00  0.00     0.020 A 
ATOM     63  C   UNL     1      10.950  14.737  -0.498  1.00  0.00     0.054 A 
BRANCH  63  64
ATOM     64  S   UNL     1      11.870  16.296  -0.602  1.00  0.00     0.124 S 
ATOM     65  O   UNL     1      11.781  16.607  -2.026  1.00  0.00    -0.237 OA
ATOM     66  O   UNL     1      11.110  17.177   0.282  1.00  0.00    -0.237 OA
ATOM     67  O   UNL     1      13.205  15.944  -0.124  1.00  0.00    -0.744 OA
ENDBRANCH  63  64
ENDBRANCH  37  58
ENDBRANCH  11  12
ENDBRANCH   4   6
ENDBRANCH   1   2
BRANCH   1  68
ATOM     68  C   UNL     1       4.773  -1.895   0.171  1.00  0.00     0.042 C 
BRANCH  68  69
ATOM     69  C   UNL     1       4.277  -3.287   0.507  1.00  0.00     0.117 C 
BRANCH  69  70
ATOM     70  N   UNL     1       5.056  -4.324  -0.126  1.00  0.00    -0.355 N 
ATOM     71  C   UNL     1       5.688  -5.396   0.414  1.00  0.00     0.227 C 
ATOM     72  H   UNL     1       5.143  -4.240  -1.103  1.00  0.00     0.163 HD
ATOM     73  O   UNL     1       6.213  -6.177  -0.392  1.00  0.00    -0.274 OA
BRANCH  71  74
ATOM     74  C   UNL     1       5.791  -5.671   1.921  1.00  0.00     0.113 C 
BRANCH  74  75
ATOM     75  C   UNL     1       6.691  -4.707   2.746  1.00  0.00     0.054 C 
BRANCH  75  76
ATOM     76  C   UNL     1       6.208  -3.368   3.245  1.00  0.00    -0.044 A 
ATOM     77  C   UNL     1       6.840  -2.186   2.836  1.00  0.00     0.024 A 
ATOM     78  C   UNL     1       5.168  -3.255   4.170  1.00  0.00     0.024 A 
ATOM     79  C   UNL     1       6.350  -0.967   3.285  1.00  0.00     0.111 A 
ATOM     80  C   UNL     1       4.726  -1.992   4.537  1.00  0.00     0.111 A 
ATOM     81  N   UNL     1       5.281  -0.847   4.097  1.00  0.00    -0.265 NA
ENDBRANCH  75  76
ENDBRANCH  74  75
BRANCH  74  82
ATOM     82  C   UNL     1       4.553  -6.301   2.570  1.00  0.00    -0.035 A 
ATOM     83  C   UNL     1       3.353  -5.621   2.825  1.00  0.00     0.006 A 
ATOM     84  C   UNL     1       4.609  -7.657   2.951  1.00  0.00     0.006 A 
ATOM     85  C   UNL     1       2.284  -6.235   3.487  1.00  0.00     0.021 A 
ATOM     86  C   UNL     1       3.538  -8.281   3.602  1.00  0.00     0.021 A 
ATOM     87  C   UNL     1       2.384  -7.561   3.882  1.00  0.00     0.041 A 
ATOM     88  Cl  UNL     1       1.083  -8.305   4.725  1.00  0.00    -0.084 Cl
ENDBRANCH  74  82
ENDBRANCH  71  74
ENDBRANCH  69  70
ENDBRANCH  68  69
ENDBRANCH   1  68
TORSDOF 16
