REMARK SMILES O=C(NCCCNC(=O)[C@H]1[C@H]2CC[C@H](C2)[C@@H]1C(=O)Nc1sc2c(c1C(=O)NC1CCCCC1)CCCC2)c1ccc(-c2c3nc(c(-c4ccc(S(=O)(=O)[O-])cc4)c4ccc([nH]4)c(-c4ccc(S(=O)(=O)[O-])cc4)c4nc(c(-c5ccc(S(=O)(=O)[O-])cc5)c5ccc2[nH]5)C=C4)C=C3)cc1
REMARK SMILES IDX 5 1 4 2 3 3 1 4 2 5 38 7 39 8 97 9 40 10 96 11 41 12 42 13
REMARK SMILES IDX 43 14 90 15 44 16 95 17 89 18 91 19 45 20 94 21 88 22 87 23
REMARK SMILES IDX 46 25 76 26 57 27 75 28 58 29 61 30 74 31 92 32 59 33 60 34
REMARK SMILES IDX 73 36 93 37 62 38 47 39 48 40 56 41 49 42 55 43 50 44 51 45
REMARK SMILES IDX 52 46 53 47 54 48 77 49 78 50 86 51 79 52 85 53 80 54 81 55
REMARK SMILES IDX 82 56 83 57 84 58 63 59 64 60 72 61 65 62 71 63 66 64 67 65
REMARK SMILES IDX 68 66 69 67 70 68 6 69 7 70 8 71 9 73 10 74 11 75 16 76
REMARK SMILES IDX 12 77 15 78 14 79 13 80 17 81 18 82 19 83 20 85 21 86 24 87
REMARK SMILES IDX 22 88 23 89 37 90 34 91 36 92 35 93 25 94 26 95 27 96 28 98
REMARK SMILES IDX 29 99 33 100 30 101 32 102 31 103
REMARK H PARENT 3 6 91 24 61 35 7 72 19 84 27 97
REMARK Flexibility Score: inf
ROOT
ATOM      1  C   UNL     1       3.061  -0.867   4.255  1.00  0.00     0.042 C 
ENDROOT
BRANCH   1   2
ATOM      2  C   UNL     1       1.790  -0.854   5.086  1.00  0.00     0.118 C 
BRANCH   2   3
ATOM      3  N   UNL     1       1.831   0.122   6.167  1.00  0.00    -0.352 N 
ATOM      4  O   UNL     1       1.653   2.125   7.174  1.00  0.00    -0.269 OA
ATOM      5  C   UNL     1       1.321   1.398   6.244  1.00  0.00     0.251 C 
ATOM      6  H   UNL     1       2.300  -0.181   6.977  1.00  0.00     0.163 HD
BRANCH   5   7
ATOM      7  C   UNL     1       0.403   1.905   5.199  1.00  0.00     0.039 A 
ATOM      8  C   UNL     1      -0.590   1.088   4.657  1.00  0.00     0.014 A 
ATOM      9  C   UNL     1       0.515   3.233   4.774  1.00  0.00     0.014 A 
ATOM     10  C   UNL     1      -1.335   1.524   3.570  1.00  0.00     0.010 A 
ATOM     11  C   UNL     1      -0.322   3.711   3.762  1.00  0.00     0.010 A 
ATOM     12  C   UNL     1      -1.231   2.849   3.128  1.00  0.00    -0.014 A 
BRANCH  12  13
ATOM     13  C   UNL     1      -2.130   3.340   2.055  1.00  0.00     0.031 A 
ATOM     14  C   UNL     1      -1.573   3.860   0.761  1.00  0.00     0.074 A 
ATOM     15  C   UNL     1      -3.461   3.327   2.269  1.00  0.00     0.049 A 
ATOM     16  N   UNL     1      -2.205   4.407  -0.245  1.00  0.00    -0.248 NA
ATOM     17  C   UNL     1      -0.117   3.764   0.576  1.00  0.00     0.031 C 
ATOM     18  C   UNL     1      -4.116   2.831   3.483  1.00  0.00     0.029 A 
ATOM     19  N   UNL     1      -4.501   3.743   1.479  1.00  0.00    -0.354 N 
ATOM     20  C   UNL     1      -1.224   4.753  -1.167  1.00  0.00     0.074 A 
ATOM     21  C   UNL     1       0.047   4.369  -0.592  1.00  0.00     0.031 C 
ATOM     22  C   UNL     1      -5.443   2.949   3.348  1.00  0.00     0.029 A 
ATOM     23  C   UNL     1      -5.730   3.605   2.079  1.00  0.00     0.049 A 
ATOM     24  H   UNL     1      -4.380   4.105   0.572  1.00  0.00     0.167 HD
ATOM     25  C   UNL     1      -1.374   5.342  -2.379  1.00  0.00     0.031 A 
ATOM     26  C   UNL     1      -6.952   4.002   1.681  1.00  0.00     0.031 A 
ATOM     27  C   UNL     1      -2.648   5.729  -2.928  1.00  0.00     0.049 A 
ATOM     28  C   UNL     1      -7.092   4.695   0.359  1.00  0.00     0.074 A 
ATOM     29  C   UNL     1      -2.915   6.312  -4.154  1.00  0.00     0.029 A 
ATOM     30  N   UNL     1      -3.868   5.583  -2.281  1.00  0.00    -0.354 N 
ATOM     31  N   UNL     1      -6.156   5.000  -0.508  1.00  0.00    -0.248 NA
ATOM     32  C   UNL     1      -8.446   5.095  -0.042  1.00  0.00     0.031 C 
ATOM     33  C   UNL     1      -4.288   6.573  -4.223  1.00  0.00     0.029 A 
ATOM     34  C   UNL     1      -4.887   6.087  -3.071  1.00  0.00     0.049 A 
ATOM     35  H   UNL     1      -3.990   5.181  -1.391  1.00  0.00     0.167 HD
ATOM     36  C   UNL     1      -6.811   5.603  -1.573  1.00  0.00     0.074 A 
ATOM     37  C   UNL     1      -8.222   5.618  -1.241  1.00  0.00     0.031 C 
ATOM     38  C   UNL     1      -6.289   6.089  -2.725  1.00  0.00     0.031 A 
BRANCH  25  39
ATOM     39  C   UNL     1      -0.122   5.651  -3.160  1.00  0.00    -0.014 A 
ATOM     40  C   UNL     1       0.678   4.630  -3.705  1.00  0.00     0.010 A 
ATOM     41  C   UNL     1       0.261   6.992  -3.353  1.00  0.00     0.010 A 
ATOM     42  C   UNL     1       1.872   4.941  -4.364  1.00  0.00     0.020 A 
ATOM     43  C   UNL     1       1.437   7.309  -4.039  1.00  0.00     0.020 A 
ATOM     44  C   UNL     1       2.250   6.279  -4.515  1.00  0.00     0.054 A 
BRANCH  44  45
ATOM     45  S   UNL     1       3.823   6.651  -5.338  1.00  0.00     0.124 S 
ATOM     46  O   UNL     1       4.794   6.247  -4.323  1.00  0.00    -0.237 OA
ATOM     47  O   UNL     1       3.772   5.803  -6.527  1.00  0.00    -0.237 OA
ATOM     48  O   UNL     1       3.751   8.086  -5.596  1.00  0.00    -0.744 OA
ENDBRANCH  44  45
ENDBRANCH  25  39
BRANCH  26  49
ATOM     49  C   UNL     1      -8.116   3.760   2.575  1.00  0.00    -0.014 A 
ATOM     50  C   UNL     1      -9.064   2.772   2.266  1.00  0.00     0.010 A 
ATOM     51  C   UNL     1      -8.224   4.458   3.794  1.00  0.00     0.010 A 
ATOM     52  C   UNL     1     -10.095   2.478   3.164  1.00  0.00     0.020 A 
ATOM     53  C   UNL     1      -9.235   4.147   4.706  1.00  0.00     0.020 A 
ATOM     54  C   UNL     1     -10.167   3.160   4.383  1.00  0.00     0.054 A 
BRANCH  54  55
ATOM     55  S   UNL     1     -11.455   2.691   5.571  1.00  0.00     0.124 S 
ATOM     56  O   UNL     1     -12.658   3.225   4.941  1.00  0.00    -0.237 OA
ATOM     57  O   UNL     1     -11.345   1.234   5.594  1.00  0.00    -0.237 OA
ATOM     58  O   UNL     1     -11.043   3.358   6.804  1.00  0.00    -0.744 OA
ENDBRANCH  54  55
ENDBRANCH  26  49
BRANCH  38  59
ATOM     59  C   UNL     1      -7.247   6.636  -3.748  1.00  0.00    -0.014 A 
ATOM     60  C   UNL     1      -7.871   7.883  -3.577  1.00  0.00     0.010 A 
ATOM     61  C   UNL     1      -7.448   5.923  -4.945  1.00  0.00     0.010 A 
ATOM     62  C   UNL     1      -8.684   8.406  -4.587  1.00  0.00     0.020 A 
ATOM     63  C   UNL     1      -8.237   6.454  -5.966  1.00  0.00     0.020 A 
ATOM     64  C   UNL     1      -8.854   7.692  -5.778  1.00  0.00     0.054 A 
BRANCH  64  65
ATOM     65  S   UNL     1      -9.839   8.434  -7.108  1.00  0.00     0.124 S 
ATOM     66  O   UNL     1     -11.197   8.313  -6.585  1.00  0.00    -0.237 OA
ATOM     67  O   UNL     1      -9.310   9.794  -7.176  1.00  0.00    -0.237 OA
ATOM     68  O   UNL     1      -9.541   7.598  -8.268  1.00  0.00    -0.744 OA
ENDBRANCH  64  65
ENDBRANCH  38  59
ENDBRANCH  12  13
ENDBRANCH   5   7
ENDBRANCH   2   3
ENDBRANCH   1   2
BRANCH   1  69
ATOM     69  C   UNL     1       4.280  -1.386   4.991  1.00  0.00     0.117 C 
BRANCH  69  70
ATOM     70  N   UNL     1       4.172  -2.776   5.386  1.00  0.00    -0.356 N 
ATOM     71  C   UNL     1       5.146  -3.727   5.459  1.00  0.00     0.224 C 
ATOM     72  H   UNL     1       3.268  -3.076   5.636  1.00  0.00     0.163 HD
ATOM     73  O   UNL     1       4.816  -4.835   5.880  1.00  0.00    -0.275 OA
BRANCH  71  74
ATOM     74  C   UNL     1       6.566  -3.404   4.985  1.00  0.00     0.094 C 
ATOM     75  C   UNL     1       7.176  -2.143   5.675  1.00  0.00     0.002 C 
ATOM     76  C   UNL     1       7.586  -4.511   5.376  1.00  0.00     0.094 C 
ATOM     77  C   UNL     1       7.106  -2.225   7.201  1.00  0.00     0.005 C 
ATOM     78  C   UNL     1       8.659  -2.355   5.473  1.00  0.00     0.009 C 
ATOM     79  C   UNL     1       8.684  -3.722   6.127  1.00  0.00     0.002 C 
ATOM     80  C   UNL     1       8.140  -3.320   7.523  1.00  0.00     0.005 C 
BRANCH  76  81
ATOM     81  C   UNL     1       8.029  -5.544   4.307  1.00  0.00     0.229 C 
ATOM     82  O   UNL     1       7.848  -6.747   4.568  1.00  0.00    -0.274 OA
ATOM     83  N   UNL     1       8.615  -5.309   3.096  1.00  0.00    -0.317 N 
ATOM     84  H   UNL     1       8.936  -6.099   2.604  1.00  0.00     0.170 HD
BRANCH  83  85
ATOM     85  C   UNL     1       8.804  -4.097   2.493  1.00  0.00     0.108 A 
ATOM     86  S   UNL     1      10.366  -3.416   2.687  1.00  0.00    -0.122 S 
ATOM     87  C   UNL     1       8.145  -3.470   1.433  1.00  0.00     0.078 A 
ATOM     88  C   UNL     1       9.707  -1.911   2.229  1.00  0.00     0.011 A 
ATOM     89  C   UNL     1       8.478  -2.072   1.598  1.00  0.00    -0.019 A 
ATOM     90  C   UNL     1      10.359  -0.612   2.602  1.00  0.00     0.047 C 
ATOM     91  C   UNL     1       7.661  -0.864   1.279  1.00  0.00     0.037 C 
ATOM     92  C   UNL     1       9.398   0.569   2.397  1.00  0.00     0.006 C 
ATOM     93  C   UNL     1       8.535   0.390   1.147  1.00  0.00     0.005 C 
BRANCH  87  94
ATOM     94  C   UNL     1       7.156  -4.208   0.639  1.00  0.00     0.254 C 
ATOM     95  O   UNL     1       6.697  -5.275   1.064  1.00  0.00    -0.269 OA
ATOM     96  N   UNL     1       6.771  -3.920  -0.643  1.00  0.00    -0.349 N 
ATOM     97  H   UNL     1       6.324  -4.703  -1.038  1.00  0.00     0.164 HD
BRANCH  96  98
ATOM     98  C   UNL     1       6.806  -2.825  -1.623  1.00  0.00     0.082 C 
ATOM     99  C   UNL     1       5.560  -1.945  -1.454  1.00  0.00     0.025 C 
ATOM    100  C   UNL     1       8.154  -2.127  -1.823  1.00  0.00     0.025 C 
ATOM    101  C   UNL     1       5.577  -0.689  -2.312  1.00  0.00     0.002 C 
ATOM    102  C   UNL     1       8.085  -0.770  -2.529  1.00  0.00     0.002 C 
ATOM    103  C   UNL     1       6.876   0.085  -2.170  1.00  0.00     0.000 C 
ENDBRANCH  96  98
ENDBRANCH  87  94
ENDBRANCH  83  85
ENDBRANCH  76  81
ENDBRANCH  71  74
ENDBRANCH  69  70
ENDBRANCH   1  69
TORSDOF 17
