REMARK SMILES CC(C)(C)OC(=O)N1Cc2ccnn2C[C@@H](C(=O)NCCCNC(=O)c2ccc(-c3c4nc(c(-c5ccc(S(=O)(=O)[O-])cc5)c5ccc([nH]5)c(-c5ccc(S(=O)(=O)[O-])cc5)c5nc(c(-c6ccc(S(=O)(=O)[O-])cc6)c6ccc3[nH]6)C=C5)C=C4)cc2)C1
REMARK SMILES IDX 20 1 19 2 17 3 18 4 16 6 86 8 8 9 6 10 7 11 5 12 2 13 1 14
REMARK SMILES IDX 3 15 4 16 9 17 10 18 11 19 14 20 12 21 13 22 15 23 21 25
REMARK SMILES IDX 22 26 23 27 24 28 25 30 26 31 27 32 85 33 28 34 84 35 29 36
REMARK SMILES IDX 30 37 31 38 78 39 32 40 83 41 77 42 79 43 33 44 82 45 76 46
REMARK SMILES IDX 75 47 34 49 64 50 45 51 63 52 46 53 49 54 62 55 80 56 47 57
REMARK SMILES IDX 48 58 61 60 81 61 50 62 35 63 36 64 44 65 37 66 43 67 38 68
REMARK SMILES IDX 39 69 40 70 41 71 42 72 65 73 66 74 74 75 67 76 73 77 68 78
REMARK SMILES IDX 69 79 70 80 71 81 72 82 51 83 52 84 60 85 53 86 59 87 54 88
REMARK SMILES IDX 55 89 56 90 57 91 58 92
REMARK H PARENT 19 5 23 29 79 48 49 59
REMARK Flexibility Score: 90.00
ROOT
ATOM      1  C   UNL     1       3.614   0.351  -7.451  1.00  0.00     0.117 C 
ENDROOT
BRANCH   1   2
ATOM      2  N   UNL     1       4.565  -0.324  -6.587  1.00  0.00    -0.356 N 
ATOM      3  C   UNL     1       4.424  -1.447  -5.831  1.00  0.00     0.226 C 
ATOM      4  O   UNL     1       5.443  -1.922  -5.324  1.00  0.00    -0.275 OA
ATOM      5  H   UNL     1       5.453   0.097  -6.541  1.00  0.00     0.163 HD
BRANCH   3   6
ATOM      6  C   UNL     1       3.079  -2.123  -5.592  1.00  0.00     0.119 CG0
ATOM      7  G   UNL     1       2.582  -2.876  -6.835  1.00  0.00     0.000 G0
BRANCH   6   8
ATOM      8  C   UNL     1       2.119  -1.168  -4.872  1.00  0.00     0.139 C 
BRANCH   8   9
ATOM      9  N   UNL     1       0.798  -1.735  -4.620  1.00  0.00    -0.301 N 
BRANCH   9  10
ATOM     10  C   UNL     1       0.271  -1.930  -3.346  1.00  0.00     0.410 C 
ATOM     11  O   UNL     1      -0.686  -2.652  -3.149  1.00  0.00    -0.224 OA
BRANCH  10  12
ATOM     12  O   UNL     1       0.883  -1.170  -2.394  1.00  0.00    -0.444 OA
BRANCH  12  13
ATOM     13  C   UNL     1       0.416  -1.214  -1.016  1.00  0.00     0.106 C 
ATOM     14  C   UNL     1       1.097  -0.035  -0.301  1.00  0.00     0.056 C 
ATOM     15  C   UNL     1       0.882  -2.524  -0.377  1.00  0.00     0.056 C 
ATOM     16  C   UNL     1      -1.102  -1.013  -0.875  1.00  0.00     0.056 C 
ENDBRANCH  12  13
ENDBRANCH  10  12
ENDBRANCH   9  10
BRANCH   9  17
ATOM     17  C   UNL     1      -0.138  -2.003  -5.698  1.00  0.00     0.178 C 
BRANCH  17  18
ATOM     18  C   UNL     1       0.352  -1.724  -7.066  1.00  0.00     0.058 A 
ATOM     19  C   UNL     1      -0.213  -0.994  -8.093  1.00  0.00     0.047 A 
ATOM     20  N   UNL     1       1.513  -2.236  -7.577  1.00  0.00    -0.267 N 
ATOM     21  C   UNL     1       0.631  -1.200  -9.196  1.00  0.00     0.135 A 
ATOM     22  N   UNL     1       1.671  -1.979  -8.893  1.00  0.00    -0.181 NA
BRANCH  20  23
ATOM     23  C   UNL     1       2.582  -2.876  -6.835  1.00  0.00     0.160 CG0
ATOM     24  G   UNL     1       3.079  -2.123  -5.592  1.00  0.00     0.000 G0
ENDBRANCH  20  23
ENDBRANCH  17  18
ENDBRANCH   9  17
ENDBRANCH   8   9
ENDBRANCH   6   8
ENDBRANCH   3   6
ENDBRANCH   1   2
BRANCH   1  25
ATOM     25  C   UNL     1       3.106   1.696  -6.938  1.00  0.00     0.042 C 
BRANCH  25  26
ATOM     26  C   UNL     1       4.092   2.808  -7.195  1.00  0.00     0.118 C 
BRANCH  26  27
ATOM     27  N   UNL     1       4.272   3.105  -8.624  1.00  0.00    -0.352 N 
ATOM     28  C   UNL     1       5.136   4.029  -9.195  1.00  0.00     0.251 C 
ATOM     29  H   UNL     1       3.715   2.587  -9.248  1.00  0.00     0.163 HD
ATOM     30  O   UNL     1       4.957   4.447 -10.332  1.00  0.00    -0.269 OA
BRANCH  28  31
ATOM     31  C   UNL     1       6.280   4.477  -8.384  1.00  0.00     0.039 A 
ATOM     32  C   UNL     1       6.704   5.804  -8.306  1.00  0.00     0.014 A 
ATOM     33  C   UNL     1       6.848   3.501  -7.580  1.00  0.00     0.014 A 
ATOM     34  C   UNL     1       7.663   6.128  -7.346  1.00  0.00     0.010 A 
ATOM     35  C   UNL     1       7.482   3.888  -6.442  1.00  0.00     0.010 A 
ATOM     36  C   UNL     1       8.032   5.153  -6.404  1.00  0.00    -0.014 A 
BRANCH  36  37
ATOM     37  C   UNL     1       8.927   5.402  -5.287  1.00  0.00     0.031 A 
ATOM     38  C   UNL     1       8.471   6.501  -4.410  1.00  0.00     0.074 A 
ATOM     39  C   UNL     1       9.918   4.546  -4.942  1.00  0.00     0.049 A 
ATOM     40  N   UNL     1       8.889   7.721  -4.421  1.00  0.00    -0.248 NA
ATOM     41  C   UNL     1       7.264   6.291  -3.592  1.00  0.00     0.031 C 
ATOM     42  C   UNL     1      10.248   3.234  -5.525  1.00  0.00     0.029 A 
ATOM     43  N   UNL     1      10.791   4.622  -3.905  1.00  0.00    -0.354 N 
ATOM     44  C   UNL     1       8.204   8.350  -3.392  1.00  0.00     0.074 A 
ATOM     45  C   UNL     1       7.056   7.523  -3.121  1.00  0.00     0.031 C 
ATOM     46  C   UNL     1      11.075   2.556  -4.698  1.00  0.00     0.029 A 
ATOM     47  C   UNL     1      11.483   3.445  -3.627  1.00  0.00     0.049 A 
ATOM     48  H   UNL     1      10.926   5.448  -3.387  1.00  0.00     0.167 HD
ATOM     49  C   UNL     1       8.813   9.302  -2.631  1.00  0.00     0.031 A 
ATOM     50  C   UNL     1      12.330   3.218  -2.589  1.00  0.00     0.031 A 
ATOM     51  C   UNL     1      10.081   9.691  -3.208  1.00  0.00     0.049 A 
ATOM     52  C   UNL     1      12.770   4.551  -2.107  1.00  0.00     0.074 A 
ATOM     53  C   UNL     1      10.483  10.231  -4.412  1.00  0.00     0.029 A 
ATOM     54  N   UNL     1      11.199   9.107  -2.654  1.00  0.00    -0.354 N 
ATOM     55  N   UNL     1      13.480   5.371  -2.834  1.00  0.00    -0.248 NA
ATOM     56  C   UNL     1      12.008   5.172  -1.036  1.00  0.00     0.031 C 
ATOM     57  C   UNL     1      11.700   9.558  -4.730  1.00  0.00     0.029 A 
ATOM     58  C   UNL     1      12.033   8.713  -3.667  1.00  0.00     0.049 A 
ATOM     59  H   UNL     1      11.371   8.993  -1.691  1.00  0.00     0.167 HD
ATOM     60  C   UNL     1      12.914   6.621  -2.615  1.00  0.00     0.074 A 
ATOM     61  C   UNL     1      12.081   6.450  -1.423  1.00  0.00     0.031 C 
ATOM     62  C   UNL     1      12.945   7.588  -3.581  1.00  0.00     0.031 A 
BRANCH  49  63
ATOM     63  C   UNL     1       8.518   9.531  -1.168  1.00  0.00    -0.014 A 
ATOM     64  C   UNL     1       9.219  10.556  -0.500  1.00  0.00     0.010 A 
ATOM     65  C   UNL     1       7.800   8.622  -0.364  1.00  0.00     0.010 A 
ATOM     66  C   UNL     1       9.270  10.612   0.898  1.00  0.00     0.020 A 
ATOM     67  C   UNL     1       7.808   8.694   1.029  1.00  0.00     0.020 A 
ATOM     68  C   UNL     1       8.573   9.669   1.653  1.00  0.00     0.054 A 
BRANCH  68  69
ATOM     69  S   UNL     1       8.722   9.691   3.454  1.00  0.00     0.124 S 
ATOM     70  O   UNL     1      10.131   9.359   3.641  1.00  0.00    -0.237 OA
ATOM     71  O   UNL     1       8.343  11.063   3.776  1.00  0.00    -0.237 OA
ATOM     72  O   UNL     1       7.773   8.668   3.887  1.00  0.00    -0.744 OA
ENDBRANCH  68  69
ENDBRANCH  49  63
BRANCH  50  73
ATOM     73  C   UNL     1      12.520   1.968  -1.806  1.00  0.00    -0.014 A 
ATOM     74  C   UNL     1      13.636   1.773  -0.969  1.00  0.00     0.010 A 
ATOM     75  C   UNL     1      11.444   1.067  -1.669  1.00  0.00     0.010 A 
ATOM     76  C   UNL     1      13.655   0.744  -0.005  1.00  0.00     0.020 A 
ATOM     77  C   UNL     1      11.454   0.042  -0.712  1.00  0.00     0.020 A 
ATOM     78  C   UNL     1      12.554  -0.106   0.129  1.00  0.00     0.054 A 
BRANCH  78  79
ATOM     79  S   UNL     1      12.520  -1.339   1.468  1.00  0.00     0.124 S 
ATOM     80  O   UNL     1      13.544  -2.289   1.045  1.00  0.00    -0.237 OA
ATOM     81  O   UNL     1      12.847  -0.542   2.647  1.00  0.00    -0.237 OA
ATOM     82  O   UNL     1      11.150  -1.850   1.432  1.00  0.00    -0.744 OA
ENDBRANCH  78  79
ENDBRANCH  50  73
BRANCH  62  83
ATOM     83  C   UNL     1      13.874   7.393  -4.762  1.00  0.00    -0.014 A 
ATOM     84  C   UNL     1      13.760   6.353  -5.707  1.00  0.00     0.010 A 
ATOM     85  C   UNL     1      14.816   8.409  -5.000  1.00  0.00     0.010 A 
ATOM     86  C   UNL     1      14.587   6.323  -6.844  1.00  0.00     0.020 A 
ATOM     87  C   UNL     1      15.627   8.395  -6.135  1.00  0.00     0.020 A 
ATOM     88  C   UNL     1      15.518   7.346  -7.048  1.00  0.00     0.054 A 
BRANCH  88  89
ATOM     89  S   UNL     1      16.570   7.329  -8.529  1.00  0.00     0.124 S 
ATOM     90  O   UNL     1      17.436   6.178  -8.290  1.00  0.00    -0.237 OA
ATOM     91  O   UNL     1      15.602   7.175  -9.613  1.00  0.00    -0.237 OA
ATOM     92  O   UNL     1      17.244   8.627  -8.493  1.00  0.00    -0.744 OA
ENDBRANCH  88  89
ENDBRANCH  62  83
ENDBRANCH  36  37
ENDBRANCH  28  31
ENDBRANCH  26  27
ENDBRANCH  25  26
ENDBRANCH   1  25
TORSDOF 16
