REMARK SMILES Cc1ccc(C)c(N2C(=O)S[C@H](CC(=O)Nc3ccc(C(=O)NCCCNC(=O)c4ccc(-c5c6nc(c(-c7ccc(S(=O)(=O)[O-])cc7)c7ccc([nH]7)c(-c7ccc(S(=O)(=O)[O-])cc7)c7nc(c(-c8ccc(S(=O)(=O)[O-])cc8)c8ccc5[nH]8)C=C7)C=C6)cc4)c(O)c3)C2=O)c1
REMARK SMILES IDX 24 1 23 2 21 3 22 4 20 6 17 7 18 8 92 9 19 10 90 11 16 12
REMARK SMILES IDX 14 13 15 14 13 16 12 17 8 18 9 19 93 20 10 21 11 22 94 23
REMARK SMILES IDX 7 24 1 25 2 26 3 27 95 28 4 29 5 30 6 31 91 32 25 34 26 35
REMARK SMILES IDX 27 36 28 37 29 39 30 40 31 41 89 42 32 43 88 44 33 45 34 46
REMARK SMILES IDX 35 47 82 48 36 49 87 50 81 51 83 52 37 53 86 54 80 55 79 56
REMARK SMILES IDX 38 58 68 59 49 60 67 61 50 62 53 63 66 64 84 65 51 66 52 67
REMARK SMILES IDX 65 69 85 70 54 71 39 72 40 73 48 74 41 75 47 76 42 77 43 78
REMARK SMILES IDX 44 79 45 80 46 81 69 82 70 83 78 84 71 85 77 86 72 87 73 88
REMARK SMILES IDX 74 89 75 90 76 91 55 92 56 93 64 94 57 95 63 96 58 97 59 98
REMARK SMILES IDX 60 99 61 100 62 101
REMARK H PARENT 23 5 16 15 91 33 27 38 83 57 53 68
REMARK Flexibility Score: inf
ROOT
ATOM      1  C   UNL     1       2.290   7.880  -2.778  1.00  0.00     0.118 C 
ENDROOT
BRANCH   1   2
ATOM      2  N   UNL     1       1.748   6.777  -3.544  1.00  0.00    -0.352 N 
ATOM      3  C   UNL     1       0.453   6.325  -3.642  1.00  0.00     0.255 C 
ATOM      4  O   UNL     1       0.207   5.453  -4.472  1.00  0.00    -0.269 OA
ATOM      5  H   UNL     1       2.407   6.274  -4.074  1.00  0.00     0.163 HD
BRANCH   3   6
ATOM      6  C   UNL     1      -0.623   6.772  -2.714  1.00  0.00     0.081 A 
ATOM      7  C   UNL     1      -2.371   7.174  -0.550  1.00  0.00     0.044 A 
ATOM      8  C   UNL     1      -2.458   6.038  -1.344  1.00  0.00     0.027 A 
ATOM      9  C   UNL     1      -1.589   8.226  -1.006  1.00  0.00     0.073 A 
ATOM     10  C   UNL     1      -1.557   5.798  -2.374  1.00  0.00     0.020 A 
ATOM     11  C   UNL     1      -0.772   8.036  -2.129  1.00  0.00     0.130 A 
BRANCH   7  12
ATOM     12  N   UNL     1      -3.114   7.284   0.636  1.00  0.00    -0.326 N 
ATOM     13  C   UNL     1      -3.498   6.274   1.494  1.00  0.00     0.226 C 
ATOM     14  O   UNL     1      -4.412   6.469   2.296  1.00  0.00    -0.275 OA
ATOM     15  H   UNL     1      -3.394   8.193   0.888  1.00  0.00     0.169 HD
BRANCH  13  16
ATOM     16  C   UNL     1      -2.639   5.019   1.584  1.00  0.00     0.125 C 
BRANCH  16  17
ATOM     17  C   UNL     1      -3.395   3.693   1.577  1.00  0.00     0.156 C 
ATOM     18  N   UNL     1      -1.969   2.055   0.573  1.00  0.00    -0.240 N 
ATOM     19  C   UNL     1      -2.680   2.429  -0.528  1.00  0.00     0.293 C 
ATOM     20  C   UNL     1      -2.374   2.586   1.787  1.00  0.00     0.248 C 
ATOM     21  O   UNL     1      -2.406   2.294  -1.720  1.00  0.00    -0.261 OA
ATOM     22  S   UNL     1      -4.144   3.263  -0.020  1.00  0.00    -0.050 SA
ATOM     23  O   UNL     1      -1.972   2.279   2.904  1.00  0.00    -0.273 OA
BRANCH  18  24
ATOM     24  C   UNL     1      -1.026   1.007   0.510  1.00  0.00     0.056 A 
ATOM     25  C   UNL     1       2.772   0.510   0.557  1.00  0.00     0.044 C 
ATOM     26  C   UNL     1       1.292   0.259   0.558  1.00  0.00    -0.049 A 
ATOM     27  C   UNL     1       0.841  -1.061   0.472  1.00  0.00     0.004 A 
ATOM     28  C   UNL     1       0.349   1.295   0.599  1.00  0.00     0.030 A 
ATOM     29  C   UNL     1      -0.517  -1.347   0.360  1.00  0.00     0.006 A 
ATOM     30  C   UNL     1      -1.469  -0.322   0.372  1.00  0.00    -0.027 A 
ATOM     31  C   UNL     1      -2.912  -0.721   0.239  1.00  0.00     0.046 C 
ENDBRANCH  18  24
ENDBRANCH  16  17
ENDBRANCH  13  16
ENDBRANCH   7  12
BRANCH  11  32
ATOM     32  O   UNL     1      -0.196   9.168  -2.637  1.00  0.00    -0.507 OA
ATOM     33  H   UNL     1       0.363   9.114  -3.387  1.00  0.00     0.293 HD
ENDBRANCH  11  32
ENDBRANCH   3   6
ENDBRANCH   1   2
BRANCH   1  34
ATOM     34  C   UNL     1       3.751   7.774  -2.402  1.00  0.00     0.042 C 
BRANCH  34  35
ATOM     35  C   UNL     1       4.716   7.736  -3.569  1.00  0.00     0.118 C 
BRANCH  35  36
ATOM     36  N   UNL     1       4.837   8.973  -4.344  1.00  0.00    -0.352 N 
ATOM     37  C   UNL     1       5.661   9.175  -5.447  1.00  0.00     0.251 C 
ATOM     38  H   UNL     1       4.282   9.733  -4.058  1.00  0.00     0.163 HD
ATOM     39  O   UNL     1       5.645  10.221  -6.082  1.00  0.00    -0.269 OA
BRANCH  37  40
ATOM     40  C   UNL     1       6.504   8.035  -5.864  1.00  0.00     0.039 A 
ATOM     41  C   UNL     1       6.164   7.351  -7.033  1.00  0.00     0.014 A 
ATOM     42  C   UNL     1       7.313   7.450  -4.900  1.00  0.00     0.014 A 
ATOM     43  C   UNL     1       6.404   5.980  -7.104  1.00  0.00     0.010 A 
ATOM     44  C   UNL     1       7.465   6.078  -4.936  1.00  0.00     0.010 A 
ATOM     45  C   UNL     1       6.936   5.319  -5.994  1.00  0.00    -0.014 A 
BRANCH  45  46
ATOM     46  C   UNL     1       7.001   3.854  -5.934  1.00  0.00     0.031 A 
ATOM     47  C   UNL     1       8.306   3.291  -5.507  1.00  0.00     0.074 A 
ATOM     48  C   UNL     1       5.972   2.982  -5.956  1.00  0.00     0.049 A 
ATOM     49  N   UNL     1       9.343   3.046  -6.239  1.00  0.00    -0.248 NA
ATOM     50  C   UNL     1       8.547   3.204  -4.056  1.00  0.00     0.031 C 
ATOM     51  C   UNL     1       4.532   3.224  -5.875  1.00  0.00     0.029 A 
ATOM     52  N   UNL     1       6.057   1.619  -5.966  1.00  0.00    -0.354 N 
ATOM     53  C   UNL     1      10.312   2.605  -5.346  1.00  0.00     0.074 A 
ATOM     54  C   UNL     1       9.872   3.064  -4.053  1.00  0.00     0.031 C 
ATOM     55  C   UNL     1       3.891   2.041  -5.681  1.00  0.00     0.029 A 
ATOM     56  C   UNL     1       4.857   0.954  -5.758  1.00  0.00     0.049 A 
ATOM     57  H   UNL     1       6.907   1.143  -6.110  1.00  0.00     0.167 HD
ATOM     58  C   UNL     1      11.226   1.639  -5.650  1.00  0.00     0.031 A 
ATOM     59  C   UNL     1       4.705  -0.390  -5.640  1.00  0.00     0.031 A 
ATOM     60  C   UNL     1      11.104   1.214  -7.027  1.00  0.00     0.049 A 
ATOM     61  C   UNL     1       5.935  -1.034  -6.166  1.00  0.00     0.074 A 
ATOM     62  C   UNL     1      11.223   1.800  -8.270  1.00  0.00     0.029 A 
ATOM     63  N   UNL     1      10.431   0.029  -7.226  1.00  0.00    -0.354 N 
ATOM     64  N   UNL     1       6.263  -1.052  -7.425  1.00  0.00    -0.248 NA
ATOM     65  C   UNL     1       6.998  -1.411  -5.245  1.00  0.00     0.031 C 
ATOM     66  C   UNL     1      10.273   1.131  -9.102  1.00  0.00     0.029 A 
ATOM     67  C   UNL     1       9.631   0.161  -8.331  1.00  0.00     0.049 A 
ATOM     68  H   UNL     1      10.511  -0.779  -6.669  1.00  0.00     0.167 HD
ATOM     69  C   UNL     1       7.648  -1.048  -7.438  1.00  0.00     0.074 A 
ATOM     70  C   UNL     1       8.038  -1.417  -6.083  1.00  0.00     0.031 C 
ATOM     71  C   UNL     1       8.332  -0.468  -8.467  1.00  0.00     0.031 A 
BRANCH  58  72
ATOM     72  C   UNL     1      11.928   0.761  -4.625  1.00  0.00    -0.014 A 
ATOM     73  C   UNL     1      12.831  -0.221  -5.083  1.00  0.00     0.010 A 
ATOM     74  C   UNL     1      11.583   0.699  -3.260  1.00  0.00     0.010 A 
ATOM     75  C   UNL     1      13.264  -1.265  -4.252  1.00  0.00     0.020 A 
ATOM     76  C   UNL     1      12.043  -0.306  -2.410  1.00  0.00     0.020 A 
ATOM     77  C   UNL     1      12.842  -1.312  -2.925  1.00  0.00     0.054 A 
BRANCH  77  78
ATOM     78  S   UNL     1      13.260  -2.735  -1.894  1.00  0.00     0.124 S 
ATOM     79  O   UNL     1      12.503  -3.801  -2.542  1.00  0.00    -0.237 OA
ATOM     80  O   UNL     1      14.711  -2.805  -2.036  1.00  0.00    -0.237 OA
ATOM     81  O   UNL     1      12.786  -2.346  -0.567  1.00  0.00    -0.744 OA
ENDBRANCH  77  78
ENDBRANCH  58  72
BRANCH  59  82
ATOM     82  C   UNL     1       3.658  -1.212  -4.992  1.00  0.00    -0.014 A 
ATOM     83  C   UNL     1       3.525  -2.576  -5.327  1.00  0.00     0.010 A 
ATOM     84  C   UNL     1       3.002  -0.751  -3.839  1.00  0.00     0.010 A 
ATOM     85  C   UNL     1       2.848  -3.472  -4.486  1.00  0.00     0.020 A 
ATOM     86  C   UNL     1       2.314  -1.640  -3.002  1.00  0.00     0.020 A 
ATOM     87  C   UNL     1       2.278  -3.002  -3.305  1.00  0.00     0.054 A 
BRANCH  87  88
ATOM     88  S   UNL     1       1.619  -4.157  -2.066  1.00  0.00     0.124 S 
ATOM     89  O   UNL     1       0.210  -3.782  -1.992  1.00  0.00    -0.237 OA
ATOM     90  O   UNL     1       1.881  -5.475  -2.637  1.00  0.00    -0.237 OA
ATOM     91  O   UNL     1       2.414  -3.830  -0.884  1.00  0.00    -0.744 OA
ENDBRANCH  87  88
ENDBRANCH  59  82
BRANCH  71  92
ATOM     92  C   UNL     1       7.578  -0.219  -9.752  1.00  0.00    -0.014 A 
ATOM     93  C   UNL     1       6.454   0.626  -9.840  1.00  0.00     0.010 A 
ATOM     94  C   UNL     1       8.091  -0.780 -10.934  1.00  0.00     0.010 A 
ATOM     95  C   UNL     1       5.844   0.881 -11.075  1.00  0.00     0.020 A 
ATOM     96  C   UNL     1       7.498  -0.513 -12.172  1.00  0.00     0.020 A 
ATOM     97  C   UNL     1       6.373   0.311 -12.235  1.00  0.00     0.054 A 
BRANCH  97  98
ATOM     98  S   UNL     1       5.621   0.706 -13.838  1.00  0.00     0.124 S 
ATOM     99  O   UNL     1       4.361  -0.028 -13.788  1.00  0.00    -0.237 OA
ATOM    100  O   UNL     1       5.504   2.163 -13.791  1.00  0.00    -0.237 OA
ATOM    101  O   UNL     1       6.592   0.205 -14.810  1.00  0.00    -0.744 OA
ENDBRANCH  97  98
ENDBRANCH  71  92
ENDBRANCH  45  46
ENDBRANCH  37  40
ENDBRANCH  35  36
ENDBRANCH  34  35
ENDBRANCH   1  34
TORSDOF 18
