REMARK SMILES Cn1nc(-c2cccs2)cc1C(=O)N1CC[C@@H](c2ccccc2C(=O)NCCCNC(=O)c2ccc(-c3c4nc(c(-c5ccc(S(=O)(=O)[O-])cc5)c5ccc([nH]5)c(-c5ccc(S(=O)(=O)[O-])cc5)c5nc(c(-c6ccc(S(=O)(=O)[O-])cc6)c6ccc3[nH]6)C=C5)C=C4)cc2)C1
REMARK SMILES IDX 27 1 26 2 24 3 25 4 23 6 18 7 19 8 20 9 22 10 21 11 17 12
REMARK SMILES IDX 14 13 15 14 93 15 16 16 12 17 13 18 11 19 1 20 2 21 3 22
REMARK SMILES IDX 4 23 10 24 5 25 6 26 9 27 7 28 8 29 28 30 29 31 30 32 31 33
REMARK SMILES IDX 32 35 33 36 34 37 92 38 35 39 91 40 36 41 37 42 38 43 85 44
REMARK SMILES IDX 39 45 90 46 84 47 86 48 40 49 89 50 83 51 82 52 41 54 71 55
REMARK SMILES IDX 52 56 70 57 53 58 56 59 69 60 87 61 54 62 55 63 68 65 88 66
REMARK SMILES IDX 57 67 42 68 43 69 51 70 44 71 50 72 45 73 46 74 47 75 48 76
REMARK SMILES IDX 49 77 72 78 73 79 81 80 74 81 80 82 75 83 76 84 77 85 78 86
REMARK SMILES IDX 79 87 58 88 59 89 67 90 60 91 66 92 61 93 62 94 63 95 64 96
REMARK SMILES IDX 65 97
REMARK H PARENT 26 5 30 34 86 53 56 64
REMARK Flexibility Score: inf
ROOT
ATOM      1  C   UNL     1      -4.892  -4.106   3.149  1.00  0.00     0.118 C 
ENDROOT
BRANCH   1   2
ATOM      2  N   UNL     1      -6.094  -3.768   2.406  1.00  0.00    -0.352 N 
ATOM      3  C   UNL     1      -6.541  -4.170   1.176  1.00  0.00     0.251 C 
ATOM      4  O   UNL     1      -7.639  -3.784   0.781  1.00  0.00    -0.269 OA
ATOM      5  H   UNL     1      -6.694  -3.139   2.869  1.00  0.00     0.163 HD
BRANCH   3   6
ATOM      6  C   UNL     1      -5.785  -5.121   0.332  1.00  0.00     0.043 A 
ATOM      7  C   UNL     1      -4.632  -4.784  -0.405  1.00  0.00    -0.030 A 
ATOM      8  C   UNL     1      -4.124  -5.749  -1.301  1.00  0.00     0.005 A 
ATOM      9  C   UNL     1      -4.732  -6.996  -1.459  1.00  0.00     0.000 A 
ATOM     10  C   UNL     1      -6.398  -6.376   0.161  1.00  0.00     0.014 A 
ATOM     11  C   UNL     1      -5.867  -7.312  -0.724  1.00  0.00     0.001 A 
BRANCH   7  12
ATOM     12  C   UNL     1      -3.913  -3.465  -0.255  1.00  0.00     0.041 C 
ATOM     13  N   UNL     1      -1.817  -2.418  -0.104  1.00  0.00    -0.337 N 
ATOM     14  C   UNL     1      -2.468  -1.782  -1.241  1.00  0.00     0.120 C 
ATOM     15  C   UNL     1      -2.480  -3.651   0.248  1.00  0.00     0.128 C 
ATOM     16  C   UNL     1      -3.706  -2.637  -1.535  1.00  0.00     0.032 C 
BRANCH  13  17
ATOM     17  C   UNL     1      -0.613  -2.093   0.491  1.00  0.00     0.272 C 
ATOM     18  O   UNL     1      -0.034  -2.903   1.214  1.00  0.00    -0.267 OA
BRANCH  17  19
ATOM     19  C   UNL     1      -0.070  -0.785   0.247  1.00  0.00     0.126 A 
ATOM     20  C   UNL     1      -1.921   0.657   1.206  1.00  0.00     0.174 C 
ATOM     21  N   UNL     1      -0.655   0.415   0.555  1.00  0.00    -0.262 N 
ATOM     22  N   UNL     1       0.129   1.474   0.303  1.00  0.00    -0.172 NA
ATOM     23  C   UNL     1       1.292   0.951  -0.095  1.00  0.00     0.103 A 
ATOM     24  C   UNL     1       1.214  -0.458  -0.158  1.00  0.00     0.065 A 
BRANCH  23  25
ATOM     25  C   UNL     1       2.498   1.799  -0.378  1.00  0.00     0.055 A 
ATOM     26  C   UNL     1       3.733   1.317  -0.764  1.00  0.00     0.022 A 
ATOM     27  S   UNL     1       2.506   3.504  -0.232  1.00  0.00    -0.142 S 
ATOM     28  C   UNL     1       4.692   2.362  -0.937  1.00  0.00     0.012 A 
ATOM     29  C   UNL     1       4.152   3.602  -0.682  1.00  0.00     0.065 A 
ENDBRANCH  23  25
ENDBRANCH  17  19
ENDBRANCH  13  17
ENDBRANCH   7  12
ENDBRANCH   3   6
ENDBRANCH   1   2
BRANCH   1  30
ATOM     30  C   UNL     1      -4.060  -2.860   3.470  1.00  0.00     0.042 C 
BRANCH  30  31
ATOM     31  C   UNL     1      -4.738  -1.875   4.428  1.00  0.00     0.118 C 
BRANCH  31  32
ATOM     32  N   UNL     1      -4.201  -1.969   5.773  1.00  0.00    -0.352 N 
ATOM     33  C   UNL     1      -3.773  -0.965   6.609  1.00  0.00     0.251 C 
ATOM     34  H   UNL     1      -4.132  -2.881   6.138  1.00  0.00     0.163 HD
ATOM     35  O   UNL     1      -3.170  -1.257   7.638  1.00  0.00    -0.269 OA
BRANCH  33  36
ATOM     36  C   UNL     1      -4.020   0.461   6.283  1.00  0.00     0.039 A 
ATOM     37  C   UNL     1      -2.980   1.380   6.468  1.00  0.00     0.014 A 
ATOM     38  C   UNL     1      -5.282   0.914   5.885  1.00  0.00     0.014 A 
ATOM     39  C   UNL     1      -3.193   2.742   6.228  1.00  0.00     0.010 A 
ATOM     40  C   UNL     1      -5.489   2.273   5.625  1.00  0.00     0.010 A 
ATOM     41  C   UNL     1      -4.449   3.199   5.803  1.00  0.00    -0.014 A 
BRANCH  41  42
ATOM     42  C   UNL     1      -4.701   4.646   5.584  1.00  0.00     0.031 A 
ATOM     43  C   UNL     1      -5.507   5.432   6.581  1.00  0.00     0.074 A 
ATOM     44  C   UNL     1      -4.236   5.257   4.478  1.00  0.00     0.049 A 
ATOM     45  N   UNL     1      -5.931   6.669   6.507  1.00  0.00    -0.248 NA
ATOM     46  C   UNL     1      -5.895   4.732   7.815  1.00  0.00     0.031 C 
ATOM     47  C   UNL     1      -3.438   4.623   3.428  1.00  0.00     0.029 A 
ATOM     48  N   UNL     1      -4.378   6.555   4.054  1.00  0.00    -0.354 N 
ATOM     49  C   UNL     1      -6.667   6.886   7.665  1.00  0.00     0.074 A 
ATOM     50  C   UNL     1      -6.620   5.656   8.431  1.00  0.00     0.031 C 
ATOM     51  C   UNL     1      -3.156   5.535   2.481  1.00  0.00     0.029 A 
ATOM     52  C   UNL     1      -3.769   6.810   2.849  1.00  0.00     0.049 A 
ATOM     53  H   UNL     1      -4.869   7.238   4.565  1.00  0.00     0.167 HD
ATOM     54  C   UNL     1      -7.330   8.000   8.057  1.00  0.00     0.031 A 
ATOM     55  C   UNL     1      -3.719   7.938   2.116  1.00  0.00     0.031 A 
ATOM     56  C   UNL     1      -7.364   9.237   7.326  1.00  0.00     0.049 A 
ATOM     57  C   UNL     1      -4.415   9.179   2.597  1.00  0.00     0.074 A 
ATOM     58  C   UNL     1      -8.023  10.412   7.644  1.00  0.00     0.029 A 
ATOM     59  N   UNL     1      -6.693   9.466   6.136  1.00  0.00    -0.354 N 
ATOM     60  N   UNL     1      -5.138   9.351   3.676  1.00  0.00    -0.248 NA
ATOM     61  C   UNL     1      -4.288  10.378   1.755  1.00  0.00     0.031 C 
ATOM     62  C   UNL     1      -7.747  11.355   6.644  1.00  0.00     0.029 A 
ATOM     63  C   UNL     1      -6.912  10.765   5.710  1.00  0.00     0.049 A 
ATOM     64  H   UNL     1      -6.141   8.802   5.662  1.00  0.00     0.167 HD
ATOM     65  C   UNL     1      -5.559  10.675   3.640  1.00  0.00     0.074 A 
ATOM     66  C   UNL     1      -4.998  11.264   2.441  1.00  0.00     0.031 C 
ATOM     67  C   UNL     1      -6.347  11.339   4.519  1.00  0.00     0.031 A 
BRANCH  54  68
ATOM     68  C   UNL     1      -8.101   7.905   9.340  1.00  0.00    -0.014 A 
ATOM     69  C   UNL     1      -7.472   8.130  10.575  1.00  0.00     0.010 A 
ATOM     70  C   UNL     1      -9.466   7.571   9.308  1.00  0.00     0.010 A 
ATOM     71  C   UNL     1      -8.187   7.980  11.767  1.00  0.00     0.020 A 
ATOM     72  C   UNL     1     -10.185   7.427  10.496  1.00  0.00     0.020 A 
ATOM     73  C   UNL     1      -9.535   7.611  11.720  1.00  0.00     0.054 A 
BRANCH  73  74
ATOM     74  S   UNL     1     -10.463   7.391  13.263  1.00  0.00     0.124 S 
ATOM     75  O   UNL     1     -10.290   5.962  13.513  1.00  0.00    -0.237 OA
ATOM     76  O   UNL     1      -9.775   8.277  14.199  1.00  0.00    -0.237 OA
ATOM     77  O   UNL     1     -11.816   7.805  12.902  1.00  0.00    -0.744 OA
ENDBRANCH  73  74
ENDBRANCH  54  68
BRANCH  55  78
ATOM     78  C   UNL     1      -2.986   7.941   0.828  1.00  0.00    -0.014 A 
ATOM     79  C   UNL     1      -1.645   8.357   0.777  1.00  0.00     0.010 A 
ATOM     80  C   UNL     1      -3.624   7.514  -0.348  1.00  0.00     0.010 A 
ATOM     81  C   UNL     1      -0.951   8.352  -0.436  1.00  0.00     0.020 A 
ATOM     82  C   UNL     1      -2.931   7.503  -1.561  1.00  0.00     0.020 A 
ATOM     83  C   UNL     1      -1.601   7.930  -1.599  1.00  0.00     0.054 A 
BRANCH  83  84
ATOM     84  S   UNL     1      -0.702   7.879  -3.175  1.00  0.00     0.124 S 
ATOM     85  O   UNL     1      -1.105   9.138  -3.793  1.00  0.00    -0.237 OA
ATOM     86  O   UNL     1       0.698   7.801  -2.764  1.00  0.00    -0.237 OA
ATOM     87  O   UNL     1      -1.226   6.671  -3.809  1.00  0.00    -0.744 OA
ENDBRANCH  83  84
ENDBRANCH  55  78
BRANCH  67  88
ATOM     88  C   UNL     1      -6.647  12.778   4.215  1.00  0.00    -0.014 A 
ATOM     89  C   UNL     1      -7.730  13.117   3.386  1.00  0.00     0.010 A 
ATOM     90  C   UNL     1      -5.863  13.797   4.782  1.00  0.00     0.010 A 
ATOM     91  C   UNL     1      -8.015  14.458   3.113  1.00  0.00     0.020 A 
ATOM     92  C   UNL     1      -6.148  15.138   4.513  1.00  0.00     0.020 A 
ATOM     93  C   UNL     1      -7.216  15.460   3.671  1.00  0.00     0.054 A 
BRANCH  93  94
ATOM     94  S   UNL     1      -7.608  17.203   3.346  1.00  0.00     0.124 S 
ATOM     95  O   UNL     1      -6.814  17.474   2.151  1.00  0.00    -0.237 OA
ATOM     96  O   UNL     1      -9.056  17.189   3.147  1.00  0.00    -0.237 OA
ATOM     97  O   UNL     1      -7.162  17.879   4.561  1.00  0.00    -0.744 OA
ENDBRANCH  93  94
ENDBRANCH  67  88
ENDBRANCH  41  42
ENDBRANCH  33  36
ENDBRANCH  31  32
ENDBRANCH  30  31
ENDBRANCH   1  30
TORSDOF 17
