REMARK SMILES C[C@@H](CCO)SCc1cccc(/C=C/C(=O)NCCCNC(=O)c2ccc(-c3c4nc(c(-c5ccc(S(=O)(=O)[O-])cc5)c5ccc([nH]5)c(-c5ccc(S(=O)(=O)[O-])cc5)c5nc(c(-c6ccc(S(=O)(=O)[O-])cc6)c6ccc3[nH]6)C=C5)C=C4)cc2)c1
REMARK SMILES IDX 15 1 16 2 17 3 14 5 13 6 12 7 8 8 9 9 84 10 10 11 11 12 7 13
REMARK SMILES IDX 6 14 2 15 1 16 3 17 4 18 5 19 18 21 19 22 20 23 21 24 22 25
REMARK SMILES IDX 23 27 24 28 25 29 83 30 26 31 82 32 27 33 28 34 29 35 76 36
REMARK SMILES IDX 30 37 81 38 75 39 77 40 31 41 80 42 74 43 73 44 32 46 62 47
REMARK SMILES IDX 43 48 61 49 44 50 47 51 60 52 78 53 45 54 46 55 59 57 79 58
REMARK SMILES IDX 48 59 33 60 34 61 42 62 35 63 41 64 36 65 37 66 38 67 39 68
REMARK SMILES IDX 40 69 63 70 64 71 72 72 65 73 71 74 66 75 67 76 68 77 69 78
REMARK SMILES IDX 70 79 49 80 50 81 58 82 51 83 57 84 52 85 53 86 54 87 55 88
REMARK SMILES IDX 56 89
REMARK H PARENT 17 4 5 20 21 26 77 45 47 56
REMARK Flexibility Score: inf
ROOT
ATOM      1  C   UNL     1      -1.718   8.091   3.516  1.00  0.00     0.244 C 
ATOM      2  O   UNL     1      -1.691   8.837   4.496  1.00  0.00    -0.270 OA
ATOM      3  N   UNL     1      -1.799   8.648   2.284  1.00  0.00    -0.352 N 
ATOM      4  H   UNL     1      -1.905   9.627   2.295  1.00  0.00     0.163 HD
ENDROOT
BRANCH   1   5
ATOM      5  C   UNL     1      -1.581   6.631   3.747  1.00  0.00     0.072 C 
ATOM      6  C   UNL     1      -2.048   5.615   3.006  1.00  0.00     0.014 C 
BRANCH   6   7
ATOM      7  C   UNL     1      -1.911   4.182   3.333  1.00  0.00    -0.025 A 
ATOM      8  C   UNL     1      -2.001   1.851   2.544  1.00  0.00    -0.037 A 
ATOM      9  C   UNL     1      -1.798   1.423   3.861  1.00  0.00     0.004 A 
ATOM     10  C   UNL     1      -2.115   3.237   2.311  1.00  0.00     0.012 A 
ATOM     11  C   UNL     1      -1.585   2.344   4.884  1.00  0.00     0.001 A 
ATOM     12  C   UNL     1      -1.629   3.713   4.620  1.00  0.00     0.008 A 
BRANCH   8  13
ATOM     13  C   UNL     1      -2.165   0.897   1.378  1.00  0.00     0.105 C 
BRANCH  13  14
ATOM     14  S   UNL     1      -1.365  -0.736   1.530  1.00  0.00    -0.154 SA
BRANCH  14  15
ATOM     15  C   UNL     1       0.419  -0.404   1.173  1.00  0.00     0.046 C 
ATOM     16  C   UNL     1       0.671  -0.060  -0.289  1.00  0.00     0.019 C 
BRANCH  15  17
ATOM     17  C   UNL     1       1.149   0.432   2.240  1.00  0.00     0.042 C 
BRANCH  17  18
ATOM     18  C   UNL     1       1.617   1.857   1.942  1.00  0.00     0.157 C 
BRANCH  18  19
ATOM     19  O   UNL     1       0.896   2.520   0.926  1.00  0.00    -0.396 OA
ATOM     20  H   UNL     1       1.010   2.046   0.087  1.00  0.00     0.210 HD
ENDBRANCH  18  19
ENDBRANCH  17  18
ENDBRANCH  15  17
ENDBRANCH  14  15
ENDBRANCH  13  14
ENDBRANCH   8  13
ENDBRANCH   6   7
ENDBRANCH   1   5
BRANCH   3  21
ATOM     21  C   UNL     1      -1.760   8.076   0.951  1.00  0.00     0.118 C 
BRANCH  21  22
ATOM     22  C   UNL     1      -3.161   7.921   0.362  1.00  0.00     0.042 C 
BRANCH  22  23
ATOM     23  C   UNL     1      -3.806   9.244  -0.051  1.00  0.00     0.118 C 
BRANCH  23  24
ATOM     24  N   UNL     1      -3.107   9.868  -1.167  1.00  0.00    -0.352 N 
ATOM     25  C   UNL     1      -3.550  10.188  -2.422  1.00  0.00     0.251 C 
ATOM     26  H   UNL     1      -2.166  10.096  -0.989  1.00  0.00     0.163 HD
ATOM     27  O   UNL     1      -2.723  10.489  -3.288  1.00  0.00    -0.269 OA
BRANCH  25  28
ATOM     28  C   UNL     1      -4.990  10.178  -2.756  1.00  0.00     0.039 A 
ATOM     29  C   UNL     1      -5.389   9.714  -4.014  1.00  0.00     0.014 A 
ATOM     30  C   UNL     1      -5.944  10.682  -1.867  1.00  0.00     0.014 A 
ATOM     31  C   UNL     1      -6.742   9.709  -4.359  1.00  0.00     0.010 A 
ATOM     32  C   UNL     1      -7.299  10.616  -2.187  1.00  0.00     0.010 A 
ATOM     33  C   UNL     1      -7.712  10.135  -3.438  1.00  0.00    -0.014 A 
BRANCH  33  34
ATOM     34  C   UNL     1      -9.161  10.085  -3.764  1.00  0.00     0.031 A 
ATOM     35  C   UNL     1      -9.964  11.354  -3.854  1.00  0.00     0.074 A 
ATOM     36  C   UNL     1      -9.766   8.890  -3.917  1.00  0.00     0.049 A 
ATOM     37  N   UNL     1     -11.250  11.505  -4.046  1.00  0.00    -0.248 NA
ATOM     38  C   UNL     1      -9.231  12.620  -3.681  1.00  0.00     0.031 C 
ATOM     39  C   UNL     1      -9.104   7.587  -3.817  1.00  0.00     0.029 A 
ATOM     40  N   UNL     1     -11.076   8.576  -4.177  1.00  0.00    -0.354 N 
ATOM     41  C   UNL     1     -11.483  12.875  -4.001  1.00  0.00     0.074 A 
ATOM     42  C   UNL     1     -10.213  13.509  -3.718  1.00  0.00     0.031 C 
ATOM     43  C   UNL     1     -10.008   6.617  -4.029  1.00  0.00     0.029 A 
ATOM     44  C   UNL     1     -11.318   7.224  -4.241  1.00  0.00     0.049 A 
ATOM     45  H   UNL     1     -11.778   9.255  -4.305  1.00  0.00     0.167 HD
ATOM     46  C   UNL     1     -12.644  13.545  -4.195  1.00  0.00     0.031 A 
ATOM     47  C   UNL     1     -12.465   6.546  -4.437  1.00  0.00     0.031 A 
ATOM     48  C   UNL     1     -13.902  12.911  -4.487  1.00  0.00     0.049 A 
ATOM     49  C   UNL     1     -13.741   7.311  -4.653  1.00  0.00     0.074 A 
ATOM     50  C   UNL     1     -15.127  13.504  -4.742  1.00  0.00     0.029 A 
ATOM     51  N   UNL     1     -14.098  11.540  -4.567  1.00  0.00    -0.354 N 
ATOM     52  N   UNL     1     -13.931   8.609  -4.651  1.00  0.00    -0.248 NA
ATOM     53  C   UNL     1     -14.953   6.522  -4.911  1.00  0.00     0.031 C 
ATOM     54  C   UNL     1     -16.072  12.491  -4.934  1.00  0.00     0.029 A 
ATOM     55  C   UNL     1     -15.425  11.268  -4.854  1.00  0.00     0.049 A 
ATOM     56  H   UNL     1     -13.397  10.861  -4.440  1.00  0.00     0.167 HD
ATOM     57  C   UNL     1     -15.280   8.793  -4.930  1.00  0.00     0.074 A 
ATOM     58  C   UNL     1     -15.854   7.474  -5.110  1.00  0.00     0.031 C 
ATOM     59  C   UNL     1     -15.981   9.950  -5.028  1.00  0.00     0.031 A 
BRANCH  46  60
ATOM     60  C   UNL     1     -12.606  15.049  -4.100  1.00  0.00    -0.014 A 
ATOM     61  C   UNL     1     -11.969  15.820  -5.089  1.00  0.00     0.010 A 
ATOM     62  C   UNL     1     -13.252  15.702  -3.035  1.00  0.00     0.010 A 
ATOM     63  C   UNL     1     -11.945  17.214  -4.995  1.00  0.00     0.020 A 
ATOM     64  C   UNL     1     -13.254  17.098  -2.951  1.00  0.00     0.020 A 
ATOM     65  C   UNL     1     -12.586  17.845  -3.924  1.00  0.00     0.054 A 
BRANCH  65  66
ATOM     66  S   UNL     1     -12.562  19.657  -3.842  1.00  0.00     0.124 S 
ATOM     67  O   UNL     1     -11.180  19.921  -3.450  1.00  0.00    -0.237 OA
ATOM     68  O   UNL     1     -12.913  20.044  -5.207  1.00  0.00    -0.237 OA
ATOM     69  O   UNL     1     -13.568  19.972  -2.831  1.00  0.00    -0.744 OA
ENDBRANCH  65  66
ENDBRANCH  46  60
BRANCH  47  70
ATOM     70  C   UNL     1     -12.449   5.058  -4.448  1.00  0.00    -0.014 A 
ATOM     71  C   UNL     1     -12.620   4.351  -5.651  1.00  0.00     0.010 A 
ATOM     72  C   UNL     1     -12.232   4.341  -3.257  1.00  0.00     0.010 A 
ATOM     73  C   UNL     1     -12.585   2.953  -5.661  1.00  0.00     0.020 A 
ATOM     74  C   UNL     1     -12.170   2.945  -3.268  1.00  0.00     0.020 A 
ATOM     75  C   UNL     1     -12.356   2.259  -4.469  1.00  0.00     0.054 A 
BRANCH  75  76
ATOM     76  S   UNL     1     -12.249   0.448  -4.517  1.00  0.00     0.124 S 
ATOM     77  O   UNL     1     -13.648   0.065  -4.678  1.00  0.00    -0.237 OA
ATOM     78  O   UNL     1     -11.390   0.213  -5.675  1.00  0.00    -0.237 OA
ATOM     79  O   UNL     1     -11.650   0.109  -3.228  1.00  0.00    -0.744 OA
ENDBRANCH  75  76
ENDBRANCH  47  70
BRANCH  59  80
ATOM     80  C   UNL     1     -17.442   9.847  -5.374  1.00  0.00    -0.014 A 
ATOM     81  C   UNL     1     -18.383   9.390  -4.435  1.00  0.00     0.010 A 
ATOM     82  C   UNL     1     -17.885  10.268  -6.641  1.00  0.00     0.010 A 
ATOM     83  C   UNL     1     -19.738   9.328  -4.767  1.00  0.00     0.020 A 
ATOM     84  C   UNL     1     -19.243  10.232  -6.968  1.00  0.00     0.020 A 
ATOM     85  C   UNL     1     -20.160   9.749  -6.032  1.00  0.00     0.054 A 
BRANCH  85  86
ATOM     86  S   UNL     1     -21.930   9.702  -6.424  1.00  0.00     0.124 S 
ATOM     87  O   UNL     1     -22.159   8.274  -6.621  1.00  0.00    -0.237 OA
ATOM     88  O   UNL     1     -22.539  10.278  -5.228  1.00  0.00    -0.237 OA
ATOM     89  O   UNL     1     -22.041  10.523  -7.628  1.00  0.00    -0.744 OA
ENDBRANCH  85  86
ENDBRANCH  59  80
ENDBRANCH  33  34
ENDBRANCH  25  28
ENDBRANCH  23  24
ENDBRANCH  22  23
ENDBRANCH  21  22
ENDBRANCH   3  21
TORSDOF 20
