REMARK SMILES NC(=O)C[C@H](NC(=O)[C@@H]1CC(=O)N(CC2CC2)C1)C(=O)NCCCNC(=O)c1ccc(-c2c3nc(c(-c4ccc(S(=O)(=O)[O-])cc4)c4ccc([nH]4)c(-c4ccc(S(=O)(=O)[O-])cc4)c4nc(c(-c5ccc(S(=O)(=O)[O-])cc5)c5ccc2[nH]5)C=C4)C=C3)cc1
REMARK SMILES IDX 22 1 21 2 19 3 20 4 5 6 4 7 2 8 1 9 3 12 6 13 7 14 8 16 9 17
REMARK SMILES IDX 10 18 18 19 11 20 13 21 12 22 14 23 15 24 16 25 17 26 23 27
REMARK SMILES IDX 24 28 25 29 26 30 27 32 28 33 29 34 87 35 30 36 86 37 31 38
REMARK SMILES IDX 32 39 33 40 80 41 34 42 85 43 79 44 81 45 35 46 84 47 78 48
REMARK SMILES IDX 77 49 36 51 66 52 47 53 65 54 48 55 51 56 64 57 82 58 49 59
REMARK SMILES IDX 50 60 63 62 83 63 52 64 37 65 38 66 46 67 39 68 45 69 40 70
REMARK SMILES IDX 41 71 42 72 43 73 44 74 67 75 68 76 76 77 69 78 75 79 70 80
REMARK SMILES IDX 71 81 72 82 73 83 74 84 53 85 54 86 62 87 55 88 61 89 56 90
REMARK SMILES IDX 57 91 58 92 59 93 60 94
REMARK H PARENT 21 5 1 10 1 11 6 15 25 31 81 50 51 61
REMARK Flexibility Score: inf
ROOT
ATOM      1  C   UNL     1       3.704  -3.458  -1.313  1.00  0.00     0.117 C 
ENDROOT
BRANCH   1   2
ATOM      2  N   UNL     1       3.446  -3.215  -2.714  1.00  0.00    -0.354 N 
ATOM      3  C   UNL     1       2.828  -2.167  -3.320  1.00  0.00     0.243 C 
ATOM      4  O   UNL     1       2.908  -2.093  -4.550  1.00  0.00    -0.273 OA
ATOM      5  H   UNL     1       3.768  -3.918  -3.324  1.00  0.00     0.163 HD
BRANCH   3   6
ATOM      6  C   UNL     1       2.042  -1.105  -2.527  1.00  0.00     0.180 C 
BRANCH   6   7
ATOM      7  C   UNL     1       2.863  -0.028  -1.820  1.00  0.00     0.134 C 
BRANCH   7   8
ATOM      8  C   UNL     1       3.900  -0.462  -0.822  1.00  0.00     0.220 C 
ATOM      9  N   UNL     1       3.452  -0.687   0.447  1.00  0.00    -0.370 N 
ATOM     10  H   UNL     1       4.082  -0.973   1.147  1.00  0.00     0.159 HD
ATOM     11  H   UNL     1       2.499  -0.562   0.661  1.00  0.00     0.159 HD
ATOM     12  O   UNL     1       5.082  -0.616  -1.106  1.00  0.00    -0.275 OA
ENDBRANCH   7   8
ENDBRANCH   6   7
BRANCH   6  13
ATOM     13  N   UNL     1       0.982  -1.724  -1.720  1.00  0.00    -0.343 N 
ATOM     14  C   UNL     1      -0.369  -1.638  -1.752  1.00  0.00     0.226 C 
ATOM     15  H   UNL     1       1.321  -2.321  -1.015  1.00  0.00     0.164 HD
ATOM     16  O   UNL     1      -0.969  -2.474  -1.065  1.00  0.00    -0.275 OA
BRANCH  14  17
ATOM     17  C   UNL     1      -1.174  -0.533  -2.418  1.00  0.00     0.107 C 
ATOM     18  C   UNL     1      -0.838  -0.097  -3.837  1.00  0.00     0.115 C 
ATOM     19  C   UNL     1      -1.117   0.731  -1.585  1.00  0.00     0.133 C 
ATOM     20  C   UNL     1      -0.084   1.202  -3.644  1.00  0.00     0.223 C 
ATOM     21  N   UNL     1      -0.238   1.598  -2.325  1.00  0.00    -0.342 N 
ATOM     22  O   UNL     1       0.566   1.769  -4.499  1.00  0.00    -0.275 OA
BRANCH  21  23
ATOM     23  C   UNL     1       0.411   2.756  -1.740  1.00  0.00     0.123 C 
BRANCH  23  24
ATOM     24  C   UNL     1      -0.433   3.986  -1.634  1.00  0.00     0.008 C 
ATOM     25  C   UNL     1      -1.770   4.157  -2.310  1.00  0.00     0.006 C 
ATOM     26  C   UNL     1      -1.698   4.020  -0.812  1.00  0.00     0.006 C 
ENDBRANCH  23  24
ENDBRANCH  21  23
ENDBRANCH  14  17
ENDBRANCH   6  13
ENDBRANCH   3   6
ENDBRANCH   1   2
BRANCH   1  27
ATOM     27  C   UNL     1       3.344  -4.855  -0.866  1.00  0.00     0.042 C 
BRANCH  27  28
ATOM     28  C   UNL     1       4.244  -5.917  -1.463  1.00  0.00     0.118 C 
BRANCH  28  29
ATOM     29  N   UNL     1       5.644  -5.748  -1.088  1.00  0.00    -0.352 N 
ATOM     30  C   UNL     1       6.451  -6.529  -0.295  1.00  0.00     0.251 C 
ATOM     31  H   UNL     1       6.080  -4.949  -1.462  1.00  0.00     0.163 HD
ATOM     32  O   UNL     1       7.549  -6.112   0.060  1.00  0.00    -0.269 OA
BRANCH  30  33
ATOM     33  C   UNL     1       5.978  -7.857   0.148  1.00  0.00     0.039 A 
ATOM     34  C   UNL     1       6.249  -8.287   1.448  1.00  0.00     0.014 A 
ATOM     35  C   UNL     1       5.250  -8.670  -0.720  1.00  0.00     0.014 A 
ATOM     36  C   UNL     1       5.723  -9.501   1.894  1.00  0.00     0.010 A 
ATOM     37  C   UNL     1       4.609  -9.797  -0.233  1.00  0.00     0.010 A 
ATOM     38  C   UNL     1       4.865 -10.246   1.069  1.00  0.00    -0.014 A 
BRANCH  38  39
ATOM     39  C   UNL     1       4.274 -11.536   1.502  1.00  0.00     0.031 A 
ATOM     40  C   UNL     1       4.564 -12.782   0.702  1.00  0.00     0.074 A 
ATOM     41  C   UNL     1       3.436 -11.578   2.556  1.00  0.00     0.049 A 
ATOM     42  N   UNL     1       4.062 -13.982   0.832  1.00  0.00    -0.248 NA
ATOM     43  C   UNL     1       5.512 -12.652  -0.421  1.00  0.00     0.031 C 
ATOM     44  C   UNL     1       3.043 -10.432   3.382  1.00  0.00     0.029 A 
ATOM     45  N   UNL     1       2.757 -12.632   3.113  1.00  0.00    -0.354 N 
ATOM     46  C   UNL     1       4.611 -14.733  -0.201  1.00  0.00     0.074 A 
ATOM     47  C   UNL     1       5.424 -13.842  -0.994  1.00  0.00     0.031 C 
ATOM     48  C   UNL     1       2.225 -10.854   4.361  1.00  0.00     0.029 A 
ATOM     49  C   UNL     1       1.997 -12.286   4.206  1.00  0.00     0.049 A 
ATOM     50  H   UNL     1       2.808 -13.551   2.762  1.00  0.00     0.167 HD
ATOM     51  C   UNL     1       4.486 -16.058  -0.447  1.00  0.00     0.031 A 
ATOM     52  C   UNL     1       1.204 -13.042   4.991  1.00  0.00     0.031 A 
ATOM     53  C   UNL     1       3.712 -16.950   0.371  1.00  0.00     0.049 A 
ATOM     54  C   UNL     1       1.084 -14.514   4.697  1.00  0.00     0.074 A 
ATOM     55  C   UNL     1       3.553 -18.317   0.239  1.00  0.00     0.029 A 
ATOM     56  N   UNL     1       2.984 -16.564   1.485  1.00  0.00    -0.354 N 
ATOM     57  N   UNL     1       1.648 -15.214   3.740  1.00  0.00    -0.248 NA
ATOM     58  C   UNL     1       0.234 -15.302   5.599  1.00  0.00     0.031 C 
ATOM     59  C   UNL     1       2.695 -18.753   1.253  1.00  0.00     0.029 A 
ATOM     60  C   UNL     1       2.369 -17.666   2.049  1.00  0.00     0.049 A 
ATOM     61  H   UNL     1       2.914 -15.642   1.824  1.00  0.00     0.167 HD
ATOM     62  C   UNL     1       1.254 -16.531   3.953  1.00  0.00     0.074 A 
ATOM     63  C   UNL     1       0.416 -16.530   5.134  1.00  0.00     0.031 C 
ATOM     64  C   UNL     1       1.558 -17.642   3.239  1.00  0.00     0.031 A 
BRANCH  51  65
ATOM     65  C   UNL     1       5.225 -16.623  -1.630  1.00  0.00    -0.014 A 
ATOM     66  C   UNL     1       6.630 -16.708  -1.630  1.00  0.00     0.010 A 
ATOM     67  C   UNL     1       4.511 -17.120  -2.734  1.00  0.00     0.010 A 
ATOM     68  C   UNL     1       7.308 -17.252  -2.723  1.00  0.00     0.020 A 
ATOM     69  C   UNL     1       5.183 -17.695  -3.817  1.00  0.00     0.020 A 
ATOM     70  C   UNL     1       6.579 -17.746  -3.808  1.00  0.00     0.054 A 
BRANCH  70  71
ATOM     71  S   UNL     1       7.485 -18.497  -5.188  1.00  0.00     0.124 S 
ATOM     72  O   UNL     1       8.100 -17.330  -5.815  1.00  0.00    -0.237 OA
ATOM     73  O   UNL     1       8.407 -19.403  -4.508  1.00  0.00    -0.237 OA
ATOM     74  O   UNL     1       6.441 -19.149  -5.975  1.00  0.00    -0.744 OA
ENDBRANCH  70  71
ENDBRANCH  51  65
BRANCH  52  75
ATOM     75  C   UNL     1       0.477 -12.435   6.141  1.00  0.00    -0.014 A 
ATOM     76  C   UNL     1       0.820 -12.776   7.462  1.00  0.00     0.010 A 
ATOM     77  C   UNL     1      -0.585 -11.538   5.922  1.00  0.00     0.010 A 
ATOM     78  C   UNL     1       0.086 -12.269   8.540  1.00  0.00     0.020 A 
ATOM     79  C   UNL     1      -1.299 -11.004   6.999  1.00  0.00     0.020 A 
ATOM     80  C   UNL     1      -0.973 -11.390   8.300  1.00  0.00     0.054 A 
BRANCH  80  81
ATOM     81  S   UNL     1      -1.910 -10.742   9.712  1.00  0.00     0.124 S 
ATOM     82  O   UNL     1      -2.697 -11.905  10.112  1.00  0.00    -0.237 OA
ATOM     83  O   UNL     1      -0.853 -10.344  10.637  1.00  0.00    -0.237 OA
ATOM     84  O   UNL     1      -2.673  -9.637   9.136  1.00  0.00    -0.744 OA
ENDBRANCH  80  81
ENDBRANCH  52  75
BRANCH  64  85
ATOM     85  C   UNL     1       1.039 -18.958   3.751  1.00  0.00    -0.014 A 
ATOM     86  C   UNL     1      -0.324 -19.291   3.673  1.00  0.00     0.010 A 
ATOM     87  C   UNL     1       1.949 -19.898   4.271  1.00  0.00     0.010 A 
ATOM     88  C   UNL     1      -0.774 -20.527   4.144  1.00  0.00     0.020 A 
ATOM     89  C   UNL     1       1.507 -21.146   4.712  1.00  0.00     0.020 A 
ATOM     90  C   UNL     1       0.145 -21.446   4.661  1.00  0.00     0.054 A 
BRANCH  90  91
ATOM     91  S   UNL     1      -0.461 -23.057   5.231  1.00  0.00     0.124 S 
ATOM     92  O   UNL     1      -1.125 -22.706   6.483  1.00  0.00    -0.237 OA
ATOM     93  O   UNL     1      -1.345 -23.470   4.144  1.00  0.00    -0.237 OA
ATOM     94  O   UNL     1       0.756 -23.854   5.373  1.00  0.00    -0.744 OA
ENDBRANCH  90  91
ENDBRANCH  64  85
ENDBRANCH  38  39
ENDBRANCH  30  33
ENDBRANCH  28  29
ENDBRANCH  27  28
ENDBRANCH   1  27
TORSDOF 19
