REMARK SMILES COc1ccc(N2/C(=[NH+]/C(=O)CCCC(=O)NCCCNC(=O)c3ccc(-c4c5nc(c(-c6ccc(S(=O)(=O)[O-])cc6)c6ccc([nH]6)c(-c6ccc(S(=O)(=O)[O-])cc6)c6nc(c(-c7ccc(S(=O)(=O)[O-])cc7)c7ccc4[nH]7)C=C6)C=C5)cc3)S[C@@H]3CS(=O)(=O)C[C@H]32)cc1Cl
REMARK SMILES IDX 18 1 17 2 15 3 16 4 14 6 13 7 12 8 10 9 7 10 8 11 91 12 9 13
REMARK SMILES IDX 84 14 85 15 90 16 86 18 87 19 11 20 88 21 89 22 6 23 3 24
REMARK SMILES IDX 4 25 93 26 5 27 92 28 94 29 2 30 1 31 19 32 20 33 21 34
REMARK SMILES IDX 22 35 23 37 24 38 25 39 83 40 26 41 82 42 27 43 28 44 29 45
REMARK SMILES IDX 76 46 30 47 81 48 75 49 77 50 31 51 80 52 74 53 73 54 32 56
REMARK SMILES IDX 62 57 43 58 61 59 44 60 47 61 60 62 78 63 45 64 46 65 59 67
REMARK SMILES IDX 79 68 48 69 33 70 34 71 42 72 35 73 41 74 36 75 37 76 38 77
REMARK SMILES IDX 39 78 40 79 63 80 64 81 72 82 65 83 71 84 66 85 67 86 68 87
REMARK SMILES IDX 69 88 70 89 49 90 50 91 58 92 51 93 57 94 52 95 53 96 54 97
REMARK SMILES IDX 55 98 56 99
REMARK H PARENT 17 5 9 17 21 36 77 55 47 66
REMARK Flexibility Score: inf
ROOT
ATOM      1  C   UNL     1       3.217   0.086   6.589  1.00  0.00     0.117 C 
ENDROOT
BRANCH   1   2
ATOM      2  N   UNL     1       3.944   0.896   5.634  1.00  0.00    -0.356 N 
ATOM      3  C   UNL     1       4.970   0.563   4.803  1.00  0.00     0.220 C 
ATOM      4  O   UNL     1       5.487   1.459   4.133  1.00  0.00    -0.275 OA
ATOM      5  H   UNL     1       3.651   1.834   5.576  1.00  0.00     0.163 HD
BRANCH   3   6
ATOM      6  C   UNL     1       5.417  -0.878   4.648  1.00  0.00     0.100 C 
BRANCH   6   7
ATOM      7  C   UNL     1       6.517  -1.381   5.576  1.00  0.00     0.022 C 
BRANCH   7   8
ATOM      8  C   UNL     1       6.132  -1.857   6.974  1.00  0.00     0.128 C 
BRANCH   8   9
ATOM      9  C   UNL     1       5.232  -3.085   7.128  1.00  0.00     0.307 C 
ATOM     10  N   UNL     1       1.982  -3.985   5.618  1.00  0.00    -0.217 N 
ATOM     11  C   UNL     1       3.140  -3.933   6.422  1.00  0.00     0.319 C 
ATOM     12  C   UNL     1       1.276  -5.261   5.763  1.00  0.00     0.212 C 
ATOM     13  N   UNL     1       4.145  -3.130   6.285  1.00  0.00    -0.204 N 
ATOM     14  S   UNL     1       2.982  -5.178   7.707  1.00  0.00    -0.029 SA
ATOM     15  C   UNL     1       1.275  -5.523   7.269  1.00  0.00     0.120 C 
ATOM     16  C   UNL     1      -0.167  -5.459   5.365  1.00  0.00     0.188 C 
ATOM     17  H   UNL     1       4.131  -2.507   5.523  1.00  0.00     0.316 HD
ATOM     18  C   UNL     1       0.742  -6.924   7.452  1.00  0.00     0.156 C 
ATOM     19  S   UNL     1      -0.560  -6.999   6.213  1.00  0.00     0.155 S 
ATOM     20  O   UNL     1       5.488  -3.878   8.030  1.00  0.00    -0.247 OA
ATOM     21  O   UNL     1      -1.842  -6.853   6.860  1.00  0.00    -0.229 OA
ATOM     22  O   UNL     1      -0.267  -8.096   5.311  1.00  0.00    -0.229 OA
BRANCH  10  23
ATOM     23  C   UNL     1       1.661  -3.122   4.562  1.00  0.00     0.130 A 
ATOM     24  C   UNL     1       1.015  -1.247   2.498  1.00  0.00     0.137 A 
ATOM     25  C   UNL     1       0.102  -1.557   3.510  1.00  0.00     0.052 A 
ATOM     26  C   UNL     1       2.258  -1.887   2.518  1.00  0.00     0.087 A 
ATOM     27  C   UNL     1       0.421  -2.470   4.524  1.00  0.00     0.056 A 
ATOM     28  C   UNL     1       2.559  -2.825   3.531  1.00  0.00     0.076 A 
ATOM     29  Cl  UNL     1       3.534  -1.545   1.404  1.00  0.00    -0.080 Cl
BRANCH  24  30
ATOM     30  O   UNL     1       0.566  -0.255   1.671  1.00  0.00    -0.495 OA
ATOM     31  C   UNL     1       0.921  -0.303   0.297  1.00  0.00     0.278 C 
ENDBRANCH  24  30
ENDBRANCH  10  23
ENDBRANCH   8   9
ENDBRANCH   7   8
ENDBRANCH   6   7
ENDBRANCH   3   6
ENDBRANCH   1   2
BRANCH   1  32
ATOM     32  C   UNL     1       3.634   0.412   8.017  1.00  0.00     0.042 C 
BRANCH  32  33
ATOM     33  C   UNL     1       2.892   1.604   8.587  1.00  0.00     0.118 C 
BRANCH  33  34
ATOM     34  N   UNL     1       1.524   1.275   8.961  1.00  0.00    -0.352 N 
ATOM     35  C   UNL     1       0.909   1.397  10.187  1.00  0.00     0.251 C 
ATOM     36  H   UNL     1       0.960   0.917   8.238  1.00  0.00     0.163 HD
ATOM     37  O   UNL     1      -0.195   0.894  10.370  1.00  0.00    -0.269 OA
BRANCH  35  38
ATOM     38  C   UNL     1       1.605   2.109  11.283  1.00  0.00     0.039 A 
ATOM     39  C   UNL     1       1.601   1.566  12.570  1.00  0.00     0.014 A 
ATOM     40  C   UNL     1       2.296   3.295  11.025  1.00  0.00     0.014 A 
ATOM     41  C   UNL     1       2.359   2.171  13.578  1.00  0.00     0.010 A 
ATOM     42  C   UNL     1       3.131   3.829  11.995  1.00  0.00     0.010 A 
ATOM     43  C   UNL     1       3.165   3.282  13.287  1.00  0.00    -0.014 A 
BRANCH  43  44
ATOM     44  C   UNL     1       4.031   3.933  14.304  1.00  0.00     0.031 A 
ATOM     45  C   UNL     1       3.810   5.386  14.631  1.00  0.00     0.074 A 
ATOM     46  C   UNL     1       5.071   3.266  14.843  1.00  0.00     0.049 A 
ATOM     47  N   UNL     1       4.555   6.199  15.333  1.00  0.00    -0.248 NA
ATOM     48  C   UNL     1       2.608   6.019  14.057  1.00  0.00     0.031 C 
ATOM     49  C   UNL     1       5.404   1.862  14.593  1.00  0.00     0.029 A 
ATOM     50  N   UNL     1       6.058   3.692  15.699  1.00  0.00    -0.354 N 
ATOM     51  C   UNL     1       3.934   7.441  15.254  1.00  0.00     0.074 A 
ATOM     52  C   UNL     1       2.782   7.287  14.395  1.00  0.00     0.031 C 
ATOM     53  C   UNL     1       6.506   1.540  15.292  1.00  0.00     0.029 A 
ATOM     54  C   UNL     1       6.992   2.725  15.991  1.00  0.00     0.049 A 
ATOM     55  H   UNL     1       6.093   4.603  16.069  1.00  0.00     0.167 HD
ATOM     56  C   UNL     1       4.282   8.601  15.857  1.00  0.00     0.031 A 
ATOM     57  C   UNL     1       8.126   2.791  16.718  1.00  0.00     0.031 A 
ATOM     58  C   UNL     1       5.418   8.739  16.727  1.00  0.00     0.049 A 
ATOM     59  C   UNL     1       8.509   4.099  17.360  1.00  0.00     0.074 A 
ATOM     60  C   UNL     1       5.828   9.857  17.430  1.00  0.00     0.029 A 
ATOM     61  N   UNL     1       6.322   7.728  17.013  1.00  0.00    -0.354 N 
ATOM     62  N   UNL     1       7.885   5.252  17.311  1.00  0.00    -0.248 NA
ATOM     63  C   UNL     1       9.742   4.115  18.161  1.00  0.00     0.031 C 
ATOM     64  C   UNL     1       7.015   9.539  18.096  1.00  0.00     0.029 A 
ATOM     65  C   UNL     1       7.301   8.201  17.868  1.00  0.00     0.049 A 
ATOM     66  H   UNL     1       6.274   6.810  16.661  1.00  0.00     0.167 HD
ATOM     67  C   UNL     1       8.625   6.118  18.110  1.00  0.00     0.074 A 
ATOM     68  C   UNL     1       9.744   5.358  18.627  1.00  0.00     0.031 C 
ATOM     69  C   UNL     1       8.392   7.422  18.396  1.00  0.00     0.031 A 
BRANCH  56  70
ATOM     70  C   UNL     1       3.430   9.814  15.588  1.00  0.00    -0.014 A 
ATOM     71  C   UNL     1       2.107   9.897  16.058  1.00  0.00     0.010 A 
ATOM     72  C   UNL     1       3.974  10.906  14.886  1.00  0.00     0.010 A 
ATOM     73  C   UNL     1       1.330  11.027  15.793  1.00  0.00     0.020 A 
ATOM     74  C   UNL     1       3.212  12.053  14.649  1.00  0.00     0.020 A 
ATOM     75  C   UNL     1       1.888  12.098  15.090  1.00  0.00     0.054 A 
BRANCH  75  76
ATOM     76  S   UNL     1       0.863  13.562  14.783  1.00  0.00     0.124 S 
ATOM     77  O   UNL     1      -0.086  13.061  13.791  1.00  0.00    -0.237 OA
ATOM     78  O   UNL     1       0.302  13.841  16.102  1.00  0.00    -0.237 OA
ATOM     79  O   UNL     1       1.812  14.555  14.288  1.00  0.00    -0.744 OA
ENDBRANCH  75  76
ENDBRANCH  56  70
BRANCH  57  80
ATOM     80  C   UNL     1       8.979   1.580  16.883  1.00  0.00    -0.014 A 
ATOM     81  C   UNL     1       9.086   0.947  18.135  1.00  0.00     0.010 A 
ATOM     82  C   UNL     1       9.682   1.044  15.788  1.00  0.00     0.010 A 
ATOM     83  C   UNL     1       9.894  -0.182  18.293  1.00  0.00     0.020 A 
ATOM     84  C   UNL     1      10.466  -0.104  15.935  1.00  0.00     0.020 A 
ATOM     85  C   UNL     1      10.577  -0.703  17.191  1.00  0.00     0.054 A 
BRANCH  85  86
ATOM     86  S   UNL     1      11.585  -2.196  17.414  1.00  0.00     0.124 S 
ATOM     87  O   UNL     1      12.706  -1.691  18.199  1.00  0.00    -0.237 OA
ATOM     88  O   UNL     1      10.669  -3.090  18.119  1.00  0.00    -0.237 OA
ATOM     89  O   UNL     1      11.908  -2.598  16.047  1.00  0.00    -0.744 OA
ENDBRANCH  85  86
ENDBRANCH  57  80
BRANCH  69  90
ATOM     90  C   UNL     1       9.311   8.111  19.369  1.00  0.00    -0.014 A 
ATOM     91  C   UNL     1      10.611   8.500  19.006  1.00  0.00     0.010 A 
ATOM     92  C   UNL     1       8.807   8.486  20.630  1.00  0.00     0.010 A 
ATOM     93  C   UNL     1      11.390   9.255  19.888  1.00  0.00     0.020 A 
ATOM     94  C   UNL     1       9.572   9.263  21.501  1.00  0.00     0.020 A 
ATOM     95  C   UNL     1      10.861   9.642  21.125  1.00  0.00     0.054 A 
BRANCH  95  96
ATOM     96  S   UNL     1      11.855  10.708  22.204  1.00  0.00     0.124 S 
ATOM     97  O   UNL     1      12.899   9.794  22.658  1.00  0.00    -0.237 OA
ATOM     98  O   UNL     1      12.293  11.762  21.293  1.00  0.00    -0.237 OA
ATOM     99  O   UNL     1      10.911  11.136  23.235  1.00  0.00    -0.744 OA
ENDBRANCH  95  96
ENDBRANCH  69  90
ENDBRANCH  43  44
ENDBRANCH  35  38
ENDBRANCH  33  34
ENDBRANCH  32  33
ENDBRANCH   1  32
TORSDOF 18
