REMARK SMILES Cc1nn(C(C)C)cc1-c1cnccc1C(=O)NCCCNC(=O)c1ccc(-c2c3nc(c(-c4ccc(S(=O)(=O)[O-])cc4)c4ccc([nH]4)c(-c4ccc(S(=O)(=O)[O-])cc4)c4nc(c(-c5ccc(S(=O)(=O)[O-])cc5)c5ccc2[nH]5)C=C4)C=C3)cc1
REMARK SMILES IDX 20 1 19 2 18 3 16 4 17 5 15 7 10 8 11 9 12 10 14 11 13 12
REMARK SMILES IDX 9 13 1 14 2 15 3 16 4 17 8 18 5 19 6 20 7 21 21 22 22 23
REMARK SMILES IDX 23 24 24 26 25 27 26 28 84 29 27 30 83 31 28 32 29 33 30 34
REMARK SMILES IDX 77 35 31 36 82 37 76 38 78 39 32 40 81 41 75 42 74 43 33 45
REMARK SMILES IDX 63 46 44 47 62 48 45 49 48 50 61 51 79 52 46 53 47 54 60 56
REMARK SMILES IDX 80 57 49 58 34 59 35 60 43 61 36 62 42 63 37 64 38 65 39 66
REMARK SMILES IDX 40 67 41 68 64 69 65 70 73 71 66 72 72 73 67 74 68 75 69 76
REMARK SMILES IDX 70 77 71 78 50 79 51 80 59 81 52 82 58 83 53 84 54 85 55 86
REMARK SMILES IDX 56 87 57 88
REMARK H PARENT 18 6 22 25 78 44 48 55
REMARK Flexibility Score: inf
ROOT
ATOM      1  C   UNL     1       0.958   1.613   2.675  1.00  0.00     0.042 C 
ENDROOT
BRANCH   1   2
ATOM      2  C   UNL     1       1.465   2.628   1.681  1.00  0.00     0.118 C 
BRANCH   2   3
ATOM      3  N   UNL     1       2.594   3.470   1.915  1.00  0.00    -0.352 N 
ATOM      4  C   UNL     1       3.397   3.973   0.905  1.00  0.00     0.252 C 
ATOM      5  O   UNL     1       4.125   4.934   1.164  1.00  0.00    -0.269 OA
ATOM      6  H   UNL     1       2.813   3.707   2.845  1.00  0.00     0.163 HD
BRANCH   4   7
ATOM      7  C   UNL     1       3.553   3.313  -0.442  1.00  0.00     0.050 A 
ATOM      8  C   UNL     1       2.585   2.849  -1.362  1.00  0.00     0.016 A 
ATOM      9  C   UNL     1       3.071   2.215  -2.513  1.00  0.00     0.120 A 
ATOM     10  N   UNL     1       4.375   2.025  -2.822  1.00  0.00    -0.264 NA
ATOM     11  C   UNL     1       4.915   3.138  -0.769  1.00  0.00     0.034 A 
ATOM     12  C   UNL     1       5.271   2.496  -1.941  1.00  0.00     0.112 A 
BRANCH   8  13
ATOM     13  C   UNL     1       1.132   2.830  -1.222  1.00  0.00     0.025 A 
ATOM     14  C   UNL     1       0.644   0.261  -0.859  1.00  0.00     0.069 C 
ATOM     15  C   UNL     1       0.273   1.697  -1.028  1.00  0.00     0.067 A 
ATOM     16  N   UNL     1      -0.994   2.071  -0.828  1.00  0.00    -0.177 NA
ATOM     17  N   UNL     1      -0.975   3.416  -0.922  1.00  0.00    -0.269 N 
ATOM     18  C   UNL     1       0.285   3.917  -1.159  1.00  0.00     0.118 A 
BRANCH  17  19
ATOM     19  C   UNL     1      -2.203   4.176  -0.683  1.00  0.00     0.101 C 
ATOM     20  C   UNL     1      -3.445   3.501  -1.273  1.00  0.00     0.033 C 
ATOM     21  C   UNL     1      -2.448   4.393   0.801  1.00  0.00     0.033 C 
ENDBRANCH  17  19
ENDBRANCH   8  13
ENDBRANCH   4   7
ENDBRANCH   2   3
ENDBRANCH   1   2
BRANCH   1  22
ATOM     22  C   UNL     1       0.151   2.191   3.807  1.00  0.00     0.118 C 
BRANCH  22  23
ATOM     23  N   UNL     1      -1.023   2.981   3.400  1.00  0.00    -0.352 N 
ATOM     24  C   UNL     1      -2.083   3.483   4.165  1.00  0.00     0.251 C 
ATOM     25  H   UNL     1      -1.070   3.189   2.438  1.00  0.00     0.163 HD
ATOM     26  O   UNL     1      -3.098   3.935   3.683  1.00  0.00    -0.269 OA
BRANCH  24  27
ATOM     27  C   UNL     1      -1.891   3.503   5.616  1.00  0.00     0.039 A 
ATOM     28  C   UNL     1      -2.848   3.276   6.608  1.00  0.00     0.014 A 
ATOM     29  C   UNL     1      -0.607   3.770   5.997  1.00  0.00     0.014 A 
ATOM     30  C   UNL     1      -2.390   3.214   7.930  1.00  0.00     0.010 A 
ATOM     31  C   UNL     1      -0.199   3.019   7.027  1.00  0.00     0.010 A 
ATOM     32  C   UNL     1      -1.011   3.151   8.119  1.00  0.00    -0.014 A 
BRANCH  32  33
ATOM     33  C   UNL     1      -0.256   2.935   9.326  1.00  0.00     0.031 A 
ATOM     34  C   UNL     1      -0.402   1.558   9.836  1.00  0.00     0.074 A 
ATOM     35  C   UNL     1       0.838   3.682   9.594  1.00  0.00     0.049 A 
ATOM     36  N   UNL     1      -1.381   1.115  10.554  1.00  0.00    -0.248 NA
ATOM     37  C   UNL     1       0.407   0.490   9.206  1.00  0.00     0.031 C 
ATOM     38  C   UNL     1       1.443   4.783   8.827  1.00  0.00     0.029 A 
ATOM     39  N   UNL     1       1.726   3.501  10.594  1.00  0.00    -0.354 N 
ATOM     40  C   UNL     1      -1.066  -0.218  10.752  1.00  0.00     0.074 A 
ATOM     41  C   UNL     1      -0.283  -0.584   9.602  1.00  0.00     0.031 C 
ATOM     42  C   UNL     1       2.682   5.045   9.308  1.00  0.00     0.029 A 
ATOM     43  C   UNL     1       2.891   4.246  10.502  1.00  0.00     0.049 A 
ATOM     44  H   UNL     1       1.557   2.881  11.340  1.00  0.00     0.167 HD
ATOM     45  C   UNL     1      -1.022  -0.750  12.011  1.00  0.00     0.031 A 
ATOM     46  C   UNL     1       3.944   4.159  11.351  1.00  0.00     0.031 A 
ATOM     47  C   UNL     1      -1.453   0.233  12.992  1.00  0.00     0.049 A 
ATOM     48  C   UNL     1       3.437   3.496  12.588  1.00  0.00     0.074 A 
ATOM     49  C   UNL     1      -2.568   1.036  13.145  1.00  0.00     0.029 A 
ATOM     50  N   UNL     1      -0.452   0.829  13.736  1.00  0.00    -0.354 N 
ATOM     51  N   UNL     1       2.532   4.026  13.367  1.00  0.00    -0.248 NA
ATOM     52  C   UNL     1       3.564   2.049  12.699  1.00  0.00     0.031 C 
ATOM     53  C   UNL     1      -2.063   2.296  13.591  1.00  0.00     0.029 A 
ATOM     54  C   UNL     1      -0.685   2.180  13.793  1.00  0.00     0.049 A 
ATOM     55  H   UNL     1       0.305   0.361  14.155  1.00  0.00     0.167 HD
ATOM     56  C   UNL     1       1.689   2.975  13.711  1.00  0.00     0.074 A 
ATOM     57  C   UNL     1       2.446   1.769  13.379  1.00  0.00     0.031 C 
ATOM     58  C   UNL     1       0.354   3.187  13.936  1.00  0.00     0.031 A 
BRANCH  45  59
ATOM     59  C   UNL     1      -0.153  -1.925  12.416  1.00  0.00    -0.014 A 
ATOM     60  C   UNL     1      -0.215  -2.358  13.756  1.00  0.00     0.010 A 
ATOM     61  C   UNL     1       0.873  -2.479  11.624  1.00  0.00     0.010 A 
ATOM     62  C   UNL     1       0.765  -3.198  14.297  1.00  0.00     0.020 A 
ATOM     63  C   UNL     1       1.836  -3.343  12.141  1.00  0.00     0.020 A 
ATOM     64  C   UNL     1       1.799  -3.664  13.487  1.00  0.00     0.054 A 
BRANCH  64  65
ATOM     65  S   UNL     1       3.129  -4.644  14.215  1.00  0.00     0.124 S 
ATOM     66  O   UNL     1       3.755  -3.674  15.107  1.00  0.00    -0.237 OA
ATOM     67  O   UNL     1       2.392  -5.725  14.863  1.00  0.00    -0.237 OA
ATOM     68  O   UNL     1       3.929  -5.045  13.060  1.00  0.00    -0.744 OA
ENDBRANCH  64  65
ENDBRANCH  45  59
BRANCH  46  69
ATOM     69  C   UNL     1       5.387   4.370  11.086  1.00  0.00    -0.014 A 
ATOM     70  C   UNL     1       6.300   4.458  12.153  1.00  0.00     0.010 A 
ATOM     71  C   UNL     1       5.910   4.199   9.788  1.00  0.00     0.010 A 
ATOM     72  C   UNL     1       7.678   4.293  11.943  1.00  0.00     0.020 A 
ATOM     73  C   UNL     1       7.285   4.043   9.569  1.00  0.00     0.020 A 
ATOM     74  C   UNL     1       8.160   4.059  10.653  1.00  0.00     0.054 A 
BRANCH  74  75
ATOM     75  S   UNL     1       9.913   3.636  10.420  1.00  0.00     0.124 S 
ATOM     76  O   UNL     1      10.578   4.909  10.682  1.00  0.00    -0.237 OA
ATOM     77  O   UNL     1      10.124   2.595  11.422  1.00  0.00    -0.237 OA
ATOM     78  O   UNL     1       9.975   3.177   9.034  1.00  0.00    -0.744 OA
ENDBRANCH  74  75
ENDBRANCH  46  69
BRANCH  58  79
ATOM     79  C   UNL     1      -0.114   4.614  14.153  1.00  0.00    -0.014 A 
ATOM     80  C   UNL     1       0.039   5.654  13.214  1.00  0.00     0.010 A 
ATOM     81  C   UNL     1      -0.844   4.881  15.324  1.00  0.00     0.010 A 
ATOM     82  C   UNL     1      -0.481   6.934  13.464  1.00  0.00     0.020 A 
ATOM     83  C   UNL     1      -1.381   6.147  15.572  1.00  0.00     0.020 A 
ATOM     84  C   UNL     1      -1.183   7.174  14.649  1.00  0.00     0.054 A 
BRANCH  84  85
ATOM     85  S   UNL     1      -1.855   8.829  14.973  1.00  0.00     0.124 S 
ATOM     86  O   UNL     1      -0.649   9.628  15.168  1.00  0.00    -0.237 OA
ATOM     87  O   UNL     1      -2.611   9.117  13.757  1.00  0.00    -0.237 OA
ATOM     88  O   UNL     1      -2.673   8.644  16.172  1.00  0.00    -0.744 OA
ENDBRANCH  84  85
ENDBRANCH  58  79
ENDBRANCH  32  33
ENDBRANCH  24  27
ENDBRANCH  22  23
ENDBRANCH   1  22
TORSDOF 15
