REMARK SMILES O=C(NCCCNC(=O)[C@H]1CC[C@@H]2CCCC[C@H]2N1C(=O)Cn1cnnn1)c1ccc(-c2c3nc(c(-c4ccc(S(=O)(=O)[O-])cc4)c4ccc([nH]4)c(-c4ccc(S(=O)(=O)[O-])cc4)c4nc(c(-c5ccc(S(=O)(=O)[O-])cc5)c5ccc2[nH]5)C=C4)C=C3)cc1
REMARK SMILES IDX 5 1 4 2 3 3 1 4 2 5 28 7 29 8 87 9 30 10 86 11 31 12 32 13
REMARK SMILES IDX 33 14 80 15 34 16 85 17 79 18 81 19 35 20 84 21 78 22 77 23
REMARK SMILES IDX 36 25 66 26 47 27 65 28 48 29 51 30 64 31 82 32 49 33 50 34
REMARK SMILES IDX 63 36 83 37 52 38 37 39 38 40 46 41 39 42 45 43 40 44 41 45
REMARK SMILES IDX 42 46 43 47 44 48 67 49 68 50 76 51 69 52 75 53 70 54 71 55
REMARK SMILES IDX 72 56 73 57 74 58 53 59 54 60 62 61 55 62 61 63 56 64 57 65
REMARK SMILES IDX 58 66 59 67 60 68 6 69 7 70 8 71 9 73 10 74 11 75 19 76
REMARK SMILES IDX 12 77 18 78 13 79 17 80 14 81 16 82 15 83 20 84 21 85 22 86
REMARK SMILES IDX 23 87 24 88 27 89 25 90 26 91
REMARK H PARENT 3 6 81 24 51 35 7 72
REMARK Flexibility Score: inf
ROOT
ATOM      1  C   UNL     1       5.510   6.755   1.159  1.00  0.00     0.042 C 
ENDROOT
BRANCH   1   2
ATOM      2  C   UNL     1       4.638   7.991   0.955  1.00  0.00     0.118 C 
BRANCH   2   3
ATOM      3  N   UNL     1       5.383   9.228   0.826  1.00  0.00    -0.352 N 
ATOM      4  O   UNL     1       6.577  10.937   0.114  1.00  0.00    -0.269 OA
ATOM      5  C   UNL     1       6.111   9.828  -0.164  1.00  0.00     0.251 C 
ATOM      6  H   UNL     1       5.359   9.766   1.651  1.00  0.00     0.163 HD
BRANCH   5   7
ATOM      7  C   UNL     1       6.406   9.246  -1.503  1.00  0.00     0.039 A 
ATOM      8  C   UNL     1       5.689   8.222  -2.125  1.00  0.00     0.014 A 
ATOM      9  C   UNL     1       7.473   9.839  -2.207  1.00  0.00     0.014 A 
ATOM     10  C   UNL     1       6.048   7.786  -3.404  1.00  0.00     0.010 A 
ATOM     11  C   UNL     1       7.827   9.415  -3.486  1.00  0.00     0.010 A 
ATOM     12  C   UNL     1       7.117   8.379  -4.087  1.00  0.00    -0.014 A 
BRANCH  12  13
ATOM     13  C   UNL     1       7.329   8.036  -5.497  1.00  0.00     0.031 A 
ATOM     14  C   UNL     1       6.226   8.450  -6.418  1.00  0.00     0.074 A 
ATOM     15  C   UNL     1       8.486   7.571  -6.014  1.00  0.00     0.049 A 
ATOM     16  N   UNL     1       5.489   7.707  -7.179  1.00  0.00    -0.248 NA
ATOM     17  C   UNL     1       5.844   9.872  -6.426  1.00  0.00     0.031 C 
ATOM     18  C   UNL     1       9.775   7.423  -5.336  1.00  0.00     0.029 A 
ATOM     19  N   UNL     1       8.777   7.239  -7.308  1.00  0.00    -0.354 N 
ATOM     20  C   UNL     1       4.668   8.577  -7.897  1.00  0.00     0.074 A 
ATOM     21  C   UNL     1       4.838   9.878  -7.301  1.00  0.00     0.031 C 
ATOM     22  C   UNL     1      10.747   7.249  -6.262  1.00  0.00     0.029 A 
ATOM     23  C   UNL     1      10.138   7.141  -7.578  1.00  0.00     0.049 A 
ATOM     24  H   UNL     1       8.084   7.082  -7.989  1.00  0.00     0.167 HD
ATOM     25  C   UNL     1       4.043   8.214  -9.053  1.00  0.00     0.031 A 
ATOM     26  C   UNL     1      10.727   7.040  -8.797  1.00  0.00     0.031 A 
ATOM     27  C   UNL     1       4.024   6.789  -9.234  1.00  0.00     0.049 A 
ATOM     28  C   UNL     1       9.699   6.577  -9.758  1.00  0.00     0.074 A 
ATOM     29  C   UNL     1       3.504   5.722  -8.529  1.00  0.00     0.029 A 
ATOM     30  N   UNL     1       4.924   6.253 -10.122  1.00  0.00    -0.354 N 
ATOM     31  N   UNL     1       9.166   5.389  -9.735  1.00  0.00    -0.248 NA
ATOM     32  C   UNL     1       8.968   7.573 -10.524  1.00  0.00     0.031 C 
ATOM     33  C   UNL     1       4.460   4.677  -8.688  1.00  0.00     0.029 A 
ATOM     34  C   UNL     1       5.474   5.150  -9.523  1.00  0.00     0.049 A 
ATOM     35  H   UNL     1       5.135   6.596 -11.020  1.00  0.00     0.167 HD
ATOM     36  C   UNL     1       7.846   5.584 -10.110  1.00  0.00     0.074 A 
ATOM     37  C   UNL     1       7.812   6.925 -10.687  1.00  0.00     0.031 C 
ATOM     38  C   UNL     1       6.857   4.750  -9.674  1.00  0.00     0.031 A 
BRANCH  25  39
ATOM     39  C   UNL     1       3.758   9.162 -10.195  1.00  0.00    -0.014 A 
ATOM     40  C   UNL     1       3.048   8.690 -11.320  1.00  0.00     0.010 A 
ATOM     41  C   UNL     1       4.400  10.411 -10.326  1.00  0.00     0.010 A 
ATOM     42  C   UNL     1       3.045   9.396 -12.531  1.00  0.00     0.020 A 
ATOM     43  C   UNL     1       4.364  11.145 -11.515  1.00  0.00     0.020 A 
ATOM     44  C   UNL     1       3.718  10.614 -12.623  1.00  0.00     0.054 A 
BRANCH  44  45
ATOM     45  S   UNL     1       3.805  11.463 -14.220  1.00  0.00     0.124 S 
ATOM     46  O   UNL     1       4.631  10.548 -15.001  1.00  0.00    -0.237 OA
ATOM     47  O   UNL     1       2.400  11.538 -14.608  1.00  0.00    -0.237 OA
ATOM     48  O   UNL     1       4.426  12.745 -13.891  1.00  0.00    -0.744 OA
ENDBRANCH  44  45
ENDBRANCH  25  39
BRANCH  26  49
ATOM     49  C   UNL     1      12.035   7.581  -9.247  1.00  0.00    -0.014 A 
ATOM     50  C   UNL     1      12.608   7.176 -10.469  1.00  0.00     0.010 A 
ATOM     51  C   UNL     1      12.582   8.714  -8.614  1.00  0.00     0.010 A 
ATOM     52  C   UNL     1      13.643   7.919 -11.067  1.00  0.00     0.020 A 
ATOM     53  C   UNL     1      13.618   9.454  -9.198  1.00  0.00     0.020 A 
ATOM     54  C   UNL     1      14.126   9.068 -10.436  1.00  0.00     0.054 A 
BRANCH  54  55
ATOM     55  S   UNL     1      15.322  10.130 -11.301  1.00  0.00     0.124 S 
ATOM     56  O   UNL     1      16.540   9.327 -11.257  1.00  0.00    -0.237 OA
ATOM     57  O   UNL     1      14.714  10.286 -12.620  1.00  0.00    -0.237 OA
ATOM     58  O   UNL     1      15.351  11.346 -10.490  1.00  0.00    -0.744 OA
ENDBRANCH  54  55
ENDBRANCH  26  49
BRANCH  38  59
ATOM     59  C   UNL     1       7.241   3.423  -9.063  1.00  0.00    -0.014 A 
ATOM     60  C   UNL     1       8.060   3.289  -7.925  1.00  0.00     0.010 A 
ATOM     61  C   UNL     1       6.619   2.271  -9.578  1.00  0.00     0.010 A 
ATOM     62  C   UNL     1       8.268   2.033  -7.335  1.00  0.00     0.020 A 
ATOM     63  C   UNL     1       6.804   1.022  -8.984  1.00  0.00     0.020 A 
ATOM     64  C   UNL     1       7.635   0.907  -7.869  1.00  0.00     0.054 A 
BRANCH  64  65
ATOM     65  S   UNL     1       7.852  -0.707  -7.068  1.00  0.00     0.124 S 
ATOM     66  O   UNL     1       9.251  -1.020  -7.361  1.00  0.00    -0.237 OA
ATOM     67  O   UNL     1       7.557  -0.414  -5.664  1.00  0.00    -0.237 OA
ATOM     68  O   UNL     1       6.876  -1.562  -7.729  1.00  0.00    -0.744 OA
ENDBRANCH  64  65
ENDBRANCH  38  59
ENDBRANCH  12  13
ENDBRANCH   5   7
ENDBRANCH   2   3
ENDBRANCH   1   2
BRANCH   1  69
ATOM     69  C   UNL     1       6.322   6.792   2.457  1.00  0.00     0.117 C 
BRANCH  69  70
ATOM     70  N   UNL     1       5.532   6.444   3.640  1.00  0.00    -0.354 N 
ATOM     71  C   UNL     1       5.450   5.337   4.430  1.00  0.00     0.242 C 
ATOM     72  H   UNL     1       4.929   7.167   3.927  1.00  0.00     0.163 HD
ATOM     73  O   UNL     1       4.769   5.471   5.458  1.00  0.00    -0.273 OA
BRANCH  71  74
ATOM     74  C   UNL     1       6.159   3.973   4.156  1.00  0.00     0.174 C 
ATOM     75  C   UNL     1       6.621   3.742   2.719  1.00  0.00     0.036 C 
ATOM     76  N   UNL     1       7.086   3.291   5.139  1.00  0.00    -0.326 N 
ATOM     77  C   UNL     1       6.734   2.264   2.402  1.00  0.00     0.008 C 
ATOM     78  C   UNL     1       7.279   1.817   4.838  1.00  0.00     0.089 C 
ATOM     79  C   UNL     1       7.723   1.610   3.362  1.00  0.00     0.012 C 
ATOM     80  C   UNL     1       8.212   0.995   5.760  1.00  0.00     0.025 C 
ATOM     81  C   UNL     1       7.869   0.132   2.977  1.00  0.00     0.006 C 
ATOM     82  C   UNL     1       8.339  -0.472   5.349  1.00  0.00     0.002 C 
ATOM     83  C   UNL     1       8.815  -0.601   3.911  1.00  0.00     0.000 C 
BRANCH  76  84
ATOM     84  C   UNL     1       7.833   3.916   6.144  1.00  0.00     0.245 C 
ATOM     85  O   UNL     1       8.627   3.298   6.865  1.00  0.00    -0.273 OA
BRANCH  84  86
ATOM     86  C   UNL     1       7.640   5.360   6.532  1.00  0.00     0.248 C 
BRANCH  86  87
ATOM     87  N   UNL     1       8.171   6.327   5.612  1.00  0.00    -0.223 N 
ATOM     88  C   UNL     1       7.973   7.672   5.641  1.00  0.00     0.246 A 
ATOM     89  N   UNL     1       9.005   6.013   4.611  1.00  0.00    -0.045 NA
ATOM     90  N   UNL     1       8.649   8.211   4.654  1.00  0.00    -0.117 NA
ATOM     91  N   UNL     1       9.291   7.169   4.027  1.00  0.00    -0.024 NA
ENDBRANCH  86  87
ENDBRANCH  84  86
ENDBRANCH  76  84
ENDBRANCH  71  74
ENDBRANCH  69  70
ENDBRANCH   1  69
TORSDOF 16
