REMARK SMILES O=C(NCCCNC(=O)[C@H]1CCC[N@@H+]1CCn1ccnc1)c1ccc(-c2c3nc(c(-c4ccc(S(=O)(=O)[O-])cc4)c4ccc([nH]4)c(-c4ccc(S(=O)(=O)[O-])cc4)c4nc(c(-c5ccc(S(=O)(=O)[O-])cc5)c5ccc2[nH]5)C=C4)C=C3)cc1
REMARK SMILES IDX 5 1 4 2 3 3 1 4 2 5 22 7 23 8 81 9 24 10 80 11 25 12 26 13
REMARK SMILES IDX 27 14 74 15 28 16 79 17 73 18 75 19 29 20 78 21 72 22 71 23
REMARK SMILES IDX 30 25 60 26 41 27 59 28 42 29 45 30 58 31 76 32 43 33 44 34
REMARK SMILES IDX 57 36 77 37 46 38 31 39 32 40 40 41 33 42 39 43 34 44 35 45
REMARK SMILES IDX 36 46 37 47 38 48 61 49 62 50 70 51 63 52 69 53 64 54 65 55
REMARK SMILES IDX 66 56 67 57 68 58 47 59 48 60 56 61 49 62 55 63 50 64 51 65
REMARK SMILES IDX 52 66 53 67 54 68 6 69 7 70 8 71 9 73 10 74 11 75 14 76
REMARK SMILES IDX 12 77 13 78 15 80 16 81 17 82 18 83 21 84 19 85 20 86
REMARK H PARENT 3 6 75 24 45 35 7 72 14 79
REMARK Flexibility Score: inf
ROOT
ATOM      1  C   UNL     1       6.101  -4.553  -8.890  1.00  0.00     0.042 C 
ENDROOT
BRANCH   1   2
ATOM      2  C   UNL     1       5.890  -4.776 -10.383  1.00  0.00     0.118 C 
BRANCH   2   3
ATOM      3  N   UNL     1       7.110  -5.086 -11.103  1.00  0.00    -0.352 N 
ATOM      4  O   UNL     1       8.891  -6.039 -11.972  1.00  0.00    -0.269 OA
ATOM      5  C   UNL     1       7.908  -6.186 -11.240  1.00  0.00     0.251 C 
ATOM      6  H   UNL     1       7.444  -4.317 -11.619  1.00  0.00     0.163 HD
BRANCH   5   7
ATOM      7  C   UNL     1       7.718  -7.488 -10.547  1.00  0.00     0.039 A 
ATOM      8  C   UNL     1       6.584  -7.890  -9.835  1.00  0.00     0.014 A 
ATOM      9  C   UNL     1       8.811  -8.371 -10.628  1.00  0.00     0.014 A 
ATOM     10  C   UNL     1       6.575  -9.100  -9.140  1.00  0.00     0.010 A 
ATOM     11  C   UNL     1       8.799  -9.583  -9.959  1.00  0.00     0.010 A 
ATOM     12  C   UNL     1       7.697  -9.925  -9.177  1.00  0.00    -0.014 A 
BRANCH  12  13
ATOM     13  C   UNL     1       7.674 -11.217  -8.493  1.00  0.00     0.031 A 
ATOM     14  C   UNL     1       6.798 -12.261  -9.120  1.00  0.00     0.074 A 
ATOM     15  C   UNL     1       8.590 -11.495  -7.540  1.00  0.00     0.049 A 
ATOM     16  N   UNL     1       5.925 -13.040  -8.564  1.00  0.00    -0.248 NA
ATOM     17  C   UNL     1       6.853 -12.395 -10.589  1.00  0.00     0.031 C 
ATOM     18  C   UNL     1       9.691 -10.634  -7.088  1.00  0.00     0.029 A 
ATOM     19  N   UNL     1       8.847 -12.668  -6.899  1.00  0.00    -0.354 N 
ATOM     20  C   UNL     1       5.452 -13.880  -9.576  1.00  0.00     0.074 A 
ATOM     21  C   UNL     1       5.952 -13.349 -10.816  1.00  0.00     0.031 C 
ATOM     22  C   UNL     1      10.632 -11.393  -6.486  1.00  0.00     0.029 A 
ATOM     23  C   UNL     1      10.143 -12.758  -6.395  1.00  0.00     0.049 A 
ATOM     24  H   UNL     1       8.180 -13.385  -6.800  1.00  0.00     0.167 HD
ATOM     25  C   UNL     1       4.853 -15.079  -9.330  1.00  0.00     0.031 A 
ATOM     26  C   UNL     1      10.807 -13.890  -6.040  1.00  0.00     0.031 A 
ATOM     27  C   UNL     1       4.391 -15.193  -7.977  1.00  0.00     0.049 A 
ATOM     28  C   UNL     1       9.789 -14.955  -5.861  1.00  0.00     0.074 A 
ATOM     29  C   UNL     1       3.464 -14.521  -7.208  1.00  0.00     0.029 A 
ATOM     30  N   UNL     1       5.181 -15.886  -7.091  1.00  0.00    -0.354 N 
ATOM     31  N   UNL     1       8.867 -14.919  -4.940  1.00  0.00    -0.248 NA
ATOM     32  C   UNL     1       9.498 -15.813  -7.000  1.00  0.00     0.031 C 
ATOM     33  C   UNL     1       4.062 -14.431  -5.917  1.00  0.00     0.029 A 
ATOM     34  C   UNL     1       5.282 -15.110  -5.965  1.00  0.00     0.049 A 
ATOM     35  H   UNL     1       5.595 -16.768  -7.237  1.00  0.00     0.167 HD
ATOM     36  C   UNL     1       7.721 -15.396  -5.561  1.00  0.00     0.074 A 
ATOM     37  C   UNL     1       8.191 -16.008  -6.804  1.00  0.00     0.031 C 
ATOM     38  C   UNL     1       6.476 -15.008  -5.155  1.00  0.00     0.031 A 
BRANCH  25  39
ATOM     39  C   UNL     1       5.020 -16.285 -10.224  1.00  0.00    -0.014 A 
ATOM     40  C   UNL     1       4.272 -17.452  -9.967  1.00  0.00     0.010 A 
ATOM     41  C   UNL     1       6.098 -16.403 -11.128  1.00  0.00     0.010 A 
ATOM     42  C   UNL     1       4.629 -18.684 -10.536  1.00  0.00     0.020 A 
ATOM     43  C   UNL     1       6.435 -17.615 -11.732  1.00  0.00     0.020 A 
ATOM     44  C   UNL     1       5.720 -18.758 -11.402  1.00  0.00     0.054 A 
BRANCH  44  45
ATOM     45  S   UNL     1       6.259 -20.370 -12.028  1.00  0.00     0.124 S 
ATOM     46  O   UNL     1       6.696 -21.036 -10.801  1.00  0.00    -0.237 OA
ATOM     47  O   UNL     1       5.031 -20.894 -12.626  1.00  0.00    -0.237 OA
ATOM     48  O   UNL     1       7.315 -20.038 -12.972  1.00  0.00    -0.744 OA
ENDBRANCH  44  45
ENDBRANCH  25  39
BRANCH  26  49
ATOM     49  C   UNL     1      12.252 -14.177  -6.258  1.00  0.00    -0.014 A 
ATOM     50  C   UNL     1      12.908 -15.240  -5.609  1.00  0.00     0.010 A 
ATOM     51  C   UNL     1      12.936 -13.547  -7.321  1.00  0.00     0.010 A 
ATOM     52  C   UNL     1      14.180 -15.676  -6.032  1.00  0.00     0.020 A 
ATOM     53  C   UNL     1      14.202 -13.970  -7.743  1.00  0.00     0.020 A 
ATOM     54  C   UNL     1      14.812 -15.046  -7.108  1.00  0.00     0.054 A 
BRANCH  54  55
ATOM     55  S   UNL     1      16.381 -15.706  -7.751  1.00  0.00     0.124 S 
ATOM     56  O   UNL     1      17.318 -15.381  -6.679  1.00  0.00    -0.237 OA
ATOM     57  O   UNL     1      16.083 -17.125  -7.921  1.00  0.00    -0.237 OA
ATOM     58  O   UNL     1      16.583 -14.965  -8.995  1.00  0.00    -0.744 OA
ENDBRANCH  54  55
ENDBRANCH  26  49
BRANCH  38  59
ATOM     59  C   UNL     1       6.354 -14.186  -3.891  1.00  0.00    -0.014 A 
ATOM     60  C   UNL     1       6.882 -12.885  -3.760  1.00  0.00     0.010 A 
ATOM     61  C   UNL     1       5.518 -14.673  -2.873  1.00  0.00     0.010 A 
ATOM     62  C   UNL     1       6.596 -12.103  -2.629  1.00  0.00     0.020 A 
ATOM     63  C   UNL     1       5.218 -13.895  -1.752  1.00  0.00     0.020 A 
ATOM     64  C   UNL     1       5.763 -12.616  -1.631  1.00  0.00     0.054 A 
BRANCH  64  65
ATOM     65  S   UNL     1       5.353 -11.586  -0.194  1.00  0.00     0.124 S 
ATOM     66  O   UNL     1       6.636 -11.474   0.494  1.00  0.00    -0.237 OA
ATOM     67  O   UNL     1       4.856 -10.358  -0.809  1.00  0.00    -0.237 OA
ATOM     68  O   UNL     1       4.338 -12.366   0.515  1.00  0.00    -0.744 OA
ENDBRANCH  64  65
ENDBRANCH  38  59
ENDBRANCH  12  13
ENDBRANCH   5   7
ENDBRANCH   2   3
ENDBRANCH   1   2
BRANCH   1  69
ATOM     69  C   UNL     1       7.099  -3.438  -8.575  1.00  0.00     0.118 C 
BRANCH  69  70
ATOM     70  N   UNL     1       6.524  -2.114  -8.431  1.00  0.00    -0.351 N 
ATOM     71  C   UNL     1       6.290  -1.305  -7.358  1.00  0.00     0.278 C 
ATOM     72  H   UNL     1       6.244  -1.716  -9.287  1.00  0.00     0.163 HD
ATOM     73  O   UNL     1       6.109  -0.109  -7.644  1.00  0.00    -0.268 OA
BRANCH  71  74
ATOM     74  C   UNL     1       6.135  -1.749  -5.872  1.00  0.00     0.274 C 
ATOM     75  C   UNL     1       5.217  -2.935  -5.679  1.00  0.00     0.081 C 
ATOM     76  N   UNL     1       7.406  -2.081  -5.184  1.00  0.00    -0.323 N 
ATOM     77  C   UNL     1       6.142  -4.116  -5.445  1.00  0.00     0.068 C 
ATOM     78  C   UNL     1       7.529  -3.539  -5.201  1.00  0.00     0.263 C 
ATOM     79  H   UNL     1       8.171  -1.627  -5.684  1.00  0.00     0.348 HD
BRANCH  76  80
ATOM     80  C   UNL     1       7.522  -1.545  -3.802  1.00  0.00     0.285 C 
BRANCH  80  81
ATOM     81  C   UNL     1       6.579  -1.962  -2.634  1.00  0.00     0.184 C 
BRANCH  81  82
ATOM     82  N   UNL     1       6.553  -3.353  -2.233  1.00  0.00    -0.332 N 
ATOM     83  C   UNL     1       7.614  -4.180  -1.978  1.00  0.00     0.107 A 
ATOM     84  C   UNL     1       5.418  -4.099  -2.081  1.00  0.00     0.199 A 
ATOM     85  C   UNL     1       7.067  -5.444  -1.910  1.00  0.00     0.130 A 
ATOM     86  N   UNL     1       5.701  -5.373  -1.951  1.00  0.00    -0.245 NA
ENDBRANCH  81  82
ENDBRANCH  80  81
ENDBRANCH  76  80
ENDBRANCH  71  74
ENDBRANCH  69  70
ENDBRANCH   1  69
TORSDOF 16
