REMARK SMILES COC(=O)c1ccc(Cl)c(-c2ccc(C(=O)NCCCNC(=O)c3ccc(-c4c5nc(c(-c6ccc(S(=O)(=O)[O-])cc6)c6ccc([nH]6)c(-c6ccc(S(=O)(=O)[O-])cc6)c6nc(c(-c7ccc(S(=O)(=O)[O-])cc7)c7ccc4[nH]7)C=C6)C=C5)cc3)nc2)c1
REMARK SMILES IDX 19 1 18 2 17 3 15 4 16 5 14 7 11 8 12 9 85 10 13 11 84 12
REMARK SMILES IDX 10 13 5 14 6 15 86 16 7 17 8 18 9 19 3 20 4 21 2 22 1 23
REMARK SMILES IDX 20 24 21 25 22 26 23 28 24 29 25 30 83 31 26 32 82 33 27 34
REMARK SMILES IDX 28 35 29 36 76 37 30 38 81 39 75 40 77 41 31 42 80 43 74 44
REMARK SMILES IDX 73 45 32 47 62 48 43 49 61 50 44 51 47 52 60 53 78 54 45 55
REMARK SMILES IDX 46 56 59 58 79 59 48 60 33 61 34 62 42 63 35 64 41 65 36 66
REMARK SMILES IDX 37 67 38 68 39 69 40 70 63 71 64 72 72 73 65 74 71 75 66 76
REMARK SMILES IDX 67 77 68 78 69 79 70 80 49 81 50 82 58 83 51 84 57 85 52 86
REMARK SMILES IDX 53 87 54 88 55 89 56 90
REMARK H PARENT 17 6 21 27 77 46 47 57
REMARK Flexibility Score: inf
ROOT
ATOM      1  C   UNL     1       3.593  -8.252   9.259  1.00  0.00     0.042 C 
ENDROOT
BRANCH   1   2
ATOM      2  C   UNL     1       3.435  -6.921   9.995  1.00  0.00     0.118 C 
BRANCH   2   3
ATOM      3  N   UNL     1       4.548  -6.032   9.720  1.00  0.00    -0.351 N 
ATOM      4  C   UNL     1       4.697  -4.944   8.889  1.00  0.00     0.269 C 
ATOM      5  O   UNL     1       5.783  -4.362   8.949  1.00  0.00    -0.268 OA
ATOM      6  H   UNL     1       5.361  -6.251  10.230  1.00  0.00     0.163 HD
BRANCH   4   7
ATOM      7  C   UNL     1       3.622  -4.435   7.965  1.00  0.00     0.128 A 
ATOM      8  C   UNL     1       1.771  -3.297   6.234  1.00  0.00     0.002 A 
ATOM      9  C   UNL     1       1.665  -4.643   6.589  1.00  0.00     0.013 A 
ATOM     10  C   UNL     1       2.843  -2.595   6.775  1.00  0.00     0.120 A 
ATOM     11  C   UNL     1       2.610  -5.224   7.436  1.00  0.00     0.035 A 
ATOM     12  N   UNL     1       3.748  -3.121   7.631  1.00  0.00    -0.250 NA
BRANCH   8  13
ATOM     13  C   UNL     1       0.834  -2.686   5.288  1.00  0.00     0.003 A 
ATOM     14  C   UNL     1       0.415  -1.873   3.020  1.00  0.00     0.060 A 
ATOM     15  C   UNL     1      -0.910  -1.585   3.356  1.00  0.00     0.017 A 
ATOM     16  C   UNL     1       1.273  -2.430   3.976  1.00  0.00     0.026 A 
ATOM     17  C   UNL     1      -1.364  -1.832   4.653  1.00  0.00     0.022 A 
ATOM     18  C   UNL     1      -0.499  -2.369   5.614  1.00  0.00     0.048 A 
ATOM     19  Cl  UNL     1      -1.129  -2.609   7.208  1.00  0.00    -0.084 Cl
BRANCH  14  20
ATOM     20  C   UNL     1       0.966  -1.611   1.668  1.00  0.00     0.337 C 
ATOM     21  O   UNL     1       1.901  -2.223   1.192  1.00  0.00    -0.246 OA
BRANCH  20  22
ATOM     22  O   UNL     1       0.339  -0.538   1.121  1.00  0.00    -0.465 OA
ATOM     23  C   UNL     1       0.915  -0.114  -0.115  1.00  0.00     0.282 C 
ENDBRANCH  20  22
ENDBRANCH  14  20
ENDBRANCH   8  13
ENDBRANCH   4   7
ENDBRANCH   2   3
ENDBRANCH   1   2
BRANCH   1  24
ATOM     24  C   UNL     1       4.652  -9.164   9.880  1.00  0.00     0.118 C 
BRANCH  24  25
ATOM     25  N   UNL     1       4.258  -9.628  11.205  1.00  0.00    -0.352 N 
ATOM     26  C   UNL     1       3.918 -10.885  11.639  1.00  0.00     0.251 C 
ATOM     27  H   UNL     1       4.231  -8.929  11.898  1.00  0.00     0.163 HD
ATOM     28  O   UNL     1       3.354 -11.018  12.721  1.00  0.00    -0.269 OA
BRANCH  26  29
ATOM     29  C   UNL     1       4.222 -12.073  10.812  1.00  0.00     0.039 A 
ATOM     30  C   UNL     1       3.268 -13.089  10.706  1.00  0.00     0.014 A 
ATOM     31  C   UNL     1       5.458 -12.203  10.174  1.00  0.00     0.014 A 
ATOM     32  C   UNL     1       3.524 -14.199   9.897  1.00  0.00     0.010 A 
ATOM     33  C   UNL     1       5.686 -13.277   9.317  1.00  0.00     0.010 A 
ATOM     34  C   UNL     1       4.718 -14.280   9.162  1.00  0.00    -0.014 A 
BRANCH  34  35
ATOM     35  C   UNL     1       4.961 -15.376   8.191  1.00  0.00     0.031 A 
ATOM     36  C   UNL     1       6.091 -16.345   8.402  1.00  0.00     0.074 A 
ATOM     37  C   UNL     1       4.217 -15.437   7.069  1.00  0.00     0.049 A 
ATOM     38  N   UNL     1       6.523 -17.292   7.610  1.00  0.00    -0.248 NA
ATOM     39  C   UNL     1       6.848 -16.218   9.658  1.00  0.00     0.031 C 
ATOM     40  C   UNL     1       3.109 -14.536   6.738  1.00  0.00     0.029 A 
ATOM     41  N   UNL     1       4.288 -16.282   5.990  1.00  0.00    -0.354 N 
ATOM     42  C   UNL     1       7.609 -17.864   8.261  1.00  0.00     0.074 A 
ATOM     43  C   UNL     1       7.797 -17.129   9.493  1.00  0.00     0.031 C 
ATOM     44  C   UNL     1       2.596 -14.888   5.549  1.00  0.00     0.029 A 
ATOM     45  C   UNL     1       3.367 -16.002   5.008  1.00  0.00     0.049 A 
ATOM     46  H   UNL     1       4.938 -17.019   5.925  1.00  0.00     0.167 HD
ATOM     47  C   UNL     1       8.372 -18.915   7.873  1.00  0.00     0.031 A 
ATOM     48  C   UNL     1       3.176 -16.561   3.798  1.00  0.00     0.031 A 
ATOM     49  C   UNL     1       8.182 -19.637   6.642  1.00  0.00     0.049 A 
ATOM     50  C   UNL     1       4.069 -17.691   3.366  1.00  0.00     0.074 A 
ATOM     51  C   UNL     1       8.865 -20.749   6.183  1.00  0.00     0.029 A 
ATOM     52  N   UNL     1       7.247 -19.312   5.670  1.00  0.00    -0.354 N 
ATOM     53  N   UNL     1       5.047 -18.263   4.025  1.00  0.00    -0.248 NA
ATOM     54  C   UNL     1       3.835 -18.247   2.026  1.00  0.00     0.031 C 
ATOM     55  C   UNL     1       8.386 -21.058   4.905  1.00  0.00     0.029 A 
ATOM     56  C   UNL     1       7.363 -20.176   4.594  1.00  0.00     0.049 A 
ATOM     57  H   UNL     1       6.598 -18.575   5.734  1.00  0.00     0.167 HD
ATOM     58  C   UNL     1       5.538 -19.257   3.187  1.00  0.00     0.074 A 
ATOM     59  C   UNL     1       4.735 -19.221   1.981  1.00  0.00     0.031 C 
ATOM     60  C   UNL     1       6.563 -20.119   3.396  1.00  0.00     0.031 A 
BRANCH  47  61
ATOM     61  C   UNL     1       9.496 -19.334   8.786  1.00  0.00    -0.014 A 
ATOM     62  C   UNL     1       9.236 -19.932  10.032  1.00  0.00     0.010 A 
ATOM     63  C   UNL     1      10.832 -19.157   8.380  1.00  0.00     0.010 A 
ATOM     64  C   UNL     1      10.287 -20.298  10.877  1.00  0.00     0.020 A 
ATOM     65  C   UNL     1      11.887 -19.549   9.209  1.00  0.00     0.020 A 
ATOM     66  C   UNL     1      11.607 -20.099  10.461  1.00  0.00     0.054 A 
BRANCH  66  67
ATOM     67  S   UNL     1      12.951 -20.589  11.576  1.00  0.00     0.124 S 
ATOM     68  O   UNL     1      12.872 -19.562  12.613  1.00  0.00    -0.237 OA
ATOM     69  O   UNL     1      12.550 -21.931  11.991  1.00  0.00    -0.237 OA
ATOM     70  O   UNL     1      14.142 -20.530  10.732  1.00  0.00    -0.744 OA
ENDBRANCH  66  67
ENDBRANCH  47  61
BRANCH  48  71
ATOM     71  C   UNL     1       2.094 -16.054   2.911  1.00  0.00    -0.014 A 
ATOM     72  C   UNL     1       0.948 -16.832   2.672  1.00  0.00     0.010 A 
ATOM     73  C   UNL     1       2.188 -14.778   2.325  1.00  0.00     0.010 A 
ATOM     74  C   UNL     1      -0.081 -16.347   1.860  1.00  0.00     0.020 A 
ATOM     75  C   UNL     1       1.149 -14.277   1.535  1.00  0.00     0.020 A 
ATOM     76  C   UNL     1       0.023 -15.069   1.302  1.00  0.00     0.054 A 
BRANCH  76  77
ATOM     77  S   UNL     1      -1.357 -14.434   0.309  1.00  0.00     0.124 S 
ATOM     78  O   UNL     1      -1.235 -15.216  -0.917  1.00  0.00    -0.237 OA
ATOM     79  O   UNL     1      -2.514 -14.742   1.146  1.00  0.00    -0.237 OA
ATOM     80  O   UNL     1      -1.056 -13.010   0.178  1.00  0.00    -0.744 OA
ENDBRANCH  76  77
ENDBRANCH  48  71
BRANCH  60  81
ATOM     81  C   UNL     1       6.878 -21.101   2.299  1.00  0.00    -0.014 A 
ATOM     82  C   UNL     1       7.512 -20.682   1.116  1.00  0.00     0.010 A 
ATOM     83  C   UNL     1       6.607 -22.469   2.486  1.00  0.00     0.010 A 
ATOM     84  C   UNL     1       7.858 -21.613   0.133  1.00  0.00     0.020 A 
ATOM     85  C   UNL     1       6.977 -23.405   1.518  1.00  0.00     0.020 A 
ATOM     86  C   UNL     1       7.594 -22.970   0.344  1.00  0.00     0.054 A 
BRANCH  86  87
ATOM     87  S   UNL     1       8.121 -24.164  -0.916  1.00  0.00     0.124 S 
ATOM     88  O   UNL     1       7.172 -23.907  -1.996  1.00  0.00    -0.237 OA
ATOM     89  O   UNL     1       9.500 -23.760  -1.182  1.00  0.00    -0.237 OA
ATOM     90  O   UNL     1       7.974 -25.457  -0.252  1.00  0.00    -0.744 OA
ENDBRANCH  86  87
ENDBRANCH  60  81
ENDBRANCH  34  35
ENDBRANCH  26  29
ENDBRANCH  24  25
ENDBRANCH   1  24
TORSDOF 16
