REMARK SMILES COC(=O)c1c(NC(=O)[C@@H]2C[C@@H]2C(=O)NCCCNC(=O)c2ccc(-c3c4nc(c(-c5ccc(S(=O)(=O)[O-])cc5)c5ccc([nH]5)c(-c5ccc(S(=O)(=O)[O-])cc5)c5nc(c(-c6ccc(S(=O)(=O)[O-])cc6)c6ccc3[nH]6)C=C5)C=C4)cc2)sc2c1CC[N@@H+](Cc1ccccc1)C2
REMARK SMILES IDX 16 1 15 2 13 3 14 4 12 6 10 7 11 8 8 9 7 10 9 12 6 13 5 14
REMARK SMILES IDX 84 15 82 16 83 17 85 18 95 19 86 20 87 21 3 23 4 24 2 25
REMARK SMILES IDX 1 26 88 27 89 28 90 29 94 30 91 31 93 32 92 33 17 34 18 35
REMARK SMILES IDX 19 36 20 37 21 39 22 40 23 41 81 42 24 43 80 44 25 45 26 46
REMARK SMILES IDX 27 47 74 48 28 49 79 50 73 51 75 52 29 53 78 54 72 55 71 56
REMARK SMILES IDX 30 58 60 59 41 60 59 61 42 62 45 63 58 64 76 65 43 66 44 67
REMARK SMILES IDX 57 69 77 70 46 71 31 72 32 73 40 74 33 75 39 76 34 77 35 78
REMARK SMILES IDX 36 79 37 80 38 81 61 82 62 83 70 84 63 85 69 86 64 87 65 88
REMARK SMILES IDX 66 89 67 90 68 91 47 92 48 93 56 94 49 95 55 96 50 97 51 98
REMARK SMILES IDX 52 99 53 100 54 101
REMARK H PARENT 15 5 7 11 87 22 19 38 75 57 45 68
REMARK Flexibility Score: inf
ROOT
ATOM      1  C   UNL     1      -3.694  -1.620  -0.703  1.00  0.00     0.117 C 
ENDROOT
BRANCH   1   2
ATOM      2  N   UNL     1      -2.697  -1.313  -1.708  1.00  0.00    -0.356 N 
ATOM      3  C   UNL     1      -1.673  -0.439  -1.535  1.00  0.00     0.223 C 
ATOM      4  O   UNL     1      -0.899  -0.155  -2.451  1.00  0.00    -0.275 OA
ATOM      5  H   UNL     1      -2.767  -1.770  -2.577  1.00  0.00     0.163 HD
BRANCH   3   6
ATOM      6  C   UNL     1      -1.479   0.060  -0.158  1.00  0.00     0.091 C 
ATOM      7  C   UNL     1      -1.829   1.463   0.341  1.00  0.00     0.092 C 
ATOM      8  C   UNL     1      -0.433   1.073   0.072  1.00  0.00     0.028 C 
BRANCH   7   9
ATOM      9  C   UNL     1      -2.500   2.499  -0.449  1.00  0.00     0.228 C 
ATOM     10  N   UNL     1      -1.909   3.626  -0.928  1.00  0.00    -0.317 N 
ATOM     11  H   UNL     1      -2.587   4.194  -1.360  1.00  0.00     0.170 HD
ATOM     12  O   UNL     1      -3.718   2.404  -0.600  1.00  0.00    -0.274 OA
BRANCH  10  13
ATOM     13  C   UNL     1      -0.678   4.237  -1.012  1.00  0.00     0.110 A 
ATOM     14  C   UNL     1       0.672   4.149  -0.673  1.00  0.00     0.098 A 
ATOM     15  C   UNL     1       1.422   5.212  -1.317  1.00  0.00    -0.006 A 
ATOM     16  S   UNL     1      -0.998   5.663  -1.943  1.00  0.00    -0.116 S 
ATOM     17  C   UNL     1       0.636   6.000  -2.124  1.00  0.00     0.065 A 
ATOM     18  C   UNL     1       2.914   5.397  -1.298  1.00  0.00     0.099 C 
ATOM     19  C   UNL     1       1.141   7.012  -3.104  1.00  0.00     0.310 C 
ATOM     20  C   UNL     1       3.364   6.547  -2.228  1.00  0.00     0.267 C 
ATOM     21  N   UNL     1       2.556   6.777  -3.437  1.00  0.00    -0.326 N 
ATOM     22  H   UNL     1       2.914   7.645  -3.835  1.00  0.00     0.348 HD
BRANCH  14  23
ATOM     23  C   UNL     1       1.385   3.153   0.121  1.00  0.00     0.341 C 
ATOM     24  O   UNL     1       1.327   3.090   1.343  1.00  0.00    -0.246 OA
BRANCH  23  25
ATOM     25  O   UNL     1       2.134   2.317  -0.667  1.00  0.00    -0.465 OA
ATOM     26  C   UNL     1       2.596   1.068  -0.125  1.00  0.00     0.282 C 
ENDBRANCH  23  25
ENDBRANCH  14  23
BRANCH  21  27
ATOM     27  C   UNL     1       2.780   5.840  -4.557  1.00  0.00     0.299 C 
BRANCH  27  28
ATOM     28  C   UNL     1       2.447   4.372  -4.372  1.00  0.00     0.006 A 
ATOM     29  C   UNL     1       3.456   3.439  -4.086  1.00  0.00     0.009 A 
ATOM     30  C   UNL     1       1.129   3.905  -4.493  1.00  0.00     0.009 A 
ATOM     31  C   UNL     1       3.144   2.095  -3.860  1.00  0.00     0.001 A 
ATOM     32  C   UNL     1       0.814   2.568  -4.240  1.00  0.00     0.001 A 
ATOM     33  C   UNL     1       1.821   1.665  -3.917  1.00  0.00     0.000 A 
ENDBRANCH  27  28
ENDBRANCH  21  27
ENDBRANCH  10  13
ENDBRANCH   7   9
ENDBRANCH   3   6
ENDBRANCH   1   2
BRANCH   1  34
ATOM     34  C   UNL     1      -4.879  -0.667  -0.791  1.00  0.00     0.042 C 
BRANCH  34  35
ATOM     35  C   UNL     1      -5.782  -1.039  -1.939  1.00  0.00     0.118 C 
BRANCH  35  36
ATOM     36  N   UNL     1      -6.351  -2.377  -1.751  1.00  0.00    -0.352 N 
ATOM     37  C   UNL     1      -7.184  -3.081  -2.591  1.00  0.00     0.251 C 
ATOM     38  H   UNL     1      -6.104  -2.832  -0.913  1.00  0.00     0.163 HD
ATOM     39  O   UNL     1      -7.819  -4.045  -2.183  1.00  0.00    -0.269 OA
BRANCH  37  40
ATOM     40  C   UNL     1      -7.275  -2.637  -3.987  1.00  0.00     0.039 A 
ATOM     41  C   UNL     1      -8.493  -2.559  -4.660  1.00  0.00     0.014 A 
ATOM     42  C   UNL     1      -6.094  -2.206  -4.582  1.00  0.00     0.014 A 
ATOM     43  C   UNL     1      -8.503  -1.991  -5.930  1.00  0.00     0.010 A 
ATOM     44  C   UNL     1      -6.155  -1.411  -5.685  1.00  0.00     0.010 A 
ATOM     45  C   UNL     1      -7.323  -1.409  -6.425  1.00  0.00    -0.014 A 
BRANCH  45  46
ATOM     46  C   UNL     1      -7.278  -0.688  -7.684  1.00  0.00     0.031 A 
ATOM     47  C   UNL     1      -8.254   0.422  -7.751  1.00  0.00     0.074 A 
ATOM     48  C   UNL     1      -6.298  -0.873  -8.597  1.00  0.00     0.049 A 
ATOM     49  N   UNL     1      -9.391   0.409  -8.359  1.00  0.00    -0.248 NA
ATOM     50  C   UNL     1      -8.060   1.589  -6.872  1.00  0.00     0.031 C 
ATOM     51  C   UNL     1      -5.093  -1.711  -8.508  1.00  0.00     0.029 A 
ATOM     52  N   UNL     1      -6.122  -0.250  -9.788  1.00  0.00    -0.354 N 
ATOM     53  C   UNL     1      -9.923   1.677  -8.176  1.00  0.00     0.074 A 
ATOM     54  C   UNL     1      -9.202   2.254  -7.071  1.00  0.00     0.031 C 
ATOM     55  C   UNL     1      -4.215  -1.356  -9.474  1.00  0.00     0.029 A 
ATOM     56  C   UNL     1      -4.860  -0.402 -10.356  1.00  0.00     0.049 A 
ATOM     57  H   UNL     1      -6.836   0.272 -10.221  1.00  0.00     0.167 HD
ATOM     58  C   UNL     1     -10.690   2.252  -9.144  1.00  0.00     0.031 A 
ATOM     59  C   UNL     1      -4.388   0.227 -11.466  1.00  0.00     0.031 A 
ATOM     60  C   UNL     1     -11.063   1.290 -10.155  1.00  0.00     0.049 A 
ATOM     61  C   UNL     1      -5.580   0.683 -12.227  1.00  0.00     0.074 A 
ATOM     62  C   UNL     1     -11.746   0.090 -10.148  1.00  0.00     0.029 A 
ATOM     63  N   UNL     1     -10.321   1.300 -11.316  1.00  0.00    -0.354 N 
ATOM     64  N   UNL     1      -6.438  -0.142 -12.761  1.00  0.00    -0.248 NA
ATOM     65  C   UNL     1      -6.088   2.018 -11.951  1.00  0.00     0.031 C 
ATOM     66  C   UNL     1     -11.017  -0.751 -11.041  1.00  0.00     0.029 A 
ATOM     67  C   UNL     1      -9.994   0.003 -11.620  1.00  0.00     0.049 A 
ATOM     68  H   UNL     1     -10.069   2.097 -11.835  1.00  0.00     0.167 HD
ATOM     69  C   UNL     1      -7.681   0.404 -12.472  1.00  0.00     0.074 A 
ATOM     70  C   UNL     1      -7.400   1.777 -12.047  1.00  0.00     0.031 C 
ATOM     71  C   UNL     1      -8.786  -0.388 -12.321  1.00  0.00     0.031 A 
BRANCH  58  72
ATOM     72  C   UNL     1     -10.717   3.735  -9.418  1.00  0.00    -0.014 A 
ATOM     73  C   UNL     1     -11.575   4.211 -10.430  1.00  0.00     0.010 A 
ATOM     74  C   UNL     1      -9.748   4.633  -8.925  1.00  0.00     0.010 A 
ATOM     75  C   UNL     1     -11.419   5.493 -10.971  1.00  0.00     0.020 A 
ATOM     76  C   UNL     1      -9.612   5.928  -9.428  1.00  0.00     0.020 A 
ATOM     77  C   UNL     1     -10.428   6.338 -10.471  1.00  0.00     0.054 A 
BRANCH  77  78
ATOM     78  S   UNL     1     -10.181   7.957 -11.236  1.00  0.00     0.124 S 
ATOM     79  O   UNL     1      -9.730   7.591 -12.575  1.00  0.00    -0.237 OA
ATOM     80  O   UNL     1     -11.516   8.542 -11.153  1.00  0.00    -0.237 OA
ATOM     81  O   UNL     1      -9.175   8.587 -10.384  1.00  0.00    -0.744 OA
ENDBRANCH  77  78
ENDBRANCH  58  72
BRANCH  59  82
ATOM     82  C   UNL     1      -3.020   0.756 -11.725  1.00  0.00    -0.014 A 
ATOM     83  C   UNL     1      -2.641   1.207 -13.006  1.00  0.00     0.010 A 
ATOM     84  C   UNL     1      -2.184   1.102 -10.644  1.00  0.00     0.010 A 
ATOM     85  C   UNL     1      -1.512   2.031 -13.186  1.00  0.00     0.020 A 
ATOM     86  C   UNL     1      -1.057   1.920 -10.815  1.00  0.00     0.020 A 
ATOM     87  C   UNL     1      -0.740   2.403 -12.082  1.00  0.00     0.054 A 
BRANCH  87  88
ATOM     88  S   UNL     1       0.597   3.623 -12.288  1.00  0.00     0.124 S 
ATOM     89  O   UNL     1       1.603   2.864 -13.024  1.00  0.00    -0.237 OA
ATOM     90  O   UNL     1      -0.058   4.693 -13.035  1.00  0.00    -0.237 OA
ATOM     91  O   UNL     1       0.963   3.968 -10.915  1.00  0.00    -0.744 OA
ENDBRANCH  87  88
ENDBRANCH  59  82
BRANCH  71  92
ATOM     92  C   UNL     1      -8.697  -1.841 -12.738  1.00  0.00    -0.014 A 
ATOM     93  C   UNL     1      -7.831  -2.790 -12.155  1.00  0.00     0.010 A 
ATOM     94  C   UNL     1      -9.652  -2.294 -13.665  1.00  0.00     0.010 A 
ATOM     95  C   UNL     1      -7.905  -4.147 -12.516  1.00  0.00     0.020 A 
ATOM     96  C   UNL     1      -9.743  -3.642 -14.013  1.00  0.00     0.020 A 
ATOM     97  C   UNL     1      -8.862  -4.563 -13.447  1.00  0.00     0.054 A 
BRANCH  97  98
ATOM     98  S   UNL     1      -8.979  -6.318 -13.900  1.00  0.00     0.124 S 
ATOM     99  O   UNL     1      -7.730  -6.543 -14.623  1.00  0.00    -0.237 OA
ATOM    100  O   UNL     1      -9.085  -6.983 -12.604  1.00  0.00    -0.237 OA
ATOM    101  O   UNL     1     -10.187  -6.386 -14.722  1.00  0.00    -0.744 OA
ENDBRANCH  97  98
ENDBRANCH  71  92
ENDBRANCH  45  46
ENDBRANCH  37  40
ENDBRANCH  35  36
ENDBRANCH  34  35
ENDBRANCH   1  34
TORSDOF 19
