REMARK SMILES O=C(NCCCNC(=O)C1([C@@H]2CCCC[C@H]2O)CCOCC1)c1ccc(-c2c3nc(c(-c4ccc(S(=O)(=O)[O-])cc4)c4ccc([nH]4)c(-c4ccc(S(=O)(=O)[O-])cc4)c4nc(c(-c5ccc(S(=O)(=O)[O-])cc5)c5ccc2[nH]5)C=C4)C=C3)cc1
REMARK SMILES IDX 4 1 3 2 1 3 2 4 23 6 24 7 82 8 25 9 81 10 26 11 27 12 28 13
REMARK SMILES IDX 75 14 29 15 80 16 74 17 76 18 30 19 79 20 73 21 72 22 31 24
REMARK SMILES IDX 61 25 42 26 60 27 43 28 46 29 59 30 77 31 44 32 45 33 58 35
REMARK SMILES IDX 78 36 47 37 32 38 33 39 41 40 34 41 40 42 35 43 36 44 37 45
REMARK SMILES IDX 38 46 39 47 62 48 63 49 71 50 64 51 70 52 65 53 66 54 67 55
REMARK SMILES IDX 68 56 69 57 48 58 49 59 57 60 50 61 56 62 51 63 52 64 53 65
REMARK SMILES IDX 54 66 55 67 5 68 6 69 7 70 8 71 9 73 10 74 18 75 22 76 19 77
REMARK SMILES IDX 21 78 20 79 11 80 12 81 16 82 13 83 15 84 14 85 17 86
REMARK H PARENT 3 5 76 23 46 34 7 72 17 87
REMARK Flexibility Score: inf
ROOT
ATOM      1  C   UNL     1      10.309   6.888  -0.658  1.00  0.00     0.118 C 
ENDROOT
BRANCH   1   2
ATOM      2  N   UNL     1      10.722   6.790  -2.048  1.00  0.00    -0.352 N 
ATOM      3  O   UNL     1      10.926   7.497  -4.167  1.00  0.00    -0.269 OA
ATOM      4  C   UNL     1      10.904   7.785  -2.975  1.00  0.00     0.251 C 
ATOM      5  H   UNL     1      10.896   5.876  -2.372  1.00  0.00     0.163 HD
BRANCH   4   6
ATOM      6  C   UNL     1      11.088   9.190  -2.546  1.00  0.00     0.039 A 
ATOM      7  C   UNL     1      11.894   9.504  -1.447  1.00  0.00     0.014 A 
ATOM      8  C   UNL     1      10.539  10.215  -3.323  1.00  0.00     0.014 A 
ATOM      9  C   UNL     1      12.090  10.832  -1.081  1.00  0.00     0.010 A 
ATOM     10  C   UNL     1      10.796  11.551  -2.999  1.00  0.00     0.010 A 
ATOM     11  C   UNL     1      11.580  11.868  -1.879  1.00  0.00    -0.014 A 
BRANCH  11  12
ATOM     12  C   UNL     1      12.011  13.264  -1.623  1.00  0.00     0.031 A 
ATOM     13  C   UNL     1      11.041  14.314  -1.168  1.00  0.00     0.074 A 
ATOM     14  C   UNL     1      13.307  13.575  -1.836  1.00  0.00     0.049 A 
ATOM     15  N   UNL     1      11.264  15.580  -0.923  1.00  0.00    -0.248 NA
ATOM     16  C   UNL     1       9.643  13.900  -0.967  1.00  0.00     0.031 C 
ATOM     17  C   UNL     1      14.332  12.636  -2.307  1.00  0.00     0.029 A 
ATOM     18  N   UNL     1      13.986  14.757  -1.691  1.00  0.00    -0.354 N 
ATOM     19  C   UNL     1      10.036  16.121  -0.563  1.00  0.00     0.074 A 
ATOM     20  C   UNL     1       9.067  15.047  -0.627  1.00  0.00     0.031 C 
ATOM     21  C   UNL     1      15.509  13.273  -2.391  1.00  0.00     0.029 A 
ATOM     22  C   UNL     1      15.314  14.674  -2.040  1.00  0.00     0.049 A 
ATOM     23  H   UNL     1      13.564  15.586  -1.367  1.00  0.00     0.167 HD
ATOM     24  C   UNL     1       9.751  17.398  -0.214  1.00  0.00     0.031 A 
ATOM     25  C   UNL     1      16.265  15.623  -2.107  1.00  0.00     0.031 A 
ATOM     26  C   UNL     1      10.727  18.454  -0.145  1.00  0.00     0.049 A 
ATOM     27  C   UNL     1      15.908  17.035  -1.744  1.00  0.00     0.074 A 
ATOM     28  C   UNL     1      10.548  19.761   0.278  1.00  0.00     0.029 A 
ATOM     29  N   UNL     1      12.054  18.336  -0.526  1.00  0.00    -0.354 N 
ATOM     30  N   UNL     1      14.760  17.505  -1.320  1.00  0.00    -0.248 NA
ATOM     31  C   UNL     1      16.966  18.044  -1.877  1.00  0.00     0.031 C 
ATOM     32  C   UNL     1      11.753  20.447   0.097  1.00  0.00     0.029 A 
ATOM     33  C   UNL     1      12.694  19.556  -0.394  1.00  0.00     0.049 A 
ATOM     34  H   UNL     1      12.479  17.506  -0.844  1.00  0.00     0.167 HD
ATOM     35  C   UNL     1      14.958  18.867  -1.135  1.00  0.00     0.074 A 
ATOM     36  C   UNL     1      16.343  19.139  -1.465  1.00  0.00     0.031 C 
ATOM     37  C   UNL     1      14.070  19.810  -0.738  1.00  0.00     0.031 A 
BRANCH  24  38
ATOM     38  C   UNL     1       8.322  17.748   0.100  1.00  0.00    -0.014 A 
ATOM     39  C   UNL     1       7.735  17.383   1.324  1.00  0.00     0.010 A 
ATOM     40  C   UNL     1       7.590  18.544  -0.801  1.00  0.00     0.010 A 
ATOM     41  C   UNL     1       6.436  17.798   1.635  1.00  0.00     0.020 A 
ATOM     42  C   UNL     1       6.298  18.975  -0.486  1.00  0.00     0.020 A 
ATOM     43  C   UNL     1       5.726  18.593   0.728  1.00  0.00     0.054 A 
BRANCH  43  44
ATOM     44  S   UNL     1       4.066  19.164   1.184  1.00  0.00     0.124 S 
ATOM     45  O   UNL     1       3.279  17.941   1.049  1.00  0.00    -0.237 OA
ATOM     46  O   UNL     1       4.254  19.640   2.552  1.00  0.00    -0.237 OA
ATOM     47  O   UNL     1       3.773  20.204   0.200  1.00  0.00    -0.744 OA
ENDBRANCH  43  44
ENDBRANCH  24  38
BRANCH  25  48
ATOM     48  C   UNL     1      17.627  15.276  -2.594  1.00  0.00    -0.014 A 
ATOM     49  C   UNL     1      18.728  15.283  -1.722  1.00  0.00     0.010 A 
ATOM     50  C   UNL     1      17.823  14.927  -3.943  1.00  0.00     0.010 A 
ATOM     51  C   UNL     1      20.006  14.968  -2.196  1.00  0.00     0.020 A 
ATOM     52  C   UNL     1      19.091  14.584  -4.414  1.00  0.00     0.020 A 
ATOM     53  C   UNL     1      20.179  14.623  -3.541  1.00  0.00     0.054 A 
BRANCH  53  54
ATOM     54  S   UNL     1      21.836  14.182  -4.131  1.00  0.00     0.124 S 
ATOM     55  O   UNL     1      22.462  15.492  -4.277  1.00  0.00    -0.237 OA
ATOM     56  O   UNL     1      22.352  13.351  -3.046  1.00  0.00    -0.237 OA
ATOM     57  O   UNL     1      21.574  13.469  -5.379  1.00  0.00    -0.744 OA
ENDBRANCH  53  54
ENDBRANCH  25  48
BRANCH  37  58
ATOM     58  C   UNL     1      14.568  21.224  -0.642  1.00  0.00    -0.014 A 
ATOM     59  C   UNL     1      14.779  21.989  -1.803  1.00  0.00     0.010 A 
ATOM     60  C   UNL     1      14.770  21.812   0.619  1.00  0.00     0.010 A 
ATOM     61  C   UNL     1      15.201  23.316  -1.704  1.00  0.00     0.020 A 
ATOM     62  C   UNL     1      15.169  23.146   0.722  1.00  0.00     0.020 A 
ATOM     63  C   UNL     1      15.392  23.887  -0.442  1.00  0.00     0.054 A 
BRANCH  63  64
ATOM     64  S   UNL     1      15.881  25.630  -0.338  1.00  0.00     0.124 S 
ATOM     65  O   UNL     1      17.293  25.572  -0.705  1.00  0.00    -0.237 OA
ATOM     66  O   UNL     1      15.002  26.270  -1.315  1.00  0.00    -0.237 OA
ATOM     67  O   UNL     1      15.613  25.982   1.055  1.00  0.00    -0.744 OA
ENDBRANCH  63  64
ENDBRANCH  37  58
ENDBRANCH  11  12
ENDBRANCH   4   6
ENDBRANCH   1   2
BRANCH   1  68
ATOM     68  C   UNL     1       8.834   6.540  -0.491  1.00  0.00     0.042 C 
BRANCH  68  69
ATOM     69  C   UNL     1       8.531   5.065  -0.719  1.00  0.00     0.117 C 
BRANCH  69  70
ATOM     70  N   UNL     1       9.220   4.182   0.213  1.00  0.00    -0.356 N 
ATOM     71  C   UNL     1       8.917   3.506   1.344  1.00  0.00     0.226 C 
ATOM     72  H   UNL     1      10.157   4.039  -0.052  1.00  0.00     0.163 HD
ATOM     73  O   UNL     1       9.829   2.765   1.741  1.00  0.00    -0.274 OA
BRANCH  71  74
ATOM     74  C   UNL     1       7.609   3.600   2.162  1.00  0.00     0.059 C 
ATOM     75  C   UNL     1       7.280   2.106   2.513  1.00  0.00     0.046 C 
ATOM     76  C   UNL     1       6.388   4.082   1.336  1.00  0.00     0.046 C 
ATOM     77  C   UNL     1       5.905   1.922   3.137  1.00  0.00     0.161 C 
ATOM     78  C   UNL     1       5.034   3.781   1.975  1.00  0.00     0.161 C 
ATOM     79  O   UNL     1       4.898   2.391   2.247  1.00  0.00    -0.381 OA
BRANCH  74  80
ATOM     80  C   UNL     1       7.787   4.479   3.481  1.00  0.00     0.033 C 
ATOM     81  C   UNL     1       8.175   5.958   3.252  1.00  0.00     0.007 C 
ATOM     82  C   UNL     1       8.652   3.895   4.633  1.00  0.00     0.118 C 
ATOM     83  C   UNL     1       9.675   6.213   3.119  1.00  0.00     0.001 C 
ATOM     84  C   UNL     1      10.151   4.196   4.559  1.00  0.00     0.032 C 
ATOM     85  C   UNL     1      10.458   5.667   4.302  1.00  0.00     0.003 C 
BRANCH  82  86
ATOM     86  O   UNL     1       8.124   4.427   5.863  1.00  0.00    -0.393 OA
ATOM     87  H   UNL     1       8.213   5.393   5.862  1.00  0.00     0.210 HD
ENDBRANCH  82  86
ENDBRANCH  74  80
ENDBRANCH  71  74
ENDBRANCH  69  70
ENDBRANCH  68  69
ENDBRANCH   1  68
TORSDOF 15
