REMARK SMILES Cc1ccc(-c2cc(Cl)cc3c2O[C@H](C(F)(F)F)C(C(=O)NCCCNC(=O)c2ccc(-c4c5nc(c(-c6ccc(S(=O)(=O)[O-])cc6)c6ccc([nH]6)c(-c6ccc(S(=O)(=O)[O-])cc6)c6nc(c(-c7ccc(S(=O)(=O)[O-])cc7)c7ccc4[nH]7)C=C6)C=C5)cc2)=C3)cc1F
REMARK SMILES IDX 25 1 24 2 23 3 22 4 20 5 21 6 19 8 6 9 7 10 12 11 8 12 11 13
REMARK SMILES IDX 13 14 9 15 10 16 89 17 14 18 5 19 1 20 2 21 3 22 91 23 4 24
REMARK SMILES IDX 90 25 92 26 15 27 16 28 17 29 18 30 26 31 27 32 28 34 29 35
REMARK SMILES IDX 30 36 88 37 31 38 87 39 32 40 33 41 34 42 81 43 35 44 86 45
REMARK SMILES IDX 80 46 82 47 36 48 85 49 79 50 78 51 37 53 67 54 48 55 66 56
REMARK SMILES IDX 49 57 52 58 65 59 83 60 50 61 51 62 64 64 84 65 53 66 38 67
REMARK SMILES IDX 39 68 47 69 40 70 46 71 41 72 42 73 43 74 44 75 45 76 68 77
REMARK SMILES IDX 69 78 77 79 70 80 76 81 71 82 72 83 73 84 74 85 75 86 54 87
REMARK SMILES IDX 55 88 63 89 56 90 62 91 57 92 58 93 59 94 60 95 61 96
REMARK H PARENT 22 7 26 33 82 52 52 63
REMARK Flexibility Score: inf
ROOT
ATOM      1  C   UNL     1      -1.542  -4.654   8.095  1.00  0.00     0.118 C 
ENDROOT
BRANCH   1   2
ATOM      2  C   UNL     1      -1.434  -3.990   6.730  1.00  0.00     0.042 C 
BRANCH   2   3
ATOM      3  C   UNL     1      -1.399  -5.004   5.598  1.00  0.00     0.118 C 
BRANCH   3   4
ATOM      4  N   UNL     1      -2.727  -5.499   5.262  1.00  0.00    -0.352 N 
ATOM      5  C   UNL     1      -3.628  -5.327   4.267  1.00  0.00     0.251 C 
ATOM      6  O   UNL     1      -4.665  -5.991   4.367  1.00  0.00    -0.270 OA
ATOM      7  H   UNL     1      -3.059  -6.129   5.943  1.00  0.00     0.163 HD
BRANCH   5   8
ATOM      8  C   UNL     1      -3.447  -4.420   3.098  1.00  0.00     0.067 C 
ATOM      9  C   UNL     1      -3.089  -1.731  -0.118  1.00  0.00     0.026 A 
ATOM     10  C   UNL     1      -4.036  -1.780  -1.149  1.00  0.00     0.033 A 
ATOM     11  C   UNL     1      -3.271  -2.585   0.986  1.00  0.00     0.135 A 
ATOM     12  C   UNL     1      -5.119  -2.659  -1.071  1.00  0.00     0.042 A 
ATOM     13  C   UNL     1      -4.349  -3.474   1.065  1.00  0.00     0.019 A 
ATOM     14  O   UNL     1      -2.380  -2.466   2.021  1.00  0.00    -0.475 OA
ATOM     15  Cl  UNL     1      -6.272  -2.701  -2.349  1.00  0.00    -0.084 Cl
ATOM     16  C   UNL     1      -5.281  -3.506   0.028  1.00  0.00     0.032 A 
ATOM     17  C   UNL     1      -4.484  -4.328   2.243  1.00  0.00     0.025 C 
ATOM     18  C   UNL     1      -2.189  -3.648   2.833  1.00  0.00     0.314 C 
BRANCH   9  19
ATOM     19  C   UNL     1      -1.927  -0.829  -0.188  1.00  0.00    -0.012 A 
ATOM     20  C   UNL     1       1.527   1.771  -0.014  1.00  0.00     0.047 C 
ATOM     21  C   UNL     1       0.322   0.887  -0.108  1.00  0.00    -0.015 A 
ATOM     22  C   UNL     1      -0.974   1.414  -0.100  1.00  0.00     0.007 A 
ATOM     23  C   UNL     1       0.477  -0.497  -0.176  1.00  0.00     0.126 A 
ATOM     24  C   UNL     1      -2.086   0.564  -0.142  1.00  0.00     0.009 A 
ATOM     25  C   UNL     1      -0.623  -1.347  -0.223  1.00  0.00     0.048 A 
ATOM     26  F   UNL     1       1.707  -1.031  -0.179  1.00  0.00    -0.207 F 
ENDBRANCH   9  19
BRANCH  18  27
ATOM     27  C   UNL     1      -1.070  -4.518   2.226  1.00  0.00     0.429 C 
ATOM     28  F   UNL     1       0.133  -3.906   2.357  1.00  0.00    -0.167 F 
ATOM     29  F   UNL     1      -0.958  -5.723   2.833  1.00  0.00    -0.167 F 
ATOM     30  F   UNL     1      -1.256  -4.764   0.909  1.00  0.00    -0.167 F 
ENDBRANCH  18  27
ENDBRANCH   5   8
ENDBRANCH   3   4
ENDBRANCH   2   3
ENDBRANCH   1   2
BRANCH   1  31
ATOM     31  N   UNL     1      -0.363  -5.460   8.412  1.00  0.00    -0.352 N 
ATOM     32  C   UNL     1       0.623  -5.283   9.352  1.00  0.00     0.251 C 
ATOM     33  H   UNL     1      -0.258  -6.266   7.857  1.00  0.00     0.163 HD
ATOM     34  O   UNL     1       1.647  -5.959   9.284  1.00  0.00    -0.269 OA
BRANCH  32  35
ATOM     35  C   UNL     1       0.462  -4.281  10.425  1.00  0.00     0.039 A 
ATOM     36  C   UNL     1      -0.786  -4.065  11.003  1.00  0.00     0.014 A 
ATOM     37  C   UNL     1       1.570  -3.554  10.873  1.00  0.00     0.014 A 
ATOM     38  C   UNL     1      -0.973  -2.990  11.856  1.00  0.00     0.010 A 
ATOM     39  C   UNL     1       1.404  -2.556  11.839  1.00  0.00     0.010 A 
ATOM     40  C   UNL     1       0.121  -2.229  12.302  1.00  0.00    -0.014 A 
BRANCH  40  41
ATOM     41  C   UNL     1      -0.130  -1.130  13.271  1.00  0.00     0.031 A 
ATOM     42  C   UNL     1       0.194   0.300  12.930  1.00  0.00     0.074 A 
ATOM     43  C   UNL     1      -0.741  -1.428  14.437  1.00  0.00     0.049 A 
ATOM     44  N   UNL     1      -0.048   1.378  13.631  1.00  0.00    -0.248 NA
ATOM     45  C   UNL     1       0.877   0.563  11.652  1.00  0.00     0.031 C 
ATOM     46  C   UNL     1      -1.093  -2.782  14.878  1.00  0.00     0.029 A 
ATOM     47  N   UNL     1      -1.219  -0.623  15.440  1.00  0.00    -0.354 N 
ATOM     48  C   UNL     1       0.466   2.438  12.894  1.00  0.00     0.074 A 
ATOM     49  C   UNL     1       1.062   1.877  11.703  1.00  0.00     0.031 C 
ATOM     50  C   UNL     1      -1.799  -2.707  16.013  1.00  0.00     0.029 A 
ATOM     51  C   UNL     1      -1.879  -1.313  16.431  1.00  0.00     0.049 A 
ATOM     52  H   UNL     1      -1.101   0.355  15.449  1.00  0.00     0.167 HD
ATOM     53  C   UNL     1       0.427   3.760  13.180  1.00  0.00     0.031 A 
ATOM     54  C   UNL     1      -2.475  -0.884  17.561  1.00  0.00     0.031 A 
ATOM     55  C   UNL     1      -0.201   4.313  14.354  1.00  0.00     0.049 A 
ATOM     56  C   UNL     1      -2.501   0.588  17.850  1.00  0.00     0.074 A 
ATOM     57  C   UNL     1      -0.325   5.647  14.704  1.00  0.00     0.029 A 
ATOM     58  N   UNL     1      -0.813   3.578  15.357  1.00  0.00    -0.354 N 
ATOM     59  N   UNL     1      -2.036   1.574  17.120  1.00  0.00    -0.248 NA
ATOM     60  C   UNL     1      -3.131   1.010  19.107  1.00  0.00     0.031 C 
ATOM     61  C   UNL     1      -0.948   5.714  15.951  1.00  0.00     0.029 A 
ATOM     62  C   UNL     1      -1.285   4.428  16.343  1.00  0.00     0.049 A 
ATOM     63  H   UNL     1      -0.899   2.597  15.367  1.00  0.00     0.167 HD
ATOM     64  C   UNL     1      -2.308   2.733  17.835  1.00  0.00     0.074 A 
ATOM     65  C   UNL     1      -3.024   2.330  19.029  1.00  0.00     0.031 C 
ATOM     66  C   UNL     1      -1.978   4.014  17.538  1.00  0.00     0.031 A 
BRANCH  53  67
ATOM     67  C   UNL     1       1.059   4.734  12.218  1.00  0.00    -0.014 A 
ATOM     68  C   UNL     1       2.183   5.479  12.623  1.00  0.00     0.010 A 
ATOM     69  C   UNL     1       0.436   5.046  10.997  1.00  0.00     0.010 A 
ATOM     70  C   UNL     1       2.635   6.557  11.858  1.00  0.00     0.020 A 
ATOM     71  C   UNL     1       0.903   6.107  10.214  1.00  0.00     0.020 A 
ATOM     72  C   UNL     1       1.977   6.877  10.667  1.00  0.00     0.054 A 
BRANCH  72  73
ATOM     73  S   UNL     1       2.514   8.340   9.739  1.00  0.00     0.124 S 
ATOM     74  O   UNL     1       2.039   9.432  10.584  1.00  0.00    -0.237 OA
ATOM     75  O   UNL     1       3.964   8.168   9.684  1.00  0.00    -0.237 OA
ATOM     76  O   UNL     1       1.831   8.201   8.455  1.00  0.00    -0.744 OA
ENDBRANCH  72  73
ENDBRANCH  53  67
BRANCH  54  77
ATOM     77  C   UNL     1      -3.078  -1.881  18.490  1.00  0.00    -0.014 A 
ATOM     78  C   UNL     1      -2.257  -2.831  19.130  1.00  0.00     0.010 A 
ATOM     79  C   UNL     1      -4.468  -1.943  18.686  1.00  0.00     0.010 A 
ATOM     80  C   UNL     1      -2.816  -3.858  19.892  1.00  0.00     0.020 A 
ATOM     81  C   UNL     1      -5.029  -2.947  19.483  1.00  0.00     0.020 A 
ATOM     82  C   UNL     1      -4.201  -3.916  20.054  1.00  0.00     0.054 A 
BRANCH  82  83
ATOM     83  S   UNL     1      -4.906  -5.281  21.018  1.00  0.00     0.124 S 
ATOM     84  O   UNL     1      -4.832  -6.387  20.067  1.00  0.00    -0.237 OA
ATOM     85  O   UNL     1      -3.998  -5.370  22.159  1.00  0.00    -0.237 OA
ATOM     86  O   UNL     1      -6.254  -4.815  21.333  1.00  0.00    -0.744 OA
ENDBRANCH  82  83
ENDBRANCH  54  77
BRANCH  66  87
ATOM     87  C   UNL     1      -2.355   5.082  18.530  1.00  0.00    -0.014 A 
ATOM     88  C   UNL     1      -3.295   6.069  18.181  1.00  0.00     0.010 A 
ATOM     89  C   UNL     1      -1.706   5.165  19.775  1.00  0.00     0.010 A 
ATOM     90  C   UNL     1      -3.564   7.130  19.049  1.00  0.00     0.020 A 
ATOM     91  C   UNL     1      -1.999   6.204  20.661  1.00  0.00     0.020 A 
ATOM     92  C   UNL     1      -2.911   7.192  20.283  1.00  0.00     0.054 A 
BRANCH  92  93
ATOM     93  S   UNL     1      -3.278   8.572  21.401  1.00  0.00     0.124 S 
ATOM     94  O   UNL     1      -2.521   9.665  20.799  1.00  0.00    -0.237 OA
ATOM     95  O   UNL     1      -4.732   8.684  21.306  1.00  0.00    -0.237 OA
ATOM     96  O   UNL     1      -2.782   8.106  22.694  1.00  0.00    -0.744 OA
ENDBRANCH  92  93
ENDBRANCH  66  87
ENDBRANCH  40  41
ENDBRANCH  32  35
ENDBRANCH   1  31
TORSDOF 15
