REMARK SMILES C[C@]12CC[C@@H]3[C@@H](CCC4=C/C(=N\OCC(=O)N5CCC[C@@H]5C(=O)NCCCNC(=O)c5ccc(-c6c7nc(c(-c8ccc(S(=O)(=O)[O-])cc8)c8ccc([nH]8)c(-c8ccc(S(=O)(=O)[O-])cc8)c8nc(c(-c9ccc(S(=O)(=O)[O-])cc9)c9ccc6[nH]9)C=C8)C=C7)cc5)CC[C@@]43C)[C@@H]1CC[C@@H]2O
REMARK SMILES IDX 25 1 24 2 22 3 23 4 21 6 17 7 18 8 19 9 20 10 15 11 16 12
REMARK SMILES IDX 14 13 13 14 12 15 1 16 2 17 3 18 95 19 98 20 4 21 6 22 96 23
REMARK SMILES IDX 97 24 5 25 7 26 93 27 8 28 9 29 92 30 94 31 10 32 91 33
REMARK SMILES IDX 11 34 99 35 26 37 27 38 28 39 29 40 30 42 31 43 32 44 90 45
REMARK SMILES IDX 33 46 89 47 34 48 35 49 36 50 83 51 37 52 88 53 82 54 84 55
REMARK SMILES IDX 38 56 87 57 81 58 80 59 39 61 69 62 50 63 68 64 51 65 54 66
REMARK SMILES IDX 67 67 85 68 52 69 53 70 66 72 86 73 55 74 40 75 41 76 49 77
REMARK SMILES IDX 42 78 48 79 43 80 44 81 45 82 46 83 47 84 70 85 71 86 79 87
REMARK SMILES IDX 72 88 78 89 73 90 74 91 75 92 76 93 77 94 56 95 57 96 65 97
REMARK SMILES IDX 58 98 64 99 59 100 60 101 61 102 62 103 63 104
REMARK H PARENT 24 5 99 36 28 41 84 60 54 71
REMARK Flexibility Score: inf
ROOT
ATOM      1  C   UNL     1       1.648  11.006  -1.547  1.00  0.00     0.117 C 
ENDROOT
BRANCH   1   2
ATOM      2  N   UNL     1       0.939   9.938  -0.875  1.00  0.00    -0.354 N 
ATOM      3  C   UNL     1       0.602   9.900   0.449  1.00  0.00     0.242 C 
ATOM      4  O   UNL     1       1.079   8.975   1.116  1.00  0.00    -0.273 OA
ATOM      5  H   UNL     1       0.673   9.165  -1.424  1.00  0.00     0.163 HD
BRANCH   3   6
ATOM      6  C   UNL     1      -0.199  11.024   1.148  1.00  0.00     0.174 C 
ATOM      7  N   UNL     1      -1.333  11.578   0.411  1.00  0.00    -0.328 N 
ATOM      8  C   UNL     1      -1.242  13.018   0.276  1.00  0.00     0.120 C 
ATOM      9  C   UNL     1       0.166  13.399   0.684  1.00  0.00     0.024 C 
ATOM     10  C   UNL     1       0.662  12.230   1.530  1.00  0.00     0.037 C 
BRANCH   7  11
ATOM     11  C   UNL     1      -2.557  10.976   0.177  1.00  0.00     0.264 C 
ATOM     12  O   UNL     1      -3.416  11.556  -0.502  1.00  0.00    -0.271 OA
BRANCH  11  13
ATOM     13  C   UNL     1      -2.946   9.691   0.942  1.00  0.00     0.363 C 
BRANCH  13  14
ATOM     14  O   UNL     1      -2.036   8.627   1.129  1.00  0.00    -0.385 OA
BRANCH  14  15
ATOM     15  N   UNL     1      -1.885   7.975  -0.090  1.00  0.00    -0.091 NA
ATOM     16  C   UNL     1       1.227  -0.111  -0.979  1.00  0.00     0.014 C 
ATOM     17  C   UNL     1       0.324   1.117  -0.663  1.00  0.00    -0.003 C 
ATOM     18  C   UNL     1       0.500   2.048  -1.858  1.00  0.00     0.010 C 
ATOM     19  C   UNL     1       0.563   1.812   0.707  1.00  0.00     0.001 C 
ATOM     20  C   UNL     1      -1.121   0.681  -0.336  1.00  0.00     0.120 C 
ATOM     21  C   UNL     1       1.784   2.884  -1.723  1.00  0.00     0.005 C 
ATOM     22  C   UNL     1       1.823   2.659   0.816  1.00  0.00    -0.003 C 
ATOM     23  C   UNL     1       0.257   0.668   1.689  1.00  0.00     0.007 C 
ATOM     24  C   UNL     1      -0.930  -0.068   0.999  1.00  0.00     0.032 C 
ATOM     25  C   UNL     1       1.913   3.640  -0.382  1.00  0.00     0.002 C 
ATOM     26  C   UNL     1       1.941   3.475   2.113  1.00  0.00     0.008 C 
ATOM     27  C   UNL     1       1.037   4.969  -0.304  1.00  0.00    -0.008 C 
ATOM     28  C   UNL     1       0.879   4.566   2.296  1.00  0.00     0.032 C 
ATOM     29  C   UNL     1       0.433   5.316   1.061  1.00  0.00    -0.062 C 
ATOM     30  C   UNL     1      -0.172   4.961  -1.274  1.00  0.00     0.018 C 
ATOM     31  C   UNL     1       2.005   6.112  -0.712  1.00  0.00     0.016 C 
ATOM     32  C   UNL     1      -0.552   6.243   1.175  1.00  0.00     0.027 C 
ATOM     33  C   UNL     1      -0.923   6.268  -1.374  1.00  0.00     0.061 C 
ATOM     34  C   UNL     1      -1.156   6.907  -0.028  1.00  0.00     0.080 C 
BRANCH  20  35
ATOM     35  O   UNL     1      -1.768  -0.057  -1.340  1.00  0.00    -0.393 OA
ATOM     36  H   UNL     1      -1.262  -0.864  -1.525  1.00  0.00     0.210 HD
ENDBRANCH  20  35
ENDBRANCH  14  15
ENDBRANCH  13  14
ENDBRANCH  11  13
ENDBRANCH   7  11
ENDBRANCH   3   6
ENDBRANCH   1   2
BRANCH   1  37
ATOM     37  C   UNL     1       3.126  11.043  -1.135  1.00  0.00     0.042 C 
BRANCH  37  38
ATOM     38  C   UNL     1       3.961   9.896  -1.709  1.00  0.00     0.118 C 
BRANCH  38  39
ATOM     39  N   UNL     1       4.163  10.036  -3.144  1.00  0.00    -0.352 N 
ATOM     40  C   UNL     1       5.312  10.266  -3.861  1.00  0.00     0.251 C 
ATOM     41  H   UNL     1       3.346   9.953  -3.687  1.00  0.00     0.163 HD
ATOM     42  O   UNL     1       5.221  10.609  -5.037  1.00  0.00    -0.269 OA
BRANCH  40  43
ATOM     43  C   UNL     1       6.650  10.110  -3.243  1.00  0.00     0.039 A 
ATOM     44  C   UNL     1       7.661  11.015  -3.586  1.00  0.00     0.014 A 
ATOM     45  C   UNL     1       6.939   9.042  -2.389  1.00  0.00     0.014 A 
ATOM     46  C   UNL     1       8.940  10.878  -3.036  1.00  0.00     0.010 A 
ATOM     47  C   UNL     1       8.195   8.946  -1.789  1.00  0.00     0.010 A 
ATOM     48  C   UNL     1       9.212   9.858  -2.111  1.00  0.00    -0.014 A 
BRANCH  48  49
ATOM     49  C   UNL     1      10.551   9.727  -1.476  1.00  0.00     0.031 A 
ATOM     50  C   UNL     1      11.396   8.505  -1.726  1.00  0.00     0.074 A 
ATOM     51  C   UNL     1      10.982  10.680  -0.626  1.00  0.00     0.049 A 
ATOM     52  N   UNL     1      12.557   8.185  -1.213  1.00  0.00    -0.248 NA
ATOM     53  C   UNL     1      10.855   7.499  -2.655  1.00  0.00     0.031 C 
ATOM     54  C   UNL     1      10.245  11.896  -0.274  1.00  0.00     0.029 A 
ATOM     55  N   UNL     1      12.141  10.774   0.104  1.00  0.00    -0.354 N 
ATOM     56  C   UNL     1      12.875   6.937  -1.736  1.00  0.00     0.074 A 
ATOM     57  C   UNL     1      11.764   6.538  -2.574  1.00  0.00     0.031 C 
ATOM     58  C   UNL     1      10.980  12.624   0.582  1.00  0.00     0.029 A 
ATOM     59  C   UNL     1      12.219  11.910   0.875  1.00  0.00     0.049 A 
ATOM     60  H   UNL     1      12.850  10.091   0.077  1.00  0.00     0.167 HD
ATOM     61  C   UNL     1      13.994   6.196  -1.550  1.00  0.00     0.031 A 
ATOM     62  C   UNL     1      13.174  12.329   1.728  1.00  0.00     0.031 A 
ATOM     63  C   UNL     1      15.103   6.603  -0.727  1.00  0.00     0.049 A 
ATOM     64  C   UNL     1      14.404  11.486   1.924  1.00  0.00     0.074 A 
ATOM     65  C   UNL     1      16.307   5.951  -0.523  1.00  0.00     0.029 A 
ATOM     66  N   UNL     1      15.145   7.764   0.029  1.00  0.00    -0.354 N 
ATOM     67  N   UNL     1      14.712  10.338   1.369  1.00  0.00    -0.248 NA
ATOM     68  C   UNL     1      15.420  12.000   2.852  1.00  0.00     0.031 C 
ATOM     69  C   UNL     1      17.055   6.692   0.398  1.00  0.00     0.029 A 
ATOM     70  C   UNL     1      16.342   7.836   0.721  1.00  0.00     0.049 A 
ATOM     71  H   UNL     1      14.428   8.438   0.069  1.00  0.00     0.167 HD
ATOM     72  C   UNL     1      15.970  10.006   1.861  1.00  0.00     0.074 A 
ATOM     73  C   UNL     1      16.370  11.082   2.745  1.00  0.00     0.031 C 
ATOM     74  C   UNL     1      16.727   8.912   1.600  1.00  0.00     0.031 A 
BRANCH  61  75
ATOM     75  C   UNL     1      14.071   4.859  -2.242  1.00  0.00    -0.014 A 
ATOM     76  C   UNL     1      14.207   4.767  -3.639  1.00  0.00     0.010 A 
ATOM     77  C   UNL     1      14.047   3.676  -1.480  1.00  0.00     0.010 A 
ATOM     78  C   UNL     1      14.273   3.519  -4.265  1.00  0.00     0.020 A 
ATOM     79  C   UNL     1      14.143   2.426  -2.100  1.00  0.00     0.020 A 
ATOM     80  C   UNL     1      14.236   2.356  -3.491  1.00  0.00     0.054 A 
BRANCH  80  81
ATOM     81  S   UNL     1      14.339   0.750  -4.330  1.00  0.00     0.124 S 
ATOM     82  O   UNL     1      13.019   0.647  -4.946  1.00  0.00    -0.237 OA
ATOM     83  O   UNL     1      15.451   0.943  -5.255  1.00  0.00    -0.237 OA
ATOM     84  O   UNL     1      14.594  -0.194  -3.242  1.00  0.00    -0.744 OA
ENDBRANCH  80  81
ENDBRANCH  61  75
BRANCH  62  85
ATOM     85  C   UNL     1      13.011  13.621   2.449  1.00  0.00    -0.014 A 
ATOM     86  C   UNL     1      13.810  14.729   2.116  1.00  0.00     0.010 A 
ATOM     87  C   UNL     1      12.043  13.757   3.462  1.00  0.00     0.010 A 
ATOM     88  C   UNL     1      13.658  15.942   2.793  1.00  0.00     0.020 A 
ATOM     89  C   UNL     1      11.869  14.977   4.121  1.00  0.00     0.020 A 
ATOM     90  C   UNL     1      12.685  16.059   3.790  1.00  0.00     0.054 A 
BRANCH  90  91
ATOM     91  S   UNL     1      12.468  17.660   4.617  1.00  0.00     0.124 S 
ATOM     92  O   UNL     1      13.644  17.718   5.479  1.00  0.00    -0.237 OA
ATOM     93  O   UNL     1      12.457  18.596   3.495  1.00  0.00    -0.237 OA
ATOM     94  O   UNL     1      11.189  17.515   5.309  1.00  0.00    -0.744 OA
ENDBRANCH  90  91
ENDBRANCH  62  85
BRANCH  74  95
ATOM     95  C   UNL     1      18.082   8.834   2.251  1.00  0.00    -0.014 A 
ATOM     96  C   UNL     1      18.217   8.580   3.627  1.00  0.00     0.010 A 
ATOM     97  C   UNL     1      19.238   8.965   1.461  1.00  0.00     0.010 A 
ATOM     98  C   UNL     1      19.486   8.489   4.207  1.00  0.00     0.020 A 
ATOM     99  C   UNL     1      20.508   8.846   2.031  1.00  0.00     0.020 A 
ATOM    100  C   UNL     1      20.623   8.623   3.404  1.00  0.00     0.054 A 
BRANCH 100 101
ATOM    101  S   UNL     1      22.258   8.456   4.172  1.00  0.00     0.124 S 
ATOM    102  O   UNL     1      22.382   9.715   4.900  1.00  0.00    -0.237 OA
ATOM    103  O   UNL     1      22.103   7.263   5.002  1.00  0.00    -0.237 OA
ATOM    104  O   UNL     1      23.162   8.302   3.034  1.00  0.00    -0.744 OA
ENDBRANCH 100 101
ENDBRANCH  74  95
ENDBRANCH  48  49
ENDBRANCH  40  43
ENDBRANCH  38  39
ENDBRANCH  37  38
ENDBRANCH   1  37
TORSDOF 18
