REMARK SMILES N#C/C(=C\c1ccc(Oc2ccccc2Cl)c([N+](=O)[O-])c1)C(=O)NCCCNC(=O)c1ccc(-c2c3nc(c(-c4ccc(S(=O)(=O)[O-])cc4)c4ccc([nH]4)c(-c4ccc(S(=O)(=O)[O-])cc4)c4nc(c(-c5ccc(S(=O)(=O)[O-])cc5)c5ccc2[nH]5)C=C4)C=C3)cc1
REMARK SMILES IDX 26 1 25 2 24 3 22 4 23 5 3 7 4 8 2 9 1 10 5 11 6 12 21 13
REMARK SMILES IDX 7 14 17 15 8 16 18 17 19 18 20 19 9 20 10 21 11 22 15 23
REMARK SMILES IDX 12 24 14 25 16 26 13 27 27 28 28 29 29 30 30 32 31 33 32 34
REMARK SMILES IDX 90 35 33 36 89 37 34 38 35 39 36 40 83 41 37 42 88 43 82 44
REMARK SMILES IDX 84 45 38 46 87 47 81 48 80 49 39 51 69 52 50 53 68 54 51 55
REMARK SMILES IDX 54 56 67 57 85 58 52 59 53 60 66 62 86 63 55 64 40 65 41 66
REMARK SMILES IDX 49 67 42 68 48 69 43 70 44 71 45 72 46 73 47 74 70 75 71 76
REMARK SMILES IDX 79 77 72 78 78 79 73 80 74 81 75 82 76 83 77 84 56 85 57 86
REMARK SMILES IDX 65 87 58 88 64 89 59 90 60 91 61 92 62 93 63 94
REMARK H PARENT 24 6 28 31 84 50 54 61
REMARK Flexibility Score: inf
ROOT
ATOM      1  C   UNL     1       7.583   0.048   0.497  1.00  0.00     0.042 C 
ENDROOT
BRANCH   1   2
ATOM      2  C   UNL     1       6.770  -0.879  -0.408  1.00  0.00     0.118 C 
BRANCH   2   3
ATOM      3  N   UNL     1       5.726  -1.576   0.321  1.00  0.00    -0.351 N 
ATOM      4  C   UNL     1       4.402  -1.318   0.503  1.00  0.00     0.261 C 
ATOM      5  O   UNL     1       3.742  -2.166   1.104  1.00  0.00    -0.268 OA
ATOM      6  H   UNL     1       6.036  -2.395   0.771  1.00  0.00     0.163 HD
BRANCH   4   7
ATOM      7  C   UNL     1       3.732  -0.087   0.000  1.00  0.00     0.117 C 
ATOM      8  C   UNL     1       4.310   1.111  -0.262  1.00  0.00     0.033 C 
BRANCH   7   9
ATOM      9  C   UNL     1       2.212  -0.087   0.000  1.00  0.00     0.105 C 
ATOM     10  N   UNL     1       0.951  -0.087   0.000  1.00  0.00    -0.192 NA
ENDBRANCH   7   9
BRANCH   8  11
ATOM     11  C   UNL     1       3.591   2.333  -0.698  1.00  0.00    -0.017 A 
ATOM     12  C   UNL     1       3.986   2.982  -1.871  1.00  0.00     0.012 A 
ATOM     13  C   UNL     1       2.490   2.839   0.001  1.00  0.00     0.098 A 
ATOM     14  C   UNL     1       3.261   4.083  -2.355  1.00  0.00     0.055 A 
ATOM     15  C   UNL     1       1.719   3.884  -0.542  1.00  0.00     0.312 A 
ATOM     16  C   UNL     1       2.104   4.548  -1.709  1.00  0.00     0.204 A 
BRANCH  15  17
ATOM     17  N   UNL     1       0.447   4.102   0.114  1.00  0.00     0.066 N 
ATOM     18  O   UNL     1      -0.571   3.759  -0.502  1.00  0.00    -0.258 OA
ATOM     19  O   UNL     1       0.478   4.548   1.269  1.00  0.00    -0.258 OA
ENDBRANCH  15  17
BRANCH  16  20
ATOM     20  O   UNL     1       1.521   5.606  -2.373  1.00  0.00    -0.449 OA
BRANCH  20  21
ATOM     21  C   UNL     1       0.525   6.343  -1.786  1.00  0.00     0.146 A 
ATOM     22  C   UNL     1      -0.737   6.255  -2.382  1.00  0.00     0.049 A 
ATOM     23  C   UNL     1       0.722   7.191  -0.690  1.00  0.00     0.083 A 
ATOM     24  C   UNL     1      -1.823   6.929  -1.825  1.00  0.00     0.004 A 
ATOM     25  C   UNL     1      -0.371   7.852  -0.125  1.00  0.00     0.024 A 
ATOM     26  Cl  UNL     1       2.281   7.433   0.008  1.00  0.00    -0.080 Cl
ATOM     27  C   UNL     1      -1.644   7.711  -0.685  1.00  0.00     0.002 A 
ENDBRANCH  20  21
ENDBRANCH  16  20
ENDBRANCH   8  11
ENDBRANCH   4   7
ENDBRANCH   2   3
ENDBRANCH   1   2
BRANCH   1  28
ATOM     28  C   UNL     1       8.615  -0.676   1.357  1.00  0.00     0.118 C 
BRANCH  28  29
ATOM     29  N   UNL     1       9.683  -1.243   0.552  1.00  0.00    -0.352 N 
ATOM     30  C   UNL     1      11.043  -1.103   0.654  1.00  0.00     0.251 C 
ATOM     31  H   UNL     1       9.382  -1.820  -0.186  1.00  0.00     0.163 HD
ATOM     32  O   UNL     1      11.742  -1.491  -0.278  1.00  0.00    -0.269 OA
BRANCH  30  33
ATOM     33  C   UNL     1      11.675  -0.502   1.852  1.00  0.00     0.039 A 
ATOM     34  C   UNL     1      12.848   0.242   1.679  1.00  0.00     0.014 A 
ATOM     35  C   UNL     1      11.187  -0.733   3.142  1.00  0.00     0.014 A 
ATOM     36  C   UNL     1      13.518   0.762   2.788  1.00  0.00     0.010 A 
ATOM     37  C   UNL     1      11.819  -0.157   4.244  1.00  0.00     0.010 A 
ATOM     38  C   UNL     1      13.005   0.573   4.080  1.00  0.00    -0.014 A 
BRANCH  38  39
ATOM     39  C   UNL     1      13.727   1.089   5.270  1.00  0.00     0.031 A 
ATOM     40  C   UNL     1      14.335   0.130   6.260  1.00  0.00     0.074 A 
ATOM     41  C   UNL     1      13.811   2.417   5.478  1.00  0.00     0.049 A 
ATOM     42  N   UNL     1      14.986   0.386   7.366  1.00  0.00    -0.248 NA
ATOM     43  C   UNL     1      14.169  -1.306   5.980  1.00  0.00     0.031 C 
ATOM     44  C   UNL     1      13.241   3.448   4.608  1.00  0.00     0.029 A 
ATOM     45  N   UNL     1      14.413   3.127   6.485  1.00  0.00    -0.354 N 
ATOM     46  C   UNL     1      15.284  -0.852   7.925  1.00  0.00     0.074 A 
ATOM     47  C   UNL     1      14.707  -1.857   7.059  1.00  0.00     0.031 C 
ATOM     48  C   UNL     1      13.552   4.658   5.100  1.00  0.00     0.029 A 
ATOM     49  C   UNL     1      14.313   4.490   6.335  1.00  0.00     0.049 A 
ATOM     50  H   UNL     1      14.873   2.701   7.244  1.00  0.00     0.167 HD
ATOM     51  C   UNL     1      15.990  -1.131   9.048  1.00  0.00     0.031 A 
ATOM     52  C   UNL     1      14.787   5.491   7.100  1.00  0.00     0.031 A 
ATOM     53  C   UNL     1      16.580  -0.132   9.897  1.00  0.00     0.049 A 
ATOM     54  C   UNL     1      15.579   5.159   8.334  1.00  0.00     0.074 A 
ATOM     55  C   UNL     1      17.358  -0.309  11.028  1.00  0.00     0.029 A 
ATOM     56  N   UNL     1      16.461   1.237   9.705  1.00  0.00    -0.354 N 
ATOM     57  N   UNL     1      15.893   3.981   8.819  1.00  0.00    -0.248 NA
ATOM     58  C   UNL     1      16.091   6.293   9.116  1.00  0.00     0.031 C 
ATOM     59  C   UNL     1      17.679   0.954  11.540  1.00  0.00     0.029 A 
ATOM     60  C   UNL     1      17.139   1.916  10.703  1.00  0.00     0.049 A 
ATOM     61  H   UNL     1      15.967   1.662   8.967  1.00  0.00     0.167 HD
ATOM     62  C   UNL     1      16.666   4.232   9.947  1.00  0.00     0.074 A 
ATOM     63  C   UNL     1      16.777   5.673  10.066  1.00  0.00     0.031 C 
ATOM     64  C   UNL     1      17.237   3.350  10.804  1.00  0.00     0.031 A 
BRANCH  51  65
ATOM     65  C   UNL     1      16.144  -2.582   9.422  1.00  0.00    -0.014 A 
ATOM     66  C   UNL     1      16.958  -3.446   8.666  1.00  0.00     0.010 A 
ATOM     67  C   UNL     1      15.464  -3.091  10.543  1.00  0.00     0.010 A 
ATOM     68  C   UNL     1      17.041  -4.803   8.987  1.00  0.00     0.020 A 
ATOM     69  C   UNL     1      15.566  -4.444  10.884  1.00  0.00     0.020 A 
ATOM     70  C   UNL     1      16.334  -5.296  10.088  1.00  0.00     0.054 A 
BRANCH  70  71
ATOM     71  S   UNL     1      16.443  -7.065  10.476  1.00  0.00     0.124 S 
ATOM     72  O   UNL     1      15.554  -7.646   9.473  1.00  0.00    -0.237 OA
ATOM     73  O   UNL     1      17.864  -7.349  10.294  1.00  0.00    -0.237 OA
ATOM     74  O   UNL     1      15.967  -7.146  11.854  1.00  0.00    -0.744 OA
ENDBRANCH  70  71
ENDBRANCH  51  65
BRANCH  52  75
ATOM     75  C   UNL     1      14.567   6.903   6.690  1.00  0.00    -0.014 A 
ATOM     76  C   UNL     1      15.630   7.659   6.165  1.00  0.00     0.010 A 
ATOM     77  C   UNL     1      13.293   7.489   6.794  1.00  0.00     0.010 A 
ATOM     78  C   UNL     1      15.426   8.981   5.761  1.00  0.00     0.020 A 
ATOM     79  C   UNL     1      13.081   8.805   6.370  1.00  0.00     0.020 A 
ATOM     80  C   UNL     1      14.152   9.545   5.864  1.00  0.00     0.054 A 
BRANCH  80  81
ATOM     81  S   UNL     1      13.895  11.241   5.273  1.00  0.00     0.124 S 
ATOM     82  O   UNL     1      14.487  12.030   6.348  1.00  0.00    -0.237 OA
ATOM     83  O   UNL     1      14.623  11.249   4.006  1.00  0.00    -0.237 OA
ATOM     84  O   UNL     1      12.443  11.341   5.146  1.00  0.00    -0.744 OA
ENDBRANCH  80  81
ENDBRANCH  52  75
BRANCH  64  85
ATOM     85  C   UNL     1      18.064   3.920  11.924  1.00  0.00    -0.014 A 
ATOM     86  C   UNL     1      17.462   4.542  13.031  1.00  0.00     0.010 A 
ATOM     87  C   UNL     1      19.465   3.800  11.879  1.00  0.00     0.010 A 
ATOM     88  C   UNL     1      18.250   5.066  14.059  1.00  0.00     0.020 A 
ATOM     89  C   UNL     1      20.254   4.302  12.916  1.00  0.00     0.020 A 
ATOM     90  C   UNL     1      19.642   4.947  13.992  1.00  0.00     0.054 A 
BRANCH  90  91
ATOM     91  S   UNL     1      20.645   5.608  15.352  1.00  0.00     0.124 S 
ATOM     92  O   UNL     1      20.638   7.039  15.065  1.00  0.00    -0.237 OA
ATOM     93  O   UNL     1      19.893   5.200  16.536  1.00  0.00    -0.237 OA
ATOM     94  O   UNL     1      21.935   4.943  15.182  1.00  0.00    -0.744 OA
ENDBRANCH  90  91
ENDBRANCH  64  85
ENDBRANCH  38  39
ENDBRANCH  30  33
ENDBRANCH  28  29
ENDBRANCH   1  28
TORSDOF 18
