REMARK SMILES Cc1cc(Br)ccc1NS(=O)(=O)c1ccc(C(=O)NCCCNC(=O)c2ccc(-c3c4nc(c(-c5ccc(S(=O)(=O)[O-])cc5)c5ccc([nH]5)c(-c5ccc(S(=O)(=O)[O-])cc5)c5nc(c(-c6ccc(S(=O)(=O)[O-])cc6)c6ccc3[nH]6)C=C5)C=C4)cc2)cc1
REMARK SMILES IDX 21 1 20 2 19 3 17 4 18 5 16 7 13 8 14 9 87 10 15 11 86 12
REMARK SMILES IDX 10 13 11 14 12 15 9 16 8 18 1 19 2 20 3 21 4 22 7 23 5 24
REMARK SMILES IDX 6 25 22 26 23 27 24 28 25 30 26 31 27 32 85 33 28 34 84 35
REMARK SMILES IDX 29 36 30 37 31 38 78 39 32 40 83 41 77 42 79 43 33 44 82 45
REMARK SMILES IDX 76 46 75 47 34 49 64 50 45 51 63 52 46 53 49 54 62 55 80 56
REMARK SMILES IDX 47 57 48 58 61 60 81 61 50 62 35 63 36 64 44 65 37 66 43 67
REMARK SMILES IDX 38 68 39 69 40 70 41 71 42 72 65 73 66 74 74 75 67 76 73 77
REMARK SMILES IDX 68 78 69 79 70 80 71 81 72 82 51 83 52 84 60 85 53 86 59 87
REMARK SMILES IDX 54 88 55 89 56 90 57 91 58 92
REMARK H PARENT 19 6 9 17 23 29 79 48 49 59
REMARK Flexibility Score: inf
ROOT
ATOM      1  C   UNL     1      -2.016   9.501   0.559  1.00  0.00     0.042 C 
ENDROOT
BRANCH   1   2
ATOM      2  C   UNL     1      -1.505   8.579  -0.542  1.00  0.00     0.118 C 
BRANCH   2   3
ATOM      3  N   UNL     1      -0.360   7.816  -0.083  1.00  0.00    -0.352 N 
ATOM      4  C   UNL     1      -0.255   6.482   0.195  1.00  0.00     0.251 C 
ATOM      5  O   UNL     1       0.825   6.008   0.537  1.00  0.00    -0.269 OA
ATOM      6  H   UNL     1       0.465   8.337   0.048  1.00  0.00     0.163 HD
BRANCH   4   7
ATOM      7  C   UNL     1      -1.410   5.580   0.023  1.00  0.00     0.039 A 
ATOM      8  C   UNL     1      -3.422   3.662  -0.192  1.00  0.00     0.087 A 
ATOM      9  C   UNL     1      -2.238   3.513  -0.922  1.00  0.00     0.023 A 
ATOM     10  C   UNL     1      -3.647   4.824   0.558  1.00  0.00     0.023 A 
ATOM     11  C   UNL     1      -1.214   4.445  -0.771  1.00  0.00     0.015 A 
ATOM     12  C   UNL     1      -2.634   5.783   0.670  1.00  0.00     0.015 A 
BRANCH   8  13
ATOM     13  S   UNL     1      -4.653   2.383  -0.261  1.00  0.00     0.261 S 
ATOM     14  O   UNL     1      -4.766   1.970  -1.648  1.00  0.00    -0.201 OA
ATOM     15  O   UNL     1      -5.820   2.856   0.447  1.00  0.00    -0.201 OA
BRANCH  13  16
ATOM     16  N   UNL     1      -4.114   1.013   0.623  1.00  0.00    -0.279 N 
ATOM     17  H   UNL     1      -4.743   0.554   1.225  1.00  0.00     0.180 HD
BRANCH  16  18
ATOM     18  C   UNL     1      -2.766   0.517   0.506  1.00  0.00     0.052 A 
ATOM     19  C   UNL     1      -3.467  -1.840  -0.286  1.00  0.00     0.046 C 
ATOM     20  C   UNL     1      -2.458  -0.760  -0.001  1.00  0.00    -0.026 A 
ATOM     21  C   UNL     1      -1.100  -1.135  -0.126  1.00  0.00     0.021 A 
ATOM     22  C   UNL     1      -0.080  -0.281   0.284  1.00  0.00     0.018 A 
ATOM     23  C   UNL     1      -1.729   1.294   1.037  1.00  0.00     0.028 A 
ATOM     24  Br  UNL     1       1.726  -0.789   0.064  1.00  0.00    -0.051 Br
ATOM     25  C   UNL     1      -0.391   0.923   0.894  1.00  0.00     0.018 A 
ENDBRANCH  16  18
ENDBRANCH  13  16
ENDBRANCH   8  13
ENDBRANCH   4   7
ENDBRANCH   2   3
ENDBRANCH   1   2
BRANCH   1  26
ATOM     26  C   UNL     1      -1.057  10.646   0.871  1.00  0.00     0.118 C 
BRANCH  26  27
ATOM     27  N   UNL     1      -0.915  11.551  -0.260  1.00  0.00    -0.352 N 
ATOM     28  C   UNL     1      -1.195  12.890  -0.348  1.00  0.00     0.251 C 
ATOM     29  H   UNL     1      -0.567  11.141  -1.084  1.00  0.00     0.163 HD
ATOM     30  O   UNL     1      -1.282  13.414  -1.455  1.00  0.00    -0.269 OA
BRANCH  28  31
ATOM     31  C   UNL     1      -1.383  13.697   0.876  1.00  0.00     0.039 A 
ATOM     32  C   UNL     1      -2.338  14.715   0.872  1.00  0.00     0.014 A 
ATOM     33  C   UNL     1      -0.584  13.489   2.005  1.00  0.00     0.014 A 
ATOM     34  C   UNL     1      -2.508  15.505   2.009  1.00  0.00     0.010 A 
ATOM     35  C   UNL     1      -0.817  14.217   3.166  1.00  0.00     0.010 A 
ATOM     36  C   UNL     1      -1.763  15.250   3.172  1.00  0.00    -0.014 A 
BRANCH  36  37
ATOM     37  C   UNL     1      -1.948  16.076   4.391  1.00  0.00     0.031 A 
ATOM     38  C   UNL     1      -0.814  16.916   4.917  1.00  0.00     0.074 A 
ATOM     39  C   UNL     1      -3.129  16.042   5.039  1.00  0.00     0.049 A 
ATOM     40  N   UNL     1      -0.788  17.703   5.962  1.00  0.00    -0.248 NA
ATOM     41  C   UNL     1       0.465  16.847   4.190  1.00  0.00     0.031 C 
ATOM     42  C   UNL     1      -4.285  15.230   4.649  1.00  0.00     0.029 A 
ATOM     43  N   UNL     1      -3.556  16.710   6.157  1.00  0.00    -0.354 N 
ATOM     44  C   UNL     1       0.506  18.209   6.024  1.00  0.00     0.074 A 
ATOM     45  C   UNL     1       1.252  17.596   4.948  1.00  0.00     0.031 C 
ATOM     46  C   UNL     1      -5.301  15.481   5.489  1.00  0.00     0.029 A 
ATOM     47  C   UNL     1      -4.859  16.435   6.500  1.00  0.00     0.049 A 
ATOM     48  H   UNL     1      -2.984  17.329   6.667  1.00  0.00     0.167 HD
ATOM     49  C   UNL     1       1.020  19.120   6.884  1.00  0.00     0.031 A 
ATOM     50  C   UNL     1      -5.613  16.900   7.513  1.00  0.00     0.031 A 
ATOM     51  C   UNL     1       0.268  19.729   7.949  1.00  0.00     0.049 A 
ATOM     52  C   UNL     1      -5.019  17.909   8.457  1.00  0.00     0.074 A 
ATOM     53  C   UNL     1       0.677  20.699   8.847  1.00  0.00     0.029 A 
ATOM     54  N   UNL     1      -1.050  19.426   8.261  1.00  0.00    -0.354 N 
ATOM     55  N   UNL     1      -3.812  18.424   8.460  1.00  0.00    -0.248 NA
ATOM     56  C   UNL     1      -5.896  18.415   9.521  1.00  0.00     0.031 C 
ATOM     57  C   UNL     1      -0.373  20.938   9.739  1.00  0.00     0.029 A 
ATOM     58  C   UNL     1      -1.462  20.173   9.351  1.00  0.00     0.049 A 
ATOM     59  H   UNL     1      -1.609  18.775   7.778  1.00  0.00     0.167 HD
ATOM     60  C   UNL     1      -3.796  19.342   9.505  1.00  0.00     0.074 A 
ATOM     61  C   UNL     1      -5.118  19.321  10.097  1.00  0.00     0.031 C 
ATOM     62  C   UNL     1      -2.782  20.136   9.931  1.00  0.00     0.031 A 
BRANCH  49  63
ATOM     63  C   UNL     1       2.468  19.507   6.711  1.00  0.00    -0.014 A 
ATOM     64  C   UNL     1       2.901  20.234   5.586  1.00  0.00     0.010 A 
ATOM     65  C   UNL     1       3.404  19.173   7.707  1.00  0.00     0.010 A 
ATOM     66  C   UNL     1       4.247  20.581   5.440  1.00  0.00     0.020 A 
ATOM     67  C   UNL     1       4.746  19.547   7.580  1.00  0.00     0.020 A 
ATOM     68  C   UNL     1       5.161  20.235   6.439  1.00  0.00     0.054 A 
BRANCH  68  69
ATOM     69  S   UNL     1       6.896  20.722   6.234  1.00  0.00     0.124 S 
ATOM     70  O   UNL     1       7.334  19.834   5.160  1.00  0.00    -0.237 OA
ATOM     71  O   UNL     1       6.791  22.135   5.877  1.00  0.00    -0.237 OA
ATOM     72  O   UNL     1       7.489  20.455   7.542  1.00  0.00    -0.744 OA
ENDBRANCH  68  69
ENDBRANCH  49  63
BRANCH  50  73
ATOM     73  C   UNL     1      -7.019  16.434   7.668  1.00  0.00    -0.014 A 
ATOM     74  C   UNL     1      -8.095  17.309   7.436  1.00  0.00     0.010 A 
ATOM     75  C   UNL     1      -7.290  15.102   8.033  1.00  0.00     0.010 A 
ATOM     76  C   UNL     1      -9.413  16.869   7.590  1.00  0.00     0.020 A 
ATOM     77  C   UNL     1      -8.606  14.650   8.156  1.00  0.00     0.020 A 
ATOM     78  C   UNL     1      -9.660  15.541   7.947  1.00  0.00     0.054 A 
BRANCH  78  79
ATOM     79  S   UNL     1     -11.379  14.980   8.097  1.00  0.00     0.124 S 
ATOM     80  O   UNL     1     -11.809  15.643   9.323  1.00  0.00    -0.237 OA
ATOM     81  O   UNL     1     -11.980  15.479   6.862  1.00  0.00    -0.237 OA
ATOM     82  O   UNL     1     -11.258  13.526   8.179  1.00  0.00    -0.744 OA
ENDBRANCH  78  79
ENDBRANCH  50  73
BRANCH  62  83
ATOM     83  C   UNL     1      -3.078  21.086  11.062  1.00  0.00    -0.014 A 
ATOM     84  C   UNL     1      -3.310  20.626  12.371  1.00  0.00     0.010 A 
ATOM     85  C   UNL     1      -3.094  22.470  10.810  1.00  0.00     0.010 A 
ATOM     86  C   UNL     1      -3.603  21.530  13.395  1.00  0.00     0.020 A 
ATOM     87  C   UNL     1      -3.352  23.380  11.838  1.00  0.00     0.020 A 
ATOM     88  C   UNL     1      -3.625  22.902  13.121  1.00  0.00     0.054 A 
BRANCH  88  89
ATOM     89  S   UNL     1      -3.992  24.056  14.470  1.00  0.00     0.124 S 
ATOM     90  O   UNL     1      -5.423  23.842  14.671  1.00  0.00    -0.237 OA
ATOM     91  O   UNL     1      -3.127  23.576  15.545  1.00  0.00    -0.237 OA
ATOM     92  O   UNL     1      -3.628  25.360  13.920  1.00  0.00    -0.744 OA
ENDBRANCH  88  89
ENDBRANCH  62  83
ENDBRANCH  36  37
ENDBRANCH  28  31
ENDBRANCH  26  27
ENDBRANCH   1  26
TORSDOF 16
