REMARK SMILES Cc1nccn1CCC[NH+]1CCC2(CC1)[C@@H](C(=O)NCCCNC(=O)c1ccc(-c3c4nc(c(-c5ccc(S(=O)(=O)[O-])cc5)c5ccc([nH]5)c(-c5ccc(S(=O)(=O)[O-])cc5)c5nc(c(-c6ccc(S(=O)(=O)[O-])cc6)c6ccc3[nH]6)C=C5)C=C4)cc1)CC(=O)N2C
REMARK SMILES IDX 20 1 19 2 17 3 18 4 16 6 10 7 11 8 15 9 12 11 14 12 13 13
REMARK SMILES IDX 89 14 86 15 87 16 90 17 88 18 9 19 8 20 7 21 6 22 1 23 2 24
REMARK SMILES IDX 3 25 4 26 5 27 21 28 22 29 23 30 24 31 25 33 26 34 27 35
REMARK SMILES IDX 85 36 28 37 84 38 29 39 30 40 31 41 78 42 32 43 83 44 77 45
REMARK SMILES IDX 79 46 33 47 82 48 76 49 75 50 34 52 64 53 45 54 63 55 46 56
REMARK SMILES IDX 49 57 62 58 80 59 47 60 48 61 61 63 81 64 50 65 35 66 36 67
REMARK SMILES IDX 44 68 37 69 43 70 38 71 39 72 40 73 41 74 42 75 65 76 66 77
REMARK SMILES IDX 74 78 67 79 73 80 68 81 69 82 70 83 71 84 72 85 51 86 52 87
REMARK SMILES IDX 60 88 53 89 59 90 54 91 55 92 56 93 57 94 58 95
REMARK H PARENT 19 5 10 10 23 32 79 51 49 62
REMARK Flexibility Score: inf
ROOT
ATOM      1  C   UNL     1      -1.904   4.833   2.210  1.00  0.00     0.117 C 
ENDROOT
BRANCH   1   2
ATOM      2  N   UNL     1      -0.883   3.964   2.791  1.00  0.00    -0.356 N 
ATOM      3  C   UNL     1       0.356   4.091   3.346  1.00  0.00     0.226 C 
ATOM      4  O   UNL     1       0.780   3.067   3.894  1.00  0.00    -0.275 OA
ATOM      5  H   UNL     1      -1.170   3.022   2.778  1.00  0.00     0.163 HD
BRANCH   3   6
ATOM      6  C   UNL     1       1.196   5.370   3.381  1.00  0.00     0.114 C 
ATOM      7  N   UNL     1       2.556   5.349  -0.748  1.00  0.00    -0.335 N 
ATOM      8  C   UNL     1       2.201   6.660  -0.172  1.00  0.00     0.264 C 
ATOM      9  C   UNL     1       3.466   4.677   0.178  1.00  0.00     0.264 C 
ATOM     10  H   UNL     1       3.062   5.447  -1.628  1.00  0.00     0.348 HD
ATOM     11  C   UNL     1       1.559   6.581   1.216  1.00  0.00     0.091 C 
ATOM     12  C   UNL     1       2.862   4.401   1.564  1.00  0.00     0.091 C 
ATOM     13  C   UNL     1       2.255   5.650   2.239  1.00  0.00     0.065 C 
ATOM     14  N   UNL     1       3.325   6.369   2.982  1.00  0.00    -0.339 N 
ATOM     15  C   UNL     1       2.052   5.350   4.662  1.00  0.00     0.116 C 
ATOM     16  C   UNL     1       3.221   6.226   4.358  1.00  0.00     0.223 C 
ATOM     17  C   UNL     1       4.612   6.758   2.430  1.00  0.00     0.147 C 
ATOM     18  O   UNL     1       4.003   6.663   5.195  1.00  0.00    -0.275 OA
BRANCH   7  19
ATOM     19  C   UNL     1       1.359   4.595  -1.147  1.00  0.00     0.264 C 
BRANCH  19  20
ATOM     20  C   UNL     1       1.459   3.229  -1.859  1.00  0.00     0.083 C 
BRANCH  20  21
ATOM     21  C   UNL     1       2.018   1.967  -1.169  1.00  0.00     0.129 C 
BRANCH  21  22
ATOM     22  N   UNL     1       1.298   1.329  -0.084  1.00  0.00    -0.335 N 
ATOM     23  C   UNL     1       2.148  -1.034  -0.437  1.00  0.00     0.087 C 
ATOM     24  C   UNL     1       1.410   0.009   0.306  1.00  0.00     0.105 A 
ATOM     25  N   UNL     1       0.716  -0.228   1.401  1.00  0.00    -0.242 NA
ATOM     26  C   UNL     1       0.150   0.951   1.745  1.00  0.00     0.131 A 
ATOM     27  C   UNL     1       0.472   1.913   0.821  1.00  0.00     0.107 A 
ENDBRANCH  21  22
ENDBRANCH  20  21
ENDBRANCH  19  20
ENDBRANCH   7  19
ENDBRANCH   3   6
ENDBRANCH   1   2
BRANCH   1  28
ATOM     28  C   UNL     1      -2.165   4.704   0.684  1.00  0.00     0.042 C 
BRANCH  28  29
ATOM     29  C   UNL     1      -2.457   3.314   0.075  1.00  0.00     0.118 C 
BRANCH  29  30
ATOM     30  N   UNL     1      -3.851   2.914  -0.086  1.00  0.00    -0.352 N 
ATOM     31  C   UNL     1      -4.382   1.841  -0.805  1.00  0.00     0.251 C 
ATOM     32  H   UNL     1      -4.510   3.481   0.378  1.00  0.00     0.163 HD
ATOM     33  O   UNL     1      -5.584   1.854  -1.065  1.00  0.00    -0.269 OA
BRANCH  31  34
ATOM     34  C   UNL     1      -3.558   0.673  -1.248  1.00  0.00     0.039 A 
ATOM     35  C   UNL     1      -3.913  -0.119  -2.356  1.00  0.00     0.014 A 
ATOM     36  C   UNL     1      -2.482   0.259  -0.482  1.00  0.00     0.014 A 
ATOM     37  C   UNL     1      -3.149  -1.256  -2.703  1.00  0.00     0.010 A 
ATOM     38  C   UNL     1      -1.698  -0.818  -0.859  1.00  0.00     0.010 A 
ATOM     39  C   UNL     1      -2.023  -1.607  -1.946  1.00  0.00    -0.014 A 
BRANCH  39  40
ATOM     40  C   UNL     1      -1.083  -2.679  -2.324  1.00  0.00     0.031 A 
ATOM     41  C   UNL     1      -0.514  -2.533  -3.692  1.00  0.00     0.074 A 
ATOM     42  C   UNL     1      -0.532  -3.587  -1.476  1.00  0.00     0.049 A 
ATOM     43  N   UNL     1      -0.731  -3.291  -4.713  1.00  0.00    -0.248 NA
ATOM     44  C   UNL     1       0.299  -1.344  -4.001  1.00  0.00     0.031 C 
ATOM     45  C   UNL     1      -0.707  -3.692  -0.020  1.00  0.00     0.029 A 
ATOM     46  N   UNL     1       0.405  -4.559  -1.720  1.00  0.00    -0.354 N 
ATOM     47  C   UNL     1       0.089  -2.817  -5.731  1.00  0.00     0.074 A 
ATOM     48  C   UNL     1       0.568  -1.528  -5.296  1.00  0.00     0.031 C 
ATOM     49  C   UNL     1       0.240  -4.506   0.504  1.00  0.00     0.029 A 
ATOM     50  C   UNL     1       0.993  -5.114  -0.577  1.00  0.00     0.049 A 
ATOM     51  H   UNL     1       0.645  -4.846  -2.631  1.00  0.00     0.167 HD
ATOM     52  C   UNL     1       0.495  -3.625  -6.750  1.00  0.00     0.031 A 
ATOM     53  C   UNL     1       2.022  -6.004  -0.512  1.00  0.00     0.031 A 
ATOM     54  C   UNL     1      -0.255  -4.856  -6.781  1.00  0.00     0.049 A 
ATOM     55  C   UNL     1       2.087  -6.684  -1.825  1.00  0.00     0.074 A 
ATOM     56  C   UNL     1      -1.596  -5.173  -6.879  1.00  0.00     0.029 A 
ATOM     57  N   UNL     1       0.361  -5.974  -6.266  1.00  0.00    -0.354 N 
ATOM     58  N   UNL     1       1.161  -7.489  -2.257  1.00  0.00    -0.248 NA
ATOM     59  C   UNL     1       2.965  -6.138  -2.844  1.00  0.00     0.031 C 
ATOM     60  C   UNL     1      -1.783  -6.256  -5.969  1.00  0.00     0.029 A 
ATOM     61  C   UNL     1      -0.538  -6.597  -5.438  1.00  0.00     0.049 A 
ATOM     62  H   UNL     1       1.280  -6.272  -6.458  1.00  0.00     0.167 HD
ATOM     63  C   UNL     1       1.033  -7.180  -3.601  1.00  0.00     0.074 A 
ATOM     64  C   UNL     1       2.243  -6.427  -3.930  1.00  0.00     0.031 C 
ATOM     65  C   UNL     1      -0.167  -7.319  -4.240  1.00  0.00     0.031 A 
BRANCH  52  66
ATOM     66  C   UNL     1       1.813  -3.480  -7.467  1.00  0.00    -0.014 A 
ATOM     67  C   UNL     1       2.082  -4.310  -8.575  1.00  0.00     0.010 A 
ATOM     68  C   UNL     1       2.898  -2.755  -6.933  1.00  0.00     0.010 A 
ATOM     69  C   UNL     1       3.380  -4.451  -9.082  1.00  0.00     0.020 A 
ATOM     70  C   UNL     1       4.188  -2.854  -7.459  1.00  0.00     0.020 A 
ATOM     71  C   UNL     1       4.427  -3.726  -8.512  1.00  0.00     0.054 A 
BRANCH  71  72
ATOM     72  S   UNL     1       6.113  -3.977  -9.120  1.00  0.00     0.124 S 
ATOM     73  O   UNL     1       6.371  -5.359  -8.729  1.00  0.00    -0.237 OA
ATOM     74  O   UNL     1       5.961  -3.740 -10.553  1.00  0.00    -0.237 OA
ATOM     75  O   UNL     1       6.887  -2.966  -8.404  1.00  0.00    -0.744 OA
ENDBRANCH  71  72
ENDBRANCH  52  66
BRANCH  53  76
ATOM     76  C   UNL     1       3.101  -6.177   0.501  1.00  0.00    -0.014 A 
ATOM     77  C   UNL     1       3.928  -7.322   0.505  1.00  0.00     0.010 A 
ATOM     78  C   UNL     1       3.526  -5.072   1.264  1.00  0.00     0.010 A 
ATOM     79  C   UNL     1       5.169  -7.329   1.173  1.00  0.00     0.020 A 
ATOM     80  C   UNL     1       4.760  -5.072   1.934  1.00  0.00     0.020 A 
ATOM     81  C   UNL     1       5.590  -6.190   1.862  1.00  0.00     0.054 A 
BRANCH  81  82
ATOM     82  S   UNL     1       7.282  -6.119   2.536  1.00  0.00     0.124 S 
ATOM     83  O   UNL     1       7.205  -7.026   3.677  1.00  0.00    -0.237 OA
ATOM     84  O   UNL     1       8.094  -6.584   1.414  1.00  0.00    -0.237 OA
ATOM     85  O   UNL     1       7.458  -4.708   2.875  1.00  0.00    -0.744 OA
ENDBRANCH  81  82
ENDBRANCH  53  76
BRANCH  65  86
ATOM     86  C   UNL     1      -1.260  -8.106  -3.546  1.00  0.00    -0.014 A 
ATOM     87  C   UNL     1      -1.766  -7.809  -2.263  1.00  0.00     0.010 A 
ATOM     88  C   UNL     1      -1.867  -9.144  -4.274  1.00  0.00     0.010 A 
ATOM     89  C   UNL     1      -2.808  -8.568  -1.706  1.00  0.00     0.020 A 
ATOM     90  C   UNL     1      -2.919  -9.888  -3.736  1.00  0.00     0.020 A 
ATOM     91  C   UNL     1      -3.371  -9.612  -2.446  1.00  0.00     0.054 A 
BRANCH  91  92
ATOM     92  S   UNL     1      -4.707 -10.604  -1.723  1.00  0.00     0.124 S 
ATOM     93  O   UNL     1      -4.025 -11.324  -0.651  1.00  0.00    -0.237 OA
ATOM     94  O   UNL     1      -5.668  -9.591  -1.289  1.00  0.00    -0.237 OA
ATOM     95  O   UNL     1      -5.162 -11.439  -2.835  1.00  0.00    -0.744 OA
ENDBRANCH  91  92
ENDBRANCH  65  86
ENDBRANCH  39  40
ENDBRANCH  31  34
ENDBRANCH  29  30
ENDBRANCH  28  29
ENDBRANCH   1  28
TORSDOF 17
