REMARK SMILES Cc1nc(-c2ccccc2)sc1C(=O)N[C@@H](CC1=c2ccccc2=NC1)C(=O)NCCCNC(=O)c1ccc(-c2c3nc(c(-c4ccc(S(=O)(=O)[O-])cc4)c4ccc([nH]4)c(-c4ccc(S(=O)(=O)[O-])cc4)c4nc(c(-c5ccc(S(=O)(=O)[O-])cc5)c5ccc2[nH]5)C=C4)C=C3)cc1
REMARK SMILES IDX 31 1 30 2 29 3 27 4 28 5 16 7 15 8 13 9 14 10 12 12 1 13
REMARK SMILES IDX 2 14 3 15 4 16 11 17 5 18 6 19 10 20 7 21 9 22 8 23 17 24
REMARK SMILES IDX 18 25 19 26 26 27 20 28 24 29 25 30 21 31 23 32 22 33 32 34
REMARK SMILES IDX 33 35 34 36 35 38 36 39 37 40 95 41 38 42 94 43 39 44 40 45
REMARK SMILES IDX 41 46 88 47 42 48 93 49 87 50 89 51 43 52 92 53 86 54 85 55
REMARK SMILES IDX 44 57 74 58 55 59 73 60 56 61 59 62 72 63 90 64 57 65 58 66
REMARK SMILES IDX 71 68 91 69 60 70 45 71 46 72 54 73 47 74 53 75 48 76 49 77
REMARK SMILES IDX 50 78 51 79 52 80 75 81 76 82 84 83 77 84 83 85 78 86 79 87
REMARK SMILES IDX 80 88 81 89 82 90 61 91 62 92 70 93 63 94 69 95 64 96 65 97
REMARK SMILES IDX 66 98 67 99 68 100
REMARK H PARENT 29 6 15 11 33 37 89 56 59 67
REMARK Flexibility Score: inf
ROOT
ATOM      1  C   UNL     1      -3.319  -6.233   2.036  1.00  0.00     0.042 C 
ENDROOT
BRANCH   1   2
ATOM      2  C   UNL     1      -3.846  -5.121   1.169  1.00  0.00     0.117 C 
BRANCH   2   3
ATOM      3  N   UNL     1      -4.146  -3.897   1.864  1.00  0.00    -0.354 N 
ATOM      4  C   UNL     1      -4.006  -2.625   1.414  1.00  0.00     0.242 C 
ATOM      5  O   UNL     1      -4.620  -1.742   2.023  1.00  0.00    -0.273 OA
ATOM      6  H   UNL     1      -4.497  -3.995   2.778  1.00  0.00     0.163 HD
BRANCH   4   7
ATOM      7  C   UNL     1      -3.160  -2.260   0.176  1.00  0.00     0.175 C 
BRANCH   7   8
ATOM      8  N   UNL     1      -1.772  -2.675   0.233  1.00  0.00    -0.339 N 
ATOM      9  C   UNL     1      -0.586  -2.004   0.094  1.00  0.00     0.263 C 
ATOM     10  O   UNL     1       0.383  -2.775   0.110  1.00  0.00    -0.268 OA
ATOM     11  H   UNL     1      -1.659  -3.637   0.409  1.00  0.00     0.164 HD
BRANCH   9  12
ATOM     12  C   UNL     1      -0.427  -0.554  -0.043  1.00  0.00     0.115 A 
ATOM     13  C   UNL     1      -2.648   0.822  -0.542  1.00  0.00     0.068 C 
ATOM     14  C   UNL     1      -1.208   0.585  -0.266  1.00  0.00     0.062 A 
ATOM     15  N   UNL     1      -0.519   1.784  -0.225  1.00  0.00    -0.241 NA
ATOM     16  C   UNL     1       0.763   1.602  -0.065  1.00  0.00     0.124 A 
ATOM     17  S   UNL     1       1.249  -0.011   0.086  1.00  0.00    -0.108 S 
BRANCH  16  18
ATOM     18  C   UNL     1       1.685   2.726  -0.008  1.00  0.00     0.010 A 
ATOM     19  C   UNL     1       1.491   3.695   0.988  1.00  0.00     0.011 A 
ATOM     20  C   UNL     1       2.614   2.960  -1.027  1.00  0.00     0.011 A 
ATOM     21  C   UNL     1       2.198   4.893   0.954  1.00  0.00     0.001 A 
ATOM     22  C   UNL     1       3.316   4.166  -1.063  1.00  0.00     0.001 A 
ATOM     23  C   UNL     1       3.101   5.133  -0.080  1.00  0.00     0.000 A 
ENDBRANCH  16  18
ENDBRANCH   9  12
ENDBRANCH   7   8
BRANCH   7  24
ATOM     24  C   UNL     1      -3.808  -2.464  -1.221  1.00  0.00     0.068 C 
BRANCH  24  25
ATOM     25  C   UNL     1      -4.019  -3.858  -1.730  1.00  0.00    -0.037 C 
ATOM     26  C   UNL     1      -3.121  -4.794  -2.045  1.00  0.00     0.001 A 
ATOM     27  C   UNL     1      -5.410  -4.413  -1.848  1.00  0.00     0.174 C 
ATOM     28  C   UNL     1      -1.696  -4.858  -2.102  1.00  0.00     0.010 A 
ATOM     29  C   UNL     1      -3.949  -6.016  -2.097  1.00  0.00     0.065 A 
ATOM     30  N   UNL     1      -5.236  -5.872  -2.023  1.00  0.00    -0.280 NA
ATOM     31  C   UNL     1      -1.102  -6.063  -2.100  1.00  0.00     0.001 A 
ATOM     32  C   UNL     1      -3.221  -7.304  -2.096  1.00  0.00     0.028 A 
ATOM     33  C   UNL     1      -1.878  -7.290  -2.059  1.00  0.00     0.002 A 
ENDBRANCH  24  25
ENDBRANCH   7  24
ENDBRANCH   4   7
ENDBRANCH   2   3
ENDBRANCH   1   2
BRANCH   1  34
ATOM     34  C   UNL     1      -4.301  -6.683   3.095  1.00  0.00     0.118 C 
BRANCH  34  35
ATOM     35  N   UNL     1      -5.580  -7.131   2.553  1.00  0.00    -0.352 N 
ATOM     36  C   UNL     1      -6.171  -8.377   2.547  1.00  0.00     0.251 C 
ATOM     37  H   UNL     1      -6.111  -6.425   2.118  1.00  0.00     0.163 HD
ATOM     38  O   UNL     1      -7.197  -8.564   1.918  1.00  0.00    -0.269 OA
BRANCH  36  39
ATOM     39  C   UNL     1      -5.527  -9.489   3.279  1.00  0.00     0.039 A 
ATOM     40  C   UNL     1      -5.483 -10.755   2.694  1.00  0.00     0.014 A 
ATOM     41  C   UNL     1      -4.925  -9.268   4.515  1.00  0.00     0.014 A 
ATOM     42  C   UNL     1      -4.749 -11.768   3.313  1.00  0.00     0.010 A 
ATOM     43  C   UNL     1      -4.066 -10.220   5.040  1.00  0.00     0.010 A 
ATOM     44  C   UNL     1      -3.987 -11.491   4.461  1.00  0.00    -0.014 A 
BRANCH  44  45
ATOM     45  C   UNL     1      -3.117 -12.519   5.081  1.00  0.00     0.031 A 
ATOM     46  C   UNL     1      -3.326 -12.915   6.521  1.00  0.00     0.074 A 
ATOM     47  C   UNL     1      -2.104 -13.050   4.366  1.00  0.00     0.049 A 
ATOM     48  N   UNL     1      -2.663 -13.783   7.239  1.00  0.00    -0.248 NA
ATOM     49  C   UNL     1      -4.391 -12.218   7.265  1.00  0.00     0.031 C 
ATOM     50  C   UNL     1      -1.750 -12.682   2.991  1.00  0.00     0.029 A 
ATOM     51  N   UNL     1      -1.192 -14.019   4.692  1.00  0.00    -0.354 N 
ATOM     52  C   UNL     1      -3.213 -13.716   8.514  1.00  0.00     0.074 A 
ATOM     53  C   UNL     1      -4.209 -12.671   8.494  1.00  0.00     0.031 C 
ATOM     54  C   UNL     1      -0.739 -13.460   2.574  1.00  0.00     0.029 A 
ATOM     55  C   UNL     1      -0.346 -14.350   3.660  1.00  0.00     0.049 A 
ATOM     56  H   UNL     1      -1.146 -14.439   5.582  1.00  0.00     0.167 HD
ATOM     57  C   UNL     1      -2.943 -14.481   9.598  1.00  0.00     0.031 A 
ATOM     58  C   UNL     1       0.629 -15.276   3.592  1.00  0.00     0.031 A 
ATOM     59  C   UNL     1      -1.973 -15.541   9.600  1.00  0.00     0.049 A 
ATOM     60  C   UNL     1       0.887 -16.140   4.795  1.00  0.00     0.074 A 
ATOM     61  C   UNL     1      -1.668 -16.428  10.616  1.00  0.00     0.029 A 
ATOM     62  N   UNL     1      -1.151 -15.859   8.529  1.00  0.00    -0.354 N 
ATOM     63  N   UNL     1       0.295 -16.119   5.966  1.00  0.00    -0.248 NA
ATOM     64  C   UNL     1       1.931 -17.163   4.661  1.00  0.00     0.031 C 
ATOM     65  C   UNL     1      -0.626 -17.251  10.176  1.00  0.00     0.029 A 
ATOM     66  C   UNL     1      -0.322 -16.914   8.866  1.00  0.00     0.049 A 
ATOM     67  H   UNL     1      -1.157 -15.401   7.657  1.00  0.00     0.167 HD
ATOM     68  C   UNL     1       0.886 -17.137   6.706  1.00  0.00     0.074 A 
ATOM     69  C   UNL     1       1.858 -17.771   5.837  1.00  0.00     0.031 C 
ATOM     70  C   UNL     1       0.650 -17.513   7.988  1.00  0.00     0.031 A 
BRANCH  57  71
ATOM     71  C   UNL     1      -3.718 -14.199  10.859  1.00  0.00    -0.014 A 
ATOM     72  C   UNL     1      -5.101 -14.455  10.937  1.00  0.00     0.010 A 
ATOM     73  C   UNL     1      -3.056 -13.686  11.989  1.00  0.00     0.010 A 
ATOM     74  C   UNL     1      -5.813 -14.160  12.101  1.00  0.00     0.020 A 
ATOM     75  C   UNL     1      -3.760 -13.419  13.167  1.00  0.00     0.020 A 
ATOM     76  C   UNL     1      -5.138 -13.641  13.209  1.00  0.00     0.054 A 
BRANCH  76  77
ATOM     77  S   UNL     1      -6.085 -13.289  14.716  1.00  0.00     0.124 S 
ATOM     78  O   UNL     1      -6.831 -12.094  14.329  1.00  0.00    -0.237 OA
ATOM     79  O   UNL     1      -6.882 -14.501  14.883  1.00  0.00    -0.237 OA
ATOM     80  O   UNL     1      -5.056 -13.078  15.731  1.00  0.00    -0.744 OA
ENDBRANCH  76  77
ENDBRANCH  57  71
BRANCH  58  81
ATOM     81  C   UNL     1       1.398 -15.457   2.331  1.00  0.00    -0.014 A 
ATOM     82  C   UNL     1       1.214 -16.606   1.540  1.00  0.00     0.010 A 
ATOM     83  C   UNL     1       2.302 -14.470   1.898  1.00  0.00     0.010 A 
ATOM     84  C   UNL     1       1.930 -16.771   0.351  1.00  0.00     0.020 A 
ATOM     85  C   UNL     1       2.998 -14.618   0.695  1.00  0.00     0.020 A 
ATOM     86  C   UNL     1       2.816 -15.774  -0.066  1.00  0.00     0.054 A 
BRANCH  86  87
ATOM     87  S   UNL     1       3.689 -15.982  -1.643  1.00  0.00     0.124 S 
ATOM     88  O   UNL     1       4.680 -17.001  -1.310  1.00  0.00    -0.237 OA
ATOM     89  O   UNL     1       2.620 -16.408  -2.542  1.00  0.00    -0.237 OA
ATOM     90  O   UNL     1       4.225 -14.650  -1.914  1.00  0.00    -0.744 OA
ENDBRANCH  86  87
ENDBRANCH  58  81
BRANCH  70  91
ATOM     91  C   UNL     1       1.454 -18.670   8.515  1.00  0.00    -0.014 A 
ATOM     92  C   UNL     1       2.829 -18.538   8.779  1.00  0.00     0.010 A 
ATOM     93  C   UNL     1       0.819 -19.898   8.773  1.00  0.00     0.010 A 
ATOM     94  C   UNL     1       3.566 -19.631   9.241  1.00  0.00     0.020 A 
ATOM     95  C   UNL     1       1.545 -20.983   9.267  1.00  0.00     0.020 A 
ATOM     96  C   UNL     1       2.919 -20.848   9.476  1.00  0.00     0.054 A 
BRANCH  96  97
ATOM     97  S   UNL     1       3.895 -22.249  10.086  1.00  0.00     0.124 S 
ATOM     98  O   UNL     1       4.625 -22.653   8.887  1.00  0.00    -0.237 OA
ATOM     99  O   UNL     1       4.704 -21.643  11.141  1.00  0.00    -0.237 OA
ATOM    100  O   UNL     1       2.885 -23.198  10.551  1.00  0.00    -0.744 OA
ENDBRANCH  96  97
ENDBRANCH  70  91
ENDBRANCH  44  45
ENDBRANCH  36  39
ENDBRANCH  34  35
ENDBRANCH   1  34
TORSDOF 18
