REMARK SMILES COC(=O)c1ccc([C@H]2Nc3c(C(=O)NCCCNC(=O)c4ccc(-c5c6nc(c(-c7ccc(S(=O)(=O)[O-])cc7)c7ccc([nH]7)c(-c7ccc(S(=O)(=O)[O-])cc7)c7nc(c(-c8ccc(S(=O)(=O)[O-])cc8)c8ccc5[nH]8)C=C7)C=C6)cc4)cccc3[C@H]3[C@H]4CC[C@H](C4)[C@H]32)cc1
REMARK SMILES IDX 17 1 16 2 15 3 13 4 14 5 12 7 9 8 10 9 92 10 11 11 86 13
REMARK SMILES IDX 90 14 85 15 87 16 89 17 91 18 82 19 84 20 88 21 83 22 8 23
REMARK SMILES IDX 5 24 6 25 94 26 7 27 93 28 3 29 4 30 2 31 1 32 18 33 19 34
REMARK SMILES IDX 20 35 21 37 22 38 23 39 81 40 24 41 80 42 25 43 26 44 27 45
REMARK SMILES IDX 74 46 28 47 79 48 73 49 75 50 29 51 78 52 72 53 71 54 30 56
REMARK SMILES IDX 60 57 41 58 59 59 42 60 45 61 58 62 76 63 43 64 44 65 57 67
REMARK SMILES IDX 77 68 46 69 31 70 32 71 40 72 33 73 39 74 34 75 35 76 36 77
REMARK SMILES IDX 37 78 38 79 61 80 62 81 70 82 63 83 69 84 64 85 65 86 66 87
REMARK SMILES IDX 67 88 68 89 47 90 48 91 56 92 49 93 55 94 50 95 51 96 52 97
REMARK SMILES IDX 53 98 54 99
REMARK H PARENT 15 6 10 12 19 36 75 55 45 66
REMARK Flexibility Score: inf
ROOT
ATOM      1  C   UNL     1       0.136 -15.052  -1.634  1.00  0.00     0.042 C 
ENDROOT
BRANCH   1   2
ATOM      2  C   UNL     1      -1.116 -14.306  -2.054  1.00  0.00     0.118 C 
BRANCH   2   3
ATOM      3  N   UNL     1      -1.605 -13.335  -1.080  1.00  0.00    -0.352 N 
ATOM      4  C   UNL     1      -1.814 -11.975  -1.223  1.00  0.00     0.253 C 
ATOM      5  O   UNL     1      -2.192 -11.310  -0.260  1.00  0.00    -0.269 OA
ATOM      6  H   UNL     1      -1.815 -13.701  -0.191  1.00  0.00     0.163 HD
BRANCH   4   7
ATOM      7  C   UNL     1      -1.498 -11.327  -2.521  1.00  0.00     0.063 A 
ATOM      8  C   UNL     1      -0.895  -7.859  -1.914  1.00  0.00     0.113 C 
ATOM      9  N   UNL     1      -0.655  -9.254  -1.485  1.00  0.00    -0.377 N 
ATOM     10  C   UNL     1       0.311  -7.483  -2.819  1.00  0.00     0.027 C 
ATOM     11  C   UNL     1      -0.715 -10.168  -2.562  1.00  0.00     0.051 A 
ATOM     12  H   UNL     1      -0.474  -9.517  -0.554  1.00  0.00     0.161 HD
ATOM     13  C   UNL     1       0.851  -8.635  -3.713  1.00  0.00     0.030 C 
ATOM     14  C   UNL     1       0.460  -6.230  -3.717  1.00  0.00    -0.005 C 
ATOM     15  C   UNL     1      -0.091  -9.803  -3.776  1.00  0.00    -0.020 A 
ATOM     16  C   UNL     1       1.306  -7.884  -4.986  1.00  0.00    -0.003 C 
ATOM     17  C   UNL     1      -0.408  -6.198  -4.979  1.00  0.00     0.004 C 
ATOM     18  C   UNL     1       1.818  -6.565  -4.381  1.00  0.00     0.008 C 
ATOM     19  C   UNL     1      -1.915 -11.909  -3.722  1.00  0.00     0.016 A 
ATOM     20  C   UNL     1      -0.340 -10.544  -4.933  1.00  0.00     0.006 A 
ATOM     21  C   UNL     1       0.118  -7.371  -5.814  1.00  0.00     0.004 C 
ATOM     22  C   UNL     1      -1.315 -11.538  -4.922  1.00  0.00     0.001 A 
BRANCH   8  23
ATOM     23  C   UNL     1      -2.386  -7.755  -2.259  1.00  0.00    -0.025 A 
ATOM     24  C   UNL     1      -5.200  -7.938  -2.668  1.00  0.00     0.060 A 
ATOM     25  C   UNL     1      -4.684  -7.767  -1.382  1.00  0.00     0.016 A 
ATOM     26  C   UNL     1      -4.316  -8.014  -3.747  1.00  0.00     0.016 A 
ATOM     27  C   UNL     1      -3.300  -7.676  -1.184  1.00  0.00     0.007 A 
ATOM     28  C   UNL     1      -2.930  -7.948  -3.535  1.00  0.00     0.007 A 
BRANCH  24  29
ATOM     29  C   UNL     1      -6.675  -8.064  -2.824  1.00  0.00     0.337 C 
ATOM     30  O   UNL     1      -7.475  -7.712  -1.978  1.00  0.00    -0.246 OA
BRANCH  29  31
ATOM     31  O   UNL     1      -6.979  -8.660  -4.008  1.00  0.00    -0.465 OA
ATOM     32  C   UNL     1      -8.376  -8.903  -4.190  1.00  0.00     0.282 C 
ENDBRANCH  29  31
ENDBRANCH  24  29
ENDBRANCH   8  23
ENDBRANCH   4   7
ENDBRANCH   2   3
ENDBRANCH   1   2
BRANCH   1  33
ATOM     33  C   UNL     1      -0.057 -16.014  -0.478  1.00  0.00     0.118 C 
BRANCH  33  34
ATOM     34  N   UNL     1      -1.037 -17.054  -0.764  1.00  0.00    -0.352 N 
ATOM     35  C   UNL     1      -0.906 -18.416  -0.871  1.00  0.00     0.251 C 
ATOM     36  H   UNL     1      -1.953 -16.721  -0.904  1.00  0.00     0.163 HD
ATOM     37  O   UNL     1      -1.858 -19.068  -1.298  1.00  0.00    -0.269 OA
BRANCH  35  38
ATOM     38  C   UNL     1       0.353 -19.105  -0.505  1.00  0.00     0.039 A 
ATOM     39  C   UNL     1       0.734 -20.236  -1.233  1.00  0.00     0.014 A 
ATOM     40  C   UNL     1       1.139 -18.685   0.570  1.00  0.00     0.014 A 
ATOM     41  C   UNL     1       1.921 -20.904  -0.918  1.00  0.00     0.010 A 
ATOM     42  C   UNL     1       2.374 -19.283   0.813  1.00  0.00     0.010 A 
ATOM     43  C   UNL     1       2.770 -20.414   0.088  1.00  0.00    -0.014 A 
BRANCH  43  44
ATOM     44  C   UNL     1       4.056 -21.090   0.403  1.00  0.00     0.031 A 
ATOM     45  C   UNL     1       4.294 -21.680   1.770  1.00  0.00     0.074 A 
ATOM     46  C   UNL     1       5.025 -21.149  -0.533  1.00  0.00     0.049 A 
ATOM     47  N   UNL     1       5.346 -22.317   2.220  1.00  0.00    -0.248 NA
ATOM     48  C   UNL     1       3.225 -21.515   2.768  1.00  0.00     0.031 C 
ATOM     49  C   UNL     1       4.941 -20.572  -1.878  1.00  0.00     0.029 A 
ATOM     50  N   UNL     1       6.269 -21.727  -0.500  1.00  0.00    -0.354 N 
ATOM     51  C   UNL     1       5.070 -22.614   3.550  1.00  0.00     0.074 A 
ATOM     52  C   UNL     1       3.780 -22.035   3.853  1.00  0.00     0.031 C 
ATOM     53  C   UNL     1       6.064 -20.863  -2.553  1.00  0.00     0.029 A 
ATOM     54  C   UNL     1       6.965 -21.610  -1.681  1.00  0.00     0.049 A 
ATOM     55  H   UNL     1       6.630 -22.182   0.295  1.00  0.00     0.167 HD
ATOM     56  C   UNL     1       5.808 -23.326   4.436  1.00  0.00     0.031 A 
ATOM     57  C   UNL     1       8.188 -22.057  -2.026  1.00  0.00     0.031 A 
ATOM     58  C   UNL     1       7.089 -23.909   4.132  1.00  0.00     0.049 A 
ATOM     59  C   UNL     1       8.989 -22.845  -1.026  1.00  0.00     0.074 A 
ATOM     60  C   UNL     1       7.892 -24.692   4.943  1.00  0.00     0.029 A 
ATOM     61  N   UNL     1       7.757 -23.769   2.925  1.00  0.00    -0.354 N 
ATOM     62  N   UNL     1       8.677 -23.177   0.204  1.00  0.00    -0.248 NA
ATOM     63  C   UNL     1      10.299 -23.336  -1.471  1.00  0.00     0.031 C 
ATOM     64  C   UNL     1       9.071 -24.977   4.246  1.00  0.00     0.029 A 
ATOM     65  C   UNL     1       8.972 -24.431   2.977  1.00  0.00     0.049 A 
ATOM     66  H   UNL     1       7.417 -23.273   2.146  1.00  0.00     0.167 HD
ATOM     67  C   UNL     1       9.741 -23.942   0.671  1.00  0.00     0.074 A 
ATOM     68  C   UNL     1      10.691 -24.041  -0.419  1.00  0.00     0.031 C 
ATOM     69  C   UNL     1       9.915 -24.513   1.889  1.00  0.00     0.031 A 
BRANCH  56  70
ATOM     70  C   UNL     1       5.245 -23.511   5.823  1.00  0.00    -0.014 A 
ATOM     71  C   UNL     1       4.105 -24.305   6.048  1.00  0.00     0.010 A 
ATOM     72  C   UNL     1       5.887 -22.915   6.924  1.00  0.00     0.010 A 
ATOM     73  C   UNL     1       3.592 -24.461   7.338  1.00  0.00     0.020 A 
ATOM     74  C   UNL     1       5.397 -23.096   8.221  1.00  0.00     0.020 A 
ATOM     75  C   UNL     1       4.241 -23.854   8.417  1.00  0.00     0.054 A 
BRANCH  75  76
ATOM     76  S   UNL     1       3.567 -24.096  10.084  1.00  0.00     0.124 S 
ATOM     77  O   UNL     1       2.349 -23.290  10.035  1.00  0.00    -0.237 OA
ATOM     78  O   UNL     1       3.361 -25.541  10.139  1.00  0.00    -0.237 OA
ATOM     79  O   UNL     1       4.617 -23.584  10.961  1.00  0.00    -0.744 OA
ENDBRANCH  75  76
ENDBRANCH  56  70
BRANCH  57  80
ATOM     80  C   UNL     1       8.719 -21.790  -3.392  1.00  0.00    -0.014 A 
ATOM     81  C   UNL     1       8.881 -22.838  -4.316  1.00  0.00     0.010 A 
ATOM     82  C   UNL     1       9.062 -20.481  -3.778  1.00  0.00     0.010 A 
ATOM     83  C   UNL     1       9.398 -22.586  -5.591  1.00  0.00     0.020 A 
ATOM     84  C   UNL     1       9.549 -20.221  -5.062  1.00  0.00     0.020 A 
ATOM     85  C   UNL     1       9.726 -21.278  -5.956  1.00  0.00     0.054 A 
BRANCH  85  86
ATOM     86  S   UNL     1      10.351 -20.968  -7.631  1.00  0.00     0.124 S 
ATOM     87  O   UNL     1      11.695 -21.532  -7.564  1.00  0.00    -0.237 OA
ATOM     88  O   UNL     1       9.397 -21.698  -8.463  1.00  0.00    -0.237 OA
ATOM     89  O   UNL     1      10.287 -19.513  -7.756  1.00  0.00    -0.744 OA
ENDBRANCH  85  86
ENDBRANCH  57  80
BRANCH  69  90
ATOM     90  C   UNL     1      11.167 -25.328   2.094  1.00  0.00    -0.014 A 
ATOM     91  C   UNL     1      12.437 -24.726   2.140  1.00  0.00     0.010 A 
ATOM     92  C   UNL     1      11.065 -26.722   2.256  1.00  0.00     0.010 A 
ATOM     93  C   UNL     1      13.586 -25.510   2.283  1.00  0.00     0.020 A 
ATOM     94  C   UNL     1      12.207 -27.505   2.435  1.00  0.00     0.020 A 
ATOM     95  C   UNL     1      13.463 -26.896   2.423  1.00  0.00     0.054 A 
BRANCH  95  96
ATOM     96  S   UNL     1      14.968 -27.892   2.606  1.00  0.00     0.124 S 
ATOM     97  O   UNL     1      15.517 -27.863   1.253  1.00  0.00    -0.237 OA
ATOM     98  O   UNL     1      15.725 -27.147   3.608  1.00  0.00    -0.237 OA
ATOM     99  O   UNL     1      14.471 -29.192   3.049  1.00  0.00    -0.744 OA
ENDBRANCH  95  96
ENDBRANCH  69  90
ENDBRANCH  43  44
ENDBRANCH  35  38
ENDBRANCH  33  34
ENDBRANCH   1  33
TORSDOF 16
