REMARK SMILES O=C(NCCCNC(=O)c1[nH]ncc1C[N@H+]1CCC[C@H](C(=O)c2ccc3ccccc3c2)C1)c1ccc(-c2c3nc(c(-c4ccc(S(=O)(=O)[O-])cc4)c4ccc([nH]4)c(-c4ccc(S(=O)(=O)[O-])cc4)c4nc(c(-c5ccc(S(=O)(=O)[O-])cc5)c5ccc2[nH]5)C=C4)C=C3)cc1
REMARK SMILES IDX 5 1 4 2 3 3 1 4 2 5 34 7 35 8 93 9 36 10 92 11 37 12 38 13
REMARK SMILES IDX 39 14 86 15 40 16 91 17 85 18 87 19 41 20 90 21 84 22 83 23
REMARK SMILES IDX 42 25 72 26 53 27 71 28 54 29 57 30 70 31 88 32 55 33 56 34
REMARK SMILES IDX 69 36 89 37 58 38 43 39 44 40 52 41 45 42 51 43 46 44 47 45
REMARK SMILES IDX 48 46 49 47 50 48 73 49 74 50 82 51 75 52 81 53 76 54 77 55
REMARK SMILES IDX 78 56 79 57 80 58 59 59 60 60 68 61 61 62 67 63 62 64 63 65
REMARK SMILES IDX 64 66 65 67 66 68 6 69 7 70 8 71 9 73 10 74 11 75 14 76
REMARK SMILES IDX 12 77 13 79 15 80 16 81 17 82 33 83 18 85 20 86 19 87 21 88
REMARK SMILES IDX 22 89 23 90 24 91 32 92 25 93 31 94 26 95 30 96 27 97 29 98
REMARK SMILES IDX 28 99
REMARK H PARENT 3 6 87 24 57 35 7 72 11 78 16 84
REMARK Flexibility Score: inf
ROOT
ATOM      1  C   UNL     1       4.907  -0.057   2.163  1.00  0.00     0.042 C 
ENDROOT
BRANCH   1   2
ATOM      2  C   UNL     1       4.570  -0.889   0.931  1.00  0.00     0.118 C 
BRANCH   2   3
ATOM      3  N   UNL     1       3.140  -0.925   0.662  1.00  0.00    -0.352 N 
ATOM      4  O   UNL     1       1.157  -0.237  -0.120  1.00  0.00    -0.269 OA
ATOM      5  C   UNL     1       2.380  -0.228  -0.242  1.00  0.00     0.251 C 
ATOM      6  H   UNL     1       2.634  -1.556   1.224  1.00  0.00     0.163 HD
BRANCH   5   7
ATOM      7  C   UNL     1       3.003   0.538  -1.347  1.00  0.00     0.039 A 
ATOM      8  C   UNL     1       4.080   0.026  -2.073  1.00  0.00     0.014 A 
ATOM      9  C   UNL     1       2.435   1.761  -1.721  1.00  0.00     0.014 A 
ATOM     10  C   UNL     1       4.663   0.784  -3.087  1.00  0.00     0.010 A 
ATOM     11  C   UNL     1       2.974   2.488  -2.786  1.00  0.00     0.010 A 
ATOM     12  C   UNL     1       4.107   2.016  -3.464  1.00  0.00    -0.014 A 
BRANCH  12  13
ATOM     13  C   UNL     1       4.680   2.763  -4.611  1.00  0.00     0.031 A 
ATOM     14  C   UNL     1       5.349   4.093  -4.413  1.00  0.00     0.074 A 
ATOM     15  C   UNL     1       4.590   2.234  -5.847  1.00  0.00     0.049 A 
ATOM     16  N   UNL     1       5.888   4.882  -5.308  1.00  0.00    -0.248 NA
ATOM     17  C   UNL     1       5.412   4.611  -3.038  1.00  0.00     0.031 C 
ATOM     18  C   UNL     1       3.944   0.960  -6.173  1.00  0.00     0.029 A 
ATOM     19  N   UNL     1       5.047   2.695  -7.054  1.00  0.00    -0.354 N 
ATOM     20  C   UNL     1       6.325   6.002  -4.613  1.00  0.00     0.074 A 
ATOM     21  C   UNL     1       5.984   5.793  -3.221  1.00  0.00     0.031 C 
ATOM     22  C   UNL     1       4.072   0.728  -7.488  1.00  0.00     0.029 A 
ATOM     23  C   UNL     1       4.769   1.853  -8.103  1.00  0.00     0.049 A 
ATOM     24  H   UNL     1       5.528   3.548  -7.160  1.00  0.00     0.167 HD
ATOM     25  C   UNL     1       6.950   7.105  -5.090  1.00  0.00     0.031 A 
ATOM     26  C   UNL     1       5.029   1.972  -9.419  1.00  0.00     0.031 A 
ATOM     27  C   UNL     1       7.308   7.307  -6.467  1.00  0.00     0.049 A 
ATOM     28  C   UNL     1       5.744   3.188  -9.922  1.00  0.00     0.074 A 
ATOM     29  C   UNL     1       7.986   8.373  -7.035  1.00  0.00     0.029 A 
ATOM     30  N   UNL     1       7.013   6.426  -7.497  1.00  0.00    -0.354 N 
ATOM     31  N   UNL     1       6.181   4.219  -9.241  1.00  0.00    -0.248 NA
ATOM     32  C   UNL     1       5.997   3.261 -11.367  1.00  0.00     0.031 C 
ATOM     33  C   UNL     1       8.080   8.146  -8.414  1.00  0.00     0.029 A 
ATOM     34  C   UNL     1       7.479   6.930  -8.699  1.00  0.00     0.049 A 
ATOM     35  H   UNL     1       6.542   5.569  -7.388  1.00  0.00     0.167 HD
ATOM     36  C   UNL     1       6.758   5.070 -10.174  1.00  0.00     0.074 A 
ATOM     37  C   UNL     1       6.630   4.425 -11.466  1.00  0.00     0.031 C 
ATOM     38  C   UNL     1       7.335   6.280  -9.976  1.00  0.00     0.031 A 
BRANCH  25  39
ATOM     39  C   UNL     1       7.259   8.192  -4.099  1.00  0.00    -0.014 A 
ATOM     40  C   UNL     1       8.349   8.081  -3.218  1.00  0.00     0.010 A 
ATOM     41  C   UNL     1       6.442   9.335  -4.046  1.00  0.00     0.010 A 
ATOM     42  C   UNL     1       8.587   9.074  -2.264  1.00  0.00     0.020 A 
ATOM     43  C   UNL     1       6.686  10.337  -3.103  1.00  0.00     0.020 A 
ATOM     44  C   UNL     1       7.743  10.188  -2.202  1.00  0.00     0.054 A 
BRANCH  44  45
ATOM     45  S   UNL     1       8.048  11.458  -0.943  1.00  0.00     0.124 S 
ATOM     46  O   UNL     1       7.376  10.889   0.223  1.00  0.00    -0.237 OA
ATOM     47  O   UNL     1       9.507  11.502  -0.866  1.00  0.00    -0.237 OA
ATOM     48  O   UNL     1       7.423  12.653  -1.504  1.00  0.00    -0.744 OA
ENDBRANCH  44  45
ENDBRANCH  25  39
BRANCH  26  49
ATOM     49  C   UNL     1       4.587   0.890 -10.334  1.00  0.00    -0.014 A 
ATOM     50  C   UNL     1       5.497  -0.087 -10.770  1.00  0.00     0.010 A 
ATOM     51  C   UNL     1       3.227   0.770 -10.675  1.00  0.00     0.010 A 
ATOM     52  C   UNL     1       5.049  -1.183 -11.513  1.00  0.00     0.020 A 
ATOM     53  C   UNL     1       2.775  -0.332 -11.404  1.00  0.00     0.020 A 
ATOM     54  C   UNL     1       3.689  -1.304 -11.816  1.00  0.00     0.054 A 
BRANCH  54  55
ATOM     55  S   UNL     1       3.099  -2.801 -12.657  1.00  0.00     0.124 S 
ATOM     56  O   UNL     1       3.317  -2.466 -14.060  1.00  0.00    -0.237 OA
ATOM     57  O   UNL     1       3.966  -3.842 -12.112  1.00  0.00    -0.237 OA
ATOM     58  O   UNL     1       1.701  -2.889 -12.241  1.00  0.00    -0.744 OA
ENDBRANCH  54  55
ENDBRANCH  26  49
BRANCH  38  59
ATOM     59  C   UNL     1       7.869   6.990 -11.185  1.00  0.00    -0.014 A 
ATOM     60  C   UNL     1       7.007   7.725 -12.018  1.00  0.00     0.010 A 
ATOM     61  C   UNL     1       9.248   6.978 -11.455  1.00  0.00     0.010 A 
ATOM     62  C   UNL     1       7.516   8.428 -13.112  1.00  0.00     0.020 A 
ATOM     63  C   UNL     1       9.761   7.689 -12.542  1.00  0.00     0.020 A 
ATOM     64  C   UNL     1       8.890   8.404 -13.369  1.00  0.00     0.054 A 
BRANCH  64  65
ATOM     65  S   UNL     1       9.546   9.372 -14.757  1.00  0.00     0.124 S 
ATOM     66  O   UNL     1       9.309   8.479 -15.887  1.00  0.00    -0.237 OA
ATOM     67  O   UNL     1       8.727  10.581 -14.729  1.00  0.00    -0.237 OA
ATOM     68  O   UNL     1      10.950   9.571 -14.401  1.00  0.00    -0.744 OA
ENDBRANCH  64  65
ENDBRANCH  38  59
ENDBRANCH  12  13
ENDBRANCH   5   7
ENDBRANCH   2   3
ENDBRANCH   1   2
BRANCH   1  69
ATOM     69  C   UNL     1       4.334  -0.614   3.461  1.00  0.00     0.118 C 
BRANCH  69  70
ATOM     70  N   UNL     1       4.877  -1.925   3.787  1.00  0.00    -0.351 N 
ATOM     71  C   UNL     1       5.840  -2.270   4.699  1.00  0.00     0.269 C 
ATOM     72  H   UNL     1       4.496  -2.675   3.275  1.00  0.00     0.163 HD
ATOM     73  O   UNL     1       6.373  -3.372   4.596  1.00  0.00    -0.268 OA
BRANCH  71  74
ATOM     74  C   UNL     1       6.220  -1.330   5.713  1.00  0.00     0.131 A 
ATOM     75  N   UNL     1       7.532  -1.103   6.024  1.00  0.00    -0.272 N 
ATOM     76  C   UNL     1       5.483  -0.572   6.618  1.00  0.00     0.057 A 
ATOM     77  N   UNL     1       7.712  -0.157   6.959  1.00  0.00    -0.183 NA
ATOM     78  H   UNL     1       8.277  -1.589   5.602  1.00  0.00     0.190 HD
ATOM     79  C   UNL     1       6.468   0.171   7.312  1.00  0.00     0.145 A 
BRANCH  76  80
ATOM     80  C   UNL     1       3.998  -0.543   6.795  1.00  0.00     0.303 C 
BRANCH  80  81
ATOM     81  N   UNL     1       3.517  -1.016   8.096  1.00  0.00    -0.330 N 
ATOM     82  C   UNL     1       4.130  -2.265   8.549  1.00  0.00     0.262 C 
ATOM     83  C   UNL     1       3.504   0.011   9.134  1.00  0.00     0.274 C 
ATOM     84  H   UNL     1       2.539  -1.246   7.921  1.00  0.00     0.348 HD
ATOM     85  C   UNL     1       3.327  -2.854   9.703  1.00  0.00     0.062 C 
ATOM     86  C   UNL     1       2.729  -0.444  10.375  1.00  0.00     0.116 C 
ATOM     87  C   UNL     1       3.107  -1.855  10.838  1.00  0.00     0.023 C 
BRANCH  86  88
ATOM     88  C   UNL     1       1.232  -0.152  10.250  1.00  0.00     0.171 C 
ATOM     89  O   UNL     1       0.702   0.759  10.887  1.00  0.00    -0.294 OA
BRANCH  88  90
ATOM     90  C   UNL     1       0.381  -0.897   9.299  1.00  0.00     0.019 A 
ATOM     91  C   UNL     1      -0.041  -2.192   9.591  1.00  0.00     0.012 A 
ATOM     92  C   UNL     1      -0.098  -0.237   8.162  1.00  0.00     0.020 A 
ATOM     93  C   UNL     1      -0.885  -2.862   8.704  1.00  0.00     0.009 A 
ATOM     94  C   UNL     1      -0.967  -0.893   7.273  1.00  0.00    -0.018 A 
ATOM     95  C   UNL     1      -1.354  -2.228   7.541  1.00  0.00    -0.018 A 
ATOM     96  C   UNL     1      -1.469  -0.253   6.128  1.00  0.00     0.009 A 
ATOM     97  C   UNL     1      -2.213  -2.889   6.649  1.00  0.00     0.009 A 
ATOM     98  C   UNL     1      -2.329  -0.922   5.255  1.00  0.00     0.001 A 
ATOM     99  C   UNL     1      -2.697  -2.239   5.513  1.00  0.00     0.001 A 
ENDBRANCH  88  90
ENDBRANCH  86  88
ENDBRANCH  80  81
ENDBRANCH  76  80
ENDBRANCH  71  74
ENDBRANCH  69  70
ENDBRANCH   1  69
TORSDOF 17
