REMARK SMILES COc1ccc(Br)c([C@H]2[NH2+][C@H](C(=O)NCCCNC(=O)c3ccc(-c4c5nc(c(-c6ccc(S(=O)(=O)[O-])cc6)c6ccc([nH]6)c(-c6ccc(S(=O)(=O)[O-])cc6)c6nc(c(-c7ccc(S(=O)(=O)[O-])cc7)c7ccc4[nH]7)C=C6)C=C5)cc3)CS2)c1O
REMARK SMILES IDX 16 1 15 2 14 3 12 4 13 5 11 7 9 8 10 9 82 10 81 13 8 14 3 15
REMARK SMILES IDX 4 16 83 17 5 18 6 19 7 20 2 21 1 22 84 23 17 25 18 26 19 27
REMARK SMILES IDX 20 29 21 30 22 31 80 32 23 33 79 34 24 35 25 36 26 37 73 38
REMARK SMILES IDX 27 39 78 40 72 41 74 42 28 43 77 44 71 45 70 46 29 48 59 49
REMARK SMILES IDX 40 50 58 51 41 52 44 53 57 54 75 55 42 56 43 57 56 59 76 60
REMARK SMILES IDX 45 61 30 62 31 63 39 64 32 65 38 66 33 67 34 68 35 69 36 70
REMARK SMILES IDX 37 71 60 72 61 73 69 74 62 75 68 76 63 77 64 78 65 79 66 80
REMARK SMILES IDX 67 81 46 82 47 83 55 84 48 85 54 86 49 87 50 88 51 89 52 90
REMARK SMILES IDX 53 91
REMARK H PARENT 14 6 10 11 10 12 84 24 18 28 74 47 44 58
REMARK Flexibility Score: inf
ROOT
ATOM      1  C   UNL     1       1.178   1.335   3.350  1.00  0.00     0.042 C 
ENDROOT
BRANCH   1   2
ATOM      2  C   UNL     1       1.958   0.833   2.139  1.00  0.00     0.118 C 
BRANCH   2   3
ATOM      3  N   UNL     1       2.951   1.785   1.683  1.00  0.00    -0.351 N 
ATOM      4  C   UNL     1       4.300   1.851   1.839  1.00  0.00     0.279 C 
ATOM      5  O   UNL     1       4.862   2.816   1.303  1.00  0.00    -0.268 OA
ATOM      6  H   UNL     1       2.576   2.529   1.157  1.00  0.00     0.163 HD
BRANCH   4   7
ATOM      7  C   UNL     1       5.142   0.807   2.595  1.00  0.00     0.283 C 
ATOM      8  C   UNL     1       4.252  -0.262   4.590  1.00  0.00     0.279 C 
ATOM      9  N   UNL     1       4.979   0.900   4.065  1.00  0.00    -0.320 N 
ATOM     10  S   UNL     1       4.844  -1.630   3.542  1.00  0.00    -0.087 SA
ATOM     11  H   UNL     1       5.900   0.942   4.501  1.00  0.00     0.348 HD
ATOM     12  H   UNL     1       4.443   1.741   4.279  1.00  0.00     0.348 HD
ATOM     13  C   UNL     1       5.038  -0.613   2.070  1.00  0.00     0.151 C 
BRANCH   8  14
ATOM     14  C   UNL     1       4.331  -0.390   6.117  1.00  0.00     0.080 A 
ATOM     15  C   UNL     1       4.517  -1.726   8.188  1.00  0.00     0.161 A 
ATOM     16  C   UNL     1       4.339  -0.615   8.990  1.00  0.00     0.051 A 
ATOM     17  C   UNL     1       4.452  -1.627   6.786  1.00  0.00     0.169 A 
ATOM     18  C   UNL     1       4.132   0.613   8.380  1.00  0.00     0.020 A 
ATOM     19  C   UNL     1       4.123   0.730   6.974  1.00  0.00     0.032 A 
ATOM     20  Br  UNL     1       3.708   2.496   6.371  1.00  0.00    -0.050 Br
BRANCH  15  21
ATOM     21  O   UNL     1       4.668  -2.949   8.793  1.00  0.00    -0.493 OA
ATOM     22  C   UNL     1       6.032  -3.377   8.723  1.00  0.00     0.278 C 
ENDBRANCH  15  21
BRANCH  17  23
ATOM     23  O   UNL     1       4.426  -2.814   6.104  1.00  0.00    -0.504 OA
ATOM     24  H   UNL     1       4.508  -3.624   6.569  1.00  0.00     0.293 HD
ENDBRANCH  17  23
ENDBRANCH   8  14
ENDBRANCH   4   7
ENDBRANCH   2   3
ENDBRANCH   1   2
BRANCH   1  25
ATOM     25  C   UNL     1       0.161   2.428   3.039  1.00  0.00     0.118 C 
BRANCH  25  26
ATOM     26  N   UNL     1      -0.937   1.939   2.219  1.00  0.00    -0.352 N 
ATOM     27  C   UNL     1      -2.290   1.956   2.433  1.00  0.00     0.251 C 
ATOM     28  H   UNL     1      -0.661   1.526   1.369  1.00  0.00     0.163 HD
ATOM     29  O   UNL     1      -3.008   1.293   1.681  1.00  0.00    -0.269 OA
BRANCH  27  30
ATOM     30  C   UNL     1      -2.904   2.737   3.534  1.00  0.00     0.039 A 
ATOM     31  C   UNL     1      -4.049   2.220   4.149  1.00  0.00     0.014 A 
ATOM     32  C   UNL     1      -2.427   3.995   3.915  1.00  0.00     0.014 A 
ATOM     33  C   UNL     1      -4.691   2.942   5.159  1.00  0.00     0.010 A 
ATOM     34  C   UNL     1      -3.028   4.685   4.972  1.00  0.00     0.010 A 
ATOM     35  C   UNL     1      -4.175   4.173   5.594  1.00  0.00    -0.014 A 
BRANCH  35  36
ATOM     36  C   UNL     1      -4.848   4.928   6.684  1.00  0.00     0.031 A 
ATOM     37  C   UNL     1      -5.509   6.253   6.405  1.00  0.00     0.074 A 
ATOM     38  C   UNL     1      -4.863   4.417   7.931  1.00  0.00     0.049 A 
ATOM     39  N   UNL     1      -6.168   7.033   7.225  1.00  0.00    -0.248 NA
ATOM     40  C   UNL     1      -5.404   6.779   5.035  1.00  0.00     0.031 C 
ATOM     41  C   UNL     1      -4.219   3.166   8.342  1.00  0.00     0.029 A 
ATOM     42  N   UNL     1      -5.448   4.881   9.083  1.00  0.00    -0.354 N 
ATOM     43  C   UNL     1      -6.557   8.136   6.473  1.00  0.00     0.074 A 
ATOM     44  C   UNL     1      -6.013   7.952   5.145  1.00  0.00     0.031 C 
ATOM     45  C   UNL     1      -4.471   2.948   9.644  1.00  0.00     0.029 A 
ATOM     46  C   UNL     1      -5.271   4.051  10.165  1.00  0.00     0.049 A 
ATOM     47  H   UNL     1      -5.947   5.728   9.129  1.00  0.00     0.167 HD
ATOM     48  C   UNL     1      -7.319   9.193   6.843  1.00  0.00     0.031 A 
ATOM     49  C   UNL     1      -5.709   4.162  11.434  1.00  0.00     0.031 A 
ATOM     50  C   UNL     1      -7.865   9.376   8.162  1.00  0.00     0.049 A 
ATOM     51  C   UNL     1      -6.566   5.338  11.814  1.00  0.00     0.074 A 
ATOM     52  C   UNL     1      -8.666  10.405   8.629  1.00  0.00     0.029 A 
ATOM     53  N   UNL     1      -7.678   8.504   9.223  1.00  0.00    -0.354 N 
ATOM     54  N   UNL     1      -6.958   6.346  11.072  1.00  0.00    -0.248 NA
ATOM     55  C   UNL     1      -7.055   5.380  13.199  1.00  0.00     0.031 C 
ATOM     56  C   UNL     1      -8.938  10.169   9.982  1.00  0.00     0.029 A 
ATOM     57  C   UNL     1      -8.344   8.971  10.344  1.00  0.00     0.049 A 
ATOM     58  H   UNL     1      -7.149   7.674   9.186  1.00  0.00     0.167 HD
ATOM     59  C   UNL     1      -7.757   7.131  11.896  1.00  0.00     0.074 A 
ATOM     60  C   UNL     1      -7.812   6.467  13.182  1.00  0.00     0.031 C 
ATOM     61  C   UNL     1      -8.385   8.300  11.616  1.00  0.00     0.031 A 
BRANCH  48  62
ATOM     62  C   UNL     1      -7.625  10.231   5.796  1.00  0.00    -0.014 A 
ATOM     63  C   UNL     1      -8.528   9.950   4.753  1.00  0.00     0.010 A 
ATOM     64  C   UNL     1      -7.057  11.514   5.882  1.00  0.00     0.010 A 
ATOM     65  C   UNL     1      -8.834  10.924   3.800  1.00  0.00     0.020 A 
ATOM     66  C   UNL     1      -7.379  12.500   4.943  1.00  0.00     0.020 A 
ATOM     67  C   UNL     1      -8.257  12.194   3.900  1.00  0.00     0.054 A 
BRANCH  67  68
ATOM     68  S   UNL     1      -8.705  13.451   2.671  1.00  0.00     0.124 S 
ATOM     69  O   UNL     1      -7.972  12.996   1.493  1.00  0.00    -0.237 OA
ATOM     70  O   UNL     1     -10.158  13.322   2.594  1.00  0.00    -0.237 OA
ATOM     71  O   UNL     1      -8.225  14.698   3.261  1.00  0.00    -0.744 OA
ENDBRANCH  67  68
ENDBRANCH  48  62
BRANCH  49  72
ATOM     72  C   UNL     1      -5.360   3.122  12.439  1.00  0.00    -0.014 A 
ATOM     73  C   UNL     1      -6.340   2.242  12.932  1.00  0.00     0.010 A 
ATOM     74  C   UNL     1      -4.044   3.021  12.924  1.00  0.00     0.010 A 
ATOM     75  C   UNL     1      -6.019   1.305  13.918  1.00  0.00     0.020 A 
ATOM     76  C   UNL     1      -3.713   2.068  13.890  1.00  0.00     0.020 A 
ATOM     77  C   UNL     1      -4.707   1.228  14.396  1.00  0.00     0.054 A 
BRANCH  77  78
ATOM     78  S   UNL     1      -4.300  -0.007  15.661  1.00  0.00     0.124 S 
ATOM     79  O   UNL     1      -4.802   0.627  16.875  1.00  0.00    -0.237 OA
ATOM     80  O   UNL     1      -5.038  -1.184  15.209  1.00  0.00    -0.237 OA
ATOM     81  O   UNL     1      -2.846  -0.121  15.567  1.00  0.00    -0.744 OA
ENDBRANCH  77  78
ENDBRANCH  49  72
BRANCH  61  82
ATOM     82  C   UNL     1      -9.204   8.915  12.718  1.00  0.00    -0.014 A 
ATOM     83  C   UNL     1      -8.589   9.520  13.829  1.00  0.00     0.010 A 
ATOM     84  C   UNL     1     -10.608   8.896  12.635  1.00  0.00     0.010 A 
ATOM     85  C   UNL     1      -9.365  10.050  14.862  1.00  0.00     0.020 A 
ATOM     86  C   UNL     1     -11.387   9.448  13.654  1.00  0.00     0.020 A 
ATOM     87  C   UNL     1     -10.760  10.002  14.772  1.00  0.00     0.054 A 
BRANCH  87  88
ATOM     88  S   UNL     1     -11.749  10.703  16.122  1.00  0.00     0.124 S 
ATOM     89  O   UNL     1     -11.664   9.655  17.135  1.00  0.00    -0.237 OA
ATOM     90  O   UNL     1     -11.039  11.940  16.436  1.00  0.00    -0.237 OA
ATOM     91  O   UNL     1     -13.069  10.885  15.522  1.00  0.00    -0.744 OA
ENDBRANCH  87  88
ENDBRANCH  61  82
ENDBRANCH  35  36
ENDBRANCH  27  30
ENDBRANCH  25  26
ENDBRANCH   1  25
TORSDOF 16
