REMARK SMILES Cc1cc(CS(=O)(=O)N[C@@H]2C=C[C@H](C(=O)NCCCNC(=O)c3ccc(-c4c5nc(c(-c6ccc(S(=O)(=O)[O-])cc6)c6ccc([nH]6)c(-c6ccc(S(=O)(=O)[O-])cc6)c6nc(c(-c7ccc(S(=O)(=O)[O-])cc7)c7ccc4[nH]7)C=C6)C=C5)cc3)C2)no1
REMARK SMILES IDX 17 1 16 2 14 3 15 4 13 6 10 7 11 8 83 9 12 10 9 11 6 13 7 14
REMARK SMILES IDX 8 15 5 16 4 17 1 18 2 19 3 20 85 21 84 22 18 23 19 24 20 25
REMARK SMILES IDX 21 26 22 28 23 29 24 30 82 31 25 32 81 33 26 34 27 35 28 36
REMARK SMILES IDX 75 37 29 38 80 39 74 40 76 41 30 42 79 43 73 44 72 45 31 47
REMARK SMILES IDX 61 48 42 49 60 50 43 51 46 52 59 53 77 54 44 55 45 56 58 58
REMARK SMILES IDX 78 59 47 60 32 61 33 62 41 63 34 64 40 65 35 66 36 67 37 68
REMARK SMILES IDX 38 69 39 70 62 71 63 72 71 73 64 74 70 75 65 76 66 77 67 78
REMARK SMILES IDX 68 79 69 80 48 81 49 82 57 83 50 84 56 85 51 86 52 87 53 88
REMARK SMILES IDX 54 89 55 90
REMARK H PARENT 16 5 9 12 20 27 76 46 46 57
REMARK Flexibility Score: inf
ROOT
ATOM      1  C   UNL     1       1.465   2.234   2.957  1.00  0.00     0.117 C 
ENDROOT
BRANCH   1   2
ATOM      2  N   UNL     1       2.097   1.085   3.587  1.00  0.00    -0.356 N 
ATOM      3  C   UNL     1       1.663   0.131   4.448  1.00  0.00     0.226 C 
ATOM      4  O   UNL     1       2.517  -0.668   4.851  1.00  0.00    -0.274 OA
ATOM      5  H   UNL     1       3.042   0.976   3.333  1.00  0.00     0.163 HD
BRANCH   3   6
ATOM      6  C   UNL     1       0.204  -0.069   4.873  1.00  0.00     0.103 C 
ATOM      7  C   UNL     1      -1.542  -0.763   3.258  1.00  0.00     0.093 C 
ATOM      8  C   UNL     1      -1.646   0.667   3.665  1.00  0.00    -0.011 C 
ATOM      9  C   UNL     1      -0.389  -1.282   4.122  1.00  0.00     0.042 C 
ATOM     10  C   UNL     1      -0.763   1.023   4.598  1.00  0.00    -0.016 C 
BRANCH   7  11
ATOM     11  N   UNL     1      -1.256  -0.790   1.823  1.00  0.00    -0.208 NA
ATOM     12  H   UNL     1      -1.293   0.173   1.490  1.00  0.00     0.141 HD
BRANCH  11  13
ATOM     13  S   UNL     1      -2.262  -1.701   0.825  1.00  0.00     0.218 S 
ATOM     14  O   UNL     1      -2.538  -2.950   1.493  1.00  0.00    -0.212 OA
ATOM     15  O   UNL     1      -1.576  -1.713  -0.456  1.00  0.00    -0.212 OA
BRANCH  13  16
ATOM     16  C   UNL     1      -3.768  -0.714   0.606  1.00  0.00     0.213 C 
BRANCH  16  17
ATOM     17  C   UNL     1      -4.470  -0.366   1.864  1.00  0.00     0.100 A 
ATOM     18  C   UNL     1      -5.243   1.496   4.913  1.00  0.00     0.091 C 
ATOM     19  C   UNL     1      -5.101   0.671   3.699  1.00  0.00     0.133 A 
ATOM     20  C   UNL     1      -4.691   0.923   2.412  1.00  0.00     0.073 A 
ATOM     21  O   UNL     1      -5.314  -0.663   3.844  1.00  0.00    -0.361 OA
ATOM     22  N   UNL     1      -4.962  -1.313   2.674  1.00  0.00    -0.084 NA
ENDBRANCH  16  17
ENDBRANCH  13  16
ENDBRANCH  11  13
ENDBRANCH   7  11
ENDBRANCH   3   6
ENDBRANCH   1   2
BRANCH   1  23
ATOM     23  C   UNL     1       1.774   3.528   3.705  1.00  0.00     0.042 C 
BRANCH  23  24
ATOM     24  C   UNL     1       3.217   3.986   3.514  1.00  0.00     0.118 C 
BRANCH  24  25
ATOM     25  N   UNL     1       3.508   4.292   2.117  1.00  0.00    -0.352 N 
ATOM     26  C   UNL     1       3.915   5.464   1.534  1.00  0.00     0.251 C 
ATOM     27  H   UNL     1       3.395   3.537   1.496  1.00  0.00     0.163 HD
ATOM     28  O   UNL     1       3.852   5.581   0.314  1.00  0.00    -0.269 OA
BRANCH  26  29
ATOM     29  C   UNL     1       4.423   6.573   2.365  1.00  0.00     0.039 A 
ATOM     30  C   UNL     1       4.114   7.888   2.006  1.00  0.00     0.014 A 
ATOM     31  C   UNL     1       5.239   6.321   3.471  1.00  0.00     0.014 A 
ATOM     32  C   UNL     1       4.591   8.945   2.783  1.00  0.00     0.010 A 
ATOM     33  C   UNL     1       5.631   7.367   4.296  1.00  0.00     0.010 A 
ATOM     34  C   UNL     1       5.332   8.691   3.948  1.00  0.00    -0.014 A 
BRANCH  34  35
ATOM     35  C   UNL     1       5.839   9.797   4.798  1.00  0.00     0.031 A 
ATOM     36  C   UNL     1       7.322   9.980   4.984  1.00  0.00     0.074 A 
ATOM     37  C   UNL     1       4.968  10.593   5.447  1.00  0.00     0.049 A 
ATOM     38  N   UNL     1       7.959  10.847   5.729  1.00  0.00    -0.248 NA
ATOM     39  C   UNL     1       8.205   9.046   4.264  1.00  0.00     0.031 C 
ATOM     40  C   UNL     1       3.509  10.486   5.378  1.00  0.00     0.029 A 
ATOM     41  N   UNL     1       5.184  11.647   6.297  1.00  0.00    -0.354 N 
ATOM     42  C   UNL     1       9.309  10.549   5.583  1.00  0.00     0.074 A 
ATOM     43  C   UNL     1       9.396   9.385   4.732  1.00  0.00     0.031 C 
ATOM     44  C   UNL     1       2.962  11.457   6.128  1.00  0.00     0.029 A 
ATOM     45  C   UNL     1       4.028  12.223   6.766  1.00  0.00     0.049 A 
ATOM     46  H   UNL     1       6.083  11.961   6.548  1.00  0.00     0.167 HD
ATOM     47  C   UNL     1      10.382  11.200   6.094  1.00  0.00     0.031 A 
ATOM     48  C   UNL     1       3.845  13.251   7.617  1.00  0.00     0.031 A 
ATOM     49  C   UNL     1      10.286  12.362   6.937  1.00  0.00     0.049 A 
ATOM     50  C   UNL     1       5.049  13.956   8.178  1.00  0.00     0.074 A 
ATOM     51  C   UNL     1      11.309  13.129   7.465  1.00  0.00     0.029 A 
ATOM     52  N   UNL     1       9.096  12.923   7.377  1.00  0.00    -0.354 N 
ATOM     53  N   UNL     1       6.321  13.700   7.980  1.00  0.00    -0.248 NA
ATOM     54  C   UNL     1       4.793  15.101   9.060  1.00  0.00     0.031 C 
ATOM     55  C   UNL     1      10.738  14.117   8.275  1.00  0.00     0.029 A 
ATOM     56  C   UNL     1       9.358  14.012   8.191  1.00  0.00     0.049 A 
ATOM     57  H   UNL     1       8.197  12.595   7.146  1.00  0.00     0.167 HD
ATOM     58  C   UNL     1       7.018  14.675   8.686  1.00  0.00     0.074 A 
ATOM     59  C   UNL     1       6.024  15.529   9.305  1.00  0.00     0.031 C 
ATOM     60  C   UNL     1       8.358  14.851   8.803  1.00  0.00     0.031 A 
BRANCH  47  61
ATOM     61  C   UNL     1      11.748  10.651   5.765  1.00  0.00    -0.014 A 
ATOM     62  C   UNL     1      12.251  10.680   4.450  1.00  0.00     0.010 A 
ATOM     63  C   UNL     1      12.547  10.109   6.787  1.00  0.00     0.010 A 
ATOM     64  C   UNL     1      13.498  10.123   4.155  1.00  0.00     0.020 A 
ATOM     65  C   UNL     1      13.812   9.584   6.503  1.00  0.00     0.020 A 
ATOM     66  C   UNL     1      14.269   9.574   5.184  1.00  0.00     0.054 A 
BRANCH  66  67
ATOM     67  S   UNL     1      15.885   8.861   4.772  1.00  0.00     0.124 S 
ATOM     68  O   UNL     1      15.503   7.640   4.066  1.00  0.00    -0.237 OA
ATOM     69  O   UNL     1      16.492   9.900   3.945  1.00  0.00    -0.237 OA
ATOM     70  O   UNL     1      16.516   8.655   6.074  1.00  0.00    -0.744 OA
ENDBRANCH  66  67
ENDBRANCH  47  61
BRANCH  48  71
ATOM     71  C   UNL     1       2.463  13.684   7.964  1.00  0.00    -0.014 A 
ATOM     72  C   UNL     1       1.954  14.904   7.487  1.00  0.00     0.010 A 
ATOM     73  C   UNL     1       1.635  12.857   8.746  1.00  0.00     0.010 A 
ATOM     74  C   UNL     1       0.647  15.295   7.792  1.00  0.00     0.020 A 
ATOM     75  C   UNL     1       0.318  13.230   9.028  1.00  0.00     0.020 A 
ATOM     76  C   UNL     1      -0.165  14.452   8.555  1.00  0.00     0.054 A 
BRANCH  76  77
ATOM     77  S   UNL     1      -1.881  14.947   8.877  1.00  0.00     0.124 S 
ATOM     78  O   UNL     1      -1.708  16.046   9.822  1.00  0.00    -0.237 OA
ATOM     79  O   UNL     1      -2.353  15.323   7.547  1.00  0.00    -0.237 OA
ATOM     80  O   UNL     1      -2.489  13.738   9.426  1.00  0.00    -0.744 OA
ENDBRANCH  76  77
ENDBRANCH  48  71
BRANCH  60  81
ATOM     81  C   UNL     1       8.833  16.043   9.593  1.00  0.00    -0.014 A 
ATOM     82  C   UNL     1       8.684  16.111  10.989  1.00  0.00     0.010 A 
ATOM     83  C   UNL     1       9.485  17.095   8.922  1.00  0.00     0.010 A 
ATOM     84  C   UNL     1       9.141  17.229  11.694  1.00  0.00     0.020 A 
ATOM     85  C   UNL     1       9.974  18.197   9.626  1.00  0.00     0.020 A 
ATOM     86  C   UNL     1       9.783  18.265  11.007  1.00  0.00     0.054 A 
BRANCH  86  87
ATOM     87  S   UNL     1      10.393  19.689  11.948  1.00  0.00     0.124 S 
ATOM     88  O   UNL     1       9.153  20.375  12.300  1.00  0.00    -0.237 OA
ATOM     89  O   UNL     1      11.101  19.059  13.059  1.00  0.00    -0.237 OA
ATOM     90  O   UNL     1      11.245  20.396  10.994  1.00  0.00    -0.744 OA
ENDBRANCH  86  87
ENDBRANCH  60  81
ENDBRANCH  34  35
ENDBRANCH  26  29
ENDBRANCH  24  25
ENDBRANCH  23  24
ENDBRANCH   1  23
TORSDOF 17
