REMARK SMILES C[C@@H]1C(=O)NC(=O)CN1C(=O)NC1(CC(=O)NCCCNC(=O)c2ccc(-c3c4nc(c(-c5ccc(S(=O)(=O)[O-])cc5)c5ccc([nH]5)c(-c5ccc(S(=O)(=O)[O-])cc5)c5nc(c(-c6ccc(S(=O)(=O)[O-])cc6)c6ccc3[nH]6)C=C5)C=C4)cc2)CCC1
REMARK SMILES IDX 19 1 18 2 17 3 15 4 16 5 14 7 13 8 84 9 86 10 85 11 12 12
REMARK SMILES IDX 10 13 11 14 9 16 1 17 2 18 3 19 4 20 5 21 8 22 6 23 7 25
REMARK SMILES IDX 20 26 21 27 22 28 23 30 24 31 25 32 83 33 26 34 82 35 27 36
REMARK SMILES IDX 28 37 29 38 76 39 30 40 81 41 75 42 77 43 31 44 80 45 74 46
REMARK SMILES IDX 73 47 32 49 62 50 43 51 61 52 44 53 47 54 60 55 78 56 45 57
REMARK SMILES IDX 46 58 59 60 79 61 48 62 33 63 34 64 42 65 35 66 41 67 36 68
REMARK SMILES IDX 37 69 38 70 39 71 40 72 63 73 64 74 72 75 65 76 71 77 66 78
REMARK SMILES IDX 67 79 68 80 69 81 70 82 49 83 50 84 58 85 51 86 57 87 52 88
REMARK SMILES IDX 53 89 54 90 55 91 56 92
REMARK H PARENT 17 6 12 15 5 24 21 29 77 48 47 59
REMARK Flexibility Score: inf
ROOT
ATOM      1  C   UNL     1       1.024  -4.941   3.729  1.00  0.00     0.042 C 
ENDROOT
BRANCH   1   2
ATOM      2  C   UNL     1       2.064  -4.251   2.843  1.00  0.00     0.117 C 
BRANCH   2   3
ATOM      3  N   UNL     1       1.408  -3.425   1.852  1.00  0.00    -0.356 N 
ATOM      4  C   UNL     1       0.577  -2.413   2.240  1.00  0.00     0.222 C 
ATOM      5  O   UNL     1      -0.600  -2.468   1.901  1.00  0.00    -0.275 OA
ATOM      6  H   UNL     1       1.561  -3.593   0.894  1.00  0.00     0.163 HD
BRANCH   4   7
ATOM      7  C   UNL     1       1.214  -1.280   3.000  1.00  0.00     0.128 C 
BRANCH   7   8
ATOM      8  C   UNL     1       0.253  -0.317   3.681  1.00  0.00     0.051 C 
ATOM      9  C   UNL     1       0.932   0.777   4.593  1.00  0.00     0.029 C 
ATOM     10  C   UNL     1      -0.222  -0.949   5.047  1.00  0.00     0.029 C 
ATOM     11  C   UNL     1       0.991  -0.265   5.724  1.00  0.00     0.005 C 
BRANCH   8  12
ATOM     12  N   UNL     1      -0.861   0.314   2.921  1.00  0.00    -0.332 N 
ATOM     13  C   UNL     1      -1.499   0.362   1.739  1.00  0.00     0.318 C 
ATOM     14  O   UNL     1      -2.618   0.891   1.819  1.00  0.00    -0.249 OA
ATOM     15  H   UNL     1      -1.309   0.950   3.525  1.00  0.00     0.165 HD
BRANCH  13  16
ATOM     16  N   UNL     1      -1.061  -0.092   0.539  1.00  0.00    -0.304 N 
ATOM     17  C   UNL     1       0.697   0.986  -0.859  1.00  0.00     0.042 C 
ATOM     18  C   UNL     1       0.305  -0.194   0.027  1.00  0.00     0.174 C 
ATOM     19  C   UNL     1       0.540  -1.505  -0.756  1.00  0.00     0.249 C 
ATOM     20  O   UNL     1       1.664  -1.884  -1.089  1.00  0.00    -0.272 OA
ATOM     21  N   UNL     1      -0.568  -2.184  -1.197  1.00  0.00    -0.293 N 
ATOM     22  C   UNL     1      -2.104  -0.417  -0.439  1.00  0.00     0.222 C 
ATOM     23  C   UNL     1      -1.871  -1.765  -1.107  1.00  0.00     0.246 C 
ATOM     24  H   UNL     1      -0.412  -3.058  -1.622  1.00  0.00     0.173 HD
ATOM     25  O   UNL     1      -2.754  -2.368  -1.717  1.00  0.00    -0.273 OA
ENDBRANCH  13  16
ENDBRANCH   8  12
ENDBRANCH   7   8
ENDBRANCH   4   7
ENDBRANCH   2   3
ENDBRANCH   1   2
BRANCH   1  26
ATOM     26  C   UNL     1      -0.060  -5.658   2.924  1.00  0.00     0.118 C 
BRANCH  26  27
ATOM     27  N   UNL     1       0.522  -6.661   2.045  1.00  0.00    -0.352 N 
ATOM     28  C   UNL     1       0.671  -8.002   2.288  1.00  0.00     0.251 C 
ATOM     29  H   UNL     1       0.847  -6.339   1.174  1.00  0.00     0.163 HD
ATOM     30  O   UNL     1       1.508  -8.653   1.677  1.00  0.00    -0.269 OA
BRANCH  28  31
ATOM     31  C   UNL     1      -0.198  -8.632   3.298  1.00  0.00     0.039 A 
ATOM     32  C   UNL     1       0.350  -9.526   4.216  1.00  0.00     0.014 A 
ATOM     33  C   UNL     1      -1.564  -8.331   3.321  1.00  0.00     0.014 A 
ATOM     34  C   UNL     1      -0.479 -10.109   5.173  1.00  0.00     0.010 A 
ATOM     35  C   UNL     1      -2.363  -8.832   4.336  1.00  0.00     0.010 A 
ATOM     36  C   UNL     1      -1.838  -9.759   5.245  1.00  0.00    -0.014 A 
BRANCH  36  37
ATOM     37  C   UNL     1      -2.748 -10.414   6.214  1.00  0.00     0.031 A 
ATOM     38  C   UNL     1      -3.893 -11.252   5.703  1.00  0.00     0.074 A 
ATOM     39  C   UNL     1      -2.570 -10.225   7.535  1.00  0.00     0.049 A 
ATOM     40  N   UNL     1      -4.817 -11.883   6.379  1.00  0.00    -0.248 NA
ATOM     41  C   UNL     1      -4.038 -11.372   4.240  1.00  0.00     0.031 C 
ATOM     42  C   UNL     1      -1.529  -9.391   8.142  1.00  0.00     0.029 A 
ATOM     43  N   UNL     1      -3.262 -10.724   8.609  1.00  0.00    -0.354 N 
ATOM     44  C   UNL     1      -5.661 -12.447   5.428  1.00  0.00     0.074 A 
ATOM     45  C   UNL     1      -5.176 -12.039   4.130  1.00  0.00     0.031 C 
ATOM     46  C   UNL     1      -1.633  -9.463   9.480  1.00  0.00     0.029 A 
ATOM     47  C   UNL     1      -2.765 -10.317   9.824  1.00  0.00     0.049 A 
ATOM     48  H   UNL     1      -4.042 -11.318   8.518  1.00  0.00     0.167 HD
ATOM     49  C   UNL     1      -6.728 -13.256   5.617  1.00  0.00     0.031 A 
ATOM     50  C   UNL     1      -3.176 -10.604  11.074  1.00  0.00     0.031 A 
ATOM     51  C   UNL     1      -7.181 -13.688   6.911  1.00  0.00     0.049 A 
ATOM     52  C   UNL     1      -4.346 -11.534  11.256  1.00  0.00     0.074 A 
ATOM     53  C   UNL     1      -8.208 -14.563   7.214  1.00  0.00     0.029 A 
ATOM     54  N   UNL     1      -6.626 -13.284   8.115  1.00  0.00    -0.354 N 
ATOM     55  N   UNL     1      -5.087 -12.116  10.342  1.00  0.00    -0.248 NA
ATOM     56  C   UNL     1      -4.720 -11.864  12.637  1.00  0.00     0.031 C 
ATOM     57  C   UNL     1      -8.307 -14.650   8.606  1.00  0.00     0.029 A 
ATOM     58  C   UNL     1      -7.300 -13.880   9.166  1.00  0.00     0.049 A 
ATOM     59  H   UNL     1      -5.867 -12.665   8.209  1.00  0.00     0.167 HD
ATOM     60  C   UNL     1      -5.990 -12.911  11.039  1.00  0.00     0.074 A 
ATOM     61  C   UNL     1      -5.692 -12.745  12.447  1.00  0.00     0.031 C 
ATOM     62  C   UNL     1      -6.977 -13.709  10.559  1.00  0.00     0.031 A 
BRANCH  49  63
ATOM     63  C   UNL     1      -7.474 -13.735   4.399  1.00  0.00    -0.014 A 
ATOM     64  C   UNL     1      -6.898 -14.658   3.508  1.00  0.00     0.010 A 
ATOM     65  C   UNL     1      -8.794 -13.302   4.176  1.00  0.00     0.010 A 
ATOM     66  C   UNL     1      -7.617 -15.119   2.402  1.00  0.00     0.020 A 
ATOM     67  C   UNL     1      -9.527 -13.783   3.087  1.00  0.00     0.020 A 
ATOM     68  C   UNL     1      -8.929 -14.681   2.201  1.00  0.00     0.054 A 
BRANCH  68  69
ATOM     69  S   UNL     1      -9.858 -15.342   0.790  1.00  0.00     0.124 S 
ATOM     70  O   UNL     1      -9.210 -14.677  -0.337  1.00  0.00    -0.237 OA
ATOM     71  O   UNL     1      -9.616 -16.779   0.894  1.00  0.00    -0.237 OA
ATOM     72  O   UNL     1     -11.233 -14.925   1.053  1.00  0.00    -0.744 OA
ENDBRANCH  68  69
ENDBRANCH  49  63
BRANCH  50  73
ATOM     73  C   UNL     1      -2.469 -10.023  12.249  1.00  0.00    -0.014 A 
ATOM     74  C   UNL     1      -1.714 -10.840  13.109  1.00  0.00     0.010 A 
ATOM     75  C   UNL     1      -2.556  -8.646  12.520  1.00  0.00     0.010 A 
ATOM     76  C   UNL     1      -1.092 -10.298  14.239  1.00  0.00     0.020 A 
ATOM     77  C   UNL     1      -1.910  -8.094  13.630  1.00  0.00     0.020 A 
ATOM     78  C   UNL     1      -1.197  -8.928  14.493  1.00  0.00     0.054 A 
BRANCH  78  79
ATOM     79  S   UNL     1      -0.365  -8.241  15.951  1.00  0.00     0.124 S 
ATOM     80  O   UNL     1      -1.218  -8.713  17.037  1.00  0.00    -0.237 OA
ATOM     81  O   UNL     1       0.960  -8.850  15.876  1.00  0.00    -0.237 OA
ATOM     82  O   UNL     1      -0.394  -6.799  15.713  1.00  0.00    -0.744 OA
ENDBRANCH  78  79
ENDBRANCH  50  73
BRANCH  62  83
ATOM     83  C   UNL     1      -7.766 -14.509  11.560  1.00  0.00    -0.014 A 
ATOM     84  C   UNL     1      -8.681 -13.898  12.433  1.00  0.00     0.010 A 
ATOM     85  C   UNL     1      -7.616 -15.909  11.589  1.00  0.00     0.010 A 
ATOM     86  C   UNL     1      -9.398 -14.667  13.352  1.00  0.00     0.020 A 
ATOM     87  C   UNL     1      -8.356 -16.684  12.484  1.00  0.00     0.020 A 
ATOM     88  C   UNL     1      -9.228 -16.055  13.374  1.00  0.00     0.054 A 
BRANCH  88  89
ATOM     89  S   UNL     1     -10.187 -17.035  14.560  1.00  0.00     0.124 S 
ATOM     90  O   UNL     1      -9.510 -16.735  15.818  1.00  0.00    -0.237 OA
ATOM     91  O   UNL     1     -11.532 -16.480  14.422  1.00  0.00    -0.237 OA
ATOM     92  O   UNL     1     -10.034 -18.407  14.081  1.00  0.00    -0.744 OA
ENDBRANCH  88  89
ENDBRANCH  62  83
ENDBRANCH  36  37
ENDBRANCH  28  31
ENDBRANCH  26  27
ENDBRANCH   1  26
TORSDOF 16
