REMARK SMILES COC(CNS(=O)(=O)c1ccc(Cl)c(C(=O)NCCCNC(=O)c2ccc(-c3c4nc(c(-c5ccc(S(=O)(=O)[O-])cc5)c5ccc([nH]5)c(-c5ccc(S(=O)(=O)[O-])cc5)c5nc(c(-c6ccc(S(=O)(=O)[O-])cc6)c6ccc3[nH]6)C=C5)C=C4)cc2)c1Cl)OC
REMARK SMILES IDX 18 1 17 2 15 3 16 4 14 6 9 7 10 8 84 9 11 10 85 11 12 12
REMARK SMILES IDX 13 13 6 14 7 15 8 16 5 17 4 19 3 20 2 21 1 22 86 23 87 24
REMARK SMILES IDX 19 25 20 26 21 27 22 28 23 30 24 31 25 32 83 33 26 34 82 35
REMARK SMILES IDX 27 36 28 37 29 38 76 39 30 40 81 41 75 42 77 43 31 44 80 45
REMARK SMILES IDX 74 46 73 47 32 49 62 50 43 51 61 52 44 53 47 54 60 55 78 56
REMARK SMILES IDX 45 57 46 58 59 60 79 61 48 62 33 63 34 64 42 65 35 66 41 67
REMARK SMILES IDX 36 68 37 69 38 70 39 71 40 72 63 73 64 74 72 75 65 76 71 77
REMARK SMILES IDX 66 78 67 79 68 80 69 81 70 82 49 83 50 84 58 85 51 86 57 87
REMARK SMILES IDX 52 88 53 89 54 90 55 91 56 92
REMARK H PARENT 17 5 5 18 21 29 77 48 47 59
REMARK Flexibility Score: inf
ROOT
ATOM      1  C   UNL     1       1.247  -9.902  -3.139  1.00  0.00     0.118 C 
ENDROOT
BRANCH   1   2
ATOM      2  N   UNL     1       0.093  -9.184  -2.627  1.00  0.00    -0.352 N 
ATOM      3  C   UNL     1      -0.029  -7.941  -2.062  1.00  0.00     0.254 C 
ATOM      4  O   UNL     1      -0.979  -7.745  -1.305  1.00  0.00    -0.269 OA
ATOM      5  H   UNL     1      -0.755  -9.680  -2.698  1.00  0.00     0.163 HD
BRANCH   3   6
ATOM      6  C   UNL     1       0.842  -6.785  -2.393  1.00  0.00     0.078 A 
ATOM      7  C   UNL     1       0.908  -4.401  -2.889  1.00  0.00     0.101 A 
ATOM      8  C   UNL     1       2.295  -4.394  -2.712  1.00  0.00     0.025 A 
ATOM      9  C   UNL     1       0.194  -5.605  -2.846  1.00  0.00     0.075 A 
ATOM     10  C   UNL     1       2.942  -5.554  -2.321  1.00  0.00     0.023 A 
ATOM     11  Cl  UNL     1      -1.434  -5.680  -3.455  1.00  0.00    -0.082 Cl
ATOM     12  C   UNL     1       2.207  -6.718  -2.069  1.00  0.00     0.055 A 
ATOM     13  Cl  UNL     1       3.082  -7.923  -1.211  1.00  0.00    -0.083 Cl
BRANCH   7  14
ATOM     14  S   UNL     1       0.132  -2.805  -2.894  1.00  0.00     0.242 S 
ATOM     15  O   UNL     1      -1.280  -2.885  -2.589  1.00  0.00    -0.207 OA
ATOM     16  O   UNL     1       0.632  -2.083  -4.036  1.00  0.00    -0.207 OA
BRANCH  14  17
ATOM     17  N   UNL     1       0.849  -2.077  -1.535  1.00  0.00    -0.206 NA
ATOM     18  H   UNL     1       1.847  -2.281  -1.567  1.00  0.00     0.141 HD
BRANCH  17  19
ATOM     19  C   UNL     1       0.346  -2.499  -0.199  1.00  0.00     0.161 C 
BRANCH  19  20
ATOM     20  C   UNL     1       1.065  -1.853   1.021  1.00  0.00     0.263 C 
BRANCH  20  21
ATOM     21  O   UNL     1       0.723  -0.512   1.376  1.00  0.00    -0.355 OA
ATOM     22  C   UNL     1       0.573   0.441   0.349  1.00  0.00     0.198 C 
ENDBRANCH  20  21
BRANCH  20  23
ATOM     23  O   UNL     1       2.452  -2.163   1.170  1.00  0.00    -0.355 OA
ATOM     24  C   UNL     1       3.350  -1.603   0.240  1.00  0.00     0.198 C 
ENDBRANCH  20  23
ENDBRANCH  19  20
ENDBRANCH  17  19
ENDBRANCH  14  17
ENDBRANCH   7  14
ENDBRANCH   3   6
ENDBRANCH   1   2
BRANCH   1  25
ATOM     25  C   UNL     1       1.838 -10.784  -2.032  1.00  0.00     0.042 C 
BRANCH  25  26
ATOM     26  C   UNL     1       1.037 -12.044  -1.725  1.00  0.00     0.118 C 
BRANCH  26  27
ATOM     27  N   UNL     1       1.268 -13.086  -2.707  1.00  0.00    -0.352 N 
ATOM     28  C   UNL     1       1.832 -14.329  -2.555  1.00  0.00     0.251 C 
ATOM     29  H   UNL     1       0.976 -12.870  -3.621  1.00  0.00     0.163 HD
ATOM     30  O   UNL     1       2.163 -14.951  -3.562  1.00  0.00    -0.269 OA
BRANCH  28  31
ATOM     31  C   UNL     1       2.054 -14.928  -1.213  1.00  0.00     0.039 A 
ATOM     32  C   UNL     1       3.179 -15.739  -1.024  1.00  0.00     0.014 A 
ATOM     33  C   UNL     1       1.137 -14.775  -0.168  1.00  0.00     0.014 A 
ATOM     34  C   UNL     1       3.394 -16.369   0.206  1.00  0.00     0.010 A 
ATOM     35  C   UNL     1       1.394 -15.339   1.084  1.00  0.00     0.010 A 
ATOM     36  C   UNL     1       2.511 -16.163   1.278  1.00  0.00    -0.014 A 
BRANCH  36  37
ATOM     37  C   UNL     1       2.732 -16.834   2.588  1.00  0.00     0.031 A 
ATOM     38  C   UNL     1       1.742 -17.850   3.100  1.00  0.00     0.074 A 
ATOM     39  C   UNL     1       3.808 -16.511   3.332  1.00  0.00     0.049 A 
ATOM     40  N   UNL     1       1.765 -18.536   4.216  1.00  0.00    -0.248 NA
ATOM     41  C   UNL     1       0.561 -18.114   2.262  1.00  0.00     0.031 C 
ATOM     42  C   UNL     1       4.818 -15.512   2.971  1.00  0.00     0.029 A 
ATOM     43  N   UNL     1       4.237 -16.990   4.545  1.00  0.00    -0.354 N 
ATOM     44  C   UNL     1       0.600 -19.295   4.221  1.00  0.00     0.074 A 
ATOM     45  C   UNL     1      -0.132 -18.950   3.022  1.00  0.00     0.031 C 
ATOM     46  C   UNL     1       5.763 -15.478   3.924  1.00  0.00     0.029 A 
ATOM     47  C   UNL     1       5.414 -16.426   4.978  1.00  0.00     0.049 A 
ATOM     48  H   UNL     1       3.747 -17.674   5.057  1.00  0.00     0.167 HD
ATOM     49  C   UNL     1       0.183 -20.213   5.127  1.00  0.00     0.031 A 
ATOM     50  C   UNL     1       6.135 -16.648   6.093  1.00  0.00     0.031 A 
ATOM     51  C   UNL     1       0.920 -20.567   6.312  1.00  0.00     0.049 A 
ATOM     52  C   UNL     1       5.666 -17.687   7.074  1.00  0.00     0.074 A 
ATOM     53  C   UNL     1       0.610 -21.519   7.269  1.00  0.00     0.029 A 
ATOM     54  N   UNL     1       2.118 -19.986   6.702  1.00  0.00    -0.354 N 
ATOM     55  N   UNL     1       4.589 -18.436   7.030  1.00  0.00    -0.248 NA
ATOM     56  C   UNL     1       6.521 -17.926   8.244  1.00  0.00     0.031 C 
ATOM     57  C   UNL     1       1.599 -21.484   8.258  1.00  0.00     0.029 A 
ATOM     58  C   UNL     1       2.554 -20.550   7.889  1.00  0.00     0.049 A 
ATOM     59  H   UNL     1       2.589 -19.277   6.207  1.00  0.00     0.167 HD
ATOM     60  C   UNL     1       4.653 -19.256   8.151  1.00  0.00     0.074 A 
ATOM     61  C   UNL     1       5.882 -18.922   8.843  1.00  0.00     0.031 C 
ATOM     62  C   UNL     1       3.777 -20.204   8.568  1.00  0.00     0.031 A 
BRANCH  49  63
ATOM     63  C   UNL     1      -1.136 -20.897   4.871  1.00  0.00    -0.014 A 
ATOM     64  C   UNL     1      -1.285 -21.819   3.819  1.00  0.00     0.010 A 
ATOM     65  C   UNL     1      -2.234 -20.640   5.713  1.00  0.00     0.010 A 
ATOM     66  C   UNL     1      -2.517 -22.436   3.585  1.00  0.00     0.020 A 
ATOM     67  C   UNL     1      -3.461 -21.277   5.500  1.00  0.00     0.020 A 
ATOM     68  C   UNL     1      -3.599 -22.157   4.424  1.00  0.00     0.054 A 
BRANCH  68  69
ATOM     69  S   UNL     1      -5.183 -22.984   4.107  1.00  0.00     0.124 S 
ATOM     70  O   UNL     1      -5.659 -22.276   2.922  1.00  0.00    -0.237 OA
ATOM     71  O   UNL     1      -4.783 -24.372   3.891  1.00  0.00    -0.237 OA
ATOM     72  O   UNL     1      -5.950 -22.743   5.327  1.00  0.00    -0.744 OA
ENDBRANCH  68  69
ENDBRANCH  49  63
BRANCH  50  73
ATOM     73  C   UNL     1       7.398 -15.893   6.323  1.00  0.00    -0.014 A 
ATOM     74  C   UNL     1       8.644 -16.537   6.216  1.00  0.00     0.010 A 
ATOM     75  C   UNL     1       7.361 -14.521   6.631  1.00  0.00     0.010 A 
ATOM     76  C   UNL     1       9.829 -15.827   6.431  1.00  0.00     0.020 A 
ATOM     77  C   UNL     1       8.545 -13.802   6.820  1.00  0.00     0.020 A 
ATOM     78  C   UNL     1       9.772 -14.463   6.729  1.00  0.00     0.054 A 
BRANCH  78  79
ATOM     79  S   UNL     1      11.324 -13.548   6.948  1.00  0.00     0.124 S 
ATOM     80  O   UNL     1      11.757 -13.995   8.268  1.00  0.00    -0.237 OA
ATOM     81  O   UNL     1      12.130 -14.018   5.823  1.00  0.00    -0.237 OA
ATOM     82  O   UNL     1      10.910 -12.149   6.864  1.00  0.00    -0.744 OA
ENDBRANCH  78  79
ENDBRANCH  50  73
BRANCH  62  83
ATOM     83  C   UNL     1       4.138 -20.975   9.809  1.00  0.00    -0.014 A 
ATOM     84  C   UNL     1       4.099 -20.377  11.081  1.00  0.00     0.010 A 
ATOM     85  C   UNL     1       4.501 -22.330   9.700  1.00  0.00     0.010 A 
ATOM     86  C   UNL     1       4.466 -21.106  12.216  1.00  0.00     0.020 A 
ATOM     87  C   UNL     1       4.840 -23.070  10.834  1.00  0.00     0.020 A 
ATOM     88  C   UNL     1       4.841 -22.447  12.083  1.00  0.00     0.054 A 
BRANCH  88  89
ATOM     89  S   UNL     1       5.302 -23.378  13.570  1.00  0.00     0.124 S 
ATOM     90  O   UNL     1       6.642 -22.866  13.844  1.00  0.00    -0.237 OA
ATOM     91  O   UNL     1       4.271 -22.987  14.528  1.00  0.00    -0.237 OA
ATOM     92  O   UNL     1       5.244 -24.772  13.137  1.00  0.00    -0.744 OA
ENDBRANCH  88  89
ENDBRANCH  62  83
ENDBRANCH  36  37
ENDBRANCH  28  31
ENDBRANCH  26  27
ENDBRANCH  25  26
ENDBRANCH   1  25
TORSDOF 19
