REMARK SMILES CC[C@@]1(C(=O)NCCCNC(=O)c2ccc(-c3c4nc(c(-c5ccc(S(=O)(=O)[O-])cc5)c5ccc([nH]5)c(-c5ccc(S(=O)(=O)[O-])cc5)c5nc(c(-c6ccc(S(=O)(=O)[O-])cc6)c6ccc3[nH]6)C=C5)C=C4)cc2)CCC[N@@H+](Cc2ccc(C3CC3)cc2)C1
REMARK SMILES IDX 8 1 7 2 6 3 4 4 5 5 3 7 73 8 87 9 74 10 76 11 75 12 2 14
REMARK SMILES IDX 1 15 77 16 78 17 79 18 86 19 80 20 85 21 81 22 82 23 83 24
REMARK SMILES IDX 84 25 9 26 10 27 11 28 12 30 13 31 14 32 72 33 15 34 71 35
REMARK SMILES IDX 16 36 17 37 18 38 65 39 19 40 70 41 64 42 66 43 20 44 69 45
REMARK SMILES IDX 63 46 62 47 21 49 51 50 32 51 50 52 33 53 36 54 49 55 67 56
REMARK SMILES IDX 34 57 35 58 48 60 68 61 37 62 22 63 23 64 31 65 24 66 30 67
REMARK SMILES IDX 25 68 26 69 27 70 28 71 29 72 52 73 53 74 61 75 54 76 60 77
REMARK SMILES IDX 55 78 56 79 57 80 58 81 59 82 38 83 39 84 47 85 40 86 46 87
REMARK SMILES IDX 41 88 42 89 43 90 44 91 45 92
REMARK H PARENT 6 6 76 13 10 29 66 48 36 59
REMARK Flexibility Score: inf
ROOT
ATOM      1  C   UNL     1      -1.516   1.174   1.136  1.00  0.00     0.042 C 
ENDROOT
BRANCH   1   2
ATOM      2  C   UNL     1      -1.493  -0.271   0.686  1.00  0.00     0.117 C 
BRANCH   2   3
ATOM      3  N   UNL     1      -0.397  -0.590  -0.201  1.00  0.00    -0.355 N 
ATOM      4  C   UNL     1       0.552  -1.557  -0.178  1.00  0.00     0.231 C 
ATOM      5  O   UNL     1       1.135  -1.717  -1.263  1.00  0.00    -0.274 OA
ATOM      6  H   UNL     1      -0.327   0.014  -0.975  1.00  0.00     0.163 HD
BRANCH   4   7
ATOM      7  C   UNL     1       1.050  -2.340   1.069  1.00  0.00     0.098 C 
ATOM      8  C   UNL     1       1.214  -3.828   0.652  1.00  0.00     0.028 C 
ATOM      9  C   UNL     1       0.195  -2.341   2.345  1.00  0.00     0.279 C 
ATOM     10  C   UNL     1      -0.148  -4.527   0.540  1.00  0.00     0.063 C 
ATOM     11  N   UNL     1      -1.113  -2.994   2.197  1.00  0.00    -0.330 N 
ATOM     12  C   UNL     1      -0.977  -4.398   1.825  1.00  0.00     0.262 C 
ATOM     13  H   UNL     1      -1.572  -2.539   1.407  1.00  0.00     0.348 HD
BRANCH   7  14
ATOM     14  C   UNL     1       2.452  -1.702   1.363  1.00  0.00     0.019 C 
ATOM     15  C   UNL     1       3.099  -2.034   2.705  1.00  0.00     0.005 C 
ENDBRANCH   7  14
BRANCH  11  16
ATOM     16  C   UNL     1      -2.052  -2.738   3.307  1.00  0.00     0.299 C 
BRANCH  16  17
ATOM     17  C   UNL     1      -1.603  -3.125   4.695  1.00  0.00     0.006 A 
ATOM     18  C   UNL     1      -2.205  -4.189   5.368  1.00  0.00     0.010 A 
ATOM     19  C   UNL     1      -0.599  -2.408   5.356  1.00  0.00     0.010 A 
ATOM     20  C   UNL     1      -1.741  -4.578   6.629  1.00  0.00     0.004 A 
ATOM     21  C   UNL     1      -0.115  -2.827   6.593  1.00  0.00     0.004 A 
ATOM     22  C   UNL     1      -0.654  -3.941   7.252  1.00  0.00    -0.045 A 
BRANCH  22  23
ATOM     23  C   UNL     1      -0.112  -4.463   8.566  1.00  0.00     0.019 C 
ATOM     24  C   UNL     1       1.350  -4.314   8.920  1.00  0.00     0.009 C 
ATOM     25  C   UNL     1       0.314  -3.515   9.660  1.00  0.00     0.009 C 
ENDBRANCH  22  23
ENDBRANCH  16  17
ENDBRANCH  11  16
ENDBRANCH   4   7
ENDBRANCH   2   3
ENDBRANCH   1   2
BRANCH   1  26
ATOM     26  C   UNL     1      -2.060   2.105   0.072  1.00  0.00     0.118 C 
BRANCH  26  27
ATOM     27  N   UNL     1      -3.457   1.821  -0.251  1.00  0.00    -0.352 N 
ATOM     28  C   UNL     1      -4.591   2.563  -0.032  1.00  0.00     0.251 C 
ATOM     29  H   UNL     1      -3.609   0.958  -0.698  1.00  0.00     0.163 HD
ATOM     30  O   UNL     1      -5.695   2.041  -0.182  1.00  0.00    -0.269 OA
BRANCH  28  31
ATOM     31  C   UNL     1      -4.487   3.970   0.400  1.00  0.00     0.039 A 
ATOM     32  C   UNL     1      -5.392   4.468   1.340  1.00  0.00     0.014 A 
ATOM     33  C   UNL     1      -3.491   4.800  -0.118  1.00  0.00     0.014 A 
ATOM     34  C   UNL     1      -5.241   5.771   1.818  1.00  0.00     0.010 A 
ATOM     35  C   UNL     1      -3.268   6.047   0.447  1.00  0.00     0.010 A 
ATOM     36  C   UNL     1      -4.147   6.553   1.413  1.00  0.00    -0.014 A 
BRANCH  36  37
ATOM     37  C   UNL     1      -3.902   7.903   1.977  1.00  0.00     0.031 A 
ATOM     38  C   UNL     1      -3.869   9.104   1.068  1.00  0.00     0.074 A 
ATOM     39  C   UNL     1      -3.634   8.035   3.291  1.00  0.00     0.049 A 
ATOM     40  N   UNL     1      -3.601  10.350   1.361  1.00  0.00    -0.248 NA
ATOM     41  C   UNL     1      -4.138   8.870  -0.361  1.00  0.00     0.031 C 
ATOM     42  C   UNL     1      -3.585   6.939   4.263  1.00  0.00     0.029 A 
ATOM     43  N   UNL     1      -3.346   9.150   4.038  1.00  0.00    -0.354 N 
ATOM     44  C   UNL     1      -3.651  11.040   0.155  1.00  0.00     0.074 A 
ATOM     45  C   UNL     1      -3.912  10.067  -0.881  1.00  0.00     0.031 C 
ATOM     46  C   UNL     1      -3.324   7.440   5.480  1.00  0.00     0.029 A 
ATOM     47  C   UNL     1      -3.135   8.882   5.370  1.00  0.00     0.049 A 
ATOM     48  H   UNL     1      -3.296  10.056   3.656  1.00  0.00     0.167 HD
ATOM     49  C   UNL     1      -3.515  12.368  -0.068  1.00  0.00     0.031 A 
ATOM     50  C   UNL     1      -2.818   9.704   6.389  1.00  0.00     0.031 A 
ATOM     51  C   UNL     1      -3.269  13.333   0.971  1.00  0.00     0.049 A 
ATOM     52  C   UNL     1      -2.663  11.175   6.115  1.00  0.00     0.074 A 
ATOM     53  C   UNL     1      -3.177  14.709   0.861  1.00  0.00     0.029 A 
ATOM     54  N   UNL     1      -3.071  13.023   2.308  1.00  0.00    -0.354 N 
ATOM     55  N   UNL     1      -2.789  11.819   4.979  1.00  0.00    -0.248 NA
ATOM     56  C   UNL     1      -2.333  12.031   7.262  1.00  0.00     0.031 C 
ATOM     57  C   UNL     1      -2.863  15.225   2.122  1.00  0.00     0.029 A 
ATOM     58  C   UNL     1      -2.827  14.178   3.030  1.00  0.00     0.049 A 
ATOM     59  H   UNL     1      -3.100  12.115   2.688  1.00  0.00     0.167 HD
ATOM     60  C   UNL     1      -2.579  13.160   5.279  1.00  0.00     0.074 A 
ATOM     61  C   UNL     1      -2.338  13.235   6.706  1.00  0.00     0.031 C 
ATOM     62  C   UNL     1      -2.585  14.233   4.450  1.00  0.00     0.031 A 
BRANCH  49  63
ATOM     63  C   UNL     1      -3.627  12.854  -1.490  1.00  0.00    -0.014 A 
ATOM     64  C   UNL     1      -4.851  12.805  -2.183  1.00  0.00     0.010 A 
ATOM     65  C   UNL     1      -2.502  13.404  -2.131  1.00  0.00     0.010 A 
ATOM     66  C   UNL     1      -4.938  13.257  -3.502  1.00  0.00     0.020 A 
ATOM     67  C   UNL     1      -2.593  13.887  -3.440  1.00  0.00     0.020 A 
ATOM     68  C   UNL     1      -3.807  13.795  -4.123  1.00  0.00     0.054 A 
BRANCH  68  69
ATOM     69  S   UNL     1      -3.958  14.400  -5.826  1.00  0.00     0.124 S 
ATOM     70  O   UNL     1      -4.095  13.155  -6.577  1.00  0.00    -0.237 OA
ATOM     71  O   UNL     1      -5.158  15.231  -5.764  1.00  0.00    -0.237 OA
ATOM     72  O   UNL     1      -2.710  15.127  -6.048  1.00  0.00    -0.744 OA
ENDBRANCH  68  69
ENDBRANCH  49  63
BRANCH  50  73
ATOM     73  C   UNL     1      -2.638   9.154   7.761  1.00  0.00    -0.014 A 
ATOM     74  C   UNL     1      -3.566   9.448   8.777  1.00  0.00     0.010 A 
ATOM     75  C   UNL     1      -1.545   8.319   8.057  1.00  0.00     0.010 A 
ATOM     76  C   UNL     1      -3.393   8.934  10.065  1.00  0.00     0.020 A 
ATOM     77  C   UNL     1      -1.385   7.778   9.336  1.00  0.00     0.020 A 
ATOM     78  C   UNL     1      -2.305   8.099  10.336  1.00  0.00     0.054 A 
BRANCH  78  79
ATOM     79  S   UNL     1      -2.128   7.405  12.002  1.00  0.00     0.124 S 
ATOM     80  O   UNL     1      -1.728   8.574  12.778  1.00  0.00    -0.237 OA
ATOM     81  O   UNL     1      -3.470   6.893  12.274  1.00  0.00    -0.237 OA
ATOM     82  O   UNL     1      -1.101   6.379  11.838  1.00  0.00    -0.744 OA
ENDBRANCH  78  79
ENDBRANCH  50  73
BRANCH  62  83
ATOM     83  C   UNL     1      -2.352  15.586   5.067  1.00  0.00    -0.014 A 
ATOM     84  C   UNL     1      -1.087  15.959   5.554  1.00  0.00     0.010 A 
ATOM     85  C   UNL     1      -3.405  16.519   5.109  1.00  0.00     0.010 A 
ATOM     86  C   UNL     1      -0.888  17.228   6.103  1.00  0.00     0.020 A 
ATOM     87  C   UNL     1      -3.202  17.800   5.627  1.00  0.00     0.020 A 
ATOM     88  C   UNL     1      -1.947  18.141   6.135  1.00  0.00     0.054 A 
BRANCH  88  89
ATOM     89  S   UNL     1      -1.650  19.797   6.812  1.00  0.00     0.124 S 
ATOM     90  O   UNL     1      -1.533  19.523   8.242  1.00  0.00    -0.237 OA
ATOM     91  O   UNL     1      -0.414  20.198   6.146  1.00  0.00    -0.237 OA
ATOM     92  O   UNL     1      -2.837  20.551   6.418  1.00  0.00    -0.744 OA
ENDBRANCH  88  89
ENDBRANCH  62  83
ENDBRANCH  36  37
ENDBRANCH  28  31
ENDBRANCH  26  27
ENDBRANCH   1  26
TORSDOF 17
