REMARK SMILES CCCCCCNC(=O)Oc1cccc(-c2ccc([C@@H](C)C(=O)NCCCNC(=O)c3ccc(-c4c5nc(c(-c6ccc(S(=O)(=O)[O-])cc6)c6ccc([nH]6)c(-c6ccc(S(=O)(=O)[O-])cc6)c6nc(c(-c7ccc(S(=O)(=O)[O-])cc7)c7ccc4[nH]7)C=C6)C=C5)cc3)cc2N)c1
REMARK SMILES IDX 20 1 21 2 19 3 16 4 17 5 92 6 18 7 91 8 15 9 11 10 12 11
REMARK SMILES IDX 94 12 13 13 14 14 10 15 8 16 7 17 9 19 6 20 5 21 4 22 3 23
REMARK SMILES IDX 2 24 1 25 93 26 22 29 23 30 24 31 25 33 26 34 27 35 28 36
REMARK SMILES IDX 29 37 30 39 31 40 32 41 90 42 33 43 89 44 34 45 35 46 36 47
REMARK SMILES IDX 83 48 37 49 88 50 82 51 84 52 38 53 87 54 81 55 80 56 39 58
REMARK SMILES IDX 69 59 50 60 68 61 51 62 54 63 67 64 85 65 52 66 53 67 66 69
REMARK SMILES IDX 86 70 55 71 40 72 41 73 49 74 42 75 48 76 43 77 44 78 45 79
REMARK SMILES IDX 46 80 47 81 70 82 71 83 79 84 72 85 78 86 73 87 74 88 75 89
REMARK SMILES IDX 76 90 77 91 56 92 57 93 65 94 58 95 64 96 59 97 60 98 61 99
REMARK SMILES IDX 62 100 63 101
REMARK H PARENT 7 18 93 27 93 28 24 32 28 38 84 57 54 68
REMARK Flexibility Score: inf
ROOT
ATOM      1  C   UNL     1      -4.918 -11.203   7.431  1.00  0.00     0.105 C 
ATOM      2  C   UNL     1      -6.214 -11.833   7.943  1.00  0.00     0.023 C 
ENDROOT
BRANCH   1   3
ATOM      3  C   UNL     1      -5.052 -10.422   6.135  1.00  0.00    -0.034 A 
ATOM      4  C   UNL     1      -5.147  -8.931   3.695  1.00  0.00     0.005 A 
ATOM      5  C   UNL     1      -5.645 -10.244   3.791  1.00  0.00     0.011 A 
ATOM      6  C   UNL     1      -4.670  -8.332   4.885  1.00  0.00     0.040 A 
ATOM      7  C   UNL     1      -5.652 -10.949   4.995  1.00  0.00     0.005 A 
ATOM      8  C   UNL     1      -4.559  -9.109   6.056  1.00  0.00     0.030 A 
BRANCH   4   9
ATOM      9  C   UNL     1      -5.178  -8.254   2.372  1.00  0.00    -0.013 A 
ATOM     10  C   UNL     1      -4.168  -6.844   0.665  1.00  0.00     0.133 A 
ATOM     11  C   UNL     1      -5.285  -6.972  -0.154  1.00  0.00     0.047 A 
ATOM     12  C   UNL     1      -4.096  -7.490   1.902  1.00  0.00     0.056 A 
ATOM     13  C   UNL     1      -6.349  -7.757   0.271  1.00  0.00     0.004 A 
ATOM     14  C   UNL     1      -6.301  -8.374   1.525  1.00  0.00     0.009 A 
BRANCH  10  15
ATOM     15  O   UNL     1      -3.204  -5.903   0.265  1.00  0.00    -0.410 OA
BRANCH  15  16
ATOM     16  C   UNL     1      -1.857  -6.218   0.326  1.00  0.00     0.412 C 
ATOM     17  N   UNL     1      -1.054  -5.140   0.069  1.00  0.00    -0.321 N 
ATOM     18  H   UNL     1      -0.084  -5.306   0.046  1.00  0.00     0.167 HD
ATOM     19  O   UNL     1      -1.381  -7.315   0.585  1.00  0.00    -0.224 OA
BRANCH  17  20
ATOM     20  C   UNL     1      -1.487  -3.778  -0.174  1.00  0.00     0.119 C 
BRANCH  20  21
ATOM     21  C   UNL     1      -0.912  -2.809   0.861  1.00  0.00     0.021 C 
BRANCH  21  22
ATOM     22  C   UNL     1       0.617  -2.688   0.846  1.00  0.00     0.002 C 
BRANCH  22  23
ATOM     23  C   UNL     1       1.226  -2.241  -0.488  1.00  0.00    -0.000 C 
BRANCH  23  24
ATOM     24  C   UNL     1       0.741  -0.885  -1.007  1.00  0.00    -0.003 C 
ATOM     25  C   UNL     1       1.105   0.273  -0.092  1.00  0.00     0.004 C 
ENDBRANCH  23  24
ENDBRANCH  22  23
ENDBRANCH  21  22
ENDBRANCH  20  21
ENDBRANCH  17  20
ENDBRANCH  15  16
ENDBRANCH  10  15
ENDBRANCH   4   9
BRANCH   6  26
ATOM     26  N   UNL     1      -4.210  -7.015   4.934  1.00  0.00    -0.398 N 
ATOM     27  H   UNL     1      -4.270  -6.442   4.136  1.00  0.00     0.156 HD
ATOM     28  H   UNL     1      -3.825  -6.659   5.767  1.00  0.00     0.156 HD
ENDBRANCH   6  26
ENDBRANCH   1   3
BRANCH   1  29
ATOM     29  C   UNL     1      -3.694 -12.129   7.493  1.00  0.00     0.227 C 
ATOM     30  O   UNL     1      -2.715 -11.805   8.178  1.00  0.00    -0.274 OA
ATOM     31  N   UNL     1      -3.607 -13.331   6.861  1.00  0.00    -0.356 N 
ATOM     32  H   UNL     1      -2.777 -13.824   7.054  1.00  0.00     0.163 HD
BRANCH  31  33
ATOM     33  C   UNL     1      -4.505 -14.023   5.957  1.00  0.00     0.117 C 
BRANCH  33  34
ATOM     34  C   UNL     1      -4.112 -13.835   4.494  1.00  0.00     0.042 C 
BRANCH  34  35
ATOM     35  C   UNL     1      -3.016 -14.781   4.026  1.00  0.00     0.118 C 
BRANCH  35  36
ATOM     36  N   UNL     1      -3.483 -16.159   3.935  1.00  0.00    -0.352 N 
ATOM     37  C   UNL     1      -3.620 -16.980   2.842  1.00  0.00     0.251 C 
ATOM     38  H   UNL     1      -3.742 -16.566   4.793  1.00  0.00     0.163 HD
ATOM     39  O   UNL     1      -4.249 -18.029   2.959  1.00  0.00    -0.269 OA
BRANCH  37  40
ATOM     40  C   UNL     1      -3.031 -16.613   1.534  1.00  0.00     0.039 A 
ATOM     41  C   UNL     1      -3.737 -16.912   0.363  1.00  0.00     0.014 A 
ATOM     42  C   UNL     1      -1.771 -16.016   1.449  1.00  0.00     0.014 A 
ATOM     43  C   UNL     1      -3.208 -16.557  -0.881  1.00  0.00     0.010 A 
ATOM     44  C   UNL     1      -1.285 -15.587   0.217  1.00  0.00     0.010 A 
ATOM     45  C   UNL     1      -1.992 -15.861  -0.963  1.00  0.00    -0.014 A 
BRANCH  45  46
ATOM     46  C   UNL     1      -1.424 -15.424  -2.264  1.00  0.00     0.031 A 
ATOM     47  C   UNL     1      -0.092 -15.961  -2.719  1.00  0.00     0.074 A 
ATOM     48  C   UNL     1      -2.060 -14.485  -2.993  1.00  0.00     0.049 A 
ATOM     49  N   UNL     1       0.627 -15.616  -3.756  1.00  0.00    -0.248 NA
ATOM     50  C   UNL     1       0.524 -17.005  -1.883  1.00  0.00     0.031 C 
ATOM     51  C   UNL     1      -3.340 -13.864  -2.645  1.00  0.00     0.029 A 
ATOM     52  N   UNL     1      -1.707 -13.876  -4.172  1.00  0.00    -0.354 N 
ATOM     53  C   UNL     1       1.788 -16.377  -3.680  1.00  0.00     0.074 A 
ATOM     54  C   UNL     1       1.697 -17.170  -2.475  1.00  0.00     0.031 C 
ATOM     55  C   UNL     1      -3.671 -12.976  -3.596  1.00  0.00     0.029 A 
ATOM     56  C   UNL     1      -2.608 -12.926  -4.594  1.00  0.00     0.049 A 
ATOM     57  H   UNL     1      -0.886 -14.098  -4.668  1.00  0.00     0.167 HD
ATOM     58  C   UNL     1       2.830 -16.423  -4.545  1.00  0.00     0.031 A 
ATOM     59  C   UNL     1      -2.574 -12.094  -5.653  1.00  0.00     0.031 A 
ATOM     60  C   UNL     1       2.908 -15.642  -5.751  1.00  0.00     0.049 A 
ATOM     61  C   UNL     1      -1.399 -12.151  -6.592  1.00  0.00     0.074 A 
ATOM     62  C   UNL     1       3.894 -15.656  -6.721  1.00  0.00     0.029 A 
ATOM     63  N   UNL     1       1.964 -14.707  -6.150  1.00  0.00    -0.354 N 
ATOM     64  N   UNL     1      -0.337 -12.919  -6.535  1.00  0.00    -0.248 NA
ATOM     65  C   UNL     1      -1.420 -11.236  -7.741  1.00  0.00     0.031 C 
ATOM     66  C   UNL     1       3.572 -14.692  -7.682  1.00  0.00     0.029 A 
ATOM     67  C   UNL     1       2.355 -14.122  -7.342  1.00  0.00     0.049 A 
ATOM     68  H   UNL     1       1.139 -14.491  -5.659  1.00  0.00     0.167 HD
ATOM     69  C   UNL     1       0.421 -12.601  -7.657  1.00  0.00     0.074 A 
ATOM     70  C   UNL     1      -0.308 -11.579  -8.379  1.00  0.00     0.031 C 
ATOM     71  C   UNL     1       1.611 -13.113  -8.054  1.00  0.00     0.031 A 
BRANCH  58  72
ATOM     72  C   UNL     1       3.974 -17.346  -4.213  1.00  0.00    -0.014 A 
ATOM     73  C   UNL     1       3.820 -18.744  -4.265  1.00  0.00     0.010 A 
ATOM     74  C   UNL     1       5.231 -16.810  -3.881  1.00  0.00     0.010 A 
ATOM     75  C   UNL     1       4.888 -19.587  -3.948  1.00  0.00     0.020 A 
ATOM     76  C   UNL     1       6.311 -17.650  -3.592  1.00  0.00     0.020 A 
ATOM     77  C   UNL     1       6.127 -19.034  -3.610  1.00  0.00     0.054 A 
BRANCH  77  78
ATOM     78  S   UNL     1       7.500 -20.153  -3.222  1.00  0.00     0.124 S 
ATOM     79  O   UNL     1       7.112 -20.662  -1.909  1.00  0.00    -0.237 OA
ATOM     80  O   UNL     1       7.441 -21.123  -4.313  1.00  0.00    -0.237 OA
ATOM     81  O   UNL     1       8.672 -19.282  -3.230  1.00  0.00    -0.744 OA
ENDBRANCH  77  78
ENDBRANCH  58  72
BRANCH  59  82
ATOM     82  C   UNL     1      -3.695 -11.141  -5.885  1.00  0.00    -0.014 A 
ATOM     83  C   UNL     1      -4.581 -11.331  -6.960  1.00  0.00     0.010 A 
ATOM     84  C   UNL     1      -3.894 -10.049  -5.020  1.00  0.00     0.010 A 
ATOM     85  C   UNL     1      -5.636 -10.438  -7.176  1.00  0.00     0.020 A 
ATOM     86  C   UNL     1      -4.964  -9.171  -5.216  1.00  0.00     0.020 A 
ATOM     87  C   UNL     1      -5.822  -9.365  -6.300  1.00  0.00     0.054 A 
BRANCH  87  88
ATOM     88  S   UNL     1      -7.228  -8.250  -6.567  1.00  0.00     0.124 S 
ATOM     89  O   UNL     1      -6.797  -7.491  -7.737  1.00  0.00    -0.237 OA
ATOM     90  O   UNL     1      -8.332  -9.180  -6.787  1.00  0.00    -0.237 OA
ATOM     91  O   UNL     1      -7.304  -7.489  -5.321  1.00  0.00    -0.744 OA
ENDBRANCH  87  88
ENDBRANCH  59  82
BRANCH  71  92
ATOM     92  C   UNL     1       2.189 -12.616  -9.352  1.00  0.00    -0.014 A 
ATOM     93  C   UNL     1       2.761 -11.337  -9.455  1.00  0.00     0.010 A 
ATOM     94  C   UNL     1       2.236 -13.482 -10.462  1.00  0.00     0.010 A 
ATOM     95  C   UNL     1       3.358 -10.926 -10.650  1.00  0.00     0.020 A 
ATOM     96  C   UNL     1       2.856 -13.084 -11.649  1.00  0.00     0.020 A 
ATOM     97  C   UNL     1       3.406 -11.805 -11.738  1.00  0.00     0.054 A 
BRANCH  97  98
ATOM     98  S   UNL     1       4.252 -11.274 -13.252  1.00  0.00     0.124 S 
ATOM     99  O   UNL     1       3.309 -10.306 -13.804  1.00  0.00    -0.237 OA
ATOM    100  O   UNL     1       5.501 -10.714 -12.742  1.00  0.00    -0.237 OA
ATOM    101  O   UNL     1       4.398 -12.509 -14.020  1.00  0.00    -0.744 OA
ENDBRANCH  97  98
ENDBRANCH  71  92
ENDBRANCH  45  46
ENDBRANCH  37  40
ENDBRANCH  35  36
ENDBRANCH  34  35
ENDBRANCH  33  34
ENDBRANCH  31  33
ENDBRANCH   1  29
TORSDOF 23
