REMARK SMILES CC[C@@H]1CC[C@](C[C@@H]2CCCc3ccccc32)(C(=O)NCCCNC(=O)c2ccc(-c3c4nc(c(-c5ccc(S(=O)(=O)[O-])cc5)c5ccc([nH]5)c(-c5ccc(S(=O)(=O)[O-])cc5)c5nc(c(-c6ccc(S(=O)(=O)[O-])cc6)c6ccc3[nH]6)C=C5)C=C4)cc2)C1
REMARK SMILES IDX 22 1 21 2 20 3 18 4 19 5 6 7 3 8 4 9 87 10 5 11 2 12 1 13
REMARK SMILES IDX 7 14 8 15 9 16 17 17 10 18 12 19 16 20 11 21 13 22 15 23
REMARK SMILES IDX 14 24 23 25 24 26 25 27 26 29 27 30 28 31 86 32 29 33 85 34
REMARK SMILES IDX 30 35 31 36 32 37 79 38 33 39 84 40 78 41 80 42 34 43 83 44
REMARK SMILES IDX 77 45 76 46 35 48 65 49 46 50 64 51 47 52 50 53 63 54 81 55
REMARK SMILES IDX 48 56 49 57 62 59 82 60 51 61 36 62 37 63 45 64 38 65 44 66
REMARK SMILES IDX 39 67 40 68 41 69 42 70 43 71 66 72 67 73 75 74 68 75 74 76
REMARK SMILES IDX 69 77 70 78 71 79 72 80 73 81 52 82 53 83 61 84 54 85 60 86
REMARK SMILES IDX 55 87 56 88 57 89 58 90 59 91
REMARK H PARENT 20 6 24 28 80 47 50 58
REMARK Flexibility Score: inf
ROOT
ATOM      1  C   UNL     1      -0.788  -5.599  -2.488  1.00  0.00     0.042 C 
ENDROOT
BRANCH   1   2
ATOM      2  C   UNL     1      -0.722  -6.068  -1.034  1.00  0.00     0.117 C 
BRANCH   2   3
ATOM      3  N   UNL     1       0.598  -6.559  -0.678  1.00  0.00    -0.356 N 
ATOM      4  C   UNL     1       1.665  -5.990  -0.055  1.00  0.00     0.226 C 
ATOM      5  O   UNL     1       2.661  -6.719   0.034  1.00  0.00    -0.274 OA
ATOM      6  H   UNL     1       0.752  -7.495  -0.943  1.00  0.00     0.163 HD
BRANCH   4   7
ATOM      7  C   UNL     1       1.609  -4.601   0.654  1.00  0.00     0.050 C 
ATOM      8  C   UNL     1       1.778  -2.305  -0.220  1.00  0.00    -0.010 C 
ATOM      9  C   UNL     1       3.159  -2.925  -0.312  1.00  0.00     0.005 C 
ATOM     10  C   UNL     1       0.890  -3.543  -0.192  1.00  0.00     0.020 C 
ATOM     11  C   UNL     1       3.072  -4.055   0.724  1.00  0.00     0.017 C 
BRANCH   8  12
ATOM     12  C   UNL     1       1.380  -1.342  -1.341  1.00  0.00     0.000 C 
ATOM     13  C   UNL     1       1.512   0.113  -0.913  1.00  0.00     0.004 C 
ENDBRANCH   8  12
BRANCH   7  14
ATOM     14  C   UNL     1       0.939  -4.912   2.037  1.00  0.00     0.025 C 
BRANCH  14  15
ATOM     15  C   UNL     1       0.676  -3.916   3.210  1.00  0.00     0.020 C 
ATOM     16  C   UNL     1      -0.533  -2.975   3.087  1.00  0.00     0.009 C 
ATOM     17  C   UNL     1       1.892  -3.227   3.774  1.00  0.00    -0.042 A 
ATOM     18  C   UNL     1      -0.240  -1.592   2.532  1.00  0.00     0.005 C 
ATOM     19  C   UNL     1       2.091  -1.848   3.619  1.00  0.00    -0.045 A 
ATOM     20  C   UNL     1       2.852  -3.987   4.469  1.00  0.00     0.004 A 
ATOM     21  C   UNL     1       1.012  -0.929   3.107  1.00  0.00     0.036 C 
ATOM     22  C   UNL     1       3.306  -1.282   4.043  1.00  0.00     0.004 A 
ATOM     23  C   UNL     1       4.027  -3.402   4.935  1.00  0.00     0.000 A 
ATOM     24  C   UNL     1       4.270  -2.056   4.690  1.00  0.00     0.000 A 
ENDBRANCH  14  15
ENDBRANCH   7  14
ENDBRANCH   4   7
ENDBRANCH   2   3
ENDBRANCH   1   2
BRANCH   1  25
ATOM     25  C   UNL     1      -0.644  -6.722  -3.506  1.00  0.00     0.118 C 
BRANCH  25  26
ATOM     26  N   UNL     1      -1.834  -7.553  -3.574  1.00  0.00    -0.352 N 
ATOM     27  C   UNL     1      -2.692  -7.764  -4.622  1.00  0.00     0.251 C 
ATOM     28  H   UNL     1      -2.057  -8.035  -2.745  1.00  0.00     0.163 HD
ATOM     29  O   UNL     1      -3.776  -8.315  -4.404  1.00  0.00    -0.269 OA
BRANCH  27  30
ATOM     30  C   UNL     1      -2.345  -7.335  -5.996  1.00  0.00     0.039 A 
ATOM     31  C   UNL     1      -3.356  -6.834  -6.822  1.00  0.00     0.014 A 
ATOM     32  C   UNL     1      -1.047  -7.469  -6.498  1.00  0.00     0.014 A 
ATOM     33  C   UNL     1      -3.059  -6.439  -8.129  1.00  0.00     0.010 A 
ATOM     34  C   UNL     1      -0.734  -6.992  -7.769  1.00  0.00     0.010 A 
ATOM     35  C   UNL     1      -1.740  -6.494  -8.609  1.00  0.00    -0.014 A 
BRANCH  35  36
ATOM     36  C   UNL     1      -1.408  -6.077  -9.996  1.00  0.00     0.031 A 
ATOM     37  C   UNL     1      -0.860  -7.083 -10.977  1.00  0.00     0.074 A 
ATOM     38  C   UNL     1      -1.559  -4.790 -10.366  1.00  0.00     0.049 A 
ATOM     39  N   UNL     1      -0.481  -6.905 -12.217  1.00  0.00    -0.248 NA
ATOM     40  C   UNL     1      -0.690  -8.464 -10.493  1.00  0.00     0.031 C 
ATOM     41  C   UNL     1      -2.043  -3.711  -9.501  1.00  0.00     0.029 A 
ATOM     42  N   UNL     1      -1.320  -4.168 -11.566  1.00  0.00    -0.354 N 
ATOM     43  C   UNL     1      -0.014  -8.141 -12.653  1.00  0.00     0.074 A 
ATOM     44  C   UNL     1      -0.104  -9.046 -11.528  1.00  0.00     0.031 C 
ATOM     45  C   UNL     1      -2.095  -2.570 -10.207  1.00  0.00     0.029 A 
ATOM     46  C   UNL     1      -1.613  -2.825 -11.561  1.00  0.00     0.049 A 
ATOM     47  H   UNL     1      -0.972  -4.641 -12.357  1.00  0.00     0.167 HD
ATOM     48  C   UNL     1       0.428  -8.499 -13.882  1.00  0.00     0.031 A 
ATOM     49  C   UNL     1      -1.503  -1.899 -12.534  1.00  0.00     0.031 A 
ATOM     50  C   UNL     1       0.503  -7.601 -15.003  1.00  0.00     0.049 A 
ATOM     51  C   UNL     1      -1.009  -2.320 -13.892  1.00  0.00     0.074 A 
ATOM     52  C   UNL     1       0.886  -7.877 -16.304  1.00  0.00     0.029 A 
ATOM     53  N   UNL     1       0.186  -6.251 -14.958  1.00  0.00    -0.354 N 
ATOM     54  N   UNL     1      -0.630  -3.508 -14.300  1.00  0.00    -0.248 NA
ATOM     55  C   UNL     1      -0.944  -1.278 -14.925  1.00  0.00     0.031 C 
ATOM     56  C   UNL     1       0.852  -6.683 -17.032  1.00  0.00     0.029 A 
ATOM     57  C   UNL     1       0.385  -5.677 -16.202  1.00  0.00     0.049 A 
ATOM     58  H   UNL     1      -0.133  -5.772 -14.159  1.00  0.00     0.167 HD
ATOM     59  C   UNL     1      -0.313  -3.362 -15.647  1.00  0.00     0.074 A 
ATOM     60  C   UNL     1      -0.558  -1.975 -15.985  1.00  0.00     0.031 C 
ATOM     61  C   UNL     1       0.136  -4.294 -16.524  1.00  0.00     0.031 A 
BRANCH  48  62
ATOM     62  C   UNL     1       0.872  -9.928 -14.075  1.00  0.00    -0.014 A 
ATOM     63  C   UNL     1      -0.052 -10.989 -14.044  1.00  0.00     0.010 A 
ATOM     64  C   UNL     1       2.227 -10.212 -14.325  1.00  0.00     0.010 A 
ATOM     65  C   UNL     1       0.377 -12.308 -14.211  1.00  0.00     0.020 A 
ATOM     66  C   UNL     1       2.656 -11.528 -14.525  1.00  0.00     0.020 A 
ATOM     67  C   UNL     1       1.729 -12.569 -14.447  1.00  0.00     0.054 A 
BRANCH  67  68
ATOM     68  S   UNL     1       2.254 -14.290 -14.680  1.00  0.00     0.124 S 
ATOM     69  O   UNL     1       2.146 -14.823 -13.323  1.00  0.00    -0.237 OA
ATOM     70  O   UNL     1       1.271 -14.799 -15.633  1.00  0.00    -0.237 OA
ATOM     71  O   UNL     1       3.615 -14.172 -15.195  1.00  0.00    -0.744 OA
ENDBRANCH  67  68
ENDBRANCH  48  62
BRANCH  49  72
ATOM     72  C   UNL     1      -1.893  -0.487 -12.265  1.00  0.00    -0.014 A 
ATOM     73  C   UNL     1      -3.043   0.063 -12.857  1.00  0.00     0.010 A 
ATOM     74  C   UNL     1      -1.121   0.312 -11.403  1.00  0.00     0.010 A 
ATOM     75  C   UNL     1      -3.404   1.391 -12.609  1.00  0.00     0.020 A 
ATOM     76  C   UNL     1      -1.494   1.631 -11.128  1.00  0.00     0.020 A 
ATOM     77  C   UNL     1      -2.627   2.166 -11.743  1.00  0.00     0.054 A 
BRANCH  77  78
ATOM     78  S   UNL     1      -3.143   3.870 -11.394  1.00  0.00     0.124 S 
ATOM     79  O   UNL     1      -2.815   4.549 -12.644  1.00  0.00    -0.237 OA
ATOM     80  O   UNL     1      -4.567   3.717 -11.111  1.00  0.00    -0.237 OA
ATOM     81  O   UNL     1      -2.324   4.246 -10.243  1.00  0.00    -0.744 OA
ENDBRANCH  77  78
ENDBRANCH  49  72
BRANCH  61  82
ATOM     82  C   UNL     1       0.350  -3.857 -17.950  1.00  0.00    -0.014 A 
ATOM     83  C   UNL     1       1.410  -3.005 -18.305  1.00  0.00     0.010 A 
ATOM     84  C   UNL     1      -0.503  -4.347 -18.956  1.00  0.00     0.010 A 
ATOM     85  C   UNL     1       1.589  -2.618 -19.637  1.00  0.00     0.020 A 
ATOM     86  C   UNL     1      -0.309  -3.988 -20.292  1.00  0.00     0.020 A 
ATOM     87  C   UNL     1       0.726  -3.111 -20.622  1.00  0.00     0.054 A 
BRANCH  87  88
ATOM     88  S   UNL     1       0.998  -2.620 -22.346  1.00  0.00     0.124 S 
ATOM     89  O   UNL     1       0.537  -1.235 -22.343  1.00  0.00    -0.237 OA
ATOM     90  O   UNL     1       2.438  -2.803 -22.509  1.00  0.00    -0.237 OA
ATOM     91  O   UNL     1       0.168  -3.551 -23.107  1.00  0.00    -0.744 OA
ENDBRANCH  87  88
ENDBRANCH  61  82
ENDBRANCH  35  36
ENDBRANCH  27  30
ENDBRANCH  25  26
ENDBRANCH   1  25
TORSDOF 16
