REMARK SMILES O=C(NCCCNC(=O)[C@@H]1CCCN1C(=O)[C@@H]1CCCN1C(=O)OCC1c2ccccc2-c2ccccc21)c1ccc(-c2c3nc(c(-c4ccc(S(=O)(=O)[O-])cc4)c4ccc([nH]4)c(-c4ccc(S(=O)(=O)[O-])cc4)c4nc(c(-c5ccc(S(=O)(=O)[O-])cc5)c5ccc2[nH]5)C=C4)C=C3)cc1
REMARK SMILES IDX 7 1 8 2 9 3 6 5 5 6 4 7 3 8 1 9 2 10 39 12 40 13 98 14 41 15
REMARK SMILES IDX 97 16 42 17 43 18 44 19 91 20 45 21 96 22 90 23 92 24 46 25
REMARK SMILES IDX 95 26 89 27 88 28 47 30 77 31 58 32 76 33 59 34 62 35 75 36
REMARK SMILES IDX 93 37 60 38 61 39 74 41 94 42 63 43 48 44 49 45 57 46 50 47
REMARK SMILES IDX 56 48 51 49 52 50 53 51 54 52 55 53 78 54 79 55 87 56 80 57
REMARK SMILES IDX 86 58 81 59 82 60 83 61 84 62 85 63 64 64 65 65 73 66 66 67
REMARK SMILES IDX 72 68 67 69 68 70 69 71 70 72 71 73 10 74 11 75 14 76 12 77
REMARK SMILES IDX 13 78 15 79 16 80 17 81 18 82 21 83 19 84 20 85 22 86 23 87
REMARK SMILES IDX 24 88 25 89 26 90 27 91 38 92 28 93 32 94 33 95 37 96 29 97
REMARK SMILES IDX 31 98 34 99 36 100 30 101 35 102
REMARK H PARENT 7 4 3 11 92 29 62 40
REMARK Flexibility Score: inf
ROOT
ATOM      1  N   UNL     1       3.405  -3.302   2.764  1.00  0.00    -0.354 N 
ATOM      2  C   UNL     1       4.315  -4.171   3.289  1.00  0.00     0.242 C 
ATOM      3  O   UNL     1       4.273  -5.334   2.868  1.00  0.00    -0.273 OA
ATOM      4  H   UNL     1       3.028  -3.591   1.902  1.00  0.00     0.163 HD
ENDROOT
BRANCH   1   5
ATOM      5  C   UNL     1       2.887  -2.030   3.237  1.00  0.00     0.117 C 
BRANCH   5   6
ATOM      6  C   UNL     1       3.435  -0.758   2.585  1.00  0.00     0.042 C 
BRANCH   6   7
ATOM      7  C   UNL     1       3.469  -0.671   1.065  1.00  0.00     0.118 C 
BRANCH   7   8
ATOM      8  N   UNL     1       2.160  -0.661   0.458  1.00  0.00    -0.352 N 
ATOM      9  O   UNL     1       0.483   0.156  -0.797  1.00  0.00    -0.269 OA
ATOM     10  C   UNL     1       1.661   0.225  -0.462  1.00  0.00     0.251 C 
ATOM     11  H   UNL     1       1.548  -1.379   0.741  1.00  0.00     0.163 HD
BRANCH  10  12
ATOM     12  C   UNL     1       2.535   1.276  -1.030  1.00  0.00     0.039 A 
ATOM     13  C   UNL     1       3.725   0.958  -1.697  1.00  0.00     0.014 A 
ATOM     14  C   UNL     1       2.114   2.603  -0.938  1.00  0.00     0.014 A 
ATOM     15  C   UNL     1       4.509   1.978  -2.246  1.00  0.00     0.010 A 
ATOM     16  C   UNL     1       2.877   3.614  -1.522  1.00  0.00     0.010 A 
ATOM     17  C   UNL     1       4.077   3.313  -2.188  1.00  0.00    -0.014 A 
BRANCH  17  18
ATOM     18  C   UNL     1       4.804   4.404  -2.893  1.00  0.00     0.031 A 
ATOM     19  C   UNL     1       5.411   5.545  -2.126  1.00  0.00     0.074 A 
ATOM     20  C   UNL     1       4.811   4.424  -4.241  1.00  0.00     0.049 A 
ATOM     21  N   UNL     1       5.918   6.665  -2.573  1.00  0.00    -0.248 NA
ATOM     22  C   UNL     1       5.433   5.414  -0.661  1.00  0.00     0.031 C 
ATOM     23  C   UNL     1       4.253   3.381  -5.103  1.00  0.00     0.029 A 
ATOM     24  N   UNL     1       5.274   5.371  -5.122  1.00  0.00    -0.354 N 
ATOM     25  C   UNL     1       6.295   7.389  -1.447  1.00  0.00     0.074 A 
ATOM     26  C   UNL     1       5.934   6.586  -0.296  1.00  0.00     0.031 C 
ATOM     27  C   UNL     1       4.400   3.745  -6.386  1.00  0.00     0.029 A 
ATOM     28  C   UNL     1       5.000   5.074  -6.437  1.00  0.00     0.049 A 
ATOM     29  H   UNL     1       5.755   6.182  -4.840  1.00  0.00     0.167 HD
ATOM     30  C   UNL     1       6.882   8.610  -1.380  1.00  0.00     0.031 A 
ATOM     31  C   UNL     1       5.168   5.801  -7.560  1.00  0.00     0.031 A 
ATOM     32  C   UNL     1       7.212   9.409  -2.533  1.00  0.00     0.049 A 
ATOM     33  C   UNL     1       5.770   7.174  -7.465  1.00  0.00     0.074 A 
ATOM     34  C   UNL     1       7.838  10.643  -2.574  1.00  0.00     0.029 A 
ATOM     35  N   UNL     1       6.927   9.065  -3.848  1.00  0.00    -0.354 N 
ATOM     36  N   UNL     1       6.154   7.829  -6.396  1.00  0.00    -0.248 NA
ATOM     37  C   UNL     1       5.969   7.904  -8.724  1.00  0.00     0.031 C 
ATOM     38  C   UNL     1       7.867  11.076  -3.903  1.00  0.00     0.029 A 
ATOM     39  C   UNL     1       7.338  10.075  -4.703  1.00  0.00     0.049 A 
ATOM     40  H   UNL     1       6.496   8.226  -4.130  1.00  0.00     0.167 HD
ATOM     41  C   UNL     1       6.677   9.033  -6.855  1.00  0.00     0.074 A 
ATOM     42  C   UNL     1       6.555   9.017  -8.299  1.00  0.00     0.031 C 
ATOM     43  C   UNL     1       7.220  10.050  -6.141  1.00  0.00     0.031 A 
BRANCH  30  44
ATOM     44  C   UNL     1       7.155   9.177  -0.008  1.00  0.00    -0.014 A 
ATOM     45  C   UNL     1       8.098   8.592   0.858  1.00  0.00     0.010 A 
ATOM     46  C   UNL     1       6.460  10.324   0.421  1.00  0.00     0.010 A 
ATOM     47  C   UNL     1       8.287   9.099   2.148  1.00  0.00     0.020 A 
ATOM     48  C   UNL     1       6.672  10.856   1.696  1.00  0.00     0.020 A 
ATOM     49  C   UNL     1       7.564  10.222   2.562  1.00  0.00     0.054 A 
BRANCH  49  50
ATOM     50  S   UNL     1       7.806  10.839   4.251  1.00  0.00     0.124 S 
ATOM     51  O   UNL     1       7.152   9.802   5.046  1.00  0.00    -0.237 OA
ATOM     52  O   UNL     1       9.261  10.894   4.367  1.00  0.00    -0.237 OA
ATOM     53  O   UNL     1       7.133  12.136   4.248  1.00  0.00    -0.744 OA
ENDBRANCH  49  50
ENDBRANCH  30  44
BRANCH  31  54
ATOM     54  C   UNL     1       4.744   5.226  -8.867  1.00  0.00    -0.014 A 
ATOM     55  C   UNL     1       5.700   4.801  -9.804  1.00  0.00     0.010 A 
ATOM     56  C   UNL     1       3.377   5.032  -9.147  1.00  0.00     0.010 A 
ATOM     57  C   UNL     1       5.299   4.186 -10.994  1.00  0.00     0.020 A 
ATOM     58  C   UNL     1       2.974   4.390 -10.321  1.00  0.00     0.020 A 
ATOM     59  C   UNL     1       3.939   3.972 -11.239  1.00  0.00     0.054 A 
BRANCH  59  60
ATOM     60  S   UNL     1       3.454   3.082 -12.743  1.00  0.00     0.124 S 
ATOM     61  O   UNL     1       3.763   4.055 -13.786  1.00  0.00    -0.237 OA
ATOM     62  O   UNL     1       4.316   1.903 -12.702  1.00  0.00    -0.237 OA
ATOM     63  O   UNL     1       2.032   2.812 -12.540  1.00  0.00    -0.744 OA
ENDBRANCH  59  60
ENDBRANCH  31  54
BRANCH  43  64
ATOM     64  C   UNL     1       7.793  11.218  -6.902  1.00  0.00    -0.014 A 
ATOM     65  C   UNL     1       6.972  12.166  -7.536  1.00  0.00     0.010 A 
ATOM     66  C   UNL     1       9.187  11.420  -6.889  1.00  0.00     0.010 A 
ATOM     67  C   UNL     1       7.535  13.290  -8.148  1.00  0.00     0.020 A 
ATOM     68  C   UNL     1       9.751  12.556  -7.474  1.00  0.00     0.020 A 
ATOM     69  C   UNL     1       8.921  13.483  -8.104  1.00  0.00     0.054 A 
BRANCH  69  70
ATOM     70  S   UNL     1       9.617  14.995  -8.826  1.00  0.00     0.124 S 
ATOM     71  O   UNL     1       9.439  14.761 -10.257  1.00  0.00    -0.237 OA
ATOM     72  O   UNL     1       8.775  16.040  -8.251  1.00  0.00    -0.237 OA
ATOM     73  O   UNL     1      11.003  14.995  -8.364  1.00  0.00    -0.744 OA
ENDBRANCH  69  70
ENDBRANCH  43  64
ENDBRANCH  17  18
ENDBRANCH  10  12
ENDBRANCH   7   8
ENDBRANCH   6   7
ENDBRANCH   5   6
ENDBRANCH   1   5
BRANCH   2  74
ATOM     74  C   UNL     1       5.304  -3.810   4.417  1.00  0.00     0.174 C 
ATOM     75  C   UNL     1       4.661  -4.253   5.738  1.00  0.00     0.037 C 
ATOM     76  N   UNL     1       5.672  -2.417   4.598  1.00  0.00    -0.329 N 
ATOM     77  C   UNL     1       4.888  -3.137   6.740  1.00  0.00     0.024 C 
ATOM     78  C   UNL     1       5.387  -1.952   5.946  1.00  0.00     0.120 C 
BRANCH  76  79
ATOM     79  C   UNL     1       6.419  -1.597   3.787  1.00  0.00     0.246 C 
ATOM     80  O   UNL     1       6.673  -0.449   4.194  1.00  0.00    -0.272 OA
BRANCH  79  81
ATOM     81  C   UNL     1       6.965  -1.977   2.377  1.00  0.00     0.178 C 
ATOM     82  C   UNL     1       6.343  -3.038   1.483  1.00  0.00     0.037 C 
ATOM     83  N   UNL     1       8.381  -2.276   2.192  1.00  0.00    -0.296 N 
ATOM     84  C   UNL     1       7.251  -3.006   0.258  1.00  0.00     0.024 C 
ATOM     85  C   UNL     1       8.630  -2.875   0.891  1.00  0.00     0.124 C 
BRANCH  83  86
ATOM     86  C   UNL     1       9.389  -1.825   2.991  1.00  0.00     0.410 C 
ATOM     87  O   UNL     1      10.522  -1.577   2.593  1.00  0.00    -0.224 OA
BRANCH  86  88
ATOM     88  O   UNL     1       9.005  -1.846   4.288  1.00  0.00    -0.448 OA
BRANCH  88  89
ATOM     89  C   UNL     1      10.007  -1.729   5.308  1.00  0.00     0.248 C 
BRANCH  89  90
ATOM     90  C   UNL     1      10.520  -3.108   5.766  1.00  0.00     0.088 C 
ATOM     91  C   UNL     1       9.440  -4.083   6.240  1.00  0.00    -0.029 A 
ATOM     92  C   UNL     1      11.164  -3.903   4.636  1.00  0.00    -0.029 A 
ATOM     93  C   UNL     1       8.617  -3.997   7.351  1.00  0.00     0.005 A 
ATOM     94  C   UNL     1       9.426  -5.232   5.416  1.00  0.00    -0.014 A 
ATOM     95  C   UNL     1      10.452  -5.098   4.406  1.00  0.00    -0.014 A 
ATOM     96  C   UNL     1      12.246  -3.544   3.849  1.00  0.00     0.005 A 
ATOM     97  C   UNL     1       7.787  -5.085   7.643  1.00  0.00     0.000 A 
ATOM     98  C   UNL     1       8.574  -6.292   5.683  1.00  0.00     0.009 A 
ATOM     99  C   UNL     1      10.787  -5.920   3.344  1.00  0.00     0.009 A 
ATOM    100  C   UNL     1      12.575  -4.367   2.772  1.00  0.00     0.000 A 
ATOM    101  C   UNL     1       7.756  -6.216   6.812  1.00  0.00     0.001 A 
ATOM    102  C   UNL     1      11.848  -5.540   2.517  1.00  0.00     0.001 A 
ENDBRANCH  89  90
ENDBRANCH  88  89
ENDBRANCH  86  88
ENDBRANCH  83  86
ENDBRANCH  79  81
ENDBRANCH  76  79
ENDBRANCH   2  74
TORSDOF 19
