REMARK SMILES COC(=O)c1sc(SCC(=O)NCCCNC(=O)c2ccc(-c3c4nc(c(-c5ccc(S(=O)(=O)[O-])cc5)c5ccc([nH]5)c(-c5ccc(S(=O)(=O)[O-])cc5)c5nc(c(-c6ccc(S(=O)(=O)[O-])cc6)c6ccc3[nH]6)C=C5)C=C4)cc2)c(NC(=O)c2ccccc2)c1O
REMARK SMILES IDX 13 1 12 2 10 3 11 4 9 6 8 7 7 8 5 9 6 10 89 11 79 12 3 13
REMARK SMILES IDX 4 14 2 15 1 16 90 17 80 19 81 20 82 22 83 23 84 24 88 25
REMARK SMILES IDX 85 26 87 27 86 28 14 29 15 30 16 31 17 32 18 34 19 35 20 36
REMARK SMILES IDX 78 37 21 38 77 39 22 40 23 41 24 42 71 43 25 44 76 45 70 46
REMARK SMILES IDX 72 47 26 48 75 49 69 50 68 51 27 53 57 54 38 55 56 56 39 57
REMARK SMILES IDX 42 58 55 59 73 60 40 61 41 62 54 64 74 65 43 66 28 67 29 68
REMARK SMILES IDX 37 69 30 70 36 71 31 72 32 73 33 74 34 75 35 76 58 77 59 78
REMARK SMILES IDX 67 79 60 80 66 81 61 82 62 83 63 84 64 85 65 86 44 87 45 88
REMARK SMILES IDX 53 89 46 90 52 91 47 92 48 93 49 94 50 95 51 96
REMARK H PARENT 12 5 90 18 80 21 16 33 72 52 42 63
REMARK Flexibility Score: inf
ROOT
ATOM      1  C   UNL     1       0.108  -4.352 -10.020  1.00  0.00     0.117 C 
ENDROOT
BRANCH   1   2
ATOM      2  N   UNL     1      -1.116  -4.138  -9.269  1.00  0.00    -0.355 N 
ATOM      3  C   UNL     1      -1.864  -3.006  -9.054  1.00  0.00     0.230 C 
ATOM      4  O   UNL     1      -3.006  -3.212  -8.631  1.00  0.00    -0.274 OA
ATOM      5  H   UNL     1      -1.473  -4.948  -8.837  1.00  0.00     0.163 HD
BRANCH   3   6
ATOM      6  C   UNL     1      -1.260  -1.438  -9.511  1.00  0.00     0.175 C 
BRANCH   6   7
ATOM      7  S   UNL     1      -0.563   0.565  -8.028  1.00  0.00    -0.103 SA
BRANCH   7   8
ATOM      8  C   UNL     1      -0.548   0.369  -6.188  1.00  0.00     0.089 A 
ATOM      9  C   UNL     1       0.231   0.406  -3.804  1.00  0.00     0.157 A 
ATOM     10  S   UNL     1       0.879   0.851  -5.332  1.00  0.00    -0.116 S 
ATOM     11  C   UNL     1      -1.056  -0.062  -3.950  1.00  0.00     0.166 A 
ATOM     12  C   UNL     1      -1.528  -0.063  -5.293  1.00  0.00     0.109 A 
BRANCH   9  13
ATOM     13  C   UNL     1       1.027   0.566  -2.602  1.00  0.00     0.352 C 
ATOM     14  O   UNL     1       2.107   1.137  -2.508  1.00  0.00    -0.245 OA
BRANCH  13  15
ATOM     15  O   UNL     1       0.366  -0.011  -1.552  1.00  0.00    -0.465 OA
ATOM     16  C   UNL     1       0.988   0.117  -0.269  1.00  0.00     0.282 C 
ENDBRANCH  13  15
ENDBRANCH   9  13
BRANCH  11  17
ATOM     17  O   UNL     1      -1.828  -0.508  -2.933  1.00  0.00    -0.504 OA
ATOM     18  H   UNL     1      -1.498  -0.498  -2.056  1.00  0.00     0.293 HD
ENDBRANCH  11  17
BRANCH  12  19
ATOM     19  N   UNL     1      -2.821  -0.504  -5.561  1.00  0.00    -0.317 N 
ATOM     20  C   UNL     1      -3.345  -0.751  -6.793  1.00  0.00     0.255 C 
ATOM     21  H   UNL     1      -3.412  -0.651  -4.787  1.00  0.00     0.170 HD
ATOM     22  O   UNL     1      -4.541  -0.814  -7.036  1.00  0.00    -0.269 OA
BRANCH  20  23
ATOM     23  C   UNL     1      -2.352  -0.869  -7.857  1.00  0.00     0.040 A 
ATOM     24  C   UNL     1      -2.546   0.245  -9.247  1.00  0.00     0.014 A 
ATOM     25  C   UNL     1      -0.738  -1.699  -7.550  1.00  0.00     0.014 A 
ATOM     26  C   UNL     1      -1.148   0.540 -10.335  1.00  0.00     0.001 A 
ATOM     27  C   UNL     1       0.650  -1.346  -8.645  1.00  0.00     0.001 A 
ATOM     28  C   UNL     1       0.439  -0.219 -10.026  1.00  0.00     0.000 A 
ENDBRANCH  20  23
ENDBRANCH  12  19
ENDBRANCH   7   8
ENDBRANCH   6   7
ENDBRANCH   3   6
ENDBRANCH   1   2
BRANCH   1  29
ATOM     29  C   UNL     1       1.352  -4.480  -9.142  1.00  0.00     0.042 C 
BRANCH  29  30
ATOM     30  C   UNL     1       1.436  -5.809  -8.435  1.00  0.00     0.118 C 
BRANCH  30  31
ATOM     31  N   UNL     1       1.648  -6.938  -9.337  1.00  0.00    -0.352 N 
ATOM     32  C   UNL     1       1.935  -8.245  -8.987  1.00  0.00     0.251 C 
ATOM     33  H   UNL     1       1.579  -6.748 -10.300  1.00  0.00     0.163 HD
ATOM     34  O   UNL     1       2.385  -9.031  -9.812  1.00  0.00    -0.269 OA
BRANCH  32  35
ATOM     35  C   UNL     1       1.690  -8.655  -7.593  1.00  0.00     0.039 A 
ATOM     36  C   UNL     1       2.566  -9.486  -6.894  1.00  0.00     0.014 A 
ATOM     37  C   UNL     1       0.571  -8.116  -6.968  1.00  0.00     0.014 A 
ATOM     38  C   UNL     1       2.324  -9.710  -5.541  1.00  0.00     0.010 A 
ATOM     39  C   UNL     1       0.488  -8.125  -5.609  1.00  0.00     0.010 A 
ATOM     40  C   UNL     1       1.285  -9.011  -4.907  1.00  0.00    -0.014 A 
BRANCH  40  41
ATOM     41  C   UNL     1       1.023  -9.129  -3.484  1.00  0.00     0.031 A 
ATOM     42  C   UNL     1       2.182  -8.782  -2.630  1.00  0.00     0.074 A 
ATOM     43  C   UNL     1      -0.223  -9.298  -2.988  1.00  0.00     0.049 A 
ATOM     44  N   UNL     1       2.983  -9.596  -2.030  1.00  0.00    -0.248 NA
ATOM     45  C   UNL     1       2.627  -7.378  -2.601  1.00  0.00     0.031 C 
ATOM     46  C   UNL     1      -1.509  -9.289  -3.703  1.00  0.00     0.029 A 
ATOM     47  N   UNL     1      -0.614  -9.393  -1.694  1.00  0.00    -0.354 N 
ATOM     48  C   UNL     1       3.869  -8.793  -1.323  1.00  0.00     0.074 A 
ATOM     49  C   UNL     1       3.764  -7.481  -1.909  1.00  0.00     0.031 C 
ATOM     50  C   UNL     1      -2.520  -9.122  -2.821  1.00  0.00     0.029 A 
ATOM     51  C   UNL     1      -1.976  -9.212  -1.480  1.00  0.00     0.049 A 
ATOM     52  H   UNL     1       0.018  -9.575  -0.962  1.00  0.00     0.167 HD
ATOM     53  C   UNL     1       4.379  -9.195  -0.124  1.00  0.00     0.031 A 
ATOM     54  C   UNL     1      -2.600  -9.119  -0.280  1.00  0.00     0.031 A 
ATOM     55  C   UNL     1       4.091 -10.589   0.123  1.00  0.00     0.049 A 
ATOM     56  C   UNL     1      -1.679  -9.711   0.724  1.00  0.00     0.074 A 
ATOM     57  C   UNL     1       4.369 -11.773  -0.531  1.00  0.00     0.029 A 
ATOM     58  N   UNL     1       3.036 -10.856   0.968  1.00  0.00    -0.354 N 
ATOM     59  N   UNL     1      -1.339 -10.972   0.728  1.00  0.00    -0.248 NA
ATOM     60  C   UNL     1      -0.759  -8.819   1.411  1.00  0.00     0.031 C 
ATOM     61  C   UNL     1       3.179 -12.550  -0.400  1.00  0.00     0.029 A 
ATOM     62  C   UNL     1       2.275 -11.842   0.397  1.00  0.00     0.049 A 
ATOM     63  H   UNL     1       2.860 -10.415   1.830  1.00  0.00     0.167 HD
ATOM     64  C   UNL     1       0.018 -10.976   1.024  1.00  0.00     0.074 A 
ATOM     65  C   UNL     1       0.296  -9.631   1.527  1.00  0.00     0.031 C 
ATOM     66  C   UNL     1       0.841 -11.969   0.569  1.00  0.00     0.031 A 
BRANCH  53  67
ATOM     67  C   UNL     1       4.722  -8.254   1.007  1.00  0.00    -0.014 A 
ATOM     68  C   UNL     1       5.233  -8.802   2.202  1.00  0.00     0.010 A 
ATOM     69  C   UNL     1       4.308  -6.907   1.052  1.00  0.00     0.010 A 
ATOM     70  C   UNL     1       5.235  -8.072   3.397  1.00  0.00     0.020 A 
ATOM     71  C   UNL     1       4.348  -6.155   2.227  1.00  0.00     0.020 A 
ATOM     72  C   UNL     1       4.775  -6.756   3.401  1.00  0.00     0.054 A 
BRANCH  72  73
ATOM     73  S   UNL     1       4.670  -5.857   4.966  1.00  0.00     0.124 S 
ATOM     74  O   UNL     1       3.644  -6.613   5.676  1.00  0.00    -0.237 OA
ATOM     75  O   UNL     1       6.029  -5.984   5.484  1.00  0.00    -0.237 OA
ATOM     76  O   UNL     1       4.286  -4.507   4.558  1.00  0.00    -0.744 OA
ENDBRANCH  72  73
ENDBRANCH  53  67
BRANCH  54  77
ATOM     77  C   UNL     1      -3.763  -8.271   0.087  1.00  0.00    -0.014 A 
ATOM     78  C   UNL     1      -4.468  -8.483   1.287  1.00  0.00     0.010 A 
ATOM     79  C   UNL     1      -4.005  -7.068  -0.609  1.00  0.00     0.010 A 
ATOM     80  C   UNL     1      -5.332  -7.500   1.803  1.00  0.00     0.020 A 
ATOM     81  C   UNL     1      -4.867  -6.086  -0.102  1.00  0.00     0.020 A 
ATOM     82  C   UNL     1      -5.509  -6.296   1.115  1.00  0.00     0.054 A 
BRANCH  82  83
ATOM     83  S   UNL     1      -6.479  -4.960   1.880  1.00  0.00     0.124 S 
ATOM     84  O   UNL     1      -7.841  -5.477   1.798  1.00  0.00    -0.237 OA
ATOM     85  O   UNL     1      -5.911  -4.882   3.223  1.00  0.00    -0.237 OA
ATOM     86  O   UNL     1      -6.200  -3.804   1.029  1.00  0.00    -0.744 OA
ENDBRANCH  82  83
ENDBRANCH  54  77
BRANCH  66  87
ATOM     87  C   UNL     1       0.219 -13.229   0.010  1.00  0.00    -0.014 A 
ATOM     88  C   UNL     1      -0.589 -13.275  -1.143  1.00  0.00     0.010 A 
ATOM     89  C   UNL     1       0.618 -14.444   0.596  1.00  0.00     0.010 A 
ATOM     90  C   UNL     1      -0.998 -14.508  -1.682  1.00  0.00     0.020 A 
ATOM     91  C   UNL     1       0.231 -15.671   0.055  1.00  0.00     0.020 A 
ATOM     92  C   UNL     1      -0.582 -15.699  -1.077  1.00  0.00     0.054 A 
BRANCH  92  93
ATOM     93  S   UNL     1      -1.067 -17.293  -1.798  1.00  0.00     0.124 S 
ATOM     94  O   UNL     1      -2.505 -17.330  -1.548  1.00  0.00    -0.237 OA
ATOM     95  O   UNL     1      -0.673 -17.151  -3.198  1.00  0.00    -0.237 OA
ATOM     96  O   UNL     1      -0.284 -18.270  -1.041  1.00  0.00    -0.744 OA
ENDBRANCH  92  93
ENDBRANCH  66  87
ENDBRANCH  40  41
ENDBRANCH  32  35
ENDBRANCH  30  31
ENDBRANCH  29  30
ENDBRANCH   1  29
TORSDOF 20
