REMARK SMILES CC[NH+]1CC[NH+]([C@@H]2CC(=O)N(c3ccc(C(=O)NCCCNC(=O)c4ccc(-c5c6nc(c(-c7ccc(S(=O)(=O)[O-])cc7)c7ccc([nH]7)c(-c7ccc(S(=O)(=O)[O-])cc7)c7nc(c(-c8ccc(S(=O)(=O)[O-])cc8)c8ccc5[nH]8)C=C7)C=C6)cc4)cc3)C2=O)CC1
REMARK SMILES IDX 20 1 19 2 18 3 16 4 17 5 15 7 12 8 13 9 86 10 14 11 85 12
REMARK SMILES IDX 11 13 7 14 8 15 87 16 9 17 88 18 10 19 6 20 3 21 4 22 90 23
REMARK SMILES IDX 5 25 89 26 2 28 1 29 21 30 22 31 23 32 24 34 25 35 26 36
REMARK SMILES IDX 84 37 27 38 83 39 28 40 29 41 30 42 77 43 31 44 82 45 76 46
REMARK SMILES IDX 78 47 32 48 81 49 75 50 74 51 33 53 63 54 44 55 62 56 45 57
REMARK SMILES IDX 48 58 61 59 79 60 46 61 47 62 60 64 80 65 49 66 34 67 35 68
REMARK SMILES IDX 43 69 36 70 42 71 37 72 38 73 39 74 40 75 41 76 64 77 65 78
REMARK SMILES IDX 73 79 66 80 72 81 67 82 68 83 69 84 70 85 71 86 50 87 51 88
REMARK SMILES IDX 59 89 52 90 58 91 53 92 54 93 55 94 56 95 57 96
REMARK H PARENT 18 6 3 24 6 27 22 33 78 52 48 63
REMARK Flexibility Score: inf
ROOT
ATOM      1  C   UNL     1      -1.062  -4.541  12.777  1.00  0.00     0.042 C 
ENDROOT
BRANCH   1   2
ATOM      2  C   UNL     1      -0.972  -5.603  11.678  1.00  0.00     0.118 C 
BRANCH   2   3
ATOM      3  N   UNL     1      -2.281  -5.921  11.140  1.00  0.00    -0.352 N 
ATOM      4  C   UNL     1      -2.954  -5.465  10.036  1.00  0.00     0.251 C 
ATOM      5  O   UNL     1      -4.041  -5.983   9.775  1.00  0.00    -0.269 OA
ATOM      6  H   UNL     1      -2.779  -6.588  11.666  1.00  0.00     0.163 HD
BRANCH   4   7
ATOM      7  C   UNL     1      -2.417  -4.413   9.129  1.00  0.00     0.039 A 
ATOM      8  C   UNL     1      -1.480  -2.486   7.301  1.00  0.00     0.052 A 
ATOM      9  C   UNL     1      -2.502  -3.365   6.931  1.00  0.00     0.027 A 
ATOM     10  C   UNL     1      -0.949  -2.559   8.585  1.00  0.00     0.027 A 
ATOM     11  C   UNL     1      -2.944  -4.342   7.831  1.00  0.00     0.016 A 
ATOM     12  C   UNL     1      -1.456  -3.472   9.501  1.00  0.00     0.016 A 
BRANCH   8  13
ATOM     13  N   UNL     1      -1.005  -1.494   6.430  1.00  0.00    -0.245 N 
ATOM     14  C   UNL     1      -0.942   0.214   4.829  1.00  0.00     0.285 C 
ATOM     15  C   UNL     1       0.449   0.021   5.420  1.00  0.00     0.176 C 
ATOM     16  C   UNL     1      -1.829  -0.699   5.667  1.00  0.00     0.292 C 
ATOM     17  C   UNL     1       0.319  -1.166   6.312  1.00  0.00     0.240 C 
ATOM     18  O   UNL     1      -3.047  -0.695   5.643  1.00  0.00    -0.267 OA
ATOM     19  O   UNL     1       1.289  -1.725   6.814  1.00  0.00    -0.274 OA
BRANCH  14  20
ATOM     20  N   UNL     1      -1.175  -0.022   3.394  1.00  0.00    -0.315 N 
ATOM     21  N   UNL     1       1.026  -0.922   1.548  1.00  0.00    -0.326 N 
ATOM     22  C   UNL     1       0.927   0.465   2.041  1.00  0.00     0.324 C 
ATOM     23  C   UNL     1       0.358  -1.843   2.493  1.00  0.00     0.324 C 
ATOM     24  H   UNL     1       2.022  -1.135   1.491  1.00  0.00     0.348 HD
ATOM     25  C   UNL     1      -0.478   0.911   2.501  1.00  0.00     0.325 C 
ATOM     26  C   UNL     1      -1.062  -1.407   2.916  1.00  0.00     0.325 C 
ATOM     27  H   UNL     1      -2.173   0.182   3.338  1.00  0.00     0.349 HD
BRANCH  21  28
ATOM     28  C   UNL     1       0.490  -1.111   0.192  1.00  0.00     0.259 C 
ATOM     29  C   UNL     1       1.126  -0.203  -0.854  1.00  0.00     0.071 C 
ENDBRANCH  21  28
ENDBRANCH  14  20
ENDBRANCH   8  13
ENDBRANCH   4   7
ENDBRANCH   2   3
ENDBRANCH   1   2
BRANCH   1  30
ATOM     30  C   UNL     1      -1.573  -5.091  14.101  1.00  0.00     0.118 C 
BRANCH  30  31
ATOM     31  N   UNL     1      -0.646  -6.057  14.663  1.00  0.00    -0.352 N 
ATOM     32  C   UNL     1      -0.018  -6.079  15.878  1.00  0.00     0.251 C 
ATOM     33  H   UNL     1      -0.435  -6.818  14.075  1.00  0.00     0.163 HD
ATOM     34  O   UNL     1       0.937  -6.837  16.033  1.00  0.00    -0.269 OA
BRANCH  32  35
ATOM     35  C   UNL     1      -0.475  -5.221  16.993  1.00  0.00     0.039 A 
ATOM     36  C   UNL     1       0.481  -4.760  17.901  1.00  0.00     0.014 A 
ATOM     37  C   UNL     1      -1.829  -4.938  17.202  1.00  0.00     0.014 A 
ATOM     38  C   UNL     1       0.082  -4.010  19.006  1.00  0.00     0.010 A 
ATOM     39  C   UNL     1      -2.216  -4.118  18.260  1.00  0.00     0.010 A 
ATOM     40  C   UNL     1      -1.268  -3.669  19.187  1.00  0.00    -0.014 A 
BRANCH  40  41
ATOM     41  C   UNL     1      -1.679  -2.848  20.352  1.00  0.00     0.031 A 
ATOM     42  C   UNL     1      -2.576  -3.418  21.418  1.00  0.00     0.074 A 
ATOM     43  C   UNL     1      -1.246  -1.575  20.438  1.00  0.00     0.049 A 
ATOM     44  N   UNL     1      -2.973  -2.869  22.537  1.00  0.00    -0.248 NA
ATOM     45  C   UNL     1      -3.117  -4.768  21.189  1.00  0.00     0.031 C 
ATOM     46  C   UNL     1      -0.427  -0.893  19.432  1.00  0.00     0.029 A 
ATOM     47  N   UNL     1      -1.423  -0.633  21.417  1.00  0.00    -0.354 N 
ATOM     48  C   UNL     1      -3.818  -3.796  23.137  1.00  0.00     0.074 A 
ATOM     49  C   UNL     1      -3.917  -4.921  22.234  1.00  0.00     0.031 C 
ATOM     50  C   UNL     1      -0.139   0.343  19.866  1.00  0.00     0.029 A 
ATOM     51  C   UNL     1      -0.775   0.552  21.162  1.00  0.00     0.049 A 
ATOM     52  H   UNL     1      -1.962  -0.790  22.226  1.00  0.00     0.167 HD
ATOM     53  C   UNL     1      -4.441  -3.724  24.338  1.00  0.00     0.031 A 
ATOM     54  C   UNL     1      -0.694   1.680  21.892  1.00  0.00     0.031 A 
ATOM     55  C   UNL     1      -4.332  -2.600  25.232  1.00  0.00     0.049 A 
ATOM     56  C   UNL     1      -1.359   1.722  23.239  1.00  0.00     0.074 A 
ATOM     57  C   UNL     1      -4.864  -2.454  26.501  1.00  0.00     0.029 A 
ATOM     58  N   UNL     1      -3.651  -1.425  24.947  1.00  0.00    -0.354 N 
ATOM     59  N   UNL     1      -2.078   0.799  23.831  1.00  0.00    -0.248 NA
ATOM     60  C   UNL     1      -1.178   2.948  24.026  1.00  0.00     0.031 C 
ATOM     61  C   UNL     1      -4.554  -1.168  26.959  1.00  0.00     0.029 A 
ATOM     62  C   UNL     1      -3.771  -0.539  26.004  1.00  0.00     0.049 A 
ATOM     63  H   UNL     1      -3.155  -1.248  24.115  1.00  0.00     0.167 HD
ATOM     64  C   UNL     1      -2.420   1.324  25.072  1.00  0.00     0.074 A 
ATOM     65  C   UNL     1      -1.806   2.635  25.151  1.00  0.00     0.031 C 
ATOM     66  C   UNL     1      -3.171   0.771  26.058  1.00  0.00     0.031 A 
BRANCH  53  67
ATOM     67  C   UNL     1      -5.309  -4.888  24.746  1.00  0.00    -0.014 A 
ATOM     68  C   UNL     1      -4.756  -6.147  25.048  1.00  0.00     0.010 A 
ATOM     69  C   UNL     1      -6.701  -4.714  24.857  1.00  0.00     0.010 A 
ATOM     70  C   UNL     1      -5.580  -7.218  25.405  1.00  0.00     0.020 A 
ATOM     71  C   UNL     1      -7.526  -5.774  25.244  1.00  0.00     0.020 A 
ATOM     72  C   UNL     1      -6.961  -7.026  25.496  1.00  0.00     0.054 A 
BRANCH  72  73
ATOM     73  S   UNL     1      -8.006  -8.430  25.973  1.00  0.00     0.124 S 
ATOM     74  O   UNL     1      -7.969  -9.256  24.769  1.00  0.00    -0.237 OA
ATOM     75  O   UNL     1      -7.301  -8.976  27.130  1.00  0.00    -0.237 OA
ATOM     76  O   UNL     1      -9.299  -7.817  26.267  1.00  0.00    -0.744 OA
ENDBRANCH  72  73
ENDBRANCH  53  67
BRANCH  54  77
ATOM     77  C   UNL     1       0.073   2.841  21.366  1.00  0.00    -0.014 A 
ATOM     78  C   UNL     1       1.307   3.207  21.931  1.00  0.00     0.010 A 
ATOM     79  C   UNL     1      -0.413   3.562  20.259  1.00  0.00     0.010 A 
ATOM     80  C   UNL     1       2.036   4.278  21.406  1.00  0.00     0.020 A 
ATOM     81  C   UNL     1       0.327   4.614  19.713  1.00  0.00     0.020 A 
ATOM     82  C   UNL     1       1.544   4.971  20.296  1.00  0.00     0.054 A 
BRANCH  82  83
ATOM     83  S   UNL     1       2.540   6.311  19.587  1.00  0.00     0.124 S 
ATOM     84  O   UNL     1       2.373   7.371  20.575  1.00  0.00    -0.237 OA
ATOM     85  O   UNL     1       3.871   5.712  19.518  1.00  0.00    -0.237 OA
ATOM     86  O   UNL     1       1.910   6.556  18.291  1.00  0.00    -0.744 OA
ENDBRANCH  82  83
ENDBRANCH  54  77
BRANCH  66  87
ATOM     87  C   UNL     1      -3.346   1.579  27.318  1.00  0.00    -0.014 A 
ATOM     88  C   UNL     1      -4.118   2.755  27.333  1.00  0.00     0.010 A 
ATOM     89  C   UNL     1      -2.735   1.145  28.508  1.00  0.00     0.010 A 
ATOM     90  C   UNL     1      -4.227   3.513  28.502  1.00  0.00     0.020 A 
ATOM     91  C   UNL     1      -2.869   1.882  29.687  1.00  0.00     0.020 A 
ATOM     92  C   UNL     1      -3.594   3.075  29.670  1.00  0.00     0.054 A 
BRANCH  92  93
ATOM     93  S   UNL     1      -3.746   4.076  31.174  1.00  0.00     0.124 S 
ATOM     94  O   UNL     1      -2.855   5.195  30.884  1.00  0.00    -0.237 OA
ATOM     95  O   UNL     1      -5.171   4.398  31.204  1.00  0.00    -0.237 OA
ATOM     96  O   UNL     1      -3.295   3.178  32.235  1.00  0.00    -0.744 OA
ENDBRANCH  92  93
ENDBRANCH  66  87
ENDBRANCH  40  41
ENDBRANCH  32  35
ENDBRANCH  30  31
ENDBRANCH   1  30
TORSDOF 16
