REMARK SMILES C[C@@H]1CN(C(=O)Nc2ccc(O)c(C(=O)NCCCNC(=O)c3ccc(-c4c5nc(c(-c6ccc(S(=O)(=O)[O-])cc6)c6ccc([nH]6)c(-c6ccc(S(=O)(=O)[O-])cc6)c6nc(c(-c7ccc(S(=O)(=O)[O-])cc7)c7ccc4[nH]7)C=C6)C=C5)cc3)c2)C[C@@H]1C
REMARK SMILES IDX 18 1 17 2 16 3 14 4 15 5 13 7 8 8 9 9 83 10 10 11 11 12 7 13
REMARK SMILES IDX 5 14 6 15 4 17 1 18 2 19 3 20 85 21 84 22 86 23 12 24 19 26
REMARK SMILES IDX 20 27 21 28 22 30 23 31 24 32 82 33 25 34 81 35 26 36 27 37
REMARK SMILES IDX 28 38 75 39 29 40 80 41 74 42 76 43 30 44 79 45 73 46 72 47
REMARK SMILES IDX 31 49 61 50 42 51 60 52 43 53 46 54 59 55 77 56 44 57 45 58
REMARK SMILES IDX 58 60 78 61 47 62 32 63 33 64 41 65 34 66 40 67 35 68 36 69
REMARK SMILES IDX 37 70 38 71 39 72 62 73 63 74 71 75 64 76 70 77 65 78 66 79
REMARK SMILES IDX 67 80 68 81 69 82 48 83 49 84 57 85 50 86 56 87 51 88 52 89
REMARK SMILES IDX 53 90 54 91 55 92
REMARK H PARENT 16 6 7 16 12 25 20 29 76 48 46 59
REMARK Flexibility Score: inf
ROOT
ATOM      1  C   UNL     1       4.153   5.868   3.674  1.00  0.00     0.042 C 
ENDROOT
BRANCH   1   2
ATOM      2  C   UNL     1       4.571   4.656   2.843  1.00  0.00     0.118 C 
BRANCH   2   3
ATOM      3  N   UNL     1       5.450   3.777   3.588  1.00  0.00    -0.352 N 
ATOM      4  C   UNL     1       5.226   2.614   4.275  1.00  0.00     0.255 C 
ATOM      5  O   UNL     1       6.217   2.071   4.775  1.00  0.00    -0.269 OA
ATOM      6  H   UNL     1       6.389   4.074   3.603  1.00  0.00     0.163 HD
BRANCH   4   7
ATOM      7  C   UNL     1       3.917   1.909   4.389  1.00  0.00     0.083 A 
ATOM      8  C   UNL     1       2.877  -0.301   4.454  1.00  0.00     0.043 A 
ATOM      9  C   UNL     1       1.645   0.276   4.742  1.00  0.00     0.030 A 
ATOM     10  C   UNL     1       4.013   0.502   4.361  1.00  0.00     0.044 A 
ATOM     11  C   UNL     1       1.526   1.661   4.785  1.00  0.00     0.049 A 
ATOM     12  C   UNL     1       2.649   2.472   4.582  1.00  0.00     0.128 A 
BRANCH   8  13
ATOM     13  N   UNL     1       3.017  -1.677   4.257  1.00  0.00    -0.308 N 
ATOM     14  C   UNL     1       2.193  -2.579   3.651  1.00  0.00     0.321 C 
ATOM     15  O   UNL     1       2.315  -3.766   3.963  1.00  0.00    -0.248 OA
ATOM     16  H   UNL     1       3.850  -2.059   4.616  1.00  0.00     0.171 HD
BRANCH  14  17
ATOM     17  N   UNL     1       1.380  -2.186   2.613  1.00  0.00    -0.324 N 
ATOM     18  C   UNL     1       0.737  -0.107  -0.403  1.00  0.00     0.010 C 
ATOM     19  C   UNL     1       0.463  -1.115   0.700  1.00  0.00     0.010 C 
ATOM     20  C   UNL     1       1.338  -0.895   1.928  1.00  0.00     0.125 C 
ATOM     21  C   UNL     1       0.676  -2.602   0.388  1.00  0.00     0.010 C 
ATOM     22  C   UNL     1       0.692  -3.193   1.809  1.00  0.00     0.125 C 
ATOM     23  C   UNL     1       1.973  -2.931  -0.358  1.00  0.00     0.010 C 
ENDBRANCH  14  17
ENDBRANCH   8  13
BRANCH  12  24
ATOM     24  O   UNL     1       2.443   3.815   4.618  1.00  0.00    -0.507 OA
ATOM     25  H   UNL     1       1.580   4.154   4.749  1.00  0.00     0.293 HD
ENDBRANCH  12  24
ENDBRANCH   4   7
ENDBRANCH   2   3
ENDBRANCH   1   2
BRANCH   1  26
ATOM     26  C   UNL     1       5.233   6.926   3.847  1.00  0.00     0.118 C 
BRANCH  26  27
ATOM     27  N   UNL     1       5.432   7.715   2.646  1.00  0.00    -0.352 N 
ATOM     28  C   UNL     1       5.302   9.068   2.444  1.00  0.00     0.251 C 
ATOM     29  H   UNL     1       5.701   7.201   1.851  1.00  0.00     0.163 HD
ATOM     30  O   UNL     1       5.313   9.496   1.292  1.00  0.00    -0.269 OA
BRANCH  28  31
ATOM     31  C   UNL     1       5.138  10.012   3.579  1.00  0.00     0.039 A 
ATOM     32  C   UNL     1       4.328  11.139   3.395  1.00  0.00     0.014 A 
ATOM     33  C   UNL     1       5.819   9.849   4.789  1.00  0.00     0.014 A 
ATOM     34  C   UNL     1       4.178  12.074   4.424  1.00  0.00     0.010 A 
ATOM     35  C   UNL     1       5.608  10.740   5.842  1.00  0.00     0.010 A 
ATOM     36  C   UNL     1       4.804  11.874   5.664  1.00  0.00    -0.014 A 
BRANCH  36  37
ATOM     37  C   UNL     1       4.660  12.863   6.765  1.00  0.00     0.031 A 
ATOM     38  C   UNL     1       5.860  13.636   7.250  1.00  0.00     0.074 A 
ATOM     39  C   UNL     1       3.462  13.040   7.356  1.00  0.00     0.049 A 
ATOM     40  N   UNL     1       5.941  14.514   8.216  1.00  0.00    -0.248 NA
ATOM     41  C   UNL     1       7.141  13.369   6.575  1.00  0.00     0.031 C 
ATOM     42  C   UNL     1       2.231  12.328   7.006  1.00  0.00     0.029 A 
ATOM     43  N   UNL     1       3.083  13.875   8.378  1.00  0.00    -0.354 N 
ATOM     44  C   UNL     1       7.279  14.887   8.280  1.00  0.00     0.074 A 
ATOM     45  C   UNL     1       7.982  14.108   7.284  1.00  0.00     0.031 C 
ATOM     46  C   UNL     1       1.230  12.774   7.782  1.00  0.00     0.029 A 
ATOM     47  C   UNL     1       1.751  13.779   8.703  1.00  0.00     0.049 A 
ATOM     48  H   UNL     1       3.707  14.485   8.834  1.00  0.00     0.167 HD
ATOM     49  C   UNL     1       7.870  15.808   9.080  1.00  0.00     0.031 A 
ATOM     50  C   UNL     1       1.027  14.428   9.637  1.00  0.00     0.031 A 
ATOM     51  C   UNL     1       7.167  16.598  10.056  1.00  0.00     0.049 A 
ATOM     52  C   UNL     1       1.698  15.463  10.497  1.00  0.00     0.074 A 
ATOM     53  C   UNL     1       7.665  17.590  10.882  1.00  0.00     0.029 A 
ATOM     54  N   UNL     1       5.813  16.489  10.333  1.00  0.00    -0.354 N 
ATOM     55  N   UNL     1       2.955  15.837  10.505  1.00  0.00    -0.248 NA
ATOM     56  C   UNL     1       0.849  16.176  11.461  1.00  0.00     0.031 C 
ATOM     57  C   UNL     1       6.618  18.058  11.684  1.00  0.00     0.029 A 
ATOM     58  C   UNL     1       5.459  17.390  11.323  1.00  0.00     0.049 A 
ATOM     59  H   UNL     1       5.194  15.863   9.891  1.00  0.00     0.167 HD
ATOM     60  C   UNL     1       3.042  16.850  11.454  1.00  0.00     0.074 A 
ATOM     61  C   UNL     1       1.708  17.036  11.990  1.00  0.00     0.031 C 
ATOM     62  C   UNL     1       4.126  17.565  11.842  1.00  0.00     0.031 A 
BRANCH  49  63
ATOM     63  C   UNL     1       9.356  16.006   8.932  1.00  0.00    -0.014 A 
ATOM     64  C   UNL     1       9.894  16.629   7.791  1.00  0.00     0.010 A 
ATOM     65  C   UNL     1      10.224  15.591   9.958  1.00  0.00     0.010 A 
ATOM     66  C   UNL     1      11.276  16.791   7.658  1.00  0.00     0.020 A 
ATOM     67  C   UNL     1      11.605  15.776   9.840  1.00  0.00     0.020 A 
ATOM     68  C   UNL     1      12.124  16.358   8.681  1.00  0.00     0.054 A 
BRANCH  68  69
ATOM     69  S   UNL     1      13.912  16.591   8.489  1.00  0.00     0.124 S 
ATOM     70  O   UNL     1      14.251  15.540   7.533  1.00  0.00    -0.237 OA
ATOM     71  O   UNL     1      14.007  17.957   7.981  1.00  0.00    -0.237 OA
ATOM     72  O   UNL     1      14.434  16.396   9.840  1.00  0.00    -0.744 OA
ENDBRANCH  68  69
ENDBRANCH  49  63
BRANCH  50  73
ATOM     73  C   UNL     1      -0.425  14.139   9.780  1.00  0.00    -0.014 A 
ATOM     74  C   UNL     1      -1.383  15.069   9.341  1.00  0.00     0.010 A 
ATOM     75  C   UNL     1      -0.857  12.920  10.334  1.00  0.00     0.010 A 
ATOM     76  C   UNL     1      -2.748  14.793   9.466  1.00  0.00     0.020 A 
ATOM     77  C   UNL     1      -2.221  12.630  10.438  1.00  0.00     0.020 A 
ATOM     78  C   UNL     1      -3.158  13.573  10.012  1.00  0.00     0.054 A 
BRANCH  78  79
ATOM     79  S   UNL     1      -4.933  13.207  10.106  1.00  0.00     0.124 S 
ATOM     80  O   UNL     1      -5.350  14.016  11.246  1.00  0.00    -0.237 OA
ATOM     81  O   UNL     1      -5.419  13.650   8.802  1.00  0.00    -0.237 OA
ATOM     82  O   UNL     1      -4.971  11.761  10.315  1.00  0.00    -0.744 OA
ENDBRANCH  78  79
ENDBRANCH  50  73
BRANCH  62  83
ATOM     83  C   UNL     1       3.911  18.645  12.867  1.00  0.00    -0.014 A 
ATOM     84  C   UNL     1       3.685  18.334  14.219  1.00  0.00     0.010 A 
ATOM     85  C   UNL     1       3.984  19.994  12.474  1.00  0.00     0.010 A 
ATOM     86  C   UNL     1       3.501  19.355  15.155  1.00  0.00     0.020 A 
ATOM     87  C   UNL     1       3.825  21.017  13.412  1.00  0.00     0.020 A 
ATOM     88  C   UNL     1       3.569  20.690  14.745  1.00  0.00     0.054 A 
BRANCH  88  89
ATOM     89  S   UNL     1       3.363  21.999  15.983  1.00  0.00     0.124 S 
ATOM     90  O   UNL     1       1.919  21.992  16.195  1.00  0.00    -0.237 OA
ATOM     91  O   UNL     1       4.165  21.512  17.104  1.00  0.00    -0.237 OA
ATOM     92  O   UNL     1       3.891  23.189  15.319  1.00  0.00    -0.744 OA
ENDBRANCH  88  89
ENDBRANCH  62  83
ENDBRANCH  36  37
ENDBRANCH  28  31
ENDBRANCH  26  27
ENDBRANCH   1  26
TORSDOF 16
