REMARK SMILES C[C@@]1(C(=O)c2ccccc2N)[C@H](C(=O)NCCCNC(=O)c2ccc(-c3c4nc(c(-c5ccc(S(=O)(=O)[O-])cc5)c5ccc([nH]5)c(-c5ccc(S(=O)(=O)[O-])cc5)c5nc(c(-c6ccc(S(=O)(=O)[O-])cc6)c6ccc3[nH]6)C=C5)C=C4)cc2)[C@@H]1C(=O)N1CCOCC1
REMARK SMILES IDX 17 1 16 2 15 3 13 4 14 5 12 7 1 8 2 9 82 10 3 11 4 12 5 13
REMARK SMILES IDX 6 14 10 15 7 16 9 17 8 18 11 19 83 22 84 23 85 24 86 25
REMARK SMILES IDX 90 26 87 27 89 28 88 29 18 30 19 31 20 32 21 34 22 35 23 36
REMARK SMILES IDX 81 37 24 38 80 39 25 40 26 41 27 42 74 43 28 44 79 45 73 46
REMARK SMILES IDX 75 47 29 48 78 49 72 50 71 51 30 53 60 54 41 55 59 56 42 57
REMARK SMILES IDX 45 58 58 59 76 60 43 61 44 62 57 64 77 65 46 66 31 67 32 68
REMARK SMILES IDX 40 69 33 70 39 71 34 72 35 73 36 74 37 75 38 76 61 77 62 78
REMARK SMILES IDX 70 79 63 80 69 81 64 82 65 83 66 84 67 85 68 86 47 87 48 88
REMARK SMILES IDX 56 89 49 90 55 91 50 92 51 93 52 94 53 95 54 96
REMARK H PARENT 15 6 11 20 11 21 19 33 75 52 45 63
REMARK Flexibility Score: inf
ROOT
ATOM      1  C   UNL     1       1.208   3.228   4.918  1.00  0.00     0.042 C 
ENDROOT
BRANCH   1   2
ATOM      2  C   UNL     1       0.306   3.487   3.711  1.00  0.00     0.117 C 
BRANCH   2   3
ATOM      3  N   UNL     1       1.064   3.896   2.540  1.00  0.00    -0.356 N 
ATOM      4  C   UNL     1       1.154   3.462   1.245  1.00  0.00     0.224 C 
ATOM      5  O   UNL     1       1.819   4.184   0.495  1.00  0.00    -0.275 OA
ATOM      6  H   UNL     1       1.650   4.666   2.721  1.00  0.00     0.163 HD
BRANCH   4   7
ATOM      7  C   UNL     1       0.566   2.240   0.614  1.00  0.00     0.106 C 
ATOM      8  C   UNL     1       0.580  -0.353   0.281  1.00  0.00     0.022 C 
ATOM      9  C   UNL     1       0.343   0.830   1.231  1.00  0.00     0.056 C 
ATOM     10  C   UNL     1      -0.811   1.715   0.764  1.00  0.00     0.106 C 
BRANCH   9  11
ATOM     11  C   UNL     1       1.193   0.679   2.467  1.00  0.00     0.172 C 
ATOM     12  O   UNL     1       2.390   0.928   2.313  1.00  0.00    -0.293 OA
BRANCH  11  13
ATOM     13  C   UNL     1       0.778   0.127   3.796  1.00  0.00     0.041 A 
ATOM     14  C   UNL     1       1.830  -0.048   4.727  1.00  0.00     0.014 A 
ATOM     15  C   UNL     1      -0.538  -0.072   4.232  1.00  0.00     0.042 A 
ATOM     16  C   UNL     1       1.582  -0.279   6.080  1.00  0.00     0.001 A 
ATOM     17  C   UNL     1      -0.774  -0.240   5.610  1.00  0.00     0.026 A 
ATOM     18  C   UNL     1       0.272  -0.334   6.528  1.00  0.00     0.002 A 
BRANCH  15  19
ATOM     19  N   UNL     1      -1.637  -0.074   3.388  1.00  0.00    -0.398 N 
ATOM     20  H   UNL     1      -1.514   0.041   2.418  1.00  0.00     0.156 HD
ATOM     21  H   UNL     1      -2.542  -0.190   3.759  1.00  0.00     0.156 HD
ENDBRANCH  15  19
ENDBRANCH  11  13
ENDBRANCH   9  11
BRANCH  10  22
ATOM     22  C   UNL     1      -1.924   2.389   1.468  1.00  0.00     0.227 C 
ATOM     23  O   UNL     1      -1.808   3.542   1.858  1.00  0.00    -0.275 OA
ATOM     24  N   UNL     1      -3.165   1.754   1.419  1.00  0.00    -0.338 N 
ATOM     25  C   UNL     1      -3.451   0.421   0.879  1.00  0.00     0.148 C 
ATOM     26  C   UNL     1      -4.376   2.530   1.693  1.00  0.00     0.148 C 
ATOM     27  C   UNL     1      -4.354   0.529  -0.354  1.00  0.00     0.181 C 
ATOM     28  C   UNL     1      -5.223   2.599   0.414  1.00  0.00     0.181 C 
ATOM     29  O   UNL     1      -5.546   1.277  -0.062  1.00  0.00    -0.378 OA
ENDBRANCH  10  22
ENDBRANCH   4   7
ENDBRANCH   2   3
ENDBRANCH   1   2
BRANCH   1  30
ATOM     30  C   UNL     1       1.524   4.468   5.742  1.00  0.00     0.118 C 
BRANCH  30  31
ATOM     31  N   UNL     1       0.455   4.787   6.679  1.00  0.00    -0.352 N 
ATOM     32  C   UNL     1       0.150   4.370   7.952  1.00  0.00     0.251 C 
ATOM     33  H   UNL     1      -0.188   5.442   6.323  1.00  0.00     0.163 HD
ATOM     34  O   UNL     1      -0.971   4.660   8.376  1.00  0.00    -0.269 OA
BRANCH  32  35
ATOM     35  C   UNL     1       1.067   3.593   8.840  1.00  0.00     0.039 A 
ATOM     36  C   UNL     1       0.483   2.852   9.882  1.00  0.00     0.014 A 
ATOM     37  C   UNL     1       2.459   3.651   8.784  1.00  0.00     0.014 A 
ATOM     38  C   UNL     1       1.272   2.181  10.829  1.00  0.00     0.010 A 
ATOM     39  C   UNL     1       3.249   2.910   9.677  1.00  0.00     0.010 A 
ATOM     40  C   UNL     1       2.670   2.186  10.728  1.00  0.00    -0.014 A 
BRANCH  40  41
ATOM     41  C   UNL     1       3.527   1.473  11.721  1.00  0.00     0.031 A 
ATOM     42  C   UNL     1       4.524   2.228  12.571  1.00  0.00     0.074 A 
ATOM     43  C   UNL     1       3.453   0.131  11.836  1.00  0.00     0.049 A 
ATOM     44  N   UNL     1       5.390   1.765  13.440  1.00  0.00    -0.248 NA
ATOM     45  C   UNL     1       4.574   3.689  12.403  1.00  0.00     0.031 C 
ATOM     46  C   UNL     1       2.572  -0.740  11.054  1.00  0.00     0.029 A 
ATOM     47  N   UNL     1       4.136  -0.739  12.652  1.00  0.00    -0.354 N 
ATOM     48  C   UNL     1       6.109   2.867  13.890  1.00  0.00     0.074 A 
ATOM     49  C   UNL     1       5.601   4.018  13.174  1.00  0.00     0.031 C 
ATOM     50  C   UNL     1       2.752  -2.012  11.443  1.00  0.00     0.029 A 
ATOM     51  C   UNL     1       3.784  -2.056  12.475  1.00  0.00     0.049 A 
ATOM     52  H   UNL     1       4.815  -0.446  13.302  1.00  0.00     0.167 HD
ATOM     53  C   UNL     1       7.093   2.928  14.823  1.00  0.00     0.031 A 
ATOM     54  C   UNL     1       4.238  -3.179  13.066  1.00  0.00     0.031 A 
ATOM     55  C   UNL     1       7.581   1.796  15.568  1.00  0.00     0.049 A 
ATOM     56  C   UNL     1       5.298  -3.085  14.128  1.00  0.00     0.074 A 
ATOM     57  C   UNL     1       8.519   1.775  16.587  1.00  0.00     0.029 A 
ATOM     58  N   UNL     1       7.169   0.486  15.380  1.00  0.00    -0.354 N 
ATOM     59  N   UNL     1       5.918  -2.022  14.581  1.00  0.00    -0.248 NA
ATOM     60  C   UNL     1       5.706  -4.343  14.770  1.00  0.00     0.031 C 
ATOM     61  C   UNL     1       8.703   0.446  16.988  1.00  0.00     0.029 A 
ATOM     62  C   UNL     1       7.846  -0.353  16.251  1.00  0.00     0.049 A 
ATOM     63  H   UNL     1       6.495   0.195  14.725  1.00  0.00     0.167 HD
ATOM     64  C   UNL     1       6.780  -2.482  15.570  1.00  0.00     0.074 A 
ATOM     65  C   UNL     1       6.585  -3.914  15.665  1.00  0.00     0.031 C 
ATOM     66  C   UNL     1       7.655  -1.779  16.331  1.00  0.00     0.031 A 
BRANCH  53  67
ATOM     67  C   UNL     1       7.719   4.274  15.087  1.00  0.00    -0.014 A 
ATOM     68  C   UNL     1       7.013   5.287  15.760  1.00  0.00     0.010 A 
ATOM     69  C   UNL     1       9.044   4.518  14.682  1.00  0.00     0.010 A 
ATOM     70  C   UNL     1       7.601   6.537  15.976  1.00  0.00     0.020 A 
ATOM     71  C   UNL     1       9.646   5.758  14.920  1.00  0.00     0.020 A 
ATOM     72  C   UNL     1       8.911   6.768  15.546  1.00  0.00     0.054 A 
BRANCH  72  73
ATOM     73  S   UNL     1       9.654   8.397  15.841  1.00  0.00     0.124 S 
ATOM     74  O   UNL     1       9.015   9.208  14.807  1.00  0.00    -0.237 OA
ATOM     75  O   UNL     1       9.247   8.694  17.212  1.00  0.00    -0.237 OA
ATOM     76  O   UNL     1      11.084   8.164  15.655  1.00  0.00    -0.744 OA
ENDBRANCH  72  73
ENDBRANCH  53  67
BRANCH  54  77
ATOM     77  C   UNL     1       3.671  -4.497  12.673  1.00  0.00    -0.014 A 
ATOM     78  C   UNL     1       2.782  -5.173  13.527  1.00  0.00     0.010 A 
ATOM     79  C   UNL     1       3.995  -5.066  11.428  1.00  0.00     0.010 A 
ATOM     80  C   UNL     1       2.231  -6.399  13.146  1.00  0.00     0.020 A 
ATOM     81  C   UNL     1       3.427  -6.281  11.034  1.00  0.00     0.020 A 
ATOM     82  C   UNL     1       2.554  -6.944  11.899  1.00  0.00     0.054 A 
BRANCH  82  83
ATOM     83  S   UNL     1       1.766  -8.497  11.390  1.00  0.00     0.124 S 
ATOM     84  O   UNL     1       2.526  -9.486  12.148  1.00  0.00    -0.237 OA
ATOM     85  O   UNL     1       0.381  -8.304  11.811  1.00  0.00    -0.237 OA
ATOM     86  O   UNL     1       1.969  -8.522   9.943  1.00  0.00    -0.744 OA
ENDBRANCH  82  83
ENDBRANCH  54  77
BRANCH  66  87
ATOM     87  C   UNL     1       8.456  -2.549  17.347  1.00  0.00    -0.014 A 
ATOM     88  C   UNL     1       9.510  -3.392  16.954  1.00  0.00     0.010 A 
ATOM     89  C   UNL     1       8.162  -2.410  18.716  1.00  0.00     0.010 A 
ATOM     90  C   UNL     1      10.229  -4.117  17.909  1.00  0.00     0.020 A 
ATOM     91  C   UNL     1       8.894  -3.115  19.675  1.00  0.00     0.020 A 
ATOM     92  C   UNL     1       9.911  -3.980  19.264  1.00  0.00     0.054 A 
BRANCH  92  93
ATOM     93  S   UNL     1      10.866  -4.917  20.489  1.00  0.00     0.124 S 
ATOM     94  O   UNL     1      10.284  -6.251  20.370  1.00  0.00    -0.237 OA
ATOM     95  O   UNL     1      12.237  -4.785  20.002  1.00  0.00    -0.237 OA
ATOM     96  O   UNL     1      10.588  -4.225  21.745  1.00  0.00    -0.744 OA
ENDBRANCH  92  93
ENDBRANCH  66  87
ENDBRANCH  40  41
ENDBRANCH  32  35
ENDBRANCH  30  31
ENDBRANCH   1  30
TORSDOF 17
