REMARK SMILES CC(C)C[C@H](NC(=O)CNC(=O)[C@@H](NC(=O)OCc1ccccc1)C(C)C)C(=O)N[C@@H](C)C(=O)NCCCNC(=O)c1ccc(-c2c3nc(c(-c4ccc(S(=O)(=O)[O-])cc4)c4ccc([nH]4)c(-c4ccc(S(=O)(=O)[O-])cc4)c4nc(c(-c5ccc(S(=O)(=O)[O-])cc5)c5ccc2[nH]5)C=C4)C=C3)cc1
REMARK SMILES IDX 31 1 32 2 30 3 28 4 29 5 5 7 4 8 2 9 1 10 3 11 6 12 7 13
REMARK SMILES IDX 8 15 9 16 10 17 11 18 12 20 13 21 14 22 15 23 16 25 17 26
REMARK SMILES IDX 18 27 19 28 20 29 24 30 21 31 23 32 22 33 25 34 26 35 27 36
REMARK SMILES IDX 33 37 34 38 35 39 36 41 37 42 38 43 39 44 40 45 41 47 42 48
REMARK SMILES IDX 43 49 101 50 44 51 100 52 45 53 46 54 47 55 94 56 48 57
REMARK SMILES IDX 99 58 93 59 95 60 49 61 98 62 92 63 91 64 50 66 80 67 61 68
REMARK SMILES IDX 79 69 62 70 65 71 78 72 96 73 63 74 64 75 77 77 97 78 66 79
REMARK SMILES IDX 51 80 52 81 60 82 53 83 59 84 54 85 55 86 56 87 57 88 58 89
REMARK SMILES IDX 81 90 82 91 90 92 83 93 89 94 84 95 85 96 86 97 87 98 88 99
REMARK SMILES IDX 67 100 68 101 76 102 69 103 75 104 70 105 71 106 72 107
REMARK SMILES IDX 73 108 74 109
REMARK H PARENT 30 6 6 14 10 19 14 24 35 40 39 46 95 65 65 76
REMARK Flexibility Score: inf
ROOT
ATOM      1  C   UNL     1      -3.264   0.282   3.811  1.00  0.00     0.168 C 
ATOM      2  C   UNL     1      -3.459   1.689   4.351  1.00  0.00     0.041 C 
ENDROOT
BRANCH   1   3
ATOM      3  N   UNL     1      -3.891   0.136   2.498  1.00  0.00    -0.343 N 
ATOM      4  C   UNL     1      -3.433  -0.500   1.385  1.00  0.00     0.243 C 
ATOM      5  O   UNL     1      -4.244  -0.722   0.484  1.00  0.00    -0.273 OA
ATOM      6  H   UNL     1      -4.774   0.561   2.405  1.00  0.00     0.164 HD
BRANCH   4   7
ATOM      7  C   UNL     1      -1.988  -1.020   1.312  1.00  0.00     0.171 C 
BRANCH   7   8
ATOM      8  C   UNL     1      -1.815  -2.270   2.178  1.00  0.00     0.038 C 
BRANCH   8   9
ATOM      9  C   UNL     1      -2.903  -3.361   2.124  1.00  0.00    -0.015 C 
ATOM     10  C   UNL     1      -3.054  -3.989   0.737  1.00  0.00     0.007 C 
ATOM     11  C   UNL     1      -2.536  -4.459   3.131  1.00  0.00     0.007 C 
ENDBRANCH   8   9
ENDBRANCH   7   8
BRANCH   7  12
ATOM     12  N   UNL     1      -1.067   0.084   1.647  1.00  0.00    -0.343 N 
ATOM     13  C   UNL     1       0.267   0.299   1.621  1.00  0.00     0.240 C 
ATOM     14  H   UNL     1      -1.554   0.873   1.978  1.00  0.00     0.164 HD
ATOM     15  O   UNL     1       0.617   1.459   1.884  1.00  0.00    -0.273 OA
BRANCH  13  16
ATOM     16  C   UNL     1       1.339  -0.706   1.172  1.00  0.00     0.216 C 
BRANCH  16  17
ATOM     17  N   UNL     1       1.352  -2.032   1.747  1.00  0.00    -0.345 N 
ATOM     18  C   UNL     1       1.256  -3.280   1.225  1.00  0.00     0.243 C 
ATOM     19  H   UNL     1       1.451  -2.028   2.727  1.00  0.00     0.164 HD
ATOM     20  O   UNL     1       1.515  -4.198   2.014  1.00  0.00    -0.273 OA
BRANCH  18  21
ATOM     21  C   UNL     1       0.869  -3.616  -0.250  1.00  0.00     0.177 C 
BRANCH  21  22
ATOM     22  N   UNL     1      -0.038  -2.647  -0.862  1.00  0.00    -0.309 N 
ATOM     23  C   UNL     1       0.155  -1.580  -1.681  1.00  0.00     0.408 C 
ATOM     24  H   UNL     1      -0.984  -2.799  -0.634  1.00  0.00     0.167 HD
ATOM     25  O   UNL     1      -0.683  -0.700  -1.766  1.00  0.00    -0.225 OA
BRANCH  23  26
ATOM     26  O   UNL     1       1.295  -1.641  -2.400  1.00  0.00    -0.445 OA
BRANCH  26  27
ATOM     27  C   UNL     1       1.392  -0.673  -3.454  1.00  0.00     0.270 C 
BRANCH  27  28
ATOM     28  C   UNL     1       0.505  -0.912  -4.666  1.00  0.00    -0.011 A 
ATOM     29  C   UNL     1       0.778  -0.193  -5.839  1.00  0.00     0.007 A 
ATOM     30  C   UNL     1      -0.634  -1.735  -4.652  1.00  0.00     0.007 A 
ATOM     31  C   UNL     1      -0.071  -0.275  -6.946  1.00  0.00     0.000 A 
ATOM     32  C   UNL     1      -1.494  -1.801  -5.749  1.00  0.00     0.000 A 
ATOM     33  C   UNL     1      -1.215  -1.068  -6.895  1.00  0.00     0.000 A 
ENDBRANCH  27  28
ENDBRANCH  26  27
ENDBRANCH  23  26
ENDBRANCH  21  22
BRANCH  21  34
ATOM     34  C   UNL     1       2.050  -4.103  -1.113  1.00  0.00     0.015 C 
ATOM     35  C   UNL     1       2.836  -5.228  -0.425  1.00  0.00     0.010 C 
ATOM     36  C   UNL     1       1.562  -4.653  -2.464  1.00  0.00     0.010 C 
ENDBRANCH  21  34
ENDBRANCH  18  21
ENDBRANCH  16  17
ENDBRANCH  13  16
ENDBRANCH   7  12
ENDBRANCH   4   7
ENDBRANCH   1   3
BRANCH   1  37
ATOM     37  C   UNL     1      -3.706  -0.790   4.822  1.00  0.00     0.242 C 
ATOM     38  O   UNL     1      -2.869  -1.416   5.480  1.00  0.00    -0.273 OA
ATOM     39  N   UNL     1      -5.014  -1.013   5.106  1.00  0.00    -0.354 N 
ATOM     40  H   UNL     1      -5.176  -1.730   5.761  1.00  0.00     0.163 HD
BRANCH  39  41
ATOM     41  C   UNL     1      -6.210  -0.370   4.604  1.00  0.00     0.117 C 
BRANCH  41  42
ATOM     42  C   UNL     1      -7.090  -1.342   3.836  1.00  0.00     0.042 C 
BRANCH  42  43
ATOM     43  C   UNL     1      -7.660  -2.445   4.719  1.00  0.00     0.118 C 
BRANCH  43  44
ATOM     44  N   UNL     1      -8.434  -1.907   5.834  1.00  0.00    -0.352 N 
ATOM     45  C   UNL     1      -9.786  -1.968   6.065  1.00  0.00     0.251 C 
ATOM     46  H   UNL     1      -7.911  -1.432   6.520  1.00  0.00     0.163 HD
ATOM     47  O   UNL     1     -10.305  -1.229   6.895  1.00  0.00    -0.269 OA
BRANCH  45  48
ATOM     48  C   UNL     1     -10.597  -2.932   5.301  1.00  0.00     0.039 A 
ATOM     49  C   UNL     1     -11.821  -2.538   4.759  1.00  0.00     0.014 A 
ATOM     50  C   UNL     1     -10.120  -4.231   5.114  1.00  0.00     0.014 A 
ATOM     51  C   UNL     1     -12.538  -3.434   3.964  1.00  0.00     0.010 A 
ATOM     52  C   UNL     1     -10.782  -5.083   4.245  1.00  0.00     0.010 A 
ATOM     53  C   UNL     1     -12.005  -4.700   3.674  1.00  0.00    -0.014 A 
BRANCH  53  54
ATOM     54  C   UNL     1     -12.706  -5.680   2.812  1.00  0.00     0.031 A 
ATOM     55  C   UNL     1     -13.097  -7.012   3.391  1.00  0.00     0.074 A 
ATOM     56  C   UNL     1     -12.882  -5.425   1.501  1.00  0.00     0.049 A 
ATOM     57  N   UNL     1     -13.538  -8.081   2.782  1.00  0.00    -0.248 NA
ATOM     58  C   UNL     1     -12.927  -7.174   4.846  1.00  0.00     0.031 C 
ATOM     59  C   UNL     1     -12.516  -4.181   0.820  1.00  0.00     0.029 A 
ATOM     60  N   UNL     1     -13.389  -6.215   0.501  1.00  0.00    -0.354 N 
ATOM     61  C   UNL     1     -13.670  -9.047   3.773  1.00  0.00     0.074 A 
ATOM     62  C   UNL     1     -13.204  -8.458   5.008  1.00  0.00     0.031 C 
ATOM     63  C   UNL     1     -12.819  -4.290  -0.483  1.00  0.00     0.029 A 
ATOM     64  C   UNL     1     -13.348  -5.626  -0.741  1.00  0.00     0.049 A 
ATOM     65  H   UNL     1     -13.749  -7.118   0.657  1.00  0.00     0.167 HD
ATOM     66  C   UNL     1     -14.156 -10.306   3.667  1.00  0.00     0.031 A 
ATOM     67  C   UNL     1     -13.673  -6.116  -1.953  1.00  0.00     0.031 A 
ATOM     68  C   UNL     1     -14.623 -10.877   2.434  1.00  0.00     0.049 A 
ATOM     69  C   UNL     1     -14.192  -7.524  -2.056  1.00  0.00     0.074 A 
ATOM     70  C   UNL     1     -15.172 -12.129   2.220  1.00  0.00     0.029 A 
ATOM     71  N   UNL     1     -14.599 -10.232   1.206  1.00  0.00    -0.354 N 
ATOM     72  N   UNL     1     -14.351  -8.413  -1.104  1.00  0.00    -0.248 NA
ATOM     73  C   UNL     1     -14.587  -7.995  -3.391  1.00  0.00     0.031 C 
ATOM     74  C   UNL     1     -15.430 -12.260   0.853  1.00  0.00     0.029 A 
ATOM     75  C   UNL     1     -15.110 -11.064   0.227  1.00  0.00     0.049 A 
ATOM     76  H   UNL     1     -14.267  -9.318   1.055  1.00  0.00     0.167 HD
ATOM     77  C   UNL     1     -14.903  -9.533  -1.717  1.00  0.00     0.074 A 
ATOM     78  C   UNL     1     -15.047  -9.210  -3.122  1.00  0.00     0.031 C 
ATOM     79  C   UNL     1     -15.265 -10.716  -1.164  1.00  0.00     0.031 A 
BRANCH  66  80
ATOM     80  C   UNL     1     -14.193 -11.141   4.920  1.00  0.00    -0.014 A 
ATOM     81  C   UNL     1     -15.043 -10.808   5.992  1.00  0.00     0.010 A 
ATOM     82  C   UNL     1     -13.374 -12.279   5.028  1.00  0.00     0.010 A 
ATOM     83  C   UNL     1     -15.026 -11.560   7.170  1.00  0.00     0.020 A 
ATOM     84  C   UNL     1     -13.381 -13.056   6.190  1.00  0.00     0.020 A 
ATOM     85  C   UNL     1     -14.191 -12.676   7.263  1.00  0.00     0.054 A 
BRANCH  85  86
ATOM     86  S   UNL     1     -14.189 -13.631   8.804  1.00  0.00     0.124 S 
ATOM     87  O   UNL     1     -13.491 -12.727   9.716  1.00  0.00    -0.237 OA
ATOM     88  O   UNL     1     -15.614 -13.812   9.070  1.00  0.00    -0.237 OA
ATOM     89  O   UNL     1     -13.461 -14.849   8.458  1.00  0.00    -0.744 OA
ENDBRANCH  85  86
ENDBRANCH  66  80
BRANCH  67  90
ATOM     90  C   UNL     1     -13.520  -5.258  -3.160  1.00  0.00    -0.014 A 
ATOM     91  C   UNL     1     -14.650  -4.760  -3.832  1.00  0.00     0.010 A 
ATOM     92  C   UNL     1     -12.239  -4.900  -3.623  1.00  0.00     0.010 A 
ATOM     93  C   UNL     1     -14.504  -3.932  -4.949  1.00  0.00     0.020 A 
ATOM     94  C   UNL     1     -12.089  -4.049  -4.721  1.00  0.00     0.020 A 
ATOM     95  C   UNL     1     -13.223  -3.577  -5.383  1.00  0.00     0.054 A 
BRANCH  95  96
ATOM     96  S   UNL     1     -13.062  -2.451  -6.797  1.00  0.00     0.124 S 
ATOM     97  O   UNL     1     -13.477  -3.299  -7.910  1.00  0.00    -0.237 OA
ATOM     98  O   UNL     1     -13.981  -1.372  -6.445  1.00  0.00    -0.237 OA
ATOM     99  O   UNL     1     -11.647  -2.084  -6.783  1.00  0.00    -0.744 OA
ENDBRANCH  95  96
ENDBRANCH  67  90
BRANCH  79 100
ATOM    100  C   UNL     1     -15.919 -11.741  -2.052  1.00  0.00    -0.014 A 
ATOM    101  C   UNL     1     -15.180 -12.485  -2.986  1.00  0.00     0.010 A 
ATOM    102  C   UNL     1     -17.281 -12.041  -1.855  1.00  0.00     0.010 A 
ATOM    103  C   UNL     1     -15.793 -13.513  -3.709  1.00  0.00     0.020 A 
ATOM    104  C   UNL     1     -17.889 -13.085  -2.554  1.00  0.00     0.020 A 
ATOM    105  C   UNL     1     -17.141 -13.813  -3.480  1.00  0.00     0.054 A 
BRANCH 105 106
ATOM    106  S   UNL     1     -17.884 -15.215  -4.359  1.00  0.00     0.124 S 
ATOM    107  O   UNL     1     -17.982 -14.703  -5.723  1.00  0.00    -0.237 OA
ATOM    108  O   UNL     1     -16.901 -16.276  -4.154  1.00  0.00    -0.237 OA
ATOM    109  O   UNL     1     -19.160 -15.416  -3.676  1.00  0.00    -0.744 OA
ENDBRANCH 105 106
ENDBRANCH  79 100
ENDBRANCH  53  54
ENDBRANCH  45  48
ENDBRANCH  43  44
ENDBRANCH  42  43
ENDBRANCH  41  42
ENDBRANCH  39  41
ENDBRANCH   1  37
TORSDOF 26
