REMARK SMILES CC(C)(C[S@](=O)c1cccc(Cl)c1)C(=O)NCCCNC(=O)c1ccc(-c2c3nc(c(-c4ccc(S(=O)(=O)[O-])cc4)c4ccc([nH]4)c(-c4ccc(S(=O)(=O)[O-])cc4)c4nc(c(-c5ccc(S(=O)(=O)[O-])cc5)c5ccc2[nH]5)C=C4)C=C3)cc1
REMARK SMILES IDX 18 1 17 2 16 3 14 4 15 5 2 7 1 8 3 9 4 10 5 11 6 12 7 13
REMARK SMILES IDX 8 14 13 15 9 16 11 17 10 18 12 19 19 20 20 21 21 22 22 24
REMARK SMILES IDX 23 25 24 26 82 27 25 28 81 29 26 30 27 31 28 32 75 33 29 34
REMARK SMILES IDX 80 35 74 36 76 37 30 38 79 39 73 40 72 41 31 43 61 44 42 45
REMARK SMILES IDX 60 46 43 47 46 48 59 49 77 50 44 51 45 52 58 54 78 55 47 56
REMARK SMILES IDX 32 57 33 58 41 59 34 60 40 61 35 62 36 63 37 64 38 65 39 66
REMARK SMILES IDX 62 67 63 68 71 69 64 70 70 71 65 72 66 73 67 74 68 75 69 76
REMARK SMILES IDX 48 77 49 78 57 79 50 80 56 81 51 82 52 83 53 84 54 85 55 86
REMARK H PARENT 16 6 20 23 76 42 46 53
REMARK Flexibility Score: inf
ROOT
ATOM      1  C   UNL     1      -3.920  -1.482   4.584  1.00  0.00     0.042 C 
ENDROOT
BRANCH   1   2
ATOM      2  C   UNL     1      -4.745  -0.522   3.742  1.00  0.00     0.117 C 
BRANCH   2   3
ATOM      3  N   UNL     1      -3.979   0.619   3.276  1.00  0.00    -0.356 N 
ATOM      4  C   UNL     1      -3.643   1.073   2.040  1.00  0.00     0.226 C 
ATOM      5  O   UNL     1      -3.168   2.213   2.001  1.00  0.00    -0.274 OA
ATOM      6  H   UNL     1      -3.631   1.181   4.006  1.00  0.00     0.163 HD
BRANCH   4   7
ATOM      7  C   UNL     1      -3.918   0.276   0.751  1.00  0.00     0.055 C 
ATOM      8  C   UNL     1      -3.354   1.063  -0.457  1.00  0.00     0.022 C 
ATOM      9  C   UNL     1      -5.445   0.224   0.518  1.00  0.00     0.022 C 
BRANCH   7  10
ATOM     10  C   UNL     1      -3.338  -1.154   0.761  1.00  0.00     0.126 C 
BRANCH  10  11
ATOM     11  S   UNL     1      -1.546  -1.326   1.099  1.00  0.00     0.054 S 
ATOM     12  O   UNL     1      -0.950   0.022   1.359  1.00  0.00    -0.254 OA
BRANCH  11  13
ATOM     13  C   UNL     1      -1.011  -1.789  -0.565  1.00  0.00     0.040 A 
ATOM     14  C   UNL     1      -1.117  -3.125  -0.971  1.00  0.00     0.018 A 
ATOM     15  C   UNL     1      -0.486  -0.839  -1.447  1.00  0.00     0.038 A 
ATOM     16  C   UNL     1      -0.728  -3.502  -2.258  1.00  0.00     0.003 A 
ATOM     17  C   UNL     1      -0.113  -1.219  -2.735  1.00  0.00     0.042 A 
ATOM     18  C   UNL     1      -0.234  -2.546  -3.144  1.00  0.00     0.020 A 
ATOM     19  Cl  UNL     1       0.490  -0.041  -3.835  1.00  0.00    -0.084 Cl
ENDBRANCH  11  13
ENDBRANCH  10  11
ENDBRANCH   7  10
ENDBRANCH   4   7
ENDBRANCH   2   3
ENDBRANCH   1   2
BRANCH   1  20
ATOM     20  C   UNL     1      -3.434  -0.889   5.899  1.00  0.00     0.118 C 
BRANCH  20  21
ATOM     21  N   UNL     1      -4.531  -0.517   6.786  1.00  0.00    -0.352 N 
ATOM     22  C   UNL     1      -4.893  -1.019   8.011  1.00  0.00     0.251 C 
ATOM     23  H   UNL     1      -5.103   0.212   6.452  1.00  0.00     0.163 HD
ATOM     24  O   UNL     1      -5.979  -0.701   8.496  1.00  0.00    -0.269 OA
BRANCH  22  25
ATOM     25  C   UNL     1      -4.002  -1.950   8.736  1.00  0.00     0.039 A 
ATOM     26  C   UNL     1      -4.559  -3.033   9.421  1.00  0.00     0.014 A 
ATOM     27  C   UNL     1      -2.620  -1.750   8.755  1.00  0.00     0.014 A 
ATOM     28  C   UNL     1      -3.724  -3.951  10.062  1.00  0.00     0.010 A 
ATOM     29  C   UNL     1      -1.787  -2.718   9.305  1.00  0.00     0.010 A 
ATOM     30  C   UNL     1      -2.329  -3.824   9.975  1.00  0.00    -0.014 A 
BRANCH  30  31
ATOM     31  C   UNL     1      -1.415  -4.822  10.588  1.00  0.00     0.031 A 
ATOM     32  C   UNL     1      -0.456  -4.404  11.670  1.00  0.00     0.074 A 
ATOM     33  C   UNL     1      -1.404  -6.089  10.129  1.00  0.00     0.049 A 
ATOM     34  N   UNL     1       0.452  -5.114  12.289  1.00  0.00    -0.248 NA
ATOM     35  C   UNL     1      -0.506  -2.995  12.094  1.00  0.00     0.031 C 
ATOM     36  C   UNL     1      -2.263  -6.614   9.064  1.00  0.00     0.029 A 
ATOM     37  N   UNL     1      -0.642  -7.168  10.501  1.00  0.00    -0.354 N 
ATOM     38  C   UNL     1       1.087  -4.238  13.162  1.00  0.00     0.074 A 
ATOM     39  C   UNL     1       0.509  -2.931  12.942  1.00  0.00     0.031 C 
ATOM     40  C   UNL     1      -2.012  -7.923   8.902  1.00  0.00     0.029 A 
ATOM     41  C   UNL     1      -0.943  -8.320   9.812  1.00  0.00     0.049 A 
ATOM     42  H   UNL     1       0.053  -7.123  11.196  1.00  0.00     0.167 HD
ATOM     43  C   UNL     1       2.047  -4.498  14.083  1.00  0.00     0.031 A 
ATOM     44  C   UNL     1      -0.417  -9.557   9.902  1.00  0.00     0.031 A 
ATOM     45  C   UNL     1       2.626  -5.799  14.293  1.00  0.00     0.049 A 
ATOM     46  C   UNL     1       0.681  -9.815  10.897  1.00  0.00     0.074 A 
ATOM     47  C   UNL     1       3.579  -6.178  15.221  1.00  0.00     0.029 A 
ATOM     48  N   UNL     1       2.310  -6.932  13.557  1.00  0.00    -0.354 N 
ATOM     49  N   UNL     1       1.232  -8.986  11.751  1.00  0.00    -0.248 NA
ATOM     50  C   UNL     1       1.221 -11.180  10.946  1.00  0.00     0.031 C 
ATOM     51  C   UNL     1       3.882  -7.527  15.008  1.00  0.00     0.029 A 
ATOM     52  C   UNL     1       3.067  -8.007  13.994  1.00  0.00     0.049 A 
ATOM     53  H   UNL     1       1.645  -6.968  12.832  1.00  0.00     0.167 HD
ATOM     54  C   UNL     1       2.159  -9.738  12.465  1.00  0.00     0.074 A 
ATOM     55  C   UNL     1       2.086 -11.089  11.947  1.00  0.00     0.031 C 
ATOM     56  C   UNL     1       2.989  -9.346  13.464  1.00  0.00     0.031 A 
BRANCH  43  57
ATOM     57  C   UNL     1       2.532  -3.339  14.917  1.00  0.00    -0.014 A 
ATOM     58  C   UNL     1       1.682  -2.698  15.839  1.00  0.00     0.010 A 
ATOM     59  C   UNL     1       3.853  -2.876  14.775  1.00  0.00     0.010 A 
ATOM     60  C   UNL     1       2.119  -1.577  16.548  1.00  0.00     0.020 A 
ATOM     61  C   UNL     1       4.306  -1.776  15.511  1.00  0.00     0.020 A 
ATOM     62  C   UNL     1       3.426  -1.117  16.372  1.00  0.00     0.054 A 
BRANCH  62  63
ATOM     63  S   UNL     1       3.961   0.352  17.291  1.00  0.00     0.124 S 
ATOM     64  O   UNL     1       3.237   1.417  16.600  1.00  0.00    -0.237 OA
ATOM     65  O   UNL     1       3.506   0.064  18.649  1.00  0.00    -0.237 OA
ATOM     66  O   UNL     1       5.410   0.367  17.112  1.00  0.00    -0.744 OA
ENDBRANCH  62  63
ENDBRANCH  43  57
BRANCH  44  67
ATOM     67  C   UNL     1      -0.955 -10.655   9.052  1.00  0.00    -0.014 A 
ATOM     68  C   UNL     1      -1.709 -11.691   9.631  1.00  0.00     0.010 A 
ATOM     69  C   UNL     1      -0.746 -10.656   7.661  1.00  0.00     0.010 A 
ATOM     70  C   UNL     1      -2.237 -12.713   8.836  1.00  0.00     0.020 A 
ATOM     71  C   UNL     1      -1.296 -11.661   6.860  1.00  0.00     0.020 A 
ATOM     72  C   UNL     1      -2.033 -12.687   7.454  1.00  0.00     0.054 A 
BRANCH  72  73
ATOM     73  S   UNL     1      -2.788 -13.987   6.437  1.00  0.00     0.124 S 
ATOM     74  O   UNL     1      -1.987 -15.155   6.792  1.00  0.00    -0.237 OA
ATOM     75  O   UNL     1      -4.168 -13.996   6.914  1.00  0.00    -0.237 OA
ATOM     76  O   UNL     1      -2.612 -13.497   5.072  1.00  0.00    -0.744 OA
ENDBRANCH  72  73
ENDBRANCH  44  67
BRANCH  56  77
ATOM     77  C   UNL     1       3.859 -10.402  14.097  1.00  0.00    -0.014 A 
ATOM     78  C   UNL     1       4.945 -10.969  13.407  1.00  0.00     0.010 A 
ATOM     79  C   UNL     1       3.613 -10.793  15.426  1.00  0.00     0.010 A 
ATOM     80  C   UNL     1       5.747 -11.933  14.024  1.00  0.00     0.020 A 
ATOM     81  C   UNL     1       4.432 -11.731  16.058  1.00  0.00     0.020 A 
ATOM     82  C   UNL     1       5.487 -12.306  15.346  1.00  0.00     0.054 A 
BRANCH  82  83
ATOM     83  S   UNL     1       6.571 -13.526  16.138  1.00  0.00     0.124 S 
ATOM     84  O   UNL     1       6.183 -14.761  15.463  1.00  0.00    -0.237 OA
ATOM     85  O   UNL     1       7.904 -13.025  15.815  1.00  0.00    -0.237 OA
ATOM     86  O   UNL     1       6.207 -13.448  17.551  1.00  0.00    -0.744 OA
ENDBRANCH  82  83
ENDBRANCH  56  77
ENDBRANCH  30  31
ENDBRANCH  22  25
ENDBRANCH  20  21
ENDBRANCH   1  20
TORSDOF 16
