REMARK SMILES CC[C@@H]1CCCC[N@H+]1Cc1c(C(=O)NCCCNC(=O)c2ccc(-c3c4nc(c(-c5ccc(S(=O)(=O)[O-])cc5)c5ccc([nH]5)c(-c5ccc(S(=O)(=O)[O-])cc5)c5nc(c(-c6ccc(S(=O)(=O)[O-])cc6)c6ccc3[nH]6)C=C5)C=C4)cc2)oc2ccccc12
REMARK SMILES IDX 16 1 15 2 14 3 12 4 13 5 11 7 10 8 87 9 81 10 82 11 86 12
REMARK SMILES IDX 83 13 85 14 84 15 9 16 8 17 3 18 4 19 5 20 7 21 6 23 2 24
REMARK SMILES IDX 1 25 17 26 18 27 19 28 20 30 21 31 22 32 80 33 23 34 79 35
REMARK SMILES IDX 24 36 25 37 26 38 73 39 27 40 78 41 72 42 74 43 28 44 77 45
REMARK SMILES IDX 71 46 70 47 29 49 59 50 40 51 58 52 41 53 44 54 57 55 75 56
REMARK SMILES IDX 42 57 43 58 56 60 76 61 45 62 30 63 31 64 39 65 32 66 38 67
REMARK SMILES IDX 33 68 34 69 35 70 36 71 37 72 60 73 61 74 69 75 62 76 68 77
REMARK SMILES IDX 63 78 64 79 65 80 66 81 67 82 46 83 47 84 55 85 48 86 54 87
REMARK SMILES IDX 49 88 50 89 51 90 52 91 53 92
REMARK H PARENT 14 6 8 22 18 29 74 48 44 59
REMARK Flexibility Score: inf
ROOT
ATOM      1  C   UNL     1       6.551   5.100  -2.123  1.00  0.00     0.042 C 
ENDROOT
BRANCH   1   2
ATOM      2  C   UNL     1       5.808   5.373  -0.821  1.00  0.00     0.118 C 
BRANCH   2   3
ATOM      3  N   UNL     1       4.371   5.400  -1.029  1.00  0.00    -0.349 N 
ATOM      4  C   UNL     1       3.385   4.473  -0.791  1.00  0.00     0.287 C 
ATOM      5  O   UNL     1       2.262   4.802  -1.176  1.00  0.00    -0.266 OA
ATOM      6  H   UNL     1       4.040   6.243  -1.416  1.00  0.00     0.163 HD
BRANCH   4   7
ATOM      7  C   UNL     1       3.664   3.211  -0.121  1.00  0.00     0.201 A 
ATOM      8  C   UNL     1       2.808   2.198   0.338  1.00  0.00     0.066 A 
ATOM      9  C   UNL     1       3.687   1.161   0.849  1.00  0.00     0.030 A 
ATOM     10  O   UNL     1       4.954   2.874   0.148  1.00  0.00    -0.450 OA
ATOM     11  C   UNL     1       4.971   1.675   0.760  1.00  0.00     0.135 A 
ATOM     12  C   UNL     1       3.582  -0.139   1.394  1.00  0.00     0.012 A 
ATOM     13  C   UNL     1       6.128   1.049   1.226  1.00  0.00     0.048 A 
ATOM     14  C   UNL     1       4.717  -0.793   1.899  1.00  0.00     0.001 A 
ATOM     15  C   UNL     1       5.971  -0.199   1.827  1.00  0.00     0.004 A 
BRANCH   8  16
ATOM     16  C   UNL     1       1.299   2.245   0.227  1.00  0.00     0.304 C 
BRANCH  16  17
ATOM     17  N   UNL     1       0.533   2.243   1.496  1.00  0.00    -0.329 N 
ATOM     18  C   UNL     1       0.508   0.979   2.249  1.00  0.00     0.184 C 
ATOM     19  C   UNL     1      -0.194   1.123   3.628  1.00  0.00     0.065 C 
ATOM     20  C   UNL     1       0.322   2.300   4.435  1.00  0.00     0.012 C 
ATOM     21  C   UNL     1       0.906   3.429   2.295  1.00  0.00     0.262 C 
ATOM     22  H   UNL     1      -0.451   2.314   1.240  1.00  0.00     0.348 HD
ATOM     23  C   UNL     1       0.148   3.560   3.612  1.00  0.00     0.062 C 
BRANCH  18  24
ATOM     24  C   UNL     1      -0.197  -0.241   1.573  1.00  0.00     0.061 C 
ATOM     25  C   UNL     1       0.128  -0.657   0.146  1.00  0.00     0.010 C 
ENDBRANCH  18  24
ENDBRANCH  16  17
ENDBRANCH   8  16
ENDBRANCH   4   7
ENDBRANCH   2   3
ENDBRANCH   1   2
BRANCH   1  26
ATOM     26  C   UNL     1       6.384   6.219  -3.150  1.00  0.00     0.118 C 
BRANCH  26  27
ATOM     27  N   UNL     1       6.863   7.503  -2.648  1.00  0.00    -0.352 N 
ATOM     28  C   UNL     1       7.921   8.274  -3.059  1.00  0.00     0.251 C 
ATOM     29  H   UNL     1       6.346   7.875  -1.897  1.00  0.00     0.163 HD
ATOM     30  O   UNL     1       8.320   9.190  -2.348  1.00  0.00    -0.269 OA
BRANCH  28  31
ATOM     31  C   UNL     1       8.578   7.991  -4.350  1.00  0.00     0.039 A 
ATOM     32  C   UNL     1       9.972   8.017  -4.426  1.00  0.00     0.014 A 
ATOM     33  C   UNL     1       7.815   7.710  -5.486  1.00  0.00     0.014 A 
ATOM     34  C   UNL     1      10.602   7.684  -5.626  1.00  0.00     0.010 A 
ATOM     35  C   UNL     1       8.444   7.302  -6.656  1.00  0.00     0.010 A 
ATOM     36  C   UNL     1       9.844   7.280  -6.737  1.00  0.00    -0.014 A 
BRANCH  36  37
ATOM     37  C   UNL     1      10.489   6.813  -7.990  1.00  0.00     0.031 A 
ATOM     38  C   UNL     1      10.273   7.566  -9.275  1.00  0.00     0.074 A 
ATOM     39  C   UNL     1      11.210   5.674  -7.981  1.00  0.00     0.049 A 
ATOM     40  N   UNL     1      10.666   7.260 -10.484  1.00  0.00    -0.248 NA
ATOM     41  C   UNL     1       9.498   8.816  -9.194  1.00  0.00     0.031 C 
ATOM     42  C   UNL     1      11.471   4.843  -6.802  1.00  0.00     0.029 A 
ATOM     43  N   UNL     1      11.851   5.012  -8.998  1.00  0.00    -0.354 N 
ATOM     44  C   UNL     1      10.188   8.274 -11.305  1.00  0.00     0.074 A 
ATOM     45  C   UNL     1       9.424   9.172 -10.469  1.00  0.00     0.031 C 
ATOM     46  C   UNL     1      12.236   3.799  -7.159  1.00  0.00     0.029 A 
ATOM     47  C   UNL     1      12.476   3.854  -8.597  1.00  0.00     0.049 A 
ATOM     48  H   UNL     1      11.862   5.335  -9.928  1.00  0.00     0.167 HD
ATOM     49  C   UNL     1      10.390   8.456 -12.632  1.00  0.00     0.031 A 
ATOM     50  C   UNL     1      13.151   2.930  -9.309  1.00  0.00     0.031 A 
ATOM     51  C   UNL     1      11.150   7.558 -13.461  1.00  0.00     0.049 A 
ATOM     52  C   UNL     1      13.298   3.122 -10.796  1.00  0.00     0.074 A 
ATOM     53  C   UNL     1      11.429   7.665 -14.812  1.00  0.00     0.029 A 
ATOM     54  N   UNL     1      11.754   6.391 -13.018  1.00  0.00    -0.354 N 
ATOM     55  N   UNL     1      12.880   4.114 -11.545  1.00  0.00    -0.248 NA
ATOM     56  C   UNL     1      14.011   2.069 -11.534  1.00  0.00     0.031 C 
ATOM     57  C   UNL     1      12.158   6.537 -15.198  1.00  0.00     0.029 A 
ATOM     58  C   UNL     1      12.387   5.758 -14.075  1.00  0.00     0.049 A 
ATOM     59  H   UNL     1      11.736   6.062 -12.091  1.00  0.00     0.167 HD
ATOM     60  C   UNL     1      13.310   3.821 -12.835  1.00  0.00     0.074 A 
ATOM     61  C   UNL     1      14.035   2.569 -12.761  1.00  0.00     0.031 C 
ATOM     62  C   UNL     1      13.119   4.521 -13.979  1.00  0.00     0.031 A 
BRANCH  49  63
ATOM     63  C   UNL     1       9.793   9.682 -13.270  1.00  0.00    -0.014 A 
ATOM     64  C   UNL     1      10.306  10.961 -12.983  1.00  0.00     0.010 A 
ATOM     65  C   UNL     1       8.759   9.556 -14.215  1.00  0.00     0.010 A 
ATOM     66  C   UNL     1       9.777  12.092 -13.608  1.00  0.00     0.020 A 
ATOM     67  C   UNL     1       8.248  10.684 -14.866  1.00  0.00     0.020 A 
ATOM     68  C   UNL     1       8.754  11.946 -14.549  1.00  0.00     0.054 A 
BRANCH  68  69
ATOM     69  S   UNL     1       8.124  13.431 -15.378  1.00  0.00     0.124 S 
ATOM     70  O   UNL     1       7.413  14.104 -14.293  1.00  0.00    -0.237 OA
ATOM     71  O   UNL     1       9.348  14.088 -15.828  1.00  0.00    -0.237 OA
ATOM     72  O   UNL     1       7.276  12.902 -16.443  1.00  0.00    -0.744 OA
ENDBRANCH  68  69
ENDBRANCH  49  63
BRANCH  50  73
ATOM     73  C   UNL     1      13.731   1.732  -8.641  1.00  0.00    -0.014 A 
ATOM     74  C   UNL     1      15.124   1.546  -8.591  1.00  0.00     0.010 A 
ATOM     75  C   UNL     1      12.893   0.748  -8.085  1.00  0.00     0.010 A 
ATOM     76  C   UNL     1      15.666   0.380  -8.042  1.00  0.00     0.020 A 
ATOM     77  C   UNL     1      13.432  -0.403  -7.503  1.00  0.00     0.020 A 
ATOM     78  C   UNL     1      14.815  -0.590  -7.506  1.00  0.00     0.054 A 
BRANCH  78  79
ATOM     79  S   UNL     1      15.539  -2.096  -6.801  1.00  0.00     0.124 S 
ATOM     80  O   UNL     1      15.974  -2.811  -7.997  1.00  0.00    -0.237 OA
ATOM     81  O   UNL     1      16.606  -1.567  -5.955  1.00  0.00    -0.237 OA
ATOM     82  O   UNL     1      14.425  -2.705  -6.078  1.00  0.00    -0.744 OA
ENDBRANCH  78  79
ENDBRANCH  50  73
BRANCH  62  83
ATOM     83  C   UNL     1      13.738   3.979 -15.240  1.00  0.00    -0.014 A 
ATOM     84  C   UNL     1      13.221   2.834 -15.872  1.00  0.00     0.010 A 
ATOM     85  C   UNL     1      14.806   4.671 -15.841  1.00  0.00     0.010 A 
ATOM     86  C   UNL     1      13.774   2.380 -17.072  1.00  0.00     0.020 A 
ATOM     87  C   UNL     1      15.341   4.238 -17.056  1.00  0.00     0.020 A 
ATOM     88  C   UNL     1      14.826   3.089 -17.660  1.00  0.00     0.054 A 
BRANCH  88  89
ATOM     89  S   UNL     1      15.477   2.517 -19.253  1.00  0.00     0.124 S 
ATOM     90  O   UNL     1      16.181   1.295 -18.874  1.00  0.00    -0.237 OA
ATOM     91  O   UNL     1      14.262   2.324 -20.042  1.00  0.00    -0.237 OA
ATOM     92  O   UNL     1      16.332   3.617 -19.695  1.00  0.00    -0.744 OA
ENDBRANCH  88  89
ENDBRANCH  62  83
ENDBRANCH  36  37
ENDBRANCH  28  31
ENDBRANCH  26  27
ENDBRANCH   1  26
TORSDOF 16
