REMARK SMILES CC1(C)C(C(=O)Nc2ccc(CC(=O)NCCCNC(=O)c3ccc(-c4c5nc(c(-c6ccc(S(=O)(=O)[O-])cc6)c6ccc([nH]6)c(-c6ccc(S(=O)(=O)[O-])cc6)c6nc(c(-c7ccc(S(=O)(=O)[O-])cc7)c7ccc4[nH]7)C=C6)C=C5)cc3)cc2)C1(C)C
REMARK SMILES IDX 17 1 16 2 15 3 13 4 14 5 12 7 11 8 8 9 9 10 83 11 10 12
REMARK SMILES IDX 82 13 7 14 5 15 6 16 4 18 1 19 2 20 3 21 84 22 85 23 86 24
REMARK SMILES IDX 18 25 19 26 20 27 21 29 22 30 23 31 81 32 24 33 80 34 25 35
REMARK SMILES IDX 26 36 27 37 74 38 28 39 79 40 73 41 75 42 29 43 78 44 72 45
REMARK SMILES IDX 71 46 30 48 60 49 41 50 59 51 42 52 45 53 58 54 76 55 43 56
REMARK SMILES IDX 44 57 57 59 77 60 46 61 31 62 32 63 40 64 33 65 39 66 34 67
REMARK SMILES IDX 35 68 36 69 37 70 38 71 61 72 62 73 70 74 63 75 69 76 64 77
REMARK SMILES IDX 65 78 66 79 67 80 68 81 47 82 48 83 56 84 49 85 55 86 50 87
REMARK SMILES IDX 51 88 52 89 53 90 54 91
REMARK H PARENT 15 6 7 17 19 28 75 47 45 58
REMARK Flexibility Score: inf
ROOT
ATOM      1  C   UNL     1       1.946   0.068   7.286  1.00  0.00     0.042 C 
ENDROOT
BRANCH   1   2
ATOM      2  C   UNL     1       0.936  -1.065   7.460  1.00  0.00     0.117 C 
BRANCH   2   3
ATOM      3  N   UNL     1      -0.208  -0.664   8.256  1.00  0.00    -0.356 N 
ATOM      4  C   UNL     1      -1.413  -0.156   7.864  1.00  0.00     0.224 C 
ATOM      5  O   UNL     1      -2.230   0.141   8.739  1.00  0.00    -0.275 OA
ATOM      6  H   UNL     1      -0.099  -0.775   9.228  1.00  0.00     0.163 HD
BRANCH   4   7
ATOM      7  C   UNL     1      -1.766  -0.033   6.396  1.00  0.00     0.135 C 
BRANCH   7   8
ATOM      8  C   UNL     1      -1.081   1.086   5.655  1.00  0.00    -0.039 A 
ATOM      9  C   UNL     1       0.041   2.988   3.943  1.00  0.00     0.041 A 
ATOM     10  C   UNL     1      -1.007   3.358   4.784  1.00  0.00     0.026 A 
ATOM     11  C   UNL     1       0.684   1.788   4.158  1.00  0.00     0.026 A 
ATOM     12  C   UNL     1      -1.560   2.404   5.657  1.00  0.00     0.006 A 
ATOM     13  C   UNL     1       0.059   0.804   4.905  1.00  0.00     0.006 A 
BRANCH   9  14
ATOM     14  N   UNL     1       0.379   3.750   2.814  1.00  0.00    -0.326 N 
ATOM     15  C   UNL     1       1.129   3.259   1.756  1.00  0.00     0.228 C 
ATOM     16  O   UNL     1       2.239   3.732   1.535  1.00  0.00    -0.274 OA
ATOM     17  H   UNL     1       0.067   4.683   2.771  1.00  0.00     0.169 HD
BRANCH  15  18
ATOM     18  C   UNL     1       0.497   2.431   0.664  1.00  0.00     0.091 C 
ATOM     19  C   UNL     1       1.055   0.439  -0.905  1.00  0.00     0.012 C 
ATOM     20  C   UNL     1       0.555   0.907   0.452  1.00  0.00    -0.017 C 
ATOM     21  C   UNL     1       0.884  -0.156   1.468  1.00  0.00     0.012 C 
ATOM     22  C   UNL     1      -0.804   1.651   0.573  1.00  0.00    -0.017 C 
ATOM     23  C   UNL     1      -1.635   1.841  -0.681  1.00  0.00     0.012 C 
ATOM     24  C   UNL     1      -1.707   1.475   1.768  1.00  0.00     0.012 C 
ENDBRANCH  15  18
ENDBRANCH   9  14
ENDBRANCH   7   8
ENDBRANCH   4   7
ENDBRANCH   2   3
ENDBRANCH   1   2
BRANCH   1  25
ATOM     25  C   UNL     1       2.717   0.417   8.546  1.00  0.00     0.118 C 
BRANCH  25  26
ATOM     26  N   UNL     1       3.578  -0.668   8.979  1.00  0.00    -0.352 N 
ATOM     27  C   UNL     1       4.928  -0.677   9.220  1.00  0.00     0.251 C 
ATOM     28  H   UNL     1       3.123  -1.530   9.121  1.00  0.00     0.163 HD
ATOM     29  O   UNL     1       5.497  -1.752   9.379  1.00  0.00    -0.269 OA
BRANCH  27  30
ATOM     30  C   UNL     1       5.696   0.589   9.273  1.00  0.00     0.039 A 
ATOM     31  C   UNL     1       6.987   0.607   8.739  1.00  0.00     0.014 A 
ATOM     32  C   UNL     1       5.174   1.738   9.874  1.00  0.00     0.014 A 
ATOM     33  C   UNL     1       7.733   1.787   8.766  1.00  0.00     0.010 A 
ATOM     34  C   UNL     1       5.886   2.934   9.825  1.00  0.00     0.010 A 
ATOM     35  C   UNL     1       7.178   2.969   9.281  1.00  0.00    -0.014 A 
BRANCH  35  36
ATOM     36  C   UNL     1       7.935   4.246   9.262  1.00  0.00     0.031 A 
ATOM     37  C   UNL     1       8.313   4.925  10.552  1.00  0.00     0.074 A 
ATOM     38  C   UNL     1       8.236   4.821   8.081  1.00  0.00     0.049 A 
ATOM     39  N   UNL     1       8.932   6.063  10.733  1.00  0.00    -0.248 NA
ATOM     40  C   UNL     1       7.925   4.248  11.801  1.00  0.00     0.031 C 
ATOM     41  C   UNL     1       7.893   4.280   6.764  1.00  0.00     0.029 A 
ATOM     42  N   UNL     1       8.896   5.990   7.796  1.00  0.00    -0.354 N 
ATOM     43  C   UNL     1       8.994   6.246  12.110  1.00  0.00     0.074 A 
ATOM     44  C   UNL     1       8.306   5.128  12.716  1.00  0.00     0.031 C 
ATOM     45  C   UNL     1       8.370   5.099   5.813  1.00  0.00     0.029 A 
ATOM     46  C   UNL     1       9.011   6.245   6.450  1.00  0.00     0.049 A 
ATOM     47  H   UNL     1       9.254   6.590   8.491  1.00  0.00     0.167 HD
ATOM     48  C   UNL     1       9.587   7.245  12.807  1.00  0.00     0.031 A 
ATOM     49  C   UNL     1       9.562   7.288   5.799  1.00  0.00     0.031 A 
ATOM     50  C   UNL     1      10.275   8.353  12.199  1.00  0.00     0.049 A 
ATOM     51  C   UNL     1      10.195   8.395   6.596  1.00  0.00     0.074 A 
ATOM     52  C   UNL     1      10.954   9.388  12.818  1.00  0.00     0.029 A 
ATOM     53  N   UNL     1      10.370   8.574  10.833  1.00  0.00    -0.354 N 
ATOM     54  N   UNL     1      10.303   8.516   7.898  1.00  0.00    -0.248 NA
ATOM     55  C   UNL     1      10.791   9.502   5.836  1.00  0.00     0.031 C 
ATOM     56  C   UNL     1      11.407  10.267  11.829  1.00  0.00     0.029 A 
ATOM     57  C   UNL     1      11.070   9.744  10.590  1.00  0.00     0.049 A 
ATOM     58  H   UNL     1       9.994   7.987  10.138  1.00  0.00     0.167 HD
ATOM     59  C   UNL     1      11.004   9.698   8.111  1.00  0.00     0.074 A 
ATOM     60  C   UNL     1      11.308  10.245   6.805  1.00  0.00     0.031 C 
ATOM     61  C   UNL     1      11.363  10.278   9.284  1.00  0.00     0.031 A 
BRANCH  48  62
ATOM     62  C   UNL     1       9.507   7.190  14.312  1.00  0.00    -0.014 A 
ATOM     63  C   UNL     1      10.203   6.209  15.043  1.00  0.00     0.010 A 
ATOM     64  C   UNL     1       8.762   8.159  15.009  1.00  0.00     0.010 A 
ATOM     65  C   UNL     1      10.119   6.172  16.438  1.00  0.00     0.020 A 
ATOM     66  C   UNL     1       8.700   8.144  16.405  1.00  0.00     0.020 A 
ATOM     67  C   UNL     1       9.366   7.139  17.110  1.00  0.00     0.054 A 
BRANCH  67  68
ATOM     68  S   UNL     1       9.295   7.079  18.922  1.00  0.00     0.124 S 
ATOM     69  O   UNL     1       8.455   5.906  19.151  1.00  0.00    -0.237 OA
ATOM     70  O   UNL     1      10.700   6.927  19.292  1.00  0.00    -0.237 OA
ATOM     71  O   UNL     1       8.691   8.358  19.289  1.00  0.00    -0.744 OA
ENDBRANCH  67  68
ENDBRANCH  48  62
BRANCH  49  72
ATOM     72  C   UNL     1       9.549   7.326   4.310  1.00  0.00    -0.014 A 
ATOM     73  C   UNL     1      10.743   7.179   3.582  1.00  0.00     0.010 A 
ATOM     74  C   UNL     1       8.340   7.496   3.610  1.00  0.00     0.010 A 
ATOM     75  C   UNL     1      10.732   7.225   2.185  1.00  0.00     0.020 A 
ATOM     76  C   UNL     1       8.321   7.511   2.212  1.00  0.00     0.020 A 
ATOM     77  C   UNL     1       9.520   7.389   1.509  1.00  0.00     0.054 A 
BRANCH  77  78
ATOM     78  S   UNL     1       9.530   7.404  -0.305  1.00  0.00     0.124 S 
ATOM     79  O   UNL     1      10.149   8.694  -0.595  1.00  0.00    -0.237 OA
ATOM     80  O   UNL     1      10.336   6.229  -0.626  1.00  0.00    -0.237 OA
ATOM     81  O   UNL     1       8.116   7.296  -0.658  1.00  0.00    -0.744 OA
ENDBRANCH  77  78
ENDBRANCH  49  72
BRANCH  61  82
ATOM     82  C   UNL     1      12.157  11.556   9.211  1.00  0.00    -0.014 A 
ATOM     83  C   UNL     1      11.566  12.762   8.793  1.00  0.00     0.010 A 
ATOM     84  C   UNL     1      13.504  11.560   9.620  1.00  0.00     0.010 A 
ATOM     85  C   UNL     1      12.316  13.940   8.754  1.00  0.00     0.020 A 
ATOM     86  C   UNL     1      14.248  12.742   9.613  1.00  0.00     0.020 A 
ATOM     87  C   UNL     1      13.653  13.923   9.166  1.00  0.00     0.054 A 
BRANCH  87  88
ATOM     88  S   UNL     1      14.591  15.475   9.149  1.00  0.00     0.124 S 
ATOM     89  O   UNL     1      14.799  15.690   7.720  1.00  0.00    -0.237 OA
ATOM     90  O   UNL     1      13.675  16.410   9.799  1.00  0.00    -0.237 OA
ATOM     91  O   UNL     1      15.796  15.161   9.914  1.00  0.00    -0.744 OA
ENDBRANCH  87  88
ENDBRANCH  61  82
ENDBRANCH  35  36
ENDBRANCH  27  30
ENDBRANCH  25  26
ENDBRANCH   1  25
TORSDOF 16
