REMARK SMILES Cc1cccc(C(=O)N2CCC[C@H]2c2nnc(SCC(=O)Nc3ccc(C(=O)NCCCNC(=O)c4ccc(-c5c6nc(c(-c7ccc(S(=O)(=O)[O-])cc7)c7ccc([nH]7)c(-c7ccc(S(=O)(=O)[O-])cc7)c7nc(c(-c8ccc(S(=O)(=O)[O-])cc8)c8ccc5[nH]8)C=C7)C=C6)cc4)cc3)n2C)c1
REMARK SMILES IDX 27 1 28 2 29 3 26 5 23 6 24 7 97 8 25 9 96 10 22 11 20 12
REMARK SMILES IDX 21 13 19 15 18 16 17 17 14 18 15 19 98 20 16 21 99 22 13 23
REMARK SMILES IDX 9 24 10 25 11 26 12 27 7 28 8 29 6 30 1 31 2 32 3 33 100 34
REMARK SMILES IDX 4 35 5 36 30 37 31 38 32 39 33 40 34 41 35 43 36 44 37 45
REMARK SMILES IDX 95 46 38 47 94 48 39 49 40 50 41 51 88 52 42 53 93 54 87 55
REMARK SMILES IDX 89 56 43 57 92 58 86 59 85 60 44 62 74 63 55 64 73 65 56 66
REMARK SMILES IDX 59 67 72 68 90 69 57 70 58 71 71 73 91 74 60 75 45 76 46 77
REMARK SMILES IDX 54 78 47 79 53 80 48 81 49 82 50 83 51 84 52 85 75 86 76 87
REMARK SMILES IDX 84 88 77 89 83 90 78 91 79 92 80 93 81 94 82 95 61 96 62 97
REMARK SMILES IDX 70 98 63 99 69 100 64 101 65 102 66 103 67 104 68 105
REMARK H PARENT 29 4 22 14 33 42 89 61 59 72
REMARK Flexibility Score: inf
ROOT
ATOM      1  C   UNL     1     -10.848   4.670   2.096  1.00  0.00     0.251 C 
ATOM      2  O   UNL     1     -11.890   4.016   2.097  1.00  0.00    -0.269 OA
ATOM      3  N   UNL     1     -10.827   6.050   1.931  1.00  0.00    -0.352 N 
ATOM      4  H   UNL     1     -11.636   6.401   1.493  1.00  0.00     0.163 HD
ENDROOT
BRANCH   1   5
ATOM      5  C   UNL     1      -9.581   3.939   2.313  1.00  0.00     0.039 A 
ATOM      6  C   UNL     1      -7.108   2.978   3.084  1.00  0.00     0.041 A 
ATOM      7  C   UNL     1      -7.198   3.950   2.093  1.00  0.00     0.027 A 
ATOM      8  C   UNL     1      -8.252   2.308   3.519  1.00  0.00     0.027 A 
ATOM      9  C   UNL     1      -8.437   4.399   1.675  1.00  0.00     0.016 A 
ATOM     10  C   UNL     1      -9.505   2.811   3.148  1.00  0.00     0.016 A 
BRANCH   6  11
ATOM     11  N   UNL     1      -5.872   2.701   3.667  1.00  0.00    -0.325 N 
ATOM     12  C   UNL     1      -5.004   3.625   4.197  1.00  0.00     0.234 C 
ATOM     13  O   UNL     1      -3.887   3.245   4.565  1.00  0.00    -0.274 OA
ATOM     14  H   UNL     1      -5.597   1.756   3.702  1.00  0.00     0.169 HD
BRANCH  12  15
ATOM     15  C   UNL     1      -5.512   5.009   4.581  1.00  0.00     0.178 C 
BRANCH  15  16
ATOM     16  S   UNL     1      -5.186   6.444   3.553  1.00  0.00    -0.076 SA
BRANCH  16  17
ATOM     17  C   UNL     1      -4.103   6.001   2.295  1.00  0.00     0.191 A 
ATOM     18  C   UNL     1      -2.313   5.431   1.178  1.00  0.00     0.156 A 
ATOM     19  N   UNL     1      -3.195   5.899   0.318  1.00  0.00    -0.132 NA
ATOM     20  N   UNL     1      -2.828   5.548   2.451  1.00  0.00    -0.307 N 
ATOM     21  N   UNL     1      -4.317   6.262   1.025  1.00  0.00    -0.123 NA
ATOM     22  C   UNL     1      -2.089   5.296   3.659  1.00  0.00     0.154 C 
BRANCH  18  23
ATOM     23  C   UNL     1      -0.976   4.851   0.891  1.00  0.00     0.154 C 
ATOM     24  N   UNL     1      -1.019   3.759  -0.069  1.00  0.00    -0.328 N 
ATOM     25  C   UNL     1      -0.170   4.052  -1.215  1.00  0.00     0.120 C 
ATOM     26  C   UNL     1       0.862   5.010  -0.634  1.00  0.00     0.024 C 
ATOM     27  C   UNL     1       0.012   5.864   0.304  1.00  0.00     0.035 C 
BRANCH  24  28
ATOM     28  C   UNL     1      -1.609   2.567   0.311  1.00  0.00     0.254 C 
ATOM     29  O   UNL     1      -2.547   2.506   1.104  1.00  0.00    -0.269 OA
BRANCH  28  30
ATOM     30  C   UNL     1      -0.958   1.283  -0.042  1.00  0.00     0.040 A 
ATOM     31  C   UNL     1       2.552  -0.184   0.009  1.00  0.00     0.044 C 
ATOM     32  C   UNL     1       1.060  -0.078  -0.073  1.00  0.00    -0.050 A 
ATOM     33  C   UNL     1       0.265  -1.223  -0.193  1.00  0.00     0.003 A 
ATOM     34  C   UNL     1       0.437   1.169   0.025  1.00  0.00     0.017 A 
ATOM     35  C   UNL     1      -1.128  -1.120  -0.238  1.00  0.00     0.001 A 
ATOM     36  C   UNL     1      -1.741   0.132  -0.165  1.00  0.00     0.014 A 
ENDBRANCH  28  30
ENDBRANCH  24  28
ENDBRANCH  18  23
ENDBRANCH  16  17
ENDBRANCH  15  16
ENDBRANCH  12  15
ENDBRANCH   6  11
ENDBRANCH   1   5
BRANCH   3  37
ATOM     37  C   UNL     1      -9.840   7.113   2.277  1.00  0.00     0.118 C 
BRANCH  37  38
ATOM     38  C   UNL     1      -9.240   8.122   1.133  1.00  0.00     0.042 C 
BRANCH  38  39
ATOM     39  C   UNL     1     -10.109   9.455   0.917  1.00  0.00     0.118 C 
BRANCH  39  40
ATOM     40  N   UNL     1      -9.998  10.682  -0.142  1.00  0.00    -0.352 N 
ATOM     41  C   UNL     1     -10.859  11.627  -0.940  1.00  0.00     0.251 C 
ATOM     42  H   UNL     1      -9.050  10.871  -0.325  1.00  0.00     0.163 HD
ATOM     43  O   UNL     1     -10.641  12.817  -0.625  1.00  0.00    -0.269 OA
BRANCH  41  44
ATOM     44  C   UNL     1     -11.959  11.520  -2.175  1.00  0.00     0.039 A 
ATOM     45  C   UNL     1     -13.163  12.313  -2.206  1.00  0.00     0.014 A 
ATOM     46  C   UNL     1     -11.946  10.639  -3.255  1.00  0.00     0.014 A 
ATOM     47  C   UNL     1     -14.416  11.811  -2.824  1.00  0.00     0.010 A 
ATOM     48  C   UNL     1     -13.169  10.137  -3.854  1.00  0.00     0.010 A 
ATOM     49  C   UNL     1     -14.447  10.528  -3.422  1.00  0.00    -0.014 A 
BRANCH  49  50
ATOM     50  C   UNL     1     -15.567   9.431  -3.212  1.00  0.00     0.031 A 
ATOM     51  C   UNL     1     -16.362   8.946  -4.348  1.00  0.00     0.074 A 
ATOM     52  C   UNL     1     -15.841   8.597  -2.139  1.00  0.00     0.049 A 
ATOM     53  N   UNL     1     -17.657   8.917  -4.424  1.00  0.00    -0.248 NA
ATOM     54  C   UNL     1     -15.676   8.265  -5.432  1.00  0.00     0.031 C 
ATOM     55  C   UNL     1     -16.831   7.517  -1.904  1.00  0.00     0.029 A 
ATOM     56  N   UNL     1     -15.240   8.536  -0.898  1.00  0.00    -0.354 N 
ATOM     57  C   UNL     1     -17.945   7.957  -5.381  1.00  0.00     0.074 A 
ATOM     58  C   UNL     1     -16.706   7.755  -6.109  1.00  0.00     0.031 C 
ATOM     59  C   UNL     1     -16.996   7.324  -0.568  1.00  0.00     0.029 A 
ATOM     60  C   UNL     1     -16.149   8.278   0.121  1.00  0.00     0.049 A 
ATOM     61  H   UNL     1     -14.275   8.662  -0.752  1.00  0.00     0.167 HD
ATOM     62  C   UNL     1     -19.057   7.155  -5.316  1.00  0.00     0.031 A 
ATOM     63  C   UNL     1     -16.488   9.294   0.993  1.00  0.00     0.031 A 
ATOM     64  C   UNL     1     -19.738   7.246  -4.012  1.00  0.00     0.049 A 
ATOM     65  C   UNL     1     -17.902   9.760   0.717  1.00  0.00     0.074 A 
ATOM     66  C   UNL     1     -19.911   6.329  -2.981  1.00  0.00     0.029 A 
ATOM     67  N   UNL     1     -20.080   8.483  -3.476  1.00  0.00    -0.354 N 
ATOM     68  N   UNL     1     -18.614   9.281  -0.258  1.00  0.00    -0.248 NA
ATOM     69  C   UNL     1     -18.623  10.798   1.449  1.00  0.00     0.031 C 
ATOM     70  C   UNL     1     -20.258   7.043  -1.801  1.00  0.00     0.029 A 
ATOM     71  C   UNL     1     -20.345   8.387  -2.120  1.00  0.00     0.049 A 
ATOM     72  H   UNL     1     -20.128   9.319  -3.994  1.00  0.00     0.167 HD
ATOM     73  C   UNL     1     -19.813   9.909  -0.343  1.00  0.00     0.074 A 
ATOM     74  C   UNL     1     -19.789  10.840   0.772  1.00  0.00     0.031 C 
ATOM     75  C   UNL     1     -20.682   9.583  -1.344  1.00  0.00     0.031 A 
BRANCH  62  76
ATOM     76  C   UNL     1     -19.336   6.039  -6.324  1.00  0.00    -0.014 A 
ATOM     77  C   UNL     1     -20.272   5.018  -6.055  1.00  0.00     0.010 A 
ATOM     78  C   UNL     1     -18.738   5.982  -7.601  1.00  0.00     0.010 A 
ATOM     79  C   UNL     1     -20.524   3.970  -6.965  1.00  0.00     0.020 A 
ATOM     80  C   UNL     1     -18.924   4.913  -8.489  1.00  0.00     0.020 A 
ATOM     81  C   UNL     1     -19.828   3.912  -8.171  1.00  0.00     0.054 A 
BRANCH  81  82
ATOM     82  S   UNL     1     -20.166   2.577  -9.350  1.00  0.00     0.124 S 
ATOM     83  O   UNL     1     -19.893   1.377  -8.565  1.00  0.00    -0.237 OA
ATOM     84  O   UNL     1     -21.568   2.805  -9.688  1.00  0.00    -0.237 OA
ATOM     85  O   UNL     1     -19.223   2.827 -10.440  1.00  0.00    -0.744 OA
ENDBRANCH  81  82
ENDBRANCH  62  76
BRANCH  63  86
ATOM     86  C   UNL     1     -15.345  10.272   1.381  1.00  0.00    -0.014 A 
ATOM     87  C   UNL     1     -14.308   9.742   2.175  1.00  0.00     0.010 A 
ATOM     88  C   UNL     1     -14.900  10.980   0.287  1.00  0.00     0.010 A 
ATOM     89  C   UNL     1     -13.125   9.253   1.580  1.00  0.00     0.020 A 
ATOM     90  C   UNL     1     -13.765  10.403  -0.316  1.00  0.00     0.020 A 
ATOM     91  C   UNL     1     -12.943   9.454   0.223  1.00  0.00     0.054 A 
BRANCH  91  92
ATOM     92  S   UNL     1     -12.084   8.113  -1.096  1.00  0.00     0.124 S 
ATOM     93  O   UNL     1     -10.873   8.739  -1.630  1.00  0.00    -0.237 OA
ATOM     94  O   UNL     1     -11.823   6.997  -0.184  1.00  0.00    -0.237 OA
ATOM     95  O   UNL     1     -13.085   7.828  -2.077  1.00  0.00    -0.744 OA
ENDBRANCH  91  92
ENDBRANCH  63  86
BRANCH  75  96
ATOM     96  C   UNL     1     -21.973  10.285  -1.661  1.00  0.00    -0.014 A 
ATOM     97  C   UNL     1     -22.317  11.566  -1.214  1.00  0.00     0.010 A 
ATOM     98  C   UNL     1     -22.876   9.647  -2.548  1.00  0.00     0.010 A 
ATOM     99  C   UNL     1     -23.536  12.152  -1.578  1.00  0.00     0.020 A 
ATOM    100  C   UNL     1     -24.063  10.244  -2.962  1.00  0.00     0.020 A 
ATOM    101  C   UNL     1     -24.402  11.484  -2.445  1.00  0.00     0.054 A 
BRANCH 101 102
ATOM    102  S   UNL     1     -25.962  12.262  -2.917  1.00  0.00     0.124 S 
ATOM    103  O   UNL     1     -26.793  11.999  -1.745  1.00  0.00    -0.237 OA
ATOM    104  O   UNL     1     -25.579  13.658  -3.113  1.00  0.00    -0.237 OA
ATOM    105  O   UNL     1     -26.351  11.552  -4.133  1.00  0.00    -0.744 OA
ENDBRANCH 101 102
ENDBRANCH  75  96
ENDBRANCH  49  50
ENDBRANCH  41  44
ENDBRANCH  39  40
ENDBRANCH  38  39
ENDBRANCH  37  38
ENDBRANCH   3  37
TORSDOF 20
