REMARK SMILES Cc1cccc(Nc2ccccc2C(=O)NCCCNC(=O)c2ccc(-c3c4nc(c(-c5ccc(S(=O)(=O)[O-])cc5)c5ccc([nH]5)c(-c5ccc(S(=O)(=O)[O-])cc5)c5nc(c(-c6ccc(S(=O)(=O)[O-])cc6)c6ccc3[nH]6)C=C5)C=C4)cc2)c1C
REMARK SMILES IDX 18 1 17 2 16 3 14 4 15 5 13 7 8 8 9 9 10 10 12 11 11 12 7 13
REMARK SMILES IDX 6 15 1 16 2 17 3 18 83 19 4 20 84 21 5 22 19 23 20 24 21 25
REMARK SMILES IDX 22 27 23 28 24 29 82 30 25 31 81 32 26 33 27 34 28 35 75 36
REMARK SMILES IDX 29 37 80 38 74 39 76 40 30 41 79 42 73 43 72 44 31 46 61 47
REMARK SMILES IDX 42 48 60 49 43 50 46 51 59 52 77 53 44 54 45 55 58 57 78 58
REMARK SMILES IDX 47 59 32 60 33 61 41 62 34 63 40 64 35 65 36 66 37 67 38 68
REMARK SMILES IDX 39 69 62 70 63 71 71 72 64 73 70 74 65 75 66 76 67 77 68 78
REMARK SMILES IDX 69 79 48 80 49 81 57 82 50 83 56 84 51 85 52 86 53 87 54 88
REMARK SMILES IDX 55 89
REMARK H PARENT 16 6 7 14 20 26 76 45 46 56
REMARK Flexibility Score: inf
ROOT
ATOM      1  C   UNL     1      -2.486  -2.227   2.353  1.00  0.00     0.042 C 
ENDROOT
BRANCH   1   2
ATOM      2  C   UNL     1      -1.177  -2.184   1.602  1.00  0.00     0.118 C 
BRANCH   2   3
ATOM      3  N   UNL     1       0.026  -2.229   2.386  1.00  0.00    -0.352 N 
ATOM      4  C   UNL     1       1.279  -2.629   1.981  1.00  0.00     0.253 C 
ATOM      5  O   UNL     1       2.228  -2.294   2.696  1.00  0.00    -0.269 OA
ATOM      6  H   UNL     1      -0.055  -1.940   3.324  1.00  0.00     0.163 HD
BRANCH   4   7
ATOM      7  C   UNL     1       1.539  -3.571   0.839  1.00  0.00     0.063 A 
ATOM      8  C   UNL     1       0.971  -3.618  -0.454  1.00  0.00     0.051 A 
ATOM      9  C   UNL     1       1.317  -4.714  -1.288  1.00  0.00     0.027 A 
ATOM     10  C   UNL     1       2.241  -5.686  -0.909  1.00  0.00     0.002 A 
ATOM     11  C   UNL     1       2.495  -4.559   1.190  1.00  0.00     0.016 A 
ATOM     12  C   UNL     1       2.853  -5.595   0.326  1.00  0.00     0.001 A 
BRANCH   8  13
ATOM     13  N   UNL     1       0.163  -2.657  -1.103  1.00  0.00    -0.355 N 
ATOM     14  H   UNL     1      -0.521  -3.070  -1.678  1.00  0.00     0.167 HD
BRANCH  13  15
ATOM     15  C   UNL     1       0.100  -1.248  -1.125  1.00  0.00     0.042 A 
ATOM     16  C   UNL     1       1.973   1.938  -0.128  1.00  0.00     0.044 C 
ATOM     17  C   UNL     1       0.895   0.992  -0.585  1.00  0.00    -0.046 A 
ATOM     18  C   UNL     1      -0.397   1.501  -0.793  1.00  0.00     0.004 A 
ATOM     19  C   UNL     1       1.163  -0.385  -0.801  1.00  0.00    -0.025 A 
ATOM     20  C   UNL     1      -1.423   0.668  -1.212  1.00  0.00     0.002 A 
ATOM     21  C   UNL     1       2.584  -0.880  -0.710  1.00  0.00     0.047 C 
ATOM     22  C   UNL     1      -1.175  -0.691  -1.377  1.00  0.00     0.026 A 
ENDBRANCH  13  15
ENDBRANCH   8  13
ENDBRANCH   4   7
ENDBRANCH   2   3
ENDBRANCH   1   2
BRANCH   1  23
ATOM     23  C   UNL     1      -2.874  -0.916   3.023  1.00  0.00     0.118 C 
BRANCH  23  24
ATOM     24  N   UNL     1      -3.037   0.217   2.109  1.00  0.00    -0.352 N 
ATOM     25  C   UNL     1      -4.149   0.935   1.714  1.00  0.00     0.251 C 
ATOM     26  H   UNL     1      -2.196   0.525   1.699  1.00  0.00     0.163 HD
ATOM     27  O   UNL     1      -4.046   1.796   0.854  1.00  0.00    -0.269 OA
BRANCH  25  28
ATOM     28  C   UNL     1      -5.478   0.633   2.297  1.00  0.00     0.039 A 
ATOM     29  C   UNL     1      -6.609   0.634   1.474  1.00  0.00     0.014 A 
ATOM     30  C   UNL     1      -5.606   0.318   3.645  1.00  0.00     0.014 A 
ATOM     31  C   UNL     1      -7.838   0.204   1.985  1.00  0.00     0.010 A 
ATOM     32  C   UNL     1      -6.782  -0.250   4.109  1.00  0.00     0.010 A 
ATOM     33  C   UNL     1      -7.920  -0.300   3.292  1.00  0.00    -0.014 A 
BRANCH  33  34
ATOM     34  C   UNL     1      -9.176  -0.848   3.866  1.00  0.00     0.031 A 
ATOM     35  C   UNL     1      -9.721  -0.260   5.143  1.00  0.00     0.074 A 
ATOM     36  C   UNL     1      -9.755  -1.934   3.317  1.00  0.00     0.049 A 
ATOM     37  N   UNL     1     -10.688  -0.694   5.909  1.00  0.00    -0.248 NA
ATOM     38  C   UNL     1      -9.046   0.946   5.657  1.00  0.00     0.031 C 
ATOM     39  C   UNL     1      -9.287  -2.638   2.120  1.00  0.00     0.029 A 
ATOM     40  N   UNL     1     -10.858  -2.651   3.709  1.00  0.00    -0.354 N 
ATOM     41  C   UNL     1     -10.703   0.156   7.010  1.00  0.00     0.074 A 
ATOM     42  C   UNL     1      -9.603   1.079   6.849  1.00  0.00     0.031 C 
ATOM     43  C   UNL     1     -10.112  -3.666   1.861  1.00  0.00     0.029 A 
ATOM     44  C   UNL     1     -11.138  -3.724   2.896  1.00  0.00     0.049 A 
ATOM     45  H   UNL     1     -11.398  -2.419   4.499  1.00  0.00     0.167 HD
ATOM     46  C   UNL     1     -11.573   0.191   8.046  1.00  0.00     0.031 A 
ATOM     47  C   UNL     1     -12.109  -4.655   2.979  1.00  0.00     0.031 A 
ATOM     48  C   UNL     1     -12.690  -0.704   8.175  1.00  0.00     0.049 A 
ATOM     49  C   UNL     1     -13.098  -4.572   4.108  1.00  0.00     0.074 A 
ATOM     50  C   UNL     1     -13.675  -0.722   9.146  1.00  0.00     0.029 A 
ATOM     51  N   UNL     1     -12.979  -1.733   7.290  1.00  0.00    -0.354 N 
ATOM     52  N   UNL     1     -13.129  -3.729   5.114  1.00  0.00    -0.248 NA
ATOM     53  C   UNL     1     -14.194  -5.550   4.104  1.00  0.00     0.031 C 
ATOM     54  C   UNL     1     -14.540  -1.785   8.866  1.00  0.00     0.029 A 
ATOM     55  C   UNL     1     -14.124  -2.396   7.692  1.00  0.00     0.049 A 
ATOM     56  H   UNL     1     -12.446  -1.958   6.493  1.00  0.00     0.167 HD
ATOM     57  C   UNL     1     -14.260  -4.060   5.851  1.00  0.00     0.074 A 
ATOM     58  C   UNL     1     -14.894  -5.169   5.165  1.00  0.00     0.031 C 
ATOM     59  C   UNL     1     -14.734  -3.498   6.991  1.00  0.00     0.031 A 
BRANCH  46  60
ATOM     60  C   UNL     1     -11.345   1.241   9.103  1.00  0.00    -0.014 A 
ATOM     61  C   UNL     1     -11.490   2.611   8.809  1.00  0.00     0.010 A 
ATOM     62  C   UNL     1     -10.965   0.861  10.403  1.00  0.00     0.010 A 
ATOM     63  C   UNL     1     -11.192   3.580   9.770  1.00  0.00     0.020 A 
ATOM     64  C   UNL     1     -10.701   1.828  11.379  1.00  0.00     0.020 A 
ATOM     65  C   UNL     1     -10.791   3.181  11.047  1.00  0.00     0.054 A 
BRANCH  65  66
ATOM     66  S   UNL     1     -10.402   4.460  12.273  1.00  0.00     0.124 S 
ATOM     67  O   UNL     1      -9.102   4.936  11.808  1.00  0.00    -0.237 OA
ATOM     68  O   UNL     1     -11.507   5.403  12.116  1.00  0.00    -0.237 OA
ATOM     69  O   UNL     1     -10.384   3.732  13.539  1.00  0.00    -0.744 OA
ENDBRANCH  65  66
ENDBRANCH  46  60
BRANCH  47  70
ATOM     70  C   UNL     1     -12.202  -5.719   1.941  1.00  0.00    -0.014 A 
ATOM     71  C   UNL     1     -13.219  -5.680   0.971  1.00  0.00     0.010 A 
ATOM     72  C   UNL     1     -11.245  -6.749   1.885  1.00  0.00     0.010 A 
ATOM     73  C   UNL     1     -13.281  -6.653  -0.032  1.00  0.00     0.020 A 
ATOM     74  C   UNL     1     -11.288  -7.708   0.869  1.00  0.00     0.020 A 
ATOM     75  C   UNL     1     -12.311  -7.658  -0.081  1.00  0.00     0.054 A 
BRANCH  75  76
ATOM     76  S   UNL     1     -12.364  -8.861  -1.439  1.00  0.00     0.124 S 
ATOM     77  O   UNL     1     -13.494  -9.702  -1.057  1.00  0.00    -0.237 OA
ATOM     78  O   UNL     1     -12.574  -8.009  -2.607  1.00  0.00    -0.237 OA
ATOM     79  O   UNL     1     -11.053  -9.505  -1.377  1.00  0.00    -0.744 OA
ENDBRANCH  75  76
ENDBRANCH  47  70
BRANCH  59  80
ATOM     80  C   UNL     1     -16.016  -4.049   7.550  1.00  0.00    -0.014 A 
ATOM     81  C   UNL     1     -16.055  -5.302   8.186  1.00  0.00     0.010 A 
ATOM     82  C   UNL     1     -17.186  -3.270   7.490  1.00  0.00     0.010 A 
ATOM     83  C   UNL     1     -17.251  -5.780   8.726  1.00  0.00     0.020 A 
ATOM     84  C   UNL     1     -18.377  -3.733   8.053  1.00  0.00     0.020 A 
ATOM     85  C   UNL     1     -18.405  -4.992   8.655  1.00  0.00     0.054 A 
BRANCH  85  86
ATOM     86  S   UNL     1     -19.935  -5.617   9.401  1.00  0.00     0.124 S 
ATOM     87  O   UNL     1     -20.347  -6.636   8.440  1.00  0.00    -0.237 OA
ATOM     88  O   UNL     1     -19.480  -6.119  10.695  1.00  0.00    -0.237 OA
ATOM     89  O   UNL     1     -20.795  -4.437   9.466  1.00  0.00    -0.744 OA
ENDBRANCH  85  86
ENDBRANCH  59  80
ENDBRANCH  33  34
ENDBRANCH  25  28
ENDBRANCH  23  24
ENDBRANCH   1  23
TORSDOF 15
