REMARK SMILES Cc1c(CC(=O)N[C@H](CO)C(=O)NCCCNC(=O)c2ccc(-c3c4nc(c(-c5ccc(S(=O)(=O)[O-])cc5)c5ccc([nH]5)c(-c5ccc(S(=O)(=O)[O-])cc5)c5nc(c(-c6ccc(S(=O)(=O)[O-])cc6)c6ccc3[nH]6)C=C5)C=C4)cc2)cc(-c2ccc(S(C)(=O)=O)cc2)n1-c1ccc(F)cc1
REMARK SMILES IDX 14 1 13 2 11 3 12 4 8 6 7 7 5 8 6 9 4 11 3 12 1 13 2 14
REMARK SMILES IDX 92 15 80 16 81 17 93 18 94 19 99 20 95 21 98 22 96 23 97 24
REMARK SMILES IDX 82 25 83 26 91 27 84 28 90 29 85 30 86 31 87 32 88 33 89 34
REMARK SMILES IDX 9 35 10 36 15 38 16 39 17 40 18 41 19 43 20 44 21 45 79 46
REMARK SMILES IDX 22 47 78 48 23 49 24 50 25 51 72 52 26 53 77 54 71 55 73 56
REMARK SMILES IDX 27 57 76 58 70 59 69 60 28 62 58 63 39 64 57 65 40 66 43 67
REMARK SMILES IDX 56 68 74 69 41 70 42 71 55 73 75 74 44 75 29 76 30 77 38 78
REMARK SMILES IDX 31 79 37 80 32 81 33 82 34 83 35 84 36 85 59 86 60 87 68 88
REMARK SMILES IDX 61 89 67 90 62 91 63 92 64 93 65 94 66 95 45 96 46 97 54 98
REMARK SMILES IDX 47 99 53 100 48 101 49 102 50 103 51 104 52 105
REMARK H PARENT 13 5 7 10 10 37 17 42 73 61 43 72
REMARK Flexibility Score: inf
ROOT
ATOM      1  C   UNL     1      -4.387  -4.781  -0.633  1.00  0.00     0.117 C 
ENDROOT
BRANCH   1   2
ATOM      2  N   UNL     1      -3.712  -5.223   0.579  1.00  0.00    -0.354 N 
ATOM      3  C   UNL     1      -2.751  -4.681   1.378  1.00  0.00     0.244 C 
ATOM      4  O   UNL     1      -2.292  -5.407   2.266  1.00  0.00    -0.273 OA
ATOM      5  H   UNL     1      -4.016  -6.107   0.888  1.00  0.00     0.163 HD
BRANCH   3   6
ATOM      6  C   UNL     1      -2.211  -3.251   1.199  1.00  0.00     0.197 C 
BRANCH   6   7
ATOM      7  N   UNL     1      -3.303  -2.279   1.308  1.00  0.00    -0.342 N 
ATOM      8  C   UNL     1      -3.335  -1.080   1.955  1.00  0.00     0.225 C 
ATOM      9  O   UNL     1      -4.410  -0.470   1.958  1.00  0.00    -0.275 OA
ATOM     10  H   UNL     1      -4.136  -2.530   0.846  1.00  0.00     0.164 HD
BRANCH   8  11
ATOM     11  C   UNL     1      -2.099  -0.484   2.609  1.00  0.00     0.137 C 
BRANCH  11  12
ATOM     12  C   UNL     1      -1.557  -1.265   3.773  1.00  0.00    -0.017 A 
ATOM     13  C   UNL     1      -3.668  -1.588   5.248  1.00  0.00     0.065 C 
ATOM     14  C   UNL     1      -2.235  -1.794   4.866  1.00  0.00     0.024 A 
ATOM     15  N   UNL     1      -1.323  -2.505   5.644  1.00  0.00    -0.314 N 
ATOM     16  C   UNL     1      -0.181  -1.566   3.966  1.00  0.00     0.033 A 
ATOM     17  C   UNL     1      -0.046  -2.338   5.105  1.00  0.00     0.053 A 
BRANCH  15  18
ATOM     18  C   UNL     1      -1.627  -3.283   6.795  1.00  0.00     0.046 A 
ATOM     19  C   UNL     1      -0.918  -3.074   7.986  1.00  0.00     0.029 A 
ATOM     20  C   UNL     1      -2.568  -4.318   6.695  1.00  0.00     0.029 A 
ATOM     21  C   UNL     1      -1.156  -3.904   9.082  1.00  0.00     0.041 A 
ATOM     22  C   UNL     1      -2.789  -5.149   7.793  1.00  0.00     0.041 A 
ATOM     23  C   UNL     1      -2.083  -4.935   8.974  1.00  0.00     0.123 A 
ATOM     24  F   UNL     1      -2.291  -5.741  10.023  1.00  0.00    -0.207 F 
ENDBRANCH  15  18
BRANCH  17  25
ATOM     25  C   UNL     1       1.177  -2.970   5.614  1.00  0.00    -0.001 A 
ATOM     26  C   UNL     1       1.259  -4.363   5.768  1.00  0.00     0.011 A 
ATOM     27  C   UNL     1       2.280  -2.179   5.961  1.00  0.00     0.011 A 
ATOM     28  C   UNL     1       2.399  -4.953   6.320  1.00  0.00     0.021 A 
ATOM     29  C   UNL     1       3.425  -2.761   6.510  1.00  0.00     0.021 A 
ATOM     30  C   UNL     1       3.469  -4.142   6.707  1.00  0.00     0.067 A 
BRANCH  30  31
ATOM     31  S   UNL     1       4.903  -4.900   7.434  1.00  0.00     0.175 S 
ATOM     32  C   UNL     1       4.308  -5.570   8.966  1.00  0.00     0.163 C 
ATOM     33  O   UNL     1       5.303  -5.979   6.579  1.00  0.00    -0.224 OA
ATOM     34  O   UNL     1       5.836  -3.822   7.777  1.00  0.00    -0.224 OA
ENDBRANCH  30  31
ENDBRANCH  17  25
ENDBRANCH  11  12
ENDBRANCH   8  11
ENDBRANCH   6   7
BRANCH   6  35
ATOM     35  C   UNL     1      -1.336  -3.120  -0.059  1.00  0.00     0.191 C 
BRANCH  35  36
ATOM     36  O   UNL     1      -1.711  -2.041  -0.912  1.00  0.00    -0.394 OA
ATOM     37  H   UNL     1      -2.613  -2.185  -1.237  1.00  0.00     0.210 HD
ENDBRANCH  35  36
ENDBRANCH   6  35
ENDBRANCH   3   6
ENDBRANCH   1   2
BRANCH   1  38
ATOM     38  C   UNL     1      -3.860  -5.455  -1.912  1.00  0.00     0.042 C 
BRANCH  38  39
ATOM     39  C   UNL     1      -3.757  -6.998  -1.902  1.00  0.00     0.118 C 
BRANCH  39  40
ATOM     40  N   UNL     1      -4.814  -7.672  -2.626  1.00  0.00    -0.352 N 
ATOM     41  C   UNL     1      -4.782  -8.882  -3.304  1.00  0.00     0.251 C 
ATOM     42  H   UNL     1      -5.681  -7.205  -2.638  1.00  0.00     0.163 HD
ATOM     43  O   UNL     1      -5.810  -9.203  -3.899  1.00  0.00    -0.269 OA
BRANCH  41  44
ATOM     44  C   UNL     1      -3.521  -9.709  -3.463  1.00  0.00     0.039 A 
ATOM     45  C   UNL     1      -2.838  -9.592  -4.660  1.00  0.00     0.014 A 
ATOM     46  C   UNL     1      -3.085 -10.748  -2.618  1.00  0.00     0.014 A 
ATOM     47  C   UNL     1      -1.711 -10.425  -4.950  1.00  0.00     0.010 A 
ATOM     48  C   UNL     1      -1.980 -11.665  -2.969  1.00  0.00     0.010 A 
ATOM     49  C   UNL     1      -1.234 -11.544  -4.162  1.00  0.00    -0.014 A 
BRANCH  49  50
ATOM     50  C   UNL     1      -0.345 -12.683  -4.982  1.00  0.00     0.031 A 
ATOM     51  C   UNL     1      -1.111 -12.765  -6.258  1.00  0.00     0.074 A 
ATOM     52  C   UNL     1       0.674 -13.652  -4.915  1.00  0.00     0.049 A 
ATOM     53  N   UNL     1      -2.368 -13.088  -6.178  1.00  0.00    -0.248 NA
ATOM     54  C   UNL     1      -0.728 -12.100  -7.504  1.00  0.00     0.031 C 
ATOM     55  C   UNL     1       1.440 -14.104  -3.739  1.00  0.00     0.029 A 
ATOM     56  N   UNL     1       1.290 -14.501  -5.912  1.00  0.00    -0.354 N 
ATOM     57  C   UNL     1      -2.914 -12.903  -7.419  1.00  0.00     0.074 A 
ATOM     58  C   UNL     1      -1.915 -12.107  -8.129  1.00  0.00     0.031 C 
ATOM     59  C   UNL     1       2.467 -14.947  -4.077  1.00  0.00     0.029 A 
ATOM     60  C   UNL     1       2.492 -15.227  -5.515  1.00  0.00     0.049 A 
ATOM     61  H   UNL     1       0.915 -14.585  -6.818  1.00  0.00     0.167 HD
ATOM     62  C   UNL     1      -3.650 -13.955  -7.879  1.00  0.00     0.031 A 
ATOM     63  C   UNL     1       3.373 -16.051  -6.242  1.00  0.00     0.031 A 
ATOM     64  C   UNL     1      -2.836 -14.813  -8.704  1.00  0.00     0.049 A 
ATOM     65  C   UNL     1       2.538 -16.644  -7.295  1.00  0.00     0.074 A 
ATOM     66  C   UNL     1      -1.940 -14.543  -9.722  1.00  0.00     0.029 A 
ATOM     67  N   UNL     1      -2.488 -16.043  -8.180  1.00  0.00    -0.354 N 
ATOM     68  N   UNL     1       1.690 -17.590  -7.036  1.00  0.00    -0.248 NA
ATOM     69  C   UNL     1       2.678 -16.286  -8.700  1.00  0.00     0.031 C 
ATOM     70  C   UNL     1      -0.810 -15.325  -9.406  1.00  0.00     0.029 A 
ATOM     71  C   UNL     1      -1.185 -16.336  -8.529  1.00  0.00     0.049 A 
ATOM     72  H   UNL     1      -3.077 -16.620  -7.642  1.00  0.00     0.167 HD
ATOM     73  C   UNL     1       0.839 -17.525  -8.096  1.00  0.00     0.074 A 
ATOM     74  C   UNL     1       1.618 -16.942  -9.176  1.00  0.00     0.031 C 
ATOM     75  C   UNL     1      -0.482 -17.378  -7.817  1.00  0.00     0.031 A 
BRANCH  62  76
ATOM     76  C   UNL     1      -4.667 -14.472  -6.882  1.00  0.00    -0.014 A 
ATOM     77  C   UNL     1      -6.033 -14.319  -7.153  1.00  0.00     0.010 A 
ATOM     78  C   UNL     1      -4.292 -15.004  -5.625  1.00  0.00     0.010 A 
ATOM     79  C   UNL     1      -6.988 -14.642  -6.178  1.00  0.00     0.020 A 
ATOM     80  C   UNL     1      -5.235 -15.292  -4.637  1.00  0.00     0.020 A 
ATOM     81  C   UNL     1      -6.582 -15.107  -4.920  1.00  0.00     0.054 A 
BRANCH  81  82
ATOM     82  S   UNL     1      -7.839 -15.418  -3.650  1.00  0.00     0.124 S 
ATOM     83  O   UNL     1      -8.636 -14.192  -3.683  1.00  0.00    -0.237 OA
ATOM     84  O   UNL     1      -8.511 -16.605  -4.168  1.00  0.00    -0.237 OA
ATOM     85  O   UNL     1      -7.068 -15.606  -2.424  1.00  0.00    -0.744 OA
ENDBRANCH  81  82
ENDBRANCH  62  76
BRANCH  63  86
ATOM     86  C   UNL     1       4.781 -16.779  -6.299  1.00  0.00    -0.014 A 
ATOM     87  C   UNL     1       4.928 -18.024  -7.020  1.00  0.00     0.010 A 
ATOM     88  C   UNL     1       6.003 -16.115  -6.087  1.00  0.00     0.010 A 
ATOM     89  C   UNL     1       6.142 -18.484  -7.605  1.00  0.00     0.020 A 
ATOM     90  C   UNL     1       7.242 -16.588  -6.647  1.00  0.00     0.020 A 
ATOM     91  C   UNL     1       7.299 -17.738  -7.446  1.00  0.00     0.054 A 
BRANCH  91  92
ATOM     92  S   UNL     1       8.806 -18.188  -8.404  1.00  0.00     0.124 S 
ATOM     93  O   UNL     1       9.212 -19.459  -7.812  1.00  0.00    -0.237 OA
ATOM     94  O   UNL     1       8.306 -18.269  -9.776  1.00  0.00    -0.237 OA
ATOM     95  O   UNL     1       9.717 -17.071  -8.157  1.00  0.00    -0.744 OA
ENDBRANCH  91  92
ENDBRANCH  63  86
BRANCH  75  96
ATOM     96  C   UNL     1      -1.056 -18.201  -6.672  1.00  0.00    -0.014 A 
ATOM     97  C   UNL     1      -0.455 -18.377  -5.402  1.00  0.00     0.010 A 
ATOM     98  C   UNL     1      -2.238 -18.919  -6.921  1.00  0.00     0.010 A 
ATOM     99  C   UNL     1      -0.955 -19.300  -4.470  1.00  0.00     0.020 A 
ATOM    100  C   UNL     1      -2.774 -19.804  -5.978  1.00  0.00     0.020 A 
ATOM    101  C   UNL     1      -2.105 -20.023  -4.774  1.00  0.00     0.054 A 
BRANCH 101 102
ATOM    102  S   UNL     1      -2.681 -21.298  -3.618  1.00  0.00     0.124 S 
ATOM    103  O   UNL     1      -1.608 -22.288  -3.690  1.00  0.00    -0.237 OA
ATOM    104  O   UNL     1      -2.775 -20.574  -2.354  1.00  0.00    -0.237 OA
ATOM    105  O   UNL     1      -3.952 -21.736  -4.190  1.00  0.00    -0.744 OA
ENDBRANCH 101 102
ENDBRANCH  75  96
ENDBRANCH  49  50
ENDBRANCH  41  44
ENDBRANCH  39  40
ENDBRANCH  38  39
ENDBRANCH   1  38
TORSDOF 21
