REMARK SMILES Cc1cc(C)c2c(=O)n(CCCC(=O)NCCCNC(=O)c3ccc(-c4c5nc(c(-c6ccc(S(=O)(=O)[O-])cc6)c6ccc([nH]6)c(-c6ccc(S(=O)(=O)[O-])cc6)c6nc(c(-c7ccc(S(=O)(=O)[O-])cc7)c7ccc4[nH]7)C=C6)C=C5)cc3)sc2n1
REMARK SMILES IDX 17 1 16 2 15 3 13 4 14 5 12 7 11 8 10 9 9 10 1 11 2 12 3 13
REMARK SMILES IDX 84 14 4 15 83 16 5 17 6 18 82 19 7 20 8 21 18 22 19 23 20 24
REMARK SMILES IDX 21 26 22 27 23 28 81 29 24 30 80 31 25 32 26 33 27 34 74 35
REMARK SMILES IDX 28 36 79 37 73 38 75 39 29 40 78 41 72 42 71 43 30 45 60 46
REMARK SMILES IDX 41 47 59 48 42 49 45 50 58 51 76 52 43 53 44 54 57 56 77 57
REMARK SMILES IDX 46 58 31 59 32 60 40 61 33 62 39 63 34 64 35 65 36 66 37 67
REMARK SMILES IDX 38 68 61 69 62 70 70 71 63 72 69 73 64 74 65 75 66 76 67 77
REMARK SMILES IDX 68 78 47 79 48 80 56 81 49 82 55 83 50 84 51 85 52 86 53 87
REMARK SMILES IDX 54 88
REMARK H PARENT 15 6 19 25 75 44 45 55
REMARK Flexibility Score: inf
ROOT
ATOM      1  C   UNL     1      -3.203   1.691   5.624  1.00  0.00     0.042 C 
ENDROOT
BRANCH   1   2
ATOM      2  C   UNL     1      -2.462   2.855   4.959  1.00  0.00     0.117 C 
BRANCH   2   3
ATOM      3  N   UNL     1      -2.473   4.040   5.797  1.00  0.00    -0.356 N 
ATOM      4  C   UNL     1      -1.496   4.573   6.580  1.00  0.00     0.220 C 
ATOM      5  O   UNL     1      -1.766   5.567   7.254  1.00  0.00    -0.275 OA
ATOM      6  H   UNL     1      -3.323   4.537   5.800  1.00  0.00     0.163 HD
BRANCH   4   7
ATOM      7  C   UNL     1      -0.089   4.014   6.560  1.00  0.00     0.102 C 
BRANCH   7   8
ATOM      8  C   UNL     1       0.227   2.827   7.476  1.00  0.00     0.033 C 
BRANCH   8   9
ATOM      9  C   UNL     1      -0.116   1.391   7.055  1.00  0.00     0.139 C 
BRANCH   9  10
ATOM     10  N   UNL     1       0.369   0.824   5.805  1.00  0.00    -0.262 N 
ATOM     11  C   UNL     1       1.132  -0.237  -0.163  1.00  0.00     0.067 C 
ATOM     12  C   UNL     1       0.876  -0.426   1.302  1.00  0.00     0.039 A 
ATOM     13  C   UNL     1       0.419  -1.654   1.802  1.00  0.00     0.027 A 
ATOM     14  N   UNL     1       1.160   0.628   2.102  1.00  0.00    -0.241 NA
ATOM     15  C   UNL     1       0.158  -1.800   3.175  1.00  0.00    -0.033 A 
ATOM     16  C   UNL     1       0.893   0.460   3.409  1.00  0.00     0.146 A 
ATOM     17  C   UNL     1      -0.277  -3.118   3.735  1.00  0.00     0.045 C 
ATOM     18  C   UNL     1       0.343  -0.676   3.971  1.00  0.00     0.081 A 
ATOM     19  S   UNL     1       1.269   1.682   4.635  1.00  0.00    -0.035 S 
ATOM     20  C   UNL     1      -0.015  -0.454   5.390  1.00  0.00     0.270 A 
ATOM     21  O   UNL     1      -0.644  -1.269   6.047  1.00  0.00    -0.268 OA
ENDBRANCH   9  10
ENDBRANCH   8   9
ENDBRANCH   7   8
ENDBRANCH   4   7
ENDBRANCH   2   3
ENDBRANCH   1   2
BRANCH   1  22
ATOM     22  C   UNL     1      -4.678   1.691   5.302  1.00  0.00     0.118 C 
BRANCH  22  23
ATOM     23  N   UNL     1      -4.986   1.173   3.965  1.00  0.00    -0.352 N 
ATOM     24  C   UNL     1      -6.252   0.970   3.418  1.00  0.00     0.251 C 
ATOM     25  H   UNL     1      -4.217   0.943   3.394  1.00  0.00     0.163 HD
ATOM     26  O   UNL     1      -6.426   0.260   2.454  1.00  0.00    -0.269 OA
BRANCH  24  27
ATOM     27  C   UNL     1      -7.372   1.677   4.074  1.00  0.00     0.039 A 
ATOM     28  C   UNL     1      -8.572   1.052   4.423  1.00  0.00     0.014 A 
ATOM     29  C   UNL     1      -7.103   2.978   4.466  1.00  0.00     0.014 A 
ATOM     30  C   UNL     1      -9.462   1.738   5.255  1.00  0.00     0.010 A 
ATOM     31  C   UNL     1      -7.827   3.511   5.488  1.00  0.00     0.010 A 
ATOM     32  C   UNL     1      -9.068   2.968   5.797  1.00  0.00    -0.014 A 
BRANCH  32  33
ATOM     33  C   UNL     1      -9.897   3.754   6.703  1.00  0.00     0.031 A 
ATOM     34  C   UNL     1     -10.284   3.110   7.989  1.00  0.00     0.074 A 
ATOM     35  C   UNL     1     -10.028   5.089   6.517  1.00  0.00     0.049 A 
ATOM     36  N   UNL     1     -11.473   2.833   8.411  1.00  0.00    -0.248 NA
ATOM     37  C   UNL     1      -9.213   2.645   8.886  1.00  0.00     0.031 C 
ATOM     38  C   UNL     1      -9.410   5.938   5.481  1.00  0.00     0.029 A 
ATOM     39  N   UNL     1     -10.608   6.006   7.327  1.00  0.00    -0.354 N 
ATOM     40  C   UNL     1     -11.323   2.333   9.703  1.00  0.00     0.074 A 
ATOM     41  C   UNL     1      -9.913   2.088   9.877  1.00  0.00     0.031 C 
ATOM     42  C   UNL     1      -9.409   7.225   5.887  1.00  0.00     0.029 A 
ATOM     43  C   UNL     1     -10.219   7.318   7.083  1.00  0.00     0.049 A 
ATOM     44  H   UNL     1     -11.252   5.763   8.031  1.00  0.00     0.167 HD
ATOM     45  C   UNL     1     -12.338   2.353  10.615  1.00  0.00     0.031 A 
ATOM     46  C   UNL     1     -10.529   8.404   7.829  1.00  0.00     0.031 A 
ATOM     47  C   UNL     1     -13.596   2.701  10.009  1.00  0.00     0.049 A 
ATOM     48  C   UNL     1     -11.718   8.034   8.634  1.00  0.00     0.074 A 
ATOM     49  C   UNL     1     -14.399   2.139   9.038  1.00  0.00     0.029 A 
ATOM     50  N   UNL     1     -13.994   4.015  10.113  1.00  0.00    -0.354 N 
ATOM     51  N   UNL     1     -12.876   7.744   8.108  1.00  0.00    -0.248 NA
ATOM     52  C   UNL     1     -11.506   7.539   9.984  1.00  0.00     0.031 C 
ATOM     53  C   UNL     1     -14.878   3.245   8.275  1.00  0.00     0.029 A 
ATOM     54  C   UNL     1     -14.398   4.418   8.864  1.00  0.00     0.049 A 
ATOM     55  H   UNL     1     -13.991   4.563  10.930  1.00  0.00     0.167 HD
ATOM     56  C   UNL     1     -13.359   6.688   8.868  1.00  0.00     0.074 A 
ATOM     57  C   UNL     1     -12.528   6.682  10.071  1.00  0.00     0.031 C 
ATOM     58  C   UNL     1     -14.195   5.750   8.328  1.00  0.00     0.031 A 
BRANCH  45  59
ATOM     59  C   UNL     1     -12.139   2.406  12.109  1.00  0.00    -0.014 A 
ATOM     60  C   UNL     1     -13.249   2.230  12.961  1.00  0.00     0.010 A 
ATOM     61  C   UNL     1     -10.948   2.877  12.699  1.00  0.00     0.010 A 
ATOM     62  C   UNL     1     -13.180   2.554  14.324  1.00  0.00     0.020 A 
ATOM     63  C   UNL     1     -10.855   3.161  14.063  1.00  0.00     0.020 A 
ATOM     64  C   UNL     1     -11.983   3.030  14.863  1.00  0.00     0.054 A 
BRANCH  64  65
ATOM     65  S   UNL     1     -11.935   3.551  16.596  1.00  0.00     0.124 S 
ATOM     66  O   UNL     1     -12.843   4.695  16.592  1.00  0.00    -0.237 OA
ATOM     67  O   UNL     1     -12.418   2.362  17.292  1.00  0.00    -0.237 OA
ATOM     68  O   UNL     1     -10.527   3.869  16.820  1.00  0.00    -0.744 OA
ENDBRANCH  64  65
ENDBRANCH  45  59
BRANCH  46  69
ATOM     69  C   UNL     1      -9.702   9.600   8.111  1.00  0.00    -0.014 A 
ATOM     70  C   UNL     1     -10.287  10.756   8.657  1.00  0.00     0.010 A 
ATOM     71  C   UNL     1      -8.294   9.501   8.129  1.00  0.00     0.010 A 
ATOM     72  C   UNL     1      -9.499  11.737   9.279  1.00  0.00     0.020 A 
ATOM     73  C   UNL     1      -7.502  10.479   8.743  1.00  0.00     0.020 A 
ATOM     74  C   UNL     1      -8.113  11.577   9.345  1.00  0.00     0.054 A 
BRANCH  74  75
ATOM     75  S   UNL     1      -7.135  12.741  10.343  1.00  0.00     0.124 S 
ATOM     76  O   UNL     1      -7.248  13.979   9.578  1.00  0.00    -0.237 OA
ATOM     77  O   UNL     1      -7.838  12.724  11.623  1.00  0.00    -0.237 OA
ATOM     78  O   UNL     1      -5.801  12.143  10.364  1.00  0.00    -0.744 OA
ENDBRANCH  74  75
ENDBRANCH  46  69
BRANCH  58  79
ATOM     79  C   UNL     1     -14.764   6.011   6.947  1.00  0.00    -0.014 A 
ATOM     80  C   UNL     1     -13.973   6.094   5.782  1.00  0.00     0.010 A 
ATOM     81  C   UNL     1     -16.161   6.008   6.801  1.00  0.00     0.010 A 
ATOM     82  C   UNL     1     -14.564   6.193   4.512  1.00  0.00     0.020 A 
ATOM     83  C   UNL     1     -16.757   6.091   5.538  1.00  0.00     0.020 A 
ATOM     84  C   UNL     1     -15.956   6.190   4.399  1.00  0.00     0.054 A 
BRANCH  84  85
ATOM     85  S   UNL     1     -16.718   6.271   2.753  1.00  0.00     0.124 S 
ATOM     86  O   UNL     1     -16.361   7.613   2.301  1.00  0.00    -0.237 OA
ATOM     87  O   UNL     1     -16.067   5.174   2.039  1.00  0.00    -0.237 OA
ATOM     88  O   UNL     1     -18.142   6.067   3.017  1.00  0.00    -0.744 OA
ENDBRANCH  84  85
ENDBRANCH  58  79
ENDBRANCH  32  33
ENDBRANCH  24  27
ENDBRANCH  22  23
ENDBRANCH   1  22
TORSDOF 16
