REMARK SMILES Cn1cncc1COc1c(F)cc(C(=O)NCCCNC(=O)c2ccc(-c3c4nc(c(-c5ccc(S(=O)(=O)[O-])cc5)c5ccc([nH]5)c(-c5ccc(S(=O)(=O)[O-])cc5)c5nc(c(-c6ccc(S(=O)(=O)[O-])cc6)c6ccc3[nH]6)C=C5)C=C4)cc2)cc1F
REMARK SMILES IDX 18 1 17 2 16 3 14 4 15 5 13 7 9 8 10 9 84 10 11 11 12 12
REMARK SMILES IDX 83 13 85 14 8 15 7 16 6 17 1 18 2 19 3 20 4 21 5 22 19 23
REMARK SMILES IDX 20 24 21 25 22 27 23 28 24 29 82 30 25 31 81 32 26 33 27 34
REMARK SMILES IDX 28 35 75 36 29 37 80 38 74 39 76 40 30 41 79 42 73 43 72 44
REMARK SMILES IDX 31 46 61 47 42 48 60 49 43 50 46 51 59 52 77 53 44 54 45 55
REMARK SMILES IDX 58 57 78 58 47 59 32 60 33 61 41 62 34 63 40 64 35 65 36 66
REMARK SMILES IDX 37 67 38 68 39 69 62 70 63 71 71 72 64 73 70 74 65 75 66 76
REMARK SMILES IDX 67 77 68 78 69 79 48 80 49 81 57 82 50 83 56 84 51 85 52 86
REMARK SMILES IDX 53 87 54 88 55 89
REMARK H PARENT 16 6 20 26 76 45 46 56
REMARK Flexibility Score: inf
ROOT
ATOM      1  C   UNL     1      -0.289   1.907   6.025  1.00  0.00     0.042 C 
ENDROOT
BRANCH   1   2
ATOM      2  C   UNL     1       1.024   1.125   6.007  1.00  0.00     0.118 C 
BRANCH   2   3
ATOM      3  N   UNL     1       0.956  -0.102   6.786  1.00  0.00    -0.352 N 
ATOM      4  C   UNL     1       0.833  -1.416   6.406  1.00  0.00     0.251 C 
ATOM      5  O   UNL     1       1.006  -2.290   7.254  1.00  0.00    -0.269 OA
ATOM      6  H   UNL     1       1.008   0.035   7.760  1.00  0.00     0.163 HD
BRANCH   4   7
ATOM      7  C   UNL     1       0.526  -1.828   5.010  1.00  0.00     0.045 A 
ATOM      8  C   UNL     1      -0.050  -2.720   2.397  1.00  0.00     0.191 A 
ATOM      9  C   UNL     1      -0.552  -1.515   2.872  1.00  0.00     0.168 A 
ATOM     10  C   UNL     1       0.683  -3.517   3.272  1.00  0.00     0.168 A 
ATOM     11  F   UNL     1      -1.350  -0.753   2.118  1.00  0.00    -0.203 F 
ATOM     12  C   UNL     1      -0.268  -1.069   4.156  1.00  0.00     0.057 A 
ATOM     13  C   UNL     1       0.973  -3.083   4.568  1.00  0.00     0.057 A 
ATOM     14  F   UNL     1       1.122  -4.721   2.877  1.00  0.00    -0.203 F 
BRANCH   8  15
ATOM     15  O   UNL     1      -0.370  -3.167   1.144  1.00  0.00    -0.481 OA
BRANCH  15  16
ATOM     16  C   UNL     1       0.517  -2.657   0.133  1.00  0.00     0.285 C 
BRANCH  16  17
ATOM     17  C   UNL     1       0.025  -1.333  -0.337  1.00  0.00     0.075 A 
ATOM     18  C   UNL     1       2.172  -0.026  -0.096  1.00  0.00     0.151 C 
ATOM     19  N   UNL     1       0.769  -0.177  -0.389  1.00  0.00    -0.335 N 
ATOM     20  C   UNL     1      -0.057   0.837  -0.780  1.00  0.00     0.199 A 
ATOM     21  N   UNL     1      -1.263   0.397  -1.050  1.00  0.00    -0.245 NA
ATOM     22  C   UNL     1      -1.229  -0.943  -0.770  1.00  0.00     0.138 A 
ENDBRANCH  16  17
ENDBRANCH  15  16
ENDBRANCH   8  15
ENDBRANCH   4   7
ENDBRANCH   2   3
ENDBRANCH   1   2
BRANCH   1  23
ATOM     23  C   UNL     1      -0.525   2.712   7.297  1.00  0.00     0.118 C 
BRANCH  23  24
ATOM     24  N   UNL     1       0.389   3.837   7.413  1.00  0.00    -0.352 N 
ATOM     25  C   UNL     1       0.131   5.181   7.524  1.00  0.00     0.251 C 
ATOM     26  H   UNL     1       1.343   3.597   7.413  1.00  0.00     0.163 HD
ATOM     27  O   UNL     1       1.059   5.974   7.393  1.00  0.00    -0.269 OA
BRANCH  25  28
ATOM     28  C   UNL     1      -1.239   5.682   7.788  1.00  0.00     0.039 A 
ATOM     29  C   UNL     1      -1.650   6.868   7.169  1.00  0.00     0.014 A 
ATOM     30  C   UNL     1      -2.099   5.032   8.678  1.00  0.00     0.014 A 
ATOM     31  C   UNL     1      -2.933   7.371   7.403  1.00  0.00     0.010 A 
ATOM     32  C   UNL     1      -3.403   5.494   8.852  1.00  0.00     0.010 A 
ATOM     33  C   UNL     1      -3.831   6.673   8.226  1.00  0.00    -0.014 A 
BRANCH  33  34
ATOM     34  C   UNL     1      -5.216   7.163   8.446  1.00  0.00     0.031 A 
ATOM     35  C   UNL     1      -5.667   7.579   9.821  1.00  0.00     0.074 A 
ATOM     36  C   UNL     1      -6.089   7.173   7.419  1.00  0.00     0.049 A 
ATOM     37  N   UNL     1      -6.850   7.975  10.217  1.00  0.00    -0.248 NA
ATOM     38  C   UNL     1      -4.664   7.518  10.896  1.00  0.00     0.031 C 
ATOM     39  C   UNL     1      -5.786   6.757   6.047  1.00  0.00     0.029 A 
ATOM     40  N   UNL     1      -7.411   7.538   7.370  1.00  0.00    -0.354 N 
ATOM     41  C   UNL     1      -6.739   8.189  11.587  1.00  0.00     0.074 A 
ATOM     42  C   UNL     1      -5.387   7.836  11.960  1.00  0.00     0.031 C 
ATOM     43  C   UNL     1      -6.882   6.914   5.288  1.00  0.00     0.029 A 
ATOM     44  C   UNL     1      -7.975   7.401   6.123  1.00  0.00     0.049 A 
ATOM     45  H   UNL     1      -7.908   7.868   8.153  1.00  0.00     0.167 HD
ATOM     46  C   UNL     1      -7.673   8.654  12.453  1.00  0.00     0.031 A 
ATOM     47  C   UNL     1      -9.232   7.632   5.699  1.00  0.00     0.031 A 
ATOM     48  C   UNL     1      -9.014   9.012  12.075  1.00  0.00     0.049 A 
ATOM     49  C   UNL     1     -10.253   8.145   6.677  1.00  0.00     0.074 A 
ATOM     50  C   UNL     1     -10.018   9.547  12.864  1.00  0.00     0.029 A 
ATOM     51  N   UNL     1      -9.542   8.870  10.800  1.00  0.00    -0.354 N 
ATOM     52  N   UNL     1     -10.110   8.403   7.956  1.00  0.00    -0.248 NA
ATOM     53  C   UNL     1     -11.599   8.409   6.153  1.00  0.00     0.031 C 
ATOM     54  C   UNL     1     -11.168   9.680  12.078  1.00  0.00     0.029 A 
ATOM     55  C   UNL     1     -10.864   9.284  10.785  1.00  0.00     0.049 A 
ATOM     56  H   UNL     1      -9.049   8.526  10.020  1.00  0.00     0.167 HD
ATOM     57  C   UNL     1     -11.343   8.883   8.384  1.00  0.00     0.074 A 
ATOM     58  C   UNL     1     -12.213   8.893   7.225  1.00  0.00     0.031 C 
ATOM     59  C   UNL     1     -11.719   9.282   9.624  1.00  0.00     0.031 A 
BRANCH  46  60
ATOM     60  C   UNL     1      -7.272   8.787  13.900  1.00  0.00    -0.014 A 
ATOM     61  C   UNL     1      -6.343   9.761  14.312  1.00  0.00     0.010 A 
ATOM     62  C   UNL     1      -7.850   7.944  14.867  1.00  0.00     0.010 A 
ATOM     63  C   UNL     1      -5.959   9.851  15.653  1.00  0.00     0.020 A 
ATOM     64  C   UNL     1      -7.491   8.051  16.214  1.00  0.00     0.020 A 
ATOM     65  C   UNL     1      -6.530   8.991  16.595  1.00  0.00     0.054 A 
BRANCH  65  66
ATOM     66  S   UNL     1      -6.015   9.132  18.328  1.00  0.00     0.124 S 
ATOM     67  O   UNL     1      -4.678   8.543  18.292  1.00  0.00    -0.237 OA
ATOM     68  O   UNL     1      -6.059  10.573  18.560  1.00  0.00    -0.237 OA
ATOM     69  O   UNL     1      -7.018   8.355  19.053  1.00  0.00    -0.744 OA
ENDBRANCH  65  66
ENDBRANCH  46  60
BRANCH  47  70
ATOM     70  C   UNL     1      -9.584   7.400   4.272  1.00  0.00    -0.014 A 
ATOM     71  C   UNL     1      -9.819   8.486   3.411  1.00  0.00     0.010 A 
ATOM     72  C   UNL     1      -9.654   6.092   3.758  1.00  0.00     0.010 A 
ATOM     73  C   UNL     1     -10.127   8.268   2.065  1.00  0.00     0.020 A 
ATOM     74  C   UNL     1      -9.935   5.871   2.407  1.00  0.00     0.020 A 
ATOM     75  C   UNL     1     -10.179   6.962   1.570  1.00  0.00     0.054 A 
BRANCH  75  76
ATOM     76  S   UNL     1     -10.519   6.710  -0.194  1.00  0.00     0.124 S 
ATOM     77  O   UNL     1     -11.943   7.018  -0.276  1.00  0.00    -0.237 OA
ATOM     78  O   UNL     1      -9.625   7.675  -0.829  1.00  0.00    -0.237 OA
ATOM     79  O   UNL     1     -10.167   5.308  -0.413  1.00  0.00    -0.744 OA
ENDBRANCH  75  76
ENDBRANCH  47  70
BRANCH  59  80
ATOM     80  C   UNL     1     -13.126   9.792   9.790  1.00  0.00    -0.014 A 
ATOM     81  C   UNL     1     -14.227   8.918   9.758  1.00  0.00     0.010 A 
ATOM     82  C   UNL     1     -13.343  11.160  10.034  1.00  0.00     0.010 A 
ATOM     83  C   UNL     1     -15.523   9.408   9.937  1.00  0.00     0.020 A 
ATOM     84  C   UNL     1     -14.635  11.650  10.242  1.00  0.00     0.020 A 
ATOM     85  C   UNL     1     -15.719  10.772  10.178  1.00  0.00     0.054 A 
BRANCH  85  86
ATOM     86  S   UNL     1     -17.406  11.377  10.452  1.00  0.00     0.124 S 
ATOM     87  O   UNL     1     -17.965  11.341   9.104  1.00  0.00    -0.237 OA
ATOM     88  O   UNL     1     -17.952  10.395  11.386  1.00  0.00    -0.237 OA
ATOM     89  O   UNL     1     -17.209  12.714  11.009  1.00  0.00    -0.744 OA
ENDBRANCH  85  86
ENDBRANCH  59  80
ENDBRANCH  33  34
ENDBRANCH  25  28
ENDBRANCH  23  24
ENDBRANCH   1  23
TORSDOF 16
