REMARK SMILES CC[C@H](CCO)CNc1cc(C(=O)NCCCNC(=O)c2ccc(-c3c4nc(c(-c5ccc(S(=O)(=O)[O-])cc5)c5ccc([nH]5)c(-c5ccc(S(=O)(=O)[O-])cc5)c5nc(c(-c6ccc(S(=O)(=O)[O-])cc6)c6ccc3[nH]6)C=C5)C=C4)cc2)ccn1
REMARK SMILES IDX 12 1 13 2 14 3 11 5 9 6 10 7 83 8 82 9 81 10 8 11 7 13 3 14
REMARK SMILES IDX 2 15 1 16 4 17 5 18 6 19 15 21 16 22 17 23 18 24 19 25 20 27
REMARK SMILES IDX 21 28 22 29 80 30 23 31 79 32 24 33 25 34 26 35 73 36 27 37
REMARK SMILES IDX 78 38 72 39 74 40 28 41 77 42 71 43 70 44 29 46 59 47 40 48
REMARK SMILES IDX 58 49 41 50 44 51 57 52 75 53 42 54 43 55 56 57 76 58 45 59
REMARK SMILES IDX 30 60 31 61 39 62 32 63 38 64 33 65 34 66 35 67 36 68 37 69
REMARK SMILES IDX 60 70 61 71 69 72 62 73 68 74 63 75 64 76 65 77 66 78 67 79
REMARK SMILES IDX 46 80 47 81 55 82 48 83 54 84 49 85 50 86 51 87 52 88 53 89
REMARK H PARENT 14 4 8 12 6 20 18 26 74 45 44 56
REMARK Flexibility Score: inf
ROOT
ATOM      1  C   UNL     1       1.809   4.964  -7.344  1.00  0.00     0.251 C 
ATOM      2  O   UNL     1       2.393   5.759  -8.083  1.00  0.00    -0.269 OA
ATOM      3  N   UNL     1       0.827   4.192  -7.909  1.00  0.00    -0.352 N 
ATOM      4  H   UNL     1       0.680   4.384  -8.864  1.00  0.00     0.163 HD
ENDROOT
BRANCH   1   5
ATOM      5  C   UNL     1       2.255   4.842  -5.930  1.00  0.00     0.044 A 
ATOM      6  C   UNL     1       2.103   4.042  -3.677  1.00  0.00     0.126 A 
ATOM      7  C   UNL     1       1.502   4.287  -4.901  1.00  0.00     0.060 A 
ATOM      8  N   UNL     1       3.339   4.484  -3.386  1.00  0.00    -0.240 NA
ATOM      9  C   UNL     1       4.021   5.127  -4.355  1.00  0.00     0.114 A 
ATOM     10  C   UNL     1       3.541   5.300  -5.636  1.00  0.00     0.034 A 
BRANCH   6  11
ATOM     11  N   UNL     1       1.518   3.271  -2.694  1.00  0.00    -0.370 N 
ATOM     12  H   UNL     1       1.656   3.500  -1.746  1.00  0.00     0.162 HD
BRANCH  11  13
ATOM     13  C   UNL     1       0.696   2.119  -3.045  1.00  0.00     0.118 C 
BRANCH  13  14
ATOM     14  C   UNL     1       0.882   0.965  -2.043  1.00  0.00     0.010 C 
BRANCH  14  15
ATOM     15  C   UNL     1       0.369  -0.367  -2.652  1.00  0.00     0.002 C 
ATOM     16  C   UNL     1      -1.075  -0.330  -3.149  1.00  0.00     0.004 C 
ENDBRANCH  14  15
BRANCH  14  17
ATOM     17  C   UNL     1       0.277   1.148  -0.627  1.00  0.00     0.033 C 
BRANCH  17  18
ATOM     18  C   UNL     1       0.325   2.531   0.008  1.00  0.00     0.156 C 
BRANCH  18  19
ATOM     19  O   UNL     1      -0.554   3.421  -0.659  1.00  0.00    -0.396 OA
ATOM     20  H   UNL     1      -0.287   3.503  -1.588  1.00  0.00     0.210 HD
ENDBRANCH  18  19
ENDBRANCH  17  18
ENDBRANCH  14  17
ENDBRANCH  13  14
ENDBRANCH  11  13
ENDBRANCH   6  11
ENDBRANCH   1   5
BRANCH   3  21
ATOM     21  C   UNL     1      -0.040   3.150  -7.391  1.00  0.00     0.118 C 
BRANCH  21  22
ATOM     22  C   UNL     1      -1.409   3.715  -7.009  1.00  0.00     0.042 C 
BRANCH  22  23
ATOM     23  C   UNL     1      -2.305   3.968  -8.220  1.00  0.00     0.118 C 
BRANCH  23  24
ATOM     24  N   UNL     1      -2.707   2.723  -8.860  1.00  0.00    -0.352 N 
ATOM     25  C   UNL     1      -3.960   2.237  -9.137  1.00  0.00     0.251 C 
ATOM     26  H   UNL     1      -1.964   2.139  -9.136  1.00  0.00     0.163 HD
ATOM     27  O   UNL     1      -4.085   1.059  -9.461  1.00  0.00    -0.269 OA
BRANCH  25  28
ATOM     28  C   UNL     1      -5.147   3.113  -9.045  1.00  0.00     0.039 A 
ATOM     29  C   UNL     1      -6.334   2.584  -8.530  1.00  0.00     0.014 A 
ATOM     30  C   UNL     1      -5.113   4.431  -9.509  1.00  0.00     0.014 A 
ATOM     31  C   UNL     1      -7.471   3.390  -8.436  1.00  0.00     0.010 A 
ATOM     32  C   UNL     1      -6.226   5.254  -9.349  1.00  0.00     0.010 A 
ATOM     33  C   UNL     1      -7.418   4.740  -8.818  1.00  0.00    -0.014 A 
BRANCH  33  34
ATOM     34  C   UNL     1      -8.597   5.630  -8.666  1.00  0.00     0.031 A 
ATOM     35  C   UNL     1      -9.252   6.236  -9.878  1.00  0.00     0.074 A 
ATOM     36  C   UNL     1      -9.039   5.938  -7.430  1.00  0.00     0.049 A 
ATOM     37  N   UNL     1     -10.247   7.083  -9.939  1.00  0.00    -0.248 NA
ATOM     38  C   UNL     1      -8.704   5.859 -11.191  1.00  0.00     0.031 C 
ATOM     39  C   UNL     1      -8.464   5.443  -6.177  1.00  0.00     0.029 A 
ATOM     40  N   UNL     1     -10.069   6.749  -7.024  1.00  0.00    -0.354 N 
ATOM     41  C   UNL     1     -10.433   7.353 -11.290  1.00  0.00     0.074 A 
ATOM     42  C   UNL     1      -9.418   6.617 -12.011  1.00  0.00     0.031 C 
ATOM     43  C   UNL     1      -9.163   5.942  -5.145  1.00  0.00     0.029 A 
ATOM     44  C   UNL     1     -10.206   6.824  -5.657  1.00  0.00     0.049 A 
ATOM     45  H   UNL     1     -10.655   7.231  -7.651  1.00  0.00     0.167 HD
ATOM     46  C   UNL     1     -11.375   8.130 -11.879  1.00  0.00     0.031 A 
ATOM     47  C   UNL     1     -11.066   7.532  -4.900  1.00  0.00     0.031 A 
ATOM     48  C   UNL     1     -12.388   8.853 -11.156  1.00  0.00     0.049 A 
ATOM     49  C   UNL     1     -12.094   8.397  -5.577  1.00  0.00     0.074 A 
ATOM     50  C   UNL     1     -13.418   9.626 -11.662  1.00  0.00     0.029 A 
ATOM     51  N   UNL     1     -12.499   8.893  -9.774  1.00  0.00    -0.354 N 
ATOM     52  N   UNL     1     -12.292   8.590  -6.860  1.00  0.00    -0.248 NA
ATOM     53  C   UNL     1     -13.023   9.129  -4.706  1.00  0.00     0.031 C 
ATOM     54  C   UNL     1     -14.120  10.177 -10.585  1.00  0.00     0.029 A 
ATOM     55  C   UNL     1     -13.567   9.696  -9.409  1.00  0.00     0.049 A 
ATOM     56  H   UNL     1     -11.907   8.421  -9.146  1.00  0.00     0.167 HD
ATOM     57  C   UNL     1     -13.387   9.443  -6.949  1.00  0.00     0.074 A 
ATOM     58  C   UNL     1     -13.816   9.714  -5.592  1.00  0.00     0.031 C 
ATOM     59  C   UNL     1     -13.983   9.954  -8.054  1.00  0.00     0.031 A 
BRANCH  46  60
ATOM     60  C   UNL     1     -11.352   8.240 -13.382  1.00  0.00    -0.014 A 
ATOM     61  C   UNL     1     -11.701   7.147 -14.196  1.00  0.00     0.010 A 
ATOM     62  C   UNL     1     -11.027   9.467 -13.989  1.00  0.00     0.010 A 
ATOM     63  C   UNL     1     -11.688   7.267 -15.588  1.00  0.00     0.020 A 
ATOM     64  C   UNL     1     -11.042   9.600 -15.381  1.00  0.00     0.020 A 
ATOM     65  C   UNL     1     -11.357   8.493 -16.172  1.00  0.00     0.054 A 
BRANCH  65  66
ATOM     66  S   UNL     1     -11.379   8.626 -17.981  1.00  0.00     0.124 S 
ATOM     67  O   UNL     1     -10.194   7.857 -18.353  1.00  0.00    -0.237 OA
ATOM     68  O   UNL     1     -12.658   8.016 -18.332  1.00  0.00    -0.237 OA
ATOM     69  O   UNL     1     -11.289  10.064 -18.225  1.00  0.00    -0.744 OA
ENDBRANCH  65  66
ENDBRANCH  46  60
BRANCH  47  70
ATOM     70  C   UNL     1     -10.996   7.446  -3.416  1.00  0.00    -0.014 A 
ATOM     71  C   UNL     1     -12.016   6.806  -2.688  1.00  0.00     0.010 A 
ATOM     72  C   UNL     1      -9.905   7.998  -2.720  1.00  0.00     0.010 A 
ATOM     73  C   UNL     1     -11.958   6.742  -1.293  1.00  0.00     0.020 A 
ATOM     74  C   UNL     1      -9.829   7.910  -1.327  1.00  0.00     0.020 A 
ATOM     75  C   UNL     1     -10.864   7.295  -0.621  1.00  0.00     0.054 A 
BRANCH  75  76
ATOM     76  S   UNL     1     -10.792   7.166   1.187  1.00  0.00     0.124 S 
ATOM     77  O   UNL     1     -11.804   8.133   1.600  1.00  0.00    -0.237 OA
ATOM     78  O   UNL     1     -11.126   5.762   1.417  1.00  0.00    -0.237 OA
ATOM     79  O   UNL     1      -9.412   7.530   1.501  1.00  0.00    -0.744 OA
ENDBRANCH  75  76
ENDBRANCH  47  70
BRANCH  59  80
ATOM     80  C   UNL     1     -15.191  10.829  -7.848  1.00  0.00    -0.014 A 
ATOM     81  C   UNL     1     -15.072  12.128  -7.324  1.00  0.00     0.010 A 
ATOM     82  C   UNL     1     -16.459  10.361  -8.238  1.00  0.00     0.010 A 
ATOM     83  C   UNL     1     -16.204  12.931  -7.164  1.00  0.00     0.020 A 
ATOM     84  C   UNL     1     -17.589  11.171  -8.108  1.00  0.00     0.020 A 
ATOM     85  C   UNL     1     -17.456  12.447  -7.558  1.00  0.00     0.054 A 
BRANCH  85  86
ATOM     86  S   UNL     1     -18.903  13.526  -7.383  1.00  0.00     0.124 S 
ATOM     87  O   UNL     1     -19.120  13.513  -5.939  1.00  0.00    -0.237 OA
ATOM     88  O   UNL     1     -18.428  14.793  -7.936  1.00  0.00    -0.237 OA
ATOM     89  O   UNL     1     -19.933  12.856  -8.174  1.00  0.00    -0.744 OA
ENDBRANCH  85  86
ENDBRANCH  59  80
ENDBRANCH  33  34
ENDBRANCH  25  28
ENDBRANCH  23  24
ENDBRANCH  22  23
ENDBRANCH  21  22
ENDBRANCH   3  21
TORSDOF 20
