REMARK SMILES O=C(NCCCNC(=O)c1cccc(Nc2ccc([N+](=O)[O-])cc2)c1)c1ccc(-c2c3nc(c(-c4ccc(S(=O)(=O)[O-])cc4)c4ccc([nH]4)c(-c4ccc(S(=O)(=O)[O-])cc4)c4nc(c(-c5ccc(S(=O)(=O)[O-])cc5)c5ccc2[nH]5)C=C4)C=C3)cc1
REMARK SMILES IDX 5 1 4 2 3 3 1 4 2 5 26 7 27 8 85 9 28 10 84 11 29 12 30 13
REMARK SMILES IDX 31 14 78 15 32 16 83 17 77 18 79 19 33 20 82 21 76 22 75 23
REMARK SMILES IDX 34 25 64 26 45 27 63 28 46 29 49 30 62 31 80 32 47 33 48 34
REMARK SMILES IDX 61 36 81 37 50 38 35 39 36 40 44 41 37 42 43 43 38 44 39 45
REMARK SMILES IDX 40 46 41 47 42 48 65 49 66 50 74 51 67 52 73 53 68 54 69 55
REMARK SMILES IDX 70 56 71 57 72 58 51 59 52 60 60 61 53 62 59 63 54 64 55 65
REMARK SMILES IDX 56 66 57 67 58 68 6 69 7 70 8 71 9 73 10 74 11 75 25 76
REMARK SMILES IDX 12 77 14 78 13 79 15 80 16 82 17 83 24 84 18 85 23 86 19 87
REMARK SMILES IDX 20 88 21 89 22 90
REMARK H PARENT 3 6 79 24 49 35 7 72 15 81
REMARK Flexibility Score: inf
ROOT
ATOM      1  C   UNL     1       5.001  -0.979   2.259  1.00  0.00     0.042 C 
ENDROOT
BRANCH   1   2
ATOM      2  C   UNL     1       4.628  -1.138   0.790  1.00  0.00     0.118 C 
BRANCH   2   3
ATOM      3  N   UNL     1       3.189  -1.109   0.568  1.00  0.00    -0.352 N 
ATOM      4  O   UNL     1       1.179  -0.255   0.045  1.00  0.00    -0.269 OA
ATOM      5  C   UNL     1       2.404  -0.171  -0.053  1.00  0.00     0.251 C 
ATOM      6  H   UNL     1       2.701  -1.888   0.919  1.00  0.00     0.163 HD
BRANCH   5   7
ATOM      7  C   UNL     1       3.009   0.944  -0.813  1.00  0.00     0.039 A 
ATOM      8  C   UNL     1       4.093   0.736  -1.670  1.00  0.00     0.014 A 
ATOM      9  C   UNL     1       2.449   2.220  -0.698  1.00  0.00     0.014 A 
ATOM     10  C   UNL     1       4.702   1.819  -2.300  1.00  0.00     0.010 A 
ATOM     11  C   UNL     1       3.012   3.293  -1.393  1.00  0.00     0.010 A 
ATOM     12  C   UNL     1       4.163   3.107  -2.174  1.00  0.00    -0.014 A 
BRANCH  12  13
ATOM     13  C   UNL     1       4.777   4.250  -2.895  1.00  0.00     0.031 A 
ATOM     14  C   UNL     1       5.394   5.392  -2.137  1.00  0.00     0.074 A 
ATOM     15  C   UNL     1       4.753   4.269  -4.242  1.00  0.00     0.049 A 
ATOM     16  N   UNL     1       5.904   6.506  -2.598  1.00  0.00    -0.248 NA
ATOM     17  C   UNL     1       5.434   5.272  -0.672  1.00  0.00     0.031 C 
ATOM     18  C   UNL     1       4.187   3.217  -5.090  1.00  0.00     0.029 A 
ATOM     19  N   UNL     1       5.207   5.207  -5.133  1.00  0.00    -0.354 N 
ATOM     20  C   UNL     1       6.299   7.233  -1.481  1.00  0.00     0.074 A 
ATOM     21  C   UNL     1       5.954   6.441  -0.320  1.00  0.00     0.031 C 
ATOM     22  C   UNL     1       4.340   3.562  -6.377  1.00  0.00     0.029 A 
ATOM     23  C   UNL     1       4.957   4.883  -6.444  1.00  0.00     0.049 A 
ATOM     24  H   UNL     1       5.668   6.033  -4.859  1.00  0.00     0.167 HD
ATOM     25  C   UNL     1       6.894   8.450  -1.429  1.00  0.00     0.031 A 
ATOM     26  C   UNL     1       5.168   5.578  -7.578  1.00  0.00     0.031 A 
ATOM     27  C   UNL     1       7.229   9.235  -2.588  1.00  0.00     0.049 A 
ATOM     28  C   UNL     1       5.799   6.937  -7.498  1.00  0.00     0.074 A 
ATOM     29  C   UNL     1       7.858  10.467  -2.641  1.00  0.00     0.029 A 
ATOM     30  N   UNL     1       6.957   8.869  -3.898  1.00  0.00    -0.354 N 
ATOM     31  N   UNL     1       6.189   7.598  -6.434  1.00  0.00    -0.248 NA
ATOM     32  C   UNL     1       6.022   7.643  -8.766  1.00  0.00     0.031 C 
ATOM     33  C   UNL     1       7.923  10.867  -3.980  1.00  0.00     0.029 A 
ATOM     34  C   UNL     1       7.385   9.860  -4.766  1.00  0.00     0.049 A 
ATOM     35  H   UNL     1       6.523   8.028  -4.171  1.00  0.00     0.167 HD
ATOM     36  C   UNL     1       6.727   8.789  -6.906  1.00  0.00     0.074 A 
ATOM     37  C   UNL     1       6.614   8.756  -8.351  1.00  0.00     0.031 C 
ATOM     38  C   UNL     1       7.270   9.812  -6.202  1.00  0.00     0.031 A 
BRANCH  25  39
ATOM     39  C   UNL     1       7.175   9.023  -0.065  1.00  0.00    -0.014 A 
ATOM     40  C   UNL     1       8.183   8.490   0.760  1.00  0.00     0.010 A 
ATOM     41  C   UNL     1       6.419  10.115   0.399  1.00  0.00     0.010 A 
ATOM     42  C   UNL     1       8.387   8.998   2.046  1.00  0.00     0.020 A 
ATOM     43  C   UNL     1       6.637  10.643   1.675  1.00  0.00     0.020 A 
ATOM     44  C   UNL     1       7.602  10.063   2.500  1.00  0.00     0.054 A 
BRANCH  44  45
ATOM     45  S   UNL     1       7.864  10.685   4.184  1.00  0.00     0.124 S 
ATOM     46  O   UNL     1       7.216   9.652   4.988  1.00  0.00    -0.237 OA
ATOM     47  O   UNL     1       9.320  10.739   4.287  1.00  0.00    -0.237 OA
ATOM     48  O   UNL     1       7.195  11.984   4.181  1.00  0.00    -0.744 OA
ENDBRANCH  44  45
ENDBRANCH  25  39
BRANCH  26  49
ATOM     49  C   UNL     1       4.757   4.982  -8.876  1.00  0.00    -0.014 A 
ATOM     50  C   UNL     1       5.717   4.462  -9.759  1.00  0.00     0.010 A 
ATOM     51  C   UNL     1       3.391   4.851  -9.191  1.00  0.00     0.010 A 
ATOM     52  C   UNL     1       5.318   3.812 -10.930  1.00  0.00     0.020 A 
ATOM     53  C   UNL     1       2.988   4.180 -10.348  1.00  0.00     0.020 A 
ATOM     54  C   UNL     1       3.956   3.666 -11.212  1.00  0.00     0.054 A 
BRANCH  54  55
ATOM     55  S   UNL     1       3.462   2.725 -12.683  1.00  0.00     0.124 S 
ATOM     56  O   UNL     1       3.745   3.670 -13.757  1.00  0.00    -0.237 OA
ATOM     57  O   UNL     1       4.337   1.557 -12.619  1.00  0.00    -0.237 OA
ATOM     58  O   UNL     1       2.047   2.445 -12.449  1.00  0.00    -0.744 OA
ENDBRANCH  54  55
ENDBRANCH  26  49
BRANCH  38  59
ATOM     59  C   UNL     1       7.827  10.973  -6.980  1.00  0.00    -0.014 A 
ATOM     60  C   UNL     1       6.982  11.937  -7.556  1.00  0.00     0.010 A 
ATOM     61  C   UNL     1       9.221  11.146  -7.054  1.00  0.00     0.010 A 
ATOM     62  C   UNL     1       7.524  13.052  -8.203  1.00  0.00     0.020 A 
ATOM     63  C   UNL     1       9.766  12.269  -7.681  1.00  0.00     0.020 A 
ATOM     64  C   UNL     1       8.913  13.213  -8.256  1.00  0.00     0.054 A 
BRANCH  64  65
ATOM     65  S   UNL     1       9.592  14.708  -9.029  1.00  0.00     0.124 S 
ATOM     66  O   UNL     1       9.407  14.426 -10.450  1.00  0.00    -0.237 OA
ATOM     67  O   UNL     1       8.745  15.765  -8.482  1.00  0.00    -0.237 OA
ATOM     68  O   UNL     1      10.980  14.733  -8.573  1.00  0.00    -0.744 OA
ENDBRANCH  64  65
ENDBRANCH  38  59
ENDBRANCH  12  13
ENDBRANCH   5   7
ENDBRANCH   2   3
ENDBRANCH   1   2
BRANCH   1  69
ATOM     69  C   UNL     1       4.464  -2.076   3.168  1.00  0.00     0.118 C 
BRANCH  69  70
ATOM     70  N   UNL     1       4.938  -3.400   2.786  1.00  0.00    -0.352 N 
ATOM     71  C   UNL     1       5.763  -4.266   3.450  1.00  0.00     0.251 C 
ATOM     72  H   UNL     1       4.613  -3.721   1.914  1.00  0.00     0.163 HD
ATOM     73  O   UNL     1       6.202  -5.261   2.868  1.00  0.00    -0.269 OA
BRANCH  71  74
ATOM     74  C   UNL     1       6.133  -4.031   4.858  1.00  0.00     0.041 A 
ATOM     75  C   UNL     1       7.464  -4.205   5.241  1.00  0.00     0.014 A 
ATOM     76  C   UNL     1       5.159  -3.714   5.813  1.00  0.00     0.039 A 
ATOM     77  C   UNL     1       7.823  -4.009   6.571  1.00  0.00     0.003 A 
ATOM     78  C   UNL     1       5.507  -3.501   7.151  1.00  0.00     0.039 A 
ATOM     79  C   UNL     1       6.853  -3.649   7.512  1.00  0.00     0.026 A 
BRANCH  78  80
ATOM     80  N   UNL     1       4.499  -3.132   8.059  1.00  0.00    -0.356 N 
ATOM     81  H   UNL     1       3.583  -3.202   7.704  1.00  0.00     0.167 HD
BRANCH  80  82
ATOM     82  C   UNL     1       4.575  -2.681   9.386  1.00  0.00     0.039 A 
ATOM     83  C   UNL     1       3.702  -3.234  10.332  1.00  0.00     0.033 A 
ATOM     84  C   UNL     1       5.552  -1.775   9.819  1.00  0.00     0.033 A 
ATOM     85  C   UNL     1       3.820  -2.922  11.689  1.00  0.00     0.088 A 
ATOM     86  C   UNL     1       5.678  -1.445  11.172  1.00  0.00     0.088 A 
ATOM     87  C   UNL     1       4.821  -2.037  12.106  1.00  0.00     0.269 A 
BRANCH  87  88
ATOM     88  N   UNL     1       4.988  -1.754  13.536  1.00  0.00     0.062 N 
ATOM     89  O   UNL     1       4.210  -2.307  14.327  1.00  0.00    -0.258 OA
ATOM     90  O   UNL     1       5.906  -0.993  13.872  1.00  0.00    -0.258 OA
ENDBRANCH  87  88
ENDBRANCH  80  82
ENDBRANCH  78  80
ENDBRANCH  71  74
ENDBRANCH  69  70
ENDBRANCH   1  69
TORSDOF 16
