REMARK SMILES O=C(NCCCNC(=O)[C@@H](NC(=O)c1ccc(C[NH+]2CCCCC2)cc1)c1ccccc1F)c1ccc(-c2c3nc(c(-c4ccc(S(=O)(=O)[O-])cc4)c4ccc([nH]4)c(-c4ccc(S(=O)(=O)[O-])cc4)c4nc(c(-c5ccc(S(=O)(=O)[O-])cc5)c5ccc2[nH]5)C=C4)C=C3)cc1
REMARK SMILES IDX 5 1 4 2 3 3 1 4 2 5 34 7 35 8 93 9 36 10 92 11 37 12 38 13
REMARK SMILES IDX 39 14 86 15 40 16 91 17 85 18 87 19 41 20 90 21 84 22 83 23
REMARK SMILES IDX 42 25 72 26 53 27 71 28 54 29 57 30 70 31 88 32 55 33 56 34
REMARK SMILES IDX 69 36 89 37 58 38 43 39 44 40 52 41 45 42 51 43 46 44 47 45
REMARK SMILES IDX 48 46 49 47 50 48 73 49 74 50 82 51 75 52 81 53 76 54 77 55
REMARK SMILES IDX 78 56 79 57 80 58 59 59 60 60 68 61 61 62 67 63 62 64 63 65
REMARK SMILES IDX 64 66 65 67 66 68 6 69 7 70 8 71 9 73 10 74 11 75 12 76
REMARK SMILES IDX 13 78 14 79 15 80 26 81 16 82 25 83 17 84 18 85 19 86 20 87
REMARK SMILES IDX 24 88 21 90 23 91 22 92 27 93 28 94 32 95 29 96 31 97 33 98
REMARK SMILES IDX 30 99
REMARK H PARENT 3 6 87 24 57 35 7 72 11 77 19 89
REMARK Flexibility Score: inf
ROOT
ATOM      1  C   UNL     1       4.879  -1.853  -1.265  1.00  0.00     0.042 C 
ENDROOT
BRANCH   1   2
ATOM      2  C   UNL     1       4.538  -0.403  -0.978  1.00  0.00     0.118 C 
BRANCH   2   3
ATOM      3  N   UNL     1       3.095  -0.165  -0.919  1.00  0.00    -0.352 N 
ATOM      4  O   UNL     1       1.093   0.221   0.043  1.00  0.00    -0.269 OA
ATOM      5  C   UNL     1       2.316   0.266   0.129  1.00  0.00     0.251 C 
ATOM      6  H   UNL     1       2.608  -0.341  -1.757  1.00  0.00     0.163 HD
BRANCH   5   7
ATOM      7  C   UNL     1       2.968   0.761   1.357  1.00  0.00     0.039 A 
ATOM      8  C   UNL     1       4.097   1.572   1.260  1.00  0.00     0.014 A 
ATOM      9  C   UNL     1       2.474   0.386   2.609  1.00  0.00     0.014 A 
ATOM     10  C   UNL     1       4.852   1.829   2.390  1.00  0.00     0.010 A 
ATOM     11  C   UNL     1       3.169   0.761   3.763  1.00  0.00     0.010 A 
ATOM     12  C   UNL     1       4.388   1.447   3.659  1.00  0.00    -0.014 A 
BRANCH  12  13
ATOM     13  C   UNL     1       5.187   1.836   4.847  1.00  0.00     0.031 A 
ATOM     14  C   UNL     1       5.794   0.803   5.756  1.00  0.00     0.074 A 
ATOM     15  C   UNL     1       5.419   3.148   5.052  1.00  0.00     0.049 A 
ATOM     16  N   UNL     1       6.571   0.983   6.794  1.00  0.00    -0.248 NA
ATOM     17  C   UNL     1       5.487  -0.608   5.477  1.00  0.00     0.031 C 
ATOM     18  C   UNL     1       4.881   4.238   4.229  1.00  0.00     0.029 A 
ATOM     19  N   UNL     1       6.201   3.790   5.975  1.00  0.00    -0.354 N 
ATOM     20  C   UNL     1       6.814  -0.283   7.314  1.00  0.00     0.074 A 
ATOM     21  C   UNL     1       6.092  -1.223   6.484  1.00  0.00     0.031 C 
ATOM     22  C   UNL     1       5.421   5.398   4.624  1.00  0.00     0.029 A 
ATOM     23  C   UNL     1       6.273   5.149   5.779  1.00  0.00     0.049 A 
ATOM     24  H   UNL     1       6.667   3.325   6.706  1.00  0.00     0.167 HD
ATOM     25  C   UNL     1       7.567  -0.626   8.387  1.00  0.00     0.031 A 
ATOM     26  C   UNL     1       6.942   6.098   6.458  1.00  0.00     0.031 A 
ATOM     27  C   UNL     1       8.295   0.318   9.195  1.00  0.00     0.049 A 
ATOM     28  C   UNL     1       7.765   5.690   7.641  1.00  0.00     0.074 A 
ATOM     29  C   UNL     1       9.112   0.070  10.285  1.00  0.00     0.029 A 
ATOM     30  N   UNL     1       8.297   1.692   8.999  1.00  0.00    -0.354 N 
ATOM     31  N   UNL     1       7.986   4.486   8.112  1.00  0.00    -0.248 NA
ATOM     32  C   UNL     1       8.421   6.768   8.390  1.00  0.00     0.031 C 
ATOM     33  C   UNL     1       9.571   1.298  10.776  1.00  0.00     0.029 A 
ATOM     34  C   UNL     1       9.082   2.307   9.961  1.00  0.00     0.049 A 
ATOM     35  H   UNL     1       7.812   2.160   8.282  1.00  0.00     0.167 HD
ATOM     36  C   UNL     1       8.816   4.659   9.211  1.00  0.00     0.074 A 
ATOM     37  C   UNL     1       9.075   6.082   9.318  1.00  0.00     0.031 C 
ATOM     38  C   UNL     1       9.316   3.725  10.057  1.00  0.00     0.031 A 
BRANCH  25  39
ATOM     39  C   UNL     1       7.603  -2.082   8.778  1.00  0.00    -0.014 A 
ATOM     40  C   UNL     1       8.304  -3.033   8.016  1.00  0.00     0.010 A 
ATOM     41  C   UNL     1       6.944  -2.498   9.950  1.00  0.00     0.010 A 
ATOM     42  C   UNL     1       8.308  -4.380   8.394  1.00  0.00     0.020 A 
ATOM     43  C   UNL     1       6.965  -3.839  10.345  1.00  0.00     0.020 A 
ATOM     44  C   UNL     1       7.631  -4.776   9.552  1.00  0.00     0.054 A 
BRANCH  44  45
ATOM     45  S   UNL     1       7.653  -6.527  10.026  1.00  0.00     0.124 S 
ATOM     46  O   UNL     1       6.707  -7.107   9.075  1.00  0.00    -0.237 OA
ATOM     47  O   UNL     1       9.051  -6.899   9.826  1.00  0.00    -0.237 OA
ATOM     48  O   UNL     1       7.208  -6.516  11.417  1.00  0.00    -0.744 OA
ENDBRANCH  44  45
ENDBRANCH  25  39
BRANCH  26  49
ATOM     49  C   UNL     1       6.845   7.518   6.028  1.00  0.00    -0.014 A 
ATOM     50  C   UNL     1       7.947   8.163   5.442  1.00  0.00     0.010 A 
ATOM     51  C   UNL     1       5.630   8.216   6.158  1.00  0.00     0.010 A 
ATOM     52  C   UNL     1       7.838   9.485   5.000  1.00  0.00     0.020 A 
ATOM     53  C   UNL     1       5.509   9.527   5.691  1.00  0.00     0.020 A 
ATOM     54  C   UNL     1       6.618  10.157   5.124  1.00  0.00     0.054 A 
BRANCH  54  55
ATOM     55  S   UNL     1       6.476  11.847   4.481  1.00  0.00     0.124 S 
ATOM     56  O   UNL     1       7.153  12.621   5.516  1.00  0.00    -0.237 OA
ATOM     57  O   UNL     1       7.170  11.759   3.199  1.00  0.00    -0.237 OA
ATOM     58  O   UNL     1       5.032  12.054   4.386  1.00  0.00    -0.744 OA
ENDBRANCH  54  55
ENDBRANCH  26  49
BRANCH  38  59
ATOM     59  C   UNL     1      10.211   4.222  11.157  1.00  0.00    -0.014 A 
ATOM     60  C   UNL     1       9.685   4.911  12.265  1.00  0.00     0.010 A 
ATOM     61  C   UNL     1      11.594   3.979  11.089  1.00  0.00     0.010 A 
ATOM     62  C   UNL     1      10.535   5.385  13.266  1.00  0.00     0.020 A 
ATOM     63  C   UNL     1      12.444   4.430  12.101  1.00  0.00     0.020 A 
ATOM     64  C   UNL     1      11.910   5.146  13.175  1.00  0.00     0.054 A 
BRANCH  64  65
ATOM     65  S   UNL     1      12.993   5.751  14.497  1.00  0.00     0.124 S 
ATOM     66  O   UNL     1      13.086   7.174  14.186  1.00  0.00    -0.237 OA
ATOM     67  O   UNL     1      12.243   5.419  15.707  1.00  0.00    -0.237 OA
ATOM     68  O   UNL     1      14.226   4.989  14.309  1.00  0.00    -0.744 OA
ENDBRANCH  64  65
ENDBRANCH  38  59
ENDBRANCH  12  13
ENDBRANCH   5   7
ENDBRANCH   2   3
ENDBRANCH   1   2
BRANCH   1  69
ATOM     69  C   UNL     1       4.424  -2.284  -2.641  1.00  0.00     0.117 C 
BRANCH  69  70
ATOM     70  N   UNL     1       5.229  -1.743  -3.715  1.00  0.00    -0.354 N 
ATOM     71  C   UNL     1       5.850  -2.412  -4.734  1.00  0.00     0.247 C 
ATOM     72  H   UNL     1       5.345  -0.765  -3.712  1.00  0.00     0.163 HD
ATOM     73  O   UNL     1       6.239  -1.736  -5.692  1.00  0.00    -0.272 OA
BRANCH  71  74
ATOM     74  C   UNL     1       6.003  -3.961  -4.732  1.00  0.00     0.205 C 
BRANCH  74  75
ATOM     75  N   UNL     1       6.692  -4.403  -3.494  1.00  0.00    -0.336 N 
ATOM     76  C   UNL     1       6.362  -5.100  -2.366  1.00  0.00     0.252 C 
ATOM     77  H   UNL     1       7.634  -4.119  -3.483  1.00  0.00     0.165 HD
ATOM     78  O   UNL     1       7.059  -4.996  -1.361  1.00  0.00    -0.269 OA
BRANCH  76  79
ATOM     79  C   UNL     1       5.191  -5.979  -2.331  1.00  0.00     0.039 A 
ATOM     80  C   UNL     1       4.110  -5.662  -1.507  1.00  0.00     0.014 A 
ATOM     81  C   UNL     1       5.175  -7.129  -3.111  1.00  0.00     0.014 A 
ATOM     82  C   UNL     1       2.932  -6.398  -1.609  1.00  0.00     0.010 A 
ATOM     83  C   UNL     1       4.000  -7.869  -3.205  1.00  0.00     0.010 A 
ATOM     84  C   UNL     1       2.853  -7.484  -2.491  1.00  0.00     0.006 A 
BRANCH  84  85
ATOM     85  C   UNL     1       1.551  -8.233  -2.676  1.00  0.00     0.299 C 
BRANCH  85  86
ATOM     86  N   UNL     1       1.356  -9.426  -1.841  1.00  0.00    -0.331 N 
ATOM     87  C   UNL     1       2.341 -10.477  -2.116  1.00  0.00     0.262 C 
ATOM     88  C   UNL     1       1.280  -9.101  -0.411  1.00  0.00     0.262 C 
ATOM     89  H   UNL     1       0.448  -9.809  -2.105  1.00  0.00     0.348 HD
ATOM     90  C   UNL     1       2.033 -11.751  -1.332  1.00  0.00     0.062 C 
ATOM     91  C   UNL     1       0.947 -10.340   0.420  1.00  0.00     0.062 C 
ATOM     92  C   UNL     1       1.950 -11.458   0.161  1.00  0.00     0.012 C 
ENDBRANCH  85  86
ENDBRANCH  84  85
ENDBRANCH  76  79
ENDBRANCH  74  75
BRANCH  74  93
ATOM     93  C   UNL     1       4.791  -4.709  -5.257  1.00  0.00     0.020 A 
ATOM     94  C   UNL     1       3.467  -4.259  -5.111  1.00  0.00     0.009 A 
ATOM     95  C   UNL     1       4.973  -5.899  -5.971  1.00  0.00     0.129 A 
ATOM     96  C   UNL     1       2.379  -5.007  -5.573  1.00  0.00     0.001 A 
ATOM     97  C   UNL     1       3.895  -6.647  -6.451  1.00  0.00     0.039 A 
ATOM     98  F   UNL     1       6.212  -6.369  -6.177  1.00  0.00    -0.207 F 
ATOM     99  C   UNL     1       2.592  -6.210  -6.234  1.00  0.00     0.003 A 
ENDBRANCH  74  93
ENDBRANCH  71  74
ENDBRANCH  69  70
ENDBRANCH   1  69
TORSDOF 18
