REMARK SMILES C[C@H](NC(=O)[C@@H](C)Oc1ccc(Cl)cc1Br)C(=O)NCCCNC(=O)c1ccc(-c2c3nc(c(-c4ccc(S(=O)(=O)[O-])cc4)c4ccc([nH]4)c(-c4ccc(S(=O)(=O)[O-])cc4)c4nc(c(-c5ccc(S(=O)(=O)[O-])cc5)c5ccc2[nH]5)C=C4)C=C3)cc1
REMARK SMILES IDX 20 1 19 2 17 3 18 4 2 6 1 7 3 8 4 9 5 11 6 12 7 13 8 14 9 15
REMARK SMILES IDX 10 16 15 17 11 18 14 19 16 20 12 21 13 22 21 23 22 24 23 25
REMARK SMILES IDX 24 26 25 28 26 29 27 30 85 31 28 32 84 33 29 34 30 35 31 36
REMARK SMILES IDX 78 37 32 38 83 39 77 40 79 41 33 42 82 43 76 44 75 45 34 47
REMARK SMILES IDX 64 48 45 49 63 50 46 51 49 52 62 53 80 54 47 55 48 56 61 58
REMARK SMILES IDX 81 59 50 60 35 61 36 62 44 63 37 64 43 65 38 66 39 67 40 68
REMARK SMILES IDX 41 69 42 70 65 71 66 72 74 73 67 74 73 75 68 76 69 77 70 78
REMARK SMILES IDX 71 79 72 80 51 81 52 82 60 83 53 84 59 85 54 86 55 87 56 88
REMARK SMILES IDX 57 89 58 90
REMARK H PARENT 19 5 3 10 23 27 79 46 49 57
REMARK Flexibility Score: inf
ROOT
ATOM      1  C   UNL     1      -1.538   2.221   1.067  1.00  0.00     0.117 C 
ENDROOT
BRANCH   1   2
ATOM      2  N   UNL     1      -2.196   0.925   1.150  1.00  0.00    -0.354 N 
ATOM      3  C   UNL     1      -1.642  -0.311   1.329  1.00  0.00     0.242 C 
ATOM      4  O   UNL     1      -2.384  -1.291   1.395  1.00  0.00    -0.273 OA
ATOM      5  H   UNL     1      -3.177   0.942   1.065  1.00  0.00     0.163 HD
BRANCH   3   6
ATOM      6  C   UNL     1      -0.129  -0.421   1.589  1.00  0.00     0.168 C 
ATOM      7  C   UNL     1       0.097   0.084   3.005  1.00  0.00     0.041 C 
BRANCH   6   8
ATOM      8  N   UNL     1       0.572   0.213   0.461  1.00  0.00    -0.341 N 
ATOM      9  C   UNL     1       1.825   0.621   0.163  1.00  0.00     0.261 C 
ATOM     10  H   UNL     1      -0.045   0.390  -0.285  1.00  0.00     0.164 HD
ATOM     11  O   UNL     1       2.046   0.762  -1.049  1.00  0.00    -0.271 OA
BRANCH   9  12
ATOM     12  C   UNL     1       2.935   1.013   1.178  1.00  0.00     0.258 C 
ATOM     13  C   UNL     1       2.524   2.313   1.885  1.00  0.00     0.064 C 
BRANCH  12  14
ATOM     14  O   UNL     1       3.639   0.198   2.102  1.00  0.00    -0.480 OA
BRANCH  14  15
ATOM     15  C   UNL     1       3.197  -1.056   2.377  1.00  0.00     0.134 A 
ATOM     16  C   UNL     1       2.862  -1.978   1.387  1.00  0.00     0.049 A 
ATOM     17  C   UNL     1       3.089  -1.425   3.728  1.00  0.00     0.061 A 
ATOM     18  C   UNL     1       2.269  -3.193   1.743  1.00  0.00     0.024 A 
ATOM     19  C   UNL     1       2.492  -2.632   4.087  1.00  0.00     0.040 A 
ATOM     20  Br  UNL     1       3.652  -0.258   5.121  1.00  0.00    -0.047 Br
ATOM     21  C   UNL     1       2.056  -3.497   3.088  1.00  0.00     0.042 A 
ATOM     22  Cl  UNL     1       1.226  -4.940   3.518  1.00  0.00    -0.084 Cl
ENDBRANCH  14  15
ENDBRANCH  12  14
ENDBRANCH   9  12
ENDBRANCH   6   8
ENDBRANCH   3   6
ENDBRANCH   1   2
BRANCH   1  23
ATOM     23  C   UNL     1      -1.636   2.801  -0.332  1.00  0.00     0.042 C 
BRANCH  23  24
ATOM     24  C   UNL     1      -3.074   3.073  -0.741  1.00  0.00     0.118 C 
BRANCH  24  25
ATOM     25  N   UNL     1      -3.745   3.975   0.190  1.00  0.00    -0.352 N 
ATOM     26  C   UNL     1      -4.345   5.184  -0.064  1.00  0.00     0.251 C 
ATOM     27  H   UNL     1      -3.770   3.676   1.127  1.00  0.00     0.163 HD
ATOM     28  O   UNL     1      -4.644   5.934   0.848  1.00  0.00    -0.269 OA
BRANCH  26  29
ATOM     29  C   UNL     1      -4.608   5.544  -1.469  1.00  0.00     0.039 A 
ATOM     30  C   UNL     1      -4.246   6.809  -1.932  1.00  0.00     0.014 A 
ATOM     31  C   UNL     1      -5.165   4.594  -2.329  1.00  0.00     0.014 A 
ATOM     32  C   UNL     1      -4.387   7.099  -3.288  1.00  0.00     0.010 A 
ATOM     33  C   UNL     1      -5.215   4.851  -3.688  1.00  0.00     0.010 A 
ATOM     34  C   UNL     1      -4.837   6.110  -4.179  1.00  0.00    -0.014 A 
BRANCH  34  35
ATOM     35  C   UNL     1      -4.939   6.362  -5.634  1.00  0.00     0.031 A 
ATOM     36  C   UNL     1      -6.281   6.282  -6.306  1.00  0.00     0.074 A 
ATOM     37  C   UNL     1      -3.819   6.570  -6.353  1.00  0.00     0.049 A 
ATOM     38  N   UNL     1      -6.572   6.366  -7.577  1.00  0.00    -0.248 NA
ATOM     39  C   UNL     1      -7.447   6.042  -5.437  1.00  0.00     0.031 C 
ATOM     40  C   UNL     1      -2.458   6.618  -5.812  1.00  0.00     0.029 A 
ATOM     41  N   UNL     1      -3.648   6.768  -7.699  1.00  0.00    -0.354 N 
ATOM     42  C   UNL     1      -7.944   6.165  -7.662  1.00  0.00     0.074 A 
ATOM     43  C   UNL     1      -8.421   5.900  -6.324  1.00  0.00     0.031 C 
ATOM     44  C   UNL     1      -1.595   6.860  -6.813  1.00  0.00     0.029 A 
ATOM     45  C   UNL     1      -2.334   6.937  -8.069  1.00  0.00     0.049 A 
ATOM     46  H   UNL     1      -4.394   6.787  -8.340  1.00  0.00     0.167 HD
ATOM     47  C   UNL     1      -8.739   6.220  -8.756  1.00  0.00     0.031 A 
ATOM     48  C   UNL     1      -1.788   7.123  -9.285  1.00  0.00     0.031 A 
ATOM     49  C   UNL     1      -8.257   6.504 -10.079  1.00  0.00     0.049 A 
ATOM     50  C   UNL     1      -2.692   7.177 -10.486  1.00  0.00     0.074 A 
ATOM     51  C   UNL     1      -8.983   6.646 -11.247  1.00  0.00     0.029 A 
ATOM     52  N   UNL     1      -6.923   6.690 -10.409  1.00  0.00    -0.354 N 
ATOM     53  N   UNL     1      -3.997   7.054 -10.539  1.00  0.00    -0.248 NA
ATOM     54  C   UNL     1      -2.051   7.403 -11.788  1.00  0.00     0.031 C 
ATOM     55  C   UNL     1      -8.083   6.868 -12.294  1.00  0.00     0.029 A 
ATOM     56  C   UNL     1      -6.801   6.922 -11.768  1.00  0.00     0.049 A 
ATOM     57  H   UNL     1      -6.173   6.662  -9.772  1.00  0.00     0.167 HD
ATOM     58  C   UNL     1      -4.337   7.213 -11.878  1.00  0.00     0.074 A 
ATOM     59  C   UNL     1      -3.102   7.456 -12.596  1.00  0.00     0.031 C 
ATOM     60  C   UNL     1      -5.560   7.163 -12.460  1.00  0.00     0.031 A 
BRANCH  47  61
ATOM     61  C   UNL     1     -10.210   5.965  -8.560  1.00  0.00    -0.014 A 
ATOM     62  C   UNL     1     -11.021   6.883  -7.867  1.00  0.00     0.010 A 
ATOM     63  C   UNL     1     -10.797   4.806  -9.101  1.00  0.00     0.010 A 
ATOM     64  C   UNL     1     -12.382   6.626  -7.681  1.00  0.00     0.020 A 
ATOM     65  C   UNL     1     -12.165   4.561  -8.943  1.00  0.00     0.020 A 
ATOM     66  C   UNL     1     -12.944   5.465  -8.218  1.00  0.00     0.054 A 
BRANCH  66  67
ATOM     67  S   UNL     1     -14.718   5.170  -7.980  1.00  0.00     0.124 S 
ATOM     68  O   UNL     1     -14.776   4.814  -6.565  1.00  0.00    -0.237 OA
ATOM     69  O   UNL     1     -15.306   6.461  -8.327  1.00  0.00    -0.237 OA
ATOM     70  O   UNL     1     -15.017   4.082  -8.909  1.00  0.00    -0.744 OA
ENDBRANCH  66  67
ENDBRANCH  47  61
BRANCH  48  71
ATOM     71  C   UNL     1      -0.315   7.288  -9.422  1.00  0.00    -0.014 A 
ATOM     72  C   UNL     1       0.234   8.537  -9.760  1.00  0.00     0.010 A 
ATOM     73  C   UNL     1       0.550   6.201  -9.195  1.00  0.00     0.010 A 
ATOM     74  C   UNL     1       1.617   8.693  -9.888  1.00  0.00     0.020 A 
ATOM     75  C   UNL     1       1.935   6.360  -9.294  1.00  0.00     0.020 A 
ATOM     76  C   UNL     1       2.459   7.603  -9.652  1.00  0.00     0.054 A 
BRANCH  76  77
ATOM     77  S   UNL     1       4.254   7.843  -9.776  1.00  0.00     0.124 S 
ATOM     78  O   UNL     1       4.447   7.949 -11.218  1.00  0.00    -0.237 OA
ATOM     79  O   UNL     1       4.460   9.073  -9.017  1.00  0.00    -0.237 OA
ATOM     80  O   UNL     1       4.803   6.638  -9.156  1.00  0.00    -0.744 OA
ENDBRANCH  76  77
ENDBRANCH  48  71
BRANCH  60  81
ATOM     81  C   UNL     1      -5.631   7.406 -13.943  1.00  0.00    -0.014 A 
ATOM     82  C   UNL     1      -5.189   6.437 -14.860  1.00  0.00     0.010 A 
ATOM     83  C   UNL     1      -6.218   8.591 -14.423  1.00  0.00     0.010 A 
ATOM     84  C   UNL     1      -5.313   6.659 -16.234  1.00  0.00     0.020 A 
ATOM     85  C   UNL     1      -6.369   8.805 -15.795  1.00  0.00     0.020 A 
ATOM     86  C   UNL     1      -5.905   7.841 -16.692  1.00  0.00     0.054 A 
BRANCH  86  87
ATOM     87  S   UNL     1      -6.109   8.078 -18.478  1.00  0.00     0.124 S 
ATOM     88  O   UNL     1      -4.740   8.353 -18.906  1.00  0.00    -0.237 OA
ATOM     89  O   UNL     1      -6.657   6.795 -18.911  1.00  0.00    -0.237 OA
ATOM     90  O   UNL     1      -7.031   9.207 -18.575  1.00  0.00    -0.744 OA
ENDBRANCH  86  87
ENDBRANCH  60  81
ENDBRANCH  34  35
ENDBRANCH  26  29
ENDBRANCH  24  25
ENDBRANCH  23  24
ENDBRANCH   1  23
TORSDOF 17
