REMARK SMILES Cc1cccc(S(=O)(=O)Nc2cc(C(=O)NCCCNC(=O)c3ccc(-c4c5nc(c(-c6ccc(S(=O)(=O)[O-])cc6)c6ccc([nH]6)c(-c6ccc(S(=O)(=O)[O-])cc6)c6nc(c(-c7ccc(S(=O)(=O)[O-])cc7)c7ccc4[nH]7)C=C6)C=C5)cc3)ccc2N2CCC[C@H](C[NH+]3CCCC3)C2)c1
REMARK SMILES IDX 18 1 17 2 16 3 14 4 15 5 13 7 11 8 12 9 85 10 84 11 83 12
REMARK SMILES IDX 10 13 7 15 8 16 9 17 6 18 1 19 2 20 3 21 98 22 4 23 5 24
REMARK SMILES IDX 86 25 87 26 97 27 88 28 90 29 89 30 91 31 92 32 93 33 96 34
REMARK SMILES IDX 94 36 95 37 19 38 20 39 21 40 22 42 23 43 24 44 82 45 25 46
REMARK SMILES IDX 81 47 26 48 27 49 28 50 75 51 29 52 80 53 74 54 76 55 30 56
REMARK SMILES IDX 79 57 73 58 72 59 31 61 61 62 42 63 60 64 43 65 46 66 59 67
REMARK SMILES IDX 77 68 44 69 45 70 58 72 78 73 47 74 32 75 33 76 41 77 34 78
REMARK SMILES IDX 40 79 35 80 36 81 37 82 38 83 39 84 62 85 63 86 71 87 64 88
REMARK SMILES IDX 70 89 65 90 66 91 67 92 68 93 69 94 48 95 49 96 57 97 50 98
REMARK SMILES IDX 56 99 51 100 52 101 53 102 54 103 55 104
REMARK H PARENT 16 6 10 14 92 35 20 41 76 60 46 71
REMARK Flexibility Score: inf
ROOT
ATOM      1  C   UNL     1      -0.926   1.060  -3.232  1.00  0.00     0.042 C 
ENDROOT
BRANCH   1   2
ATOM      2  C   UNL     1       0.371   0.887  -2.289  1.00  0.00     0.118 C 
BRANCH   2   3
ATOM      3  N   UNL     1       1.741   1.344  -2.664  1.00  0.00    -0.352 N 
ATOM      4  C   UNL     1       2.725   2.152  -2.148  1.00  0.00     0.251 C 
ATOM      5  O   UNL     1       3.909   2.075  -2.465  1.00  0.00    -0.269 OA
ATOM      6  H   UNL     1       2.019   0.956  -3.525  1.00  0.00     0.163 HD
BRANCH   4   7
ATOM      7  C   UNL     1       2.345   3.162  -1.161  1.00  0.00     0.042 A 
ATOM      8  C   UNL     1       0.510   4.239  -0.114  1.00  0.00     0.073 A 
ATOM      9  C   UNL     1       1.041   3.622  -1.213  1.00  0.00     0.042 A 
ATOM     10  C   UNL     1       1.358   4.748   0.882  1.00  0.00     0.061 A 
ATOM     11  C   UNL     1       2.730   4.442   0.824  1.00  0.00     0.029 A 
ATOM     12  C   UNL     1       3.223   3.600  -0.169  1.00  0.00     0.016 A 
BRANCH   8  13
ATOM     13  N   UNL     1      -0.911   4.318  -0.041  1.00  0.00    -0.277 N 
ATOM     14  H   UNL     1      -1.358   5.141  -0.345  1.00  0.00     0.180 HD
BRANCH  13  15
ATOM     15  S   UNL     1      -1.864   3.033   0.555  1.00  0.00     0.261 S 
ATOM     16  O   UNL     1      -2.926   2.889  -0.425  1.00  0.00    -0.201 OA
ATOM     17  O   UNL     1      -2.224   3.399   1.911  1.00  0.00    -0.201 OA
BRANCH  15  18
ATOM     18  C   UNL     1      -1.080   1.423   0.689  1.00  0.00     0.088 A 
ATOM     19  C   UNL     1       2.320  -0.268   1.015  1.00  0.00     0.044 C 
ATOM     20  C   UNL     1       0.829  -0.068   0.943  1.00  0.00    -0.050 A 
ATOM     21  C   UNL     1       0.033  -1.162   0.571  1.00  0.00     0.003 A 
ATOM     22  C   UNL     1       0.247   1.213   1.085  1.00  0.00     0.025 A 
ATOM     23  C   UNL     1      -1.311  -0.976   0.265  1.00  0.00     0.002 A 
ATOM     24  C   UNL     1      -1.857   0.310   0.299  1.00  0.00     0.022 A 
ENDBRANCH  15  18
ENDBRANCH  13  15
ENDBRANCH   8  13
BRANCH  10  25
ATOM     25  N   UNL     1       0.907   5.601   1.864  1.00  0.00    -0.369 N 
ATOM     26  C   UNL     1       1.186   7.020   1.706  1.00  0.00     0.116 C 
ATOM     27  C   UNL     1      -0.040   5.170   2.874  1.00  0.00     0.126 C 
ATOM     28  C   UNL     1       1.650   7.569   3.049  1.00  0.00     0.022 C 
ATOM     29  C   UNL     1       0.425   5.668   4.247  1.00  0.00     0.064 C 
ATOM     30  C   UNL     1       0.663   7.189   4.154  1.00  0.00     0.013 C 
BRANCH  29  31
ATOM     31  C   UNL     1       1.637   4.806   4.695  1.00  0.00     0.267 C 
BRANCH  31  32
ATOM     32  N   UNL     1       2.102   4.860   6.083  1.00  0.00    -0.335 N 
ATOM     33  C   UNL     1       1.081   4.571   7.086  1.00  0.00     0.262 C 
ATOM     34  C   UNL     1       2.781   6.090   6.476  1.00  0.00     0.262 C 
ATOM     35  H   UNL     1       2.788   4.105   6.073  1.00  0.00     0.348 HD
ATOM     36  C   UNL     1       0.639   5.926   7.600  1.00  0.00     0.067 C 
ATOM     37  C   UNL     1       1.895   6.775   7.511  1.00  0.00     0.067 C 
ENDBRANCH  31  32
ENDBRANCH  29  31
ENDBRANCH  10  25
ENDBRANCH   4   7
ENDBRANCH   2   3
ENDBRANCH   1   2
BRANCH   1  38
ATOM     38  C   UNL     1      -1.543  -0.314  -3.800  1.00  0.00     0.118 C 
BRANCH  38  39
ATOM     39  N   UNL     1      -2.615  -0.507  -4.934  1.00  0.00    -0.352 N 
ATOM     40  C   UNL     1      -2.805  -1.261  -6.168  1.00  0.00     0.251 C 
ATOM     41  H   UNL     1      -3.403   0.055  -4.756  1.00  0.00     0.163 HD
ATOM     42  O   UNL     1      -3.868  -1.910  -6.187  1.00  0.00    -0.269 OA
BRANCH  40  43
ATOM     43  C   UNL     1      -1.960  -1.433  -7.489  1.00  0.00     0.039 A 
ATOM     44  C   UNL     1      -1.717  -2.708  -8.077  1.00  0.00     0.014 A 
ATOM     45  C   UNL     1      -1.352  -0.414  -8.190  1.00  0.00     0.014 A 
ATOM     46  C   UNL     1      -0.459  -2.981  -8.723  1.00  0.00     0.010 A 
ATOM     47  C   UNL     1      -0.139  -0.672  -8.887  1.00  0.00     0.010 A 
ATOM     48  C   UNL     1       0.453  -1.948  -8.921  1.00  0.00    -0.014 A 
BRANCH  48  49
ATOM     49  C   UNL     1       1.965  -2.120  -9.025  1.00  0.00     0.031 A 
ATOM     50  C   UNL     1       2.644  -1.914 -10.299  1.00  0.00     0.074 A 
ATOM     51  C   UNL     1       2.882  -2.282  -8.020  1.00  0.00     0.049 A 
ATOM     52  N   UNL     1       3.561  -2.688 -10.782  1.00  0.00    -0.248 NA
ATOM     53  C   UNL     1       2.369  -0.736 -11.098  1.00  0.00     0.031 C 
ATOM     54  C   UNL     1       4.361  -2.284  -7.966  1.00  0.00     0.029 A 
ATOM     55  N   UNL     1       2.633  -2.429  -6.674  1.00  0.00    -0.354 N 
ATOM     56  C   UNL     1       4.220  -1.933 -11.727  1.00  0.00     0.074 A 
ATOM     57  C   UNL     1       3.327  -0.833 -12.019  1.00  0.00     0.031 C 
ATOM     58  C   UNL     1       4.776  -2.822  -6.792  1.00  0.00     0.029 A 
ATOM     59  C   UNL     1       3.595  -3.211  -6.050  1.00  0.00     0.049 A 
ATOM     60  H   UNL     1       1.864  -2.026  -6.210  1.00  0.00     0.167 HD
ATOM     61  C   UNL     1       5.543  -2.142 -12.001  1.00  0.00     0.031 A 
ATOM     62  C   UNL     1       3.201  -4.429  -5.566  1.00  0.00     0.031 A 
ATOM     63  C   UNL     1       6.150  -3.126 -11.087  1.00  0.00     0.049 A 
ATOM     64  C   UNL     1       3.736  -5.503  -6.462  1.00  0.00     0.074 A 
ATOM     65  C   UNL     1       7.061  -3.002 -10.046  1.00  0.00     0.029 A 
ATOM     66  N   UNL     1       5.587  -4.395 -10.948  1.00  0.00    -0.354 N 
ATOM     67  N   UNL     1       4.350  -5.227  -7.574  1.00  0.00    -0.248 NA
ATOM     68  C   UNL     1       3.666  -6.936  -6.216  1.00  0.00     0.031 C 
ATOM     69  C   UNL     1       6.934  -4.148  -9.208  1.00  0.00     0.029 A 
ATOM     70  C   UNL     1       5.985  -4.990  -9.762  1.00  0.00     0.049 A 
ATOM     71  H   UNL     1       4.986  -4.812 -11.606  1.00  0.00     0.167 HD
ATOM     72  C   UNL     1       4.768  -6.356  -8.185  1.00  0.00     0.074 A 
ATOM     73  C   UNL     1       4.321  -7.414  -7.293  1.00  0.00     0.031 C 
ATOM     74  C   UNL     1       5.447  -6.294  -9.364  1.00  0.00     0.031 A 
BRANCH  61  75
ATOM     75  C   UNL     1       6.343  -1.202 -12.890  1.00  0.00    -0.014 A 
ATOM     76  C   UNL     1       7.747  -1.136 -12.806  1.00  0.00     0.010 A 
ATOM     77  C   UNL     1       5.752  -0.363 -13.858  1.00  0.00     0.010 A 
ATOM     78  C   UNL     1       8.499  -0.233 -13.581  1.00  0.00     0.020 A 
ATOM     79  C   UNL     1       6.475   0.589 -14.589  1.00  0.00     0.020 A 
ATOM     80  C   UNL     1       7.853   0.641 -14.455  1.00  0.00     0.054 A 
BRANCH  80  81
ATOM     81  S   UNL     1       8.825   1.786 -15.467  1.00  0.00     0.124 S 
ATOM     82  O   UNL     1       9.574   2.543 -14.467  1.00  0.00    -0.237 OA
ATOM     83  O   UNL     1       9.616   0.877 -16.293  1.00  0.00    -0.237 OA
ATOM     84  O   UNL     1       7.815   2.556 -16.192  1.00  0.00    -0.744 OA
ENDBRANCH  80  81
ENDBRANCH  61  75
BRANCH  62  85
ATOM     85  C   UNL     1       1.849  -4.407  -4.845  1.00  0.00    -0.014 A 
ATOM     86  C   UNL     1       1.851  -3.539  -3.735  1.00  0.00     0.010 A 
ATOM     87  C   UNL     1       0.714  -4.295  -5.638  1.00  0.00     0.010 A 
ATOM     88  C   UNL     1       1.391  -2.228  -3.924  1.00  0.00     0.020 A 
ATOM     89  C   UNL     1       0.103  -3.028  -5.690  1.00  0.00     0.020 A 
ATOM     90  C   UNL     1       0.678  -1.927  -5.076  1.00  0.00     0.054 A 
BRANCH  90  91
ATOM     91  S   UNL     1       0.893  -0.073  -5.812  1.00  0.00     0.124 S 
ATOM     92  O   UNL     1       1.729   0.471  -4.763  1.00  0.00    -0.237 OA
ATOM     93  O   UNL     1       1.690  -0.118  -7.026  1.00  0.00    -0.237 OA
ATOM     94  O   UNL     1      -0.394   0.545  -5.942  1.00  0.00    -0.744 OA
ENDBRANCH  90  91
ENDBRANCH  62  85
BRANCH  74  95
ATOM     95  C   UNL     1       5.758  -7.489 -10.204  1.00  0.00    -0.014 A 
ATOM     96  C   UNL     1       5.004  -8.671 -10.176  1.00  0.00     0.010 A 
ATOM     97  C   UNL     1       6.796  -7.392 -11.156  1.00  0.00     0.010 A 
ATOM     98  C   UNL     1       5.339  -9.751 -10.993  1.00  0.00     0.020 A 
ATOM     99  C   UNL     1       7.101  -8.442 -12.016  1.00  0.00     0.020 A 
ATOM    100  C   UNL     1       6.393  -9.632 -11.899  1.00  0.00     0.054 A 
BRANCH 100 101
ATOM    101  S   UNL     1       6.814 -11.039 -12.948  1.00  0.00     0.124 S 
ATOM    102  O   UNL     1       7.622 -11.853 -12.043  1.00  0.00    -0.237 OA
ATOM    103  O   UNL     1       5.506 -11.593 -13.289  1.00  0.00    -0.237 OA
ATOM    104  O   UNL     1       7.538 -10.435 -14.063  1.00  0.00    -0.744 OA
ENDBRANCH 100 101
ENDBRANCH  74  95
ENDBRANCH  48  49
ENDBRANCH  40  43
ENDBRANCH  38  39
ENDBRANCH   1  38
TORSDOF 19
