REMARK SMILES O=C(NCCCNC(=O)c1nnn(-c2cccc(OC(F)(F)F)c2)c1-c1ccncc1)c1ccc(-c2c3nc(c(-c4ccc(S(=O)(=O)[O-])cc4)c4ccc([nH]4)c(-c4ccc(S(=O)(=O)[O-])cc4)c4nc(c(-c5ccc(S(=O)(=O)[O-])cc5)c5ccc2[nH]5)C=C4)C=C3)cc1
REMARK SMILES IDX 5 1 4 2 3 3 1 4 2 5 32 7 33 8 91 9 34 10 90 11 35 12 36 13
REMARK SMILES IDX 37 14 84 15 38 16 89 17 83 18 85 19 39 20 88 21 82 22 81 23
REMARK SMILES IDX 40 25 70 26 51 27 69 28 52 29 55 30 68 31 86 32 53 33 54 34
REMARK SMILES IDX 67 36 87 37 56 38 41 39 42 40 50 41 43 42 49 43 44 44 45 45
REMARK SMILES IDX 46 46 47 47 48 48 71 49 72 50 80 51 73 52 79 53 74 54 75 55
REMARK SMILES IDX 76 56 77 57 78 58 57 59 58 60 66 61 59 62 65 63 60 64 61 65
REMARK SMILES IDX 62 66 63 67 64 68 6 69 7 70 8 71 9 73 10 74 11 75 25 76
REMARK SMILES IDX 12 77 13 78 26 79 27 80 31 81 28 82 30 83 29 84 14 85 15 86
REMARK SMILES IDX 24 87 16 88 18 89 17 90 19 91 20 92 21 93 22 94 23 95
REMARK H PARENT 3 6 85 24 55 35 7 72
REMARK Flexibility Score: inf
ROOT
ATOM      1  C   UNL     1       5.190   1.616   1.017  1.00  0.00     0.042 C 
ENDROOT
BRANCH   1   2
ATOM      2  C   UNL     1       4.730   0.165   0.944  1.00  0.00     0.118 C 
BRANCH   2   3
ATOM      3  N   UNL     1       3.296  -0.036   1.003  1.00  0.00    -0.352 N 
ATOM      4  O   UNL     1       1.184  -0.405   0.502  1.00  0.00    -0.269 OA
ATOM      5  C   UNL     1       2.268   0.034   0.103  1.00  0.00     0.251 C 
ATOM      6  H   UNL     1       2.989  -0.280   1.906  1.00  0.00     0.163 HD
BRANCH   5   7
ATOM      7  C   UNL     1       2.341   0.624  -1.264  1.00  0.00     0.039 A 
ATOM      8  C   UNL     1       3.506   0.963  -1.951  1.00  0.00     0.014 A 
ATOM      9  C   UNL     1       1.104   0.851  -1.901  1.00  0.00     0.014 A 
ATOM     10  C   UNL     1       3.438   1.558  -3.215  1.00  0.00     0.010 A 
ATOM     11  C   UNL     1       1.031   1.427  -3.168  1.00  0.00     0.010 A 
ATOM     12  C   UNL     1       2.201   1.798  -3.824  1.00  0.00    -0.014 A 
BRANCH  12  13
ATOM     13  C   UNL     1       2.185   2.277  -5.210  1.00  0.00     0.031 A 
ATOM     14  C   UNL     1       2.720   1.323  -6.228  1.00  0.00     0.074 A 
ATOM     15  C   UNL     1       1.567   3.398  -5.634  1.00  0.00     0.049 A 
ATOM     16  N   UNL     1       3.705   1.488  -7.051  1.00  0.00    -0.248 NA
ATOM     17  C   UNL     1       2.103  -0.011  -6.293  1.00  0.00     0.031 C 
ATOM     18  C   UNL     1       0.689   4.283  -4.867  1.00  0.00     0.029 A 
ATOM     19  N   UNL     1       1.507   3.917  -6.897  1.00  0.00    -0.354 N 
ATOM     20  C   UNL     1       3.733   0.350  -7.857  1.00  0.00     0.074 A 
ATOM     21  C   UNL     1       2.803  -0.584  -7.272  1.00  0.00     0.031 C 
ATOM     22  C   UNL     1       0.016   5.088  -5.721  1.00  0.00     0.029 A 
ATOM     23  C   UNL     1       0.510   4.868  -7.071  1.00  0.00     0.049 A 
ATOM     24  H   UNL     1       2.116   3.641  -7.620  1.00  0.00     0.167 HD
ATOM     25  C   UNL     1       4.386   0.304  -9.053  1.00  0.00     0.031 A 
ATOM     26  C   UNL     1       0.074   5.392  -8.244  1.00  0.00     0.031 A 
ATOM     27  C   UNL     1       5.311   1.391  -9.214  1.00  0.00     0.049 A 
ATOM     28  C   UNL     1       1.118   5.160  -9.268  1.00  0.00     0.074 A 
ATOM     29  C   UNL     1       6.433   1.830  -8.540  1.00  0.00     0.029 A 
ATOM     30  N   UNL     1       4.941   2.422 -10.043  1.00  0.00    -0.354 N 
ATOM     31  N   UNL     1       2.281   5.747  -9.272  1.00  0.00    -0.248 NA
ATOM     32  C   UNL     1       1.008   3.992 -10.128  1.00  0.00     0.031 C 
ATOM     33  C   UNL     1       6.398   3.250  -8.648  1.00  0.00     0.029 A 
ATOM     34  C   UNL     1       5.277   3.589  -9.410  1.00  0.00     0.049 A 
ATOM     35  H   UNL     1       4.514   2.337 -10.927  1.00  0.00     0.167 HD
ATOM     36  C   UNL     1       3.154   4.808  -9.797  1.00  0.00     0.074 A 
ATOM     37  C   UNL     1       2.297   3.802 -10.417  1.00  0.00     0.031 C 
ATOM     38  C   UNL     1       4.473   4.793  -9.445  1.00  0.00     0.031 A 
BRANCH  25  39
ATOM     39  C   UNL     1       3.947  -0.542 -10.226  1.00  0.00    -0.014 A 
ATOM     40  C   UNL     1       4.757  -0.591 -11.381  1.00  0.00     0.010 A 
ATOM     41  C   UNL     1       2.643  -1.065 -10.340  1.00  0.00     0.010 A 
ATOM     42  C   UNL     1       4.260  -1.071 -12.602  1.00  0.00     0.020 A 
ATOM     43  C   UNL     1       2.154  -1.591 -11.539  1.00  0.00     0.020 A 
ATOM     44  C   UNL     1       2.954  -1.553 -12.674  1.00  0.00     0.054 A 
BRANCH  44  45
ATOM     45  S   UNL     1       2.279  -2.056 -14.277  1.00  0.00     0.124 S 
ATOM     46  O   UNL     1       2.192  -0.778 -14.978  1.00  0.00    -0.237 OA
ATOM     47  O   UNL     1       3.297  -2.980 -14.768  1.00  0.00    -0.237 OA
ATOM     48  O   UNL     1       1.000  -2.672 -13.932  1.00  0.00    -0.744 OA
ENDBRANCH  44  45
ENDBRANCH  25  39
BRANCH  26  49
ATOM     49  C   UNL     1      -1.290   5.855  -8.603  1.00  0.00    -0.014 A 
ATOM     50  C   UNL     1      -1.514   6.616  -9.766  1.00  0.00     0.010 A 
ATOM     51  C   UNL     1      -2.414   5.311  -7.950  1.00  0.00     0.010 A 
ATOM     52  C   UNL     1      -2.808   6.769 -10.293  1.00  0.00     0.020 A 
ATOM     53  C   UNL     1      -3.707   5.469  -8.461  1.00  0.00     0.020 A 
ATOM     54  C   UNL     1      -3.895   6.175  -9.646  1.00  0.00     0.054 A 
BRANCH  54  55
ATOM     55  S   UNL     1      -5.533   6.213 -10.432  1.00  0.00     0.124 S 
ATOM     56  O   UNL     1      -5.924   7.610 -10.268  1.00  0.00    -0.237 OA
ATOM     57  O   UNL     1      -5.239   5.794 -11.800  1.00  0.00    -0.237 OA
ATOM     58  O   UNL     1      -6.311   5.255  -9.649  1.00  0.00    -0.744 OA
ENDBRANCH  54  55
ENDBRANCH  26  49
BRANCH  38  59
ATOM     59  C   UNL     1       5.061   6.015  -8.777  1.00  0.00    -0.014 A 
ATOM     60  C   UNL     1       4.574   6.555  -7.572  1.00  0.00     0.010 A 
ATOM     61  C   UNL     1       6.247   6.546  -9.318  1.00  0.00     0.010 A 
ATOM     62  C   UNL     1       5.239   7.614  -6.940  1.00  0.00     0.020 A 
ATOM     63  C   UNL     1       6.928   7.587  -8.681  1.00  0.00     0.020 A 
ATOM     64  C   UNL     1       6.416   8.122  -7.498  1.00  0.00     0.054 A 
BRANCH  64  65
ATOM     65  S   UNL     1       7.309   9.444  -6.635  1.00  0.00     0.124 S 
ATOM     66  O   UNL     1       6.433  10.597  -6.827  1.00  0.00    -0.237 OA
ATOM     67  O   UNL     1       7.392   8.940  -5.265  1.00  0.00    -0.237 OA
ATOM     68  O   UNL     1       8.589   9.516  -7.337  1.00  0.00    -0.744 OA
ENDBRANCH  64  65
ENDBRANCH  38  59
ENDBRANCH  12  13
ENDBRANCH   5   7
ENDBRANCH   2   3
ENDBRANCH   1   2
BRANCH   1  69
ATOM     69  C   UNL     1       4.734   2.381   2.253  1.00  0.00     0.118 C 
BRANCH  69  70
ATOM     70  N   UNL     1       5.311   1.901   3.497  1.00  0.00    -0.351 N 
ATOM     71  C   UNL     1       5.955   2.612   4.491  1.00  0.00     0.274 C 
ATOM     72  H   UNL     1       5.231   0.933   3.654  1.00  0.00     0.163 HD
ATOM     73  O   UNL     1       6.383   2.001   5.462  1.00  0.00    -0.267 OA
BRANCH  71  74
ATOM     74  C   UNL     1       6.103   4.055   4.358  1.00  0.00     0.178 A 
ATOM     75  N   UNL     1       7.338   4.652   4.316  1.00  0.00    -0.124 NA
ATOM     76  C   UNL     1       5.118   5.026   4.221  1.00  0.00     0.108 A 
ATOM     77  N   UNL     1       7.168   5.941   4.060  1.00  0.00    -0.061 NA
ATOM     78  N   UNL     1       5.845   6.205   4.094  1.00  0.00    -0.212 N 
BRANCH  76  79
ATOM     79  C   UNL     1       3.672   4.903   4.022  1.00  0.00     0.006 A 
ATOM     80  C   UNL     1       2.861   4.301   4.980  1.00  0.00     0.030 A 
ATOM     81  C   UNL     1       3.092   5.351   2.828  1.00  0.00     0.030 A 
ATOM     82  C   UNL     1       1.509   4.179   4.703  1.00  0.00     0.111 A 
ATOM     83  C   UNL     1       1.734   5.176   2.642  1.00  0.00     0.111 A 
ATOM     84  N   UNL     1       0.931   4.600   3.558  1.00  0.00    -0.265 NA
ENDBRANCH  76  79
BRANCH  78  85
ATOM     85  C   UNL     1       5.342   7.518   3.953  1.00  0.00     0.071 A 
ATOM     86  C   UNL     1       5.899   8.369   2.997  1.00  0.00     0.029 A 
ATOM     87  C   UNL     1       4.223   7.915   4.705  1.00  0.00     0.075 A 
ATOM     88  C   UNL     1       5.267   9.581   2.727  1.00  0.00     0.006 A 
ATOM     89  C   UNL     1       3.613   9.141   4.457  1.00  0.00     0.131 A 
ATOM     90  C   UNL     1       4.126   9.957   3.445  1.00  0.00     0.047 A 
BRANCH  89  91
ATOM     91  O   UNL     1       2.516   9.638   5.102  1.00  0.00    -0.406 OA
BRANCH  91  92
ATOM     92  C   UNL     1       2.026   8.915   6.220  1.00  0.00     0.573 C 
ATOM     93  F   UNL     1       1.596   7.686   5.864  1.00  0.00    -0.132 F 
ATOM     94  F   UNL     1       2.975   8.793   7.175  1.00  0.00    -0.132 F 
ATOM     95  F   UNL     1       0.983   9.586   6.755  1.00  0.00    -0.132 F 
ENDBRANCH  91  92
ENDBRANCH  89  91
ENDBRANCH  78  85
ENDBRANCH  71  74
ENDBRANCH  69  70
ENDBRANCH   1  69
TORSDOF 17
