REMARK SMILES CCCCCCC(=O)N[C@@H](C)C(=O)NCCCNC(=O)c1ccc(-c2c3nc(c(-c4ccc(S(=O)(=O)[O-])cc4)c4ccc([nH]4)c(-c4ccc(S(=O)(=O)[O-])cc4)c4nc(c(-c5ccc(S(=O)(=O)[O-])cc5)c5ccc2[nH]5)C=C4)C=C3)cc1
REMARK SMILES IDX 12 1 13 2 14 3 10 5 11 6 9 7 7 8 8 9 6 11 5 12 4 13 3 14
REMARK SMILES IDX 2 15 1 16 15 17 16 18 17 19 18 20 19 21 20 23 21 24 22 25
REMARK SMILES IDX 80 26 23 27 79 28 24 29 25 30 26 31 73 32 27 33 78 34 72 35
REMARK SMILES IDX 74 36 28 37 77 38 71 39 70 40 29 42 59 43 40 44 58 45 41 46
REMARK SMILES IDX 44 47 57 48 75 49 42 50 43 51 56 53 76 54 45 55 30 56 31 57
REMARK SMILES IDX 39 58 32 59 38 60 33 61 34 62 35 63 36 64 37 65 60 66 61 67
REMARK SMILES IDX 69 68 62 69 68 70 63 71 64 72 65 73 66 74 67 75 46 76 47 77
REMARK SMILES IDX 55 78 48 79 54 80 49 81 50 82 51 83 52 84 53 85
REMARK H PARENT 14 4 9 10 18 22 74 41 44 52
REMARK Flexibility Score: inf
ROOT
ATOM      1  C   UNL     1       2.513   0.831  -5.144  1.00  0.00     0.242 C 
ATOM      2  O   UNL     1       2.537   1.955  -4.636  1.00  0.00    -0.273 OA
ATOM      3  N   UNL     1       3.342   0.580  -6.187  1.00  0.00    -0.354 N 
ATOM      4  H   UNL     1       4.019   1.273  -6.363  1.00  0.00     0.163 HD
ENDROOT
BRANCH   1   5
ATOM      5  C   UNL     1       1.634  -0.281  -4.570  1.00  0.00     0.168 C 
ATOM      6  C   UNL     1       2.469  -1.461  -4.067  1.00  0.00     0.041 C 
BRANCH   5   7
ATOM      7  N   UNL     1       0.520  -0.710  -5.402  1.00  0.00    -0.345 N 
ATOM      8  C   UNL     1      -0.814  -0.639  -5.131  1.00  0.00     0.220 C 
ATOM      9  O   UNL     1      -1.595  -1.157  -5.932  1.00  0.00    -0.275 OA
ATOM     10  H   UNL     1       0.761  -1.101  -6.273  1.00  0.00     0.164 HD
BRANCH   8  11
ATOM     11  C   UNL     1      -1.331   0.084  -3.896  1.00  0.00     0.100 C 
BRANCH  11  12
ATOM     12  C   UNL     1      -1.397  -0.739  -2.602  1.00  0.00     0.010 C 
BRANCH  12  13
ATOM     13  C   UNL     1      -0.120  -0.886  -1.763  1.00  0.00     0.001 C 
BRANCH  13  14
ATOM     14  C   UNL     1       0.592   0.423  -1.379  1.00  0.00    -0.000 C 
BRANCH  14  15
ATOM     15  C   UNL     1       0.317   0.917   0.034  1.00  0.00    -0.003 C 
ATOM     16  C   UNL     1       1.020   0.075   1.086  1.00  0.00     0.004 C 
ENDBRANCH  14  15
ENDBRANCH  13  14
ENDBRANCH  12  13
ENDBRANCH  11  12
ENDBRANCH   8  11
ENDBRANCH   5   7
ENDBRANCH   1   5
BRANCH   3  17
ATOM     17  C   UNL     1       3.375  -0.560  -7.081  1.00  0.00     0.117 C 
BRANCH  17  18
ATOM     18  C   UNL     1       2.868  -0.172  -8.456  1.00  0.00     0.042 C 
BRANCH  18  19
ATOM     19  C   UNL     1       3.672   0.965  -9.067  1.00  0.00     0.118 C 
BRANCH  19  20
ATOM     20  N   UNL     1       5.093   0.642  -9.158  1.00  0.00    -0.352 N 
ATOM     21  C   UNL     1       5.846   0.356 -10.271  1.00  0.00     0.251 C 
ATOM     22  H   UNL     1       5.579   0.627  -8.302  1.00  0.00     0.163 HD
ATOM     23  O   UNL     1       6.947  -0.161 -10.160  1.00  0.00    -0.269 OA
BRANCH  21  24
ATOM     24  C   UNL     1       5.284   0.673 -11.597  1.00  0.00     0.039 A 
ATOM     25  C   UNL     1       5.354  -0.271 -12.620  1.00  0.00     0.014 A 
ATOM     26  C   UNL     1       4.632   1.893 -11.793  1.00  0.00     0.014 A 
ATOM     27  C   UNL     1       4.695  -0.017 -13.823  1.00  0.00     0.010 A 
ATOM     28  C   UNL     1       3.881   2.089 -12.939  1.00  0.00     0.010 A 
ATOM     29  C   UNL     1       3.916   1.143 -13.973  1.00  0.00    -0.014 A 
BRANCH  29  30
ATOM     30  C   UNL     1       3.134   1.405 -15.204  1.00  0.00     0.031 A 
ATOM     31  C   UNL     1       3.420   2.639 -16.017  1.00  0.00     0.074 A 
ATOM     32  C   UNL     1       2.120   0.583 -15.539  1.00  0.00     0.049 A 
ATOM     33  N   UNL     1       2.796   3.091 -17.073  1.00  0.00    -0.248 NA
ATOM     34  C   UNL     1       4.531   3.495 -15.564  1.00  0.00     0.031 C 
ATOM     35  C   UNL     1       1.715  -0.615 -14.797  1.00  0.00     0.029 A 
ATOM     36  N   UNL     1       1.237   0.635 -16.587  1.00  0.00    -0.354 N 
ATOM     37  C   UNL     1       3.422   4.290 -17.393  1.00  0.00     0.074 A 
ATOM     38  C   UNL     1       4.432   4.527 -16.387  1.00  0.00     0.031 C 
ATOM     39  C   UNL     1       0.688  -1.201 -15.432  1.00  0.00     0.029 A 
ATOM     40  C   UNL     1       0.327  -0.397 -16.595  1.00  0.00     0.049 A 
ATOM     41  H   UNL     1       1.253   1.344 -17.270  1.00  0.00     0.167 HD
ATOM     42  C   UNL     1       3.193   5.109 -18.446  1.00  0.00     0.031 A 
ATOM     43  C   UNL     1      -0.689  -0.660 -17.439  1.00  0.00     0.031 A 
ATOM     44  C   UNL     1       2.197   4.856 -19.451  1.00  0.00     0.049 A 
ATOM     45  C   UNL     1      -0.930   0.270 -18.597  1.00  0.00     0.074 A 
ATOM     46  C   UNL     1       1.927   5.585 -20.595  1.00  0.00     0.029 A 
ATOM     47  N   UNL     1       1.307   3.792 -19.432  1.00  0.00    -0.354 N 
ATOM     48  N   UNL     1      -0.276   1.358 -18.929  1.00  0.00    -0.248 NA
ATOM     49  C   UNL     1      -2.038  -0.068 -19.500  1.00  0.00     0.031 C 
ATOM     50  C   UNL     1       0.832   4.997 -21.235  1.00  0.00     0.029 A 
ATOM     51  C   UNL     1       0.465   3.863 -20.528  1.00  0.00     0.049 A 
ATOM     52  H   UNL     1       1.278   3.092 -18.741  1.00  0.00     0.167 HD
ATOM     53  C   UNL     1      -0.877   1.820 -20.095  1.00  0.00     0.074 A 
ATOM     54  C   UNL     1      -1.935   0.883 -20.418  1.00  0.00     0.031 C 
ATOM     55  C   UNL     1      -0.581   2.919 -20.832  1.00  0.00     0.031 A 
BRANCH  42  56
ATOM     56  C   UNL     1       4.033   6.354 -18.558  1.00  0.00    -0.014 A 
ATOM     57  C   UNL     1       5.410   6.282 -18.841  1.00  0.00     0.010 A 
ATOM     58  C   UNL     1       3.431   7.617 -18.416  1.00  0.00     0.010 A 
ATOM     59  C   UNL     1       6.175   7.447 -18.938  1.00  0.00     0.020 A 
ATOM     60  C   UNL     1       4.187   8.786 -18.545  1.00  0.00     0.020 A 
ATOM     61  C   UNL     1       5.558   8.692 -18.790  1.00  0.00     0.054 A 
BRANCH  61  62
ATOM     62  S   UNL     1       6.572  10.186 -18.952  1.00  0.00     0.124 S 
ATOM     63  O   UNL     1       7.366  10.146 -17.726  1.00  0.00    -0.237 OA
ATOM     64  O   UNL     1       7.312   9.938 -20.186  1.00  0.00    -0.237 OA
ATOM     65  O   UNL     1       5.591  11.266 -19.022  1.00  0.00    -0.744 OA
ENDBRANCH  61  62
ENDBRANCH  42  56
BRANCH  43  66
ATOM     66  C   UNL     1      -1.544  -1.860 -17.225  1.00  0.00    -0.014 A 
ATOM     67  C   UNL     1      -1.487  -2.946 -18.117  1.00  0.00     0.010 A 
ATOM     68  C   UNL     1      -2.410  -1.932 -16.119  1.00  0.00     0.010 A 
ATOM     69  C   UNL     1      -2.295  -4.070 -17.919  1.00  0.00     0.020 A 
ATOM     70  C   UNL     1      -3.197  -3.067 -15.900  1.00  0.00     0.020 A 
ATOM     71  C   UNL     1      -3.143  -4.124 -16.809  1.00  0.00     0.054 A 
BRANCH  71  72
ATOM     72  S   UNL     1      -4.145  -5.614 -16.549  1.00  0.00     0.124 S 
ATOM     73  O   UNL     1      -5.143  -5.497 -17.608  1.00  0.00    -0.237 OA
ATOM     74  O   UNL     1      -3.166  -6.685 -16.715  1.00  0.00    -0.237 OA
ATOM     75  O   UNL     1      -4.654  -5.450 -15.189  1.00  0.00    -0.744 OA
ENDBRANCH  71  72
ENDBRANCH  43  66
BRANCH  55  76
ATOM     76  C   UNL     1      -1.387   3.156 -22.081  1.00  0.00    -0.014 A 
ATOM     77  C   UNL     1      -2.729   3.571 -22.016  1.00  0.00     0.010 A 
ATOM     78  C   UNL     1      -0.767   3.030 -23.337  1.00  0.00     0.010 A 
ATOM     79  C   UNL     1      -3.443   3.830 -23.188  1.00  0.00     0.020 A 
ATOM     80  C   UNL     1      -1.469   3.319 -24.509  1.00  0.00     0.020 A 
ATOM     81  C   UNL     1      -2.807   3.706 -24.427  1.00  0.00     0.054 A 
BRANCH  81  82
ATOM     82  S   UNL     1      -3.741   4.105 -25.929  1.00  0.00     0.124 S 
ATOM     83  O   UNL     1      -4.664   2.977 -26.022  1.00  0.00    -0.237 OA
ATOM     84  O   UNL     1      -4.351   5.390 -25.595  1.00  0.00    -0.237 OA
ATOM     85  O   UNL     1      -2.718   4.160 -26.971  1.00  0.00    -0.744 OA
ENDBRANCH  81  82
ENDBRANCH  55  76
ENDBRANCH  29  30
ENDBRANCH  21  24
ENDBRANCH  19  20
ENDBRANCH  18  19
ENDBRANCH  17  18
ENDBRANCH   3  17
TORSDOF 19
