REMARK SMILES Cc1ccc(C(=O)NCCCNC(=O)c2ccc(-c3c4nc(c(-c5ccc(S(=O)(=O)[O-])cc5)c5ccc([nH]5)c(-c5ccc(S(=O)(=O)[O-])cc5)c5nc(c(-c6ccc(S(=O)(=O)[O-])cc6)c6ccc3[nH]6)C=C5)C=C4)cc2)c(NC(=O)C[C@@H]2SC(=O)N(c3cccc(C)c3C)C2=O)c1
REMARK SMILES IDX 9 1 8 2 6 3 7 4 5 6 1 7 2 8 3 9 95 10 4 11 75 12 76 13 77 14
REMARK SMILES IDX 78 16 79 17 80 18 81 19 93 20 82 21 84 22 94 23 83 24 85 25
REMARK SMILES IDX 86 26 91 27 87 28 89 29 92 30 88 31 90 32 10 33 11 34 12 35
REMARK SMILES IDX 13 36 14 38 15 39 16 40 74 41 17 42 73 43 18 44 19 45 20 46
REMARK SMILES IDX 67 47 21 48 72 49 66 50 68 51 22 52 71 53 65 54 64 55 23 57
REMARK SMILES IDX 53 58 34 59 52 60 35 61 38 62 51 63 69 64 36 65 37 66 50 68
REMARK SMILES IDX 70 69 39 70 24 71 25 72 33 73 26 74 32 75 27 76 28 77 29 78
REMARK SMILES IDX 30 79 31 80 54 81 55 82 63 83 56 84 62 85 57 86 58 87 59 88
REMARK SMILES IDX 60 89 61 90 40 91 41 92 49 93 42 94 48 95 43 96 44 97 45 98
REMARK SMILES IDX 46 99 47 100
REMARK H PARENT 8 5 76 15 12 37 68 56 38 67
REMARK Flexibility Score: inf
ROOT
ATOM      1  C   UNL     1      -1.663   3.165  -0.873  1.00  0.00     0.118 C 
ENDROOT
BRANCH   1   2
ATOM      2  N   UNL     1      -2.278   1.820  -0.942  1.00  0.00    -0.352 N 
ATOM      3  C   UNL     1      -1.591   0.696  -0.551  1.00  0.00     0.253 C 
ATOM      4  O   UNL     1      -1.916  -0.398  -0.134  1.00  0.00    -0.269 OA
ATOM      5  H   UNL     1      -3.199   1.728  -1.276  1.00  0.00     0.163 HD
BRANCH   3   6
ATOM      6  C   UNL     1      -0.307   0.786  -0.069  1.00  0.00     0.063 A 
ATOM      7  C   UNL     1       3.460   2.139   0.743  1.00  0.00     0.044 C 
ATOM      8  C   UNL     1       2.099   1.527   0.604  1.00  0.00    -0.049 A 
ATOM      9  C   UNL     1       1.964   0.658  -0.493  1.00  0.00     0.004 A 
ATOM     10  C   UNL     1       0.981   1.850   1.469  1.00  0.00     0.030 A 
ATOM     11  C   UNL     1       0.713   0.317  -0.877  1.00  0.00     0.016 A 
ATOM     12  C   UNL     1      -0.289   1.349   1.184  1.00  0.00     0.054 A 
BRANCH  12  13
ATOM     13  N   UNL     1      -1.542   1.582   1.905  1.00  0.00    -0.325 N 
ATOM     14  C   UNL     1      -2.911   1.245   1.780  1.00  0.00     0.226 C 
ATOM     15  H   UNL     1      -1.388   2.131   2.708  1.00  0.00     0.169 HD
ATOM     16  O   UNL     1      -3.587   1.995   2.531  1.00  0.00    -0.275 OA
BRANCH  14  17
ATOM     17  C   UNL     1      -3.867   0.009   1.061  1.00  0.00     0.125 C 
BRANCH  17  18
ATOM     18  C   UNL     1      -4.222  -0.816  -0.352  1.00  0.00     0.156 C 
ATOM     19  S   UNL     1      -5.008  -2.446   0.156  1.00  0.00    -0.050 SA
ATOM     20  C   UNL     1      -3.245  -1.453  -1.453  1.00  0.00     0.248 C 
ATOM     21  C   UNL     1      -3.542  -3.373  -0.236  1.00  0.00     0.293 C 
ATOM     22  N   UNL     1      -2.668  -2.620  -0.955  1.00  0.00    -0.240 N 
ATOM     23  O   UNL     1      -2.992  -0.926  -2.535  1.00  0.00    -0.273 OA
ATOM     24  O   UNL     1      -3.430  -4.550   0.079  1.00  0.00    -0.261 OA
BRANCH  22  25
ATOM     25  C   UNL     1      -1.281  -2.969  -1.155  1.00  0.00     0.056 A 
ATOM     26  C   UNL     1      -0.772  -3.084  -2.457  1.00  0.00     0.027 A 
ATOM     27  C   UNL     1      -0.350  -3.032  -0.062  1.00  0.00    -0.024 A 
ATOM     28  C   UNL     1       0.592  -3.313  -2.690  1.00  0.00     0.002 A 
ATOM     29  C   UNL     1       1.052  -3.161  -0.320  1.00  0.00    -0.046 A 
ATOM     30  C   UNL     1      -0.761  -2.776   1.372  1.00  0.00     0.047 C 
ATOM     31  C   UNL     1       1.497  -3.343  -1.633  1.00  0.00     0.004 A 
ATOM     32  C   UNL     1       2.093  -3.001   0.767  1.00  0.00     0.044 C 
ENDBRANCH  22  25
ENDBRANCH  17  18
ENDBRANCH  14  17
ENDBRANCH  12  13
ENDBRANCH   3   6
ENDBRANCH   1   2
BRANCH   1  33
ATOM     33  C   UNL     1      -2.554   4.413  -1.016  1.00  0.00     0.042 C 
BRANCH  33  34
ATOM     34  C   UNL     1      -3.777   4.960   0.068  1.00  0.00     0.118 C 
BRANCH  34  35
ATOM     35  N   UNL     1      -4.903   6.348  -0.081  1.00  0.00    -0.352 N 
ATOM     36  C   UNL     1      -6.175   7.140  -0.481  1.00  0.00     0.251 C 
ATOM     37  H   UNL     1      -4.392   7.048   0.385  1.00  0.00     0.163 HD
ATOM     38  O   UNL     1      -6.260   8.162   0.244  1.00  0.00    -0.269 OA
BRANCH  36  39
ATOM     39  C   UNL     1      -7.646   6.958  -1.364  1.00  0.00     0.039 A 
ATOM     40  C   UNL     1      -8.941   6.858  -0.784  1.00  0.00     0.014 A 
ATOM     41  C   UNL     1      -7.857   6.843  -2.711  1.00  0.00     0.014 A 
ATOM     42  C   UNL     1      -9.840   5.802  -1.216  1.00  0.00     0.010 A 
ATOM     43  C   UNL     1      -8.636   5.697  -3.122  1.00  0.00     0.010 A 
ATOM     44  C   UNL     1      -9.440   4.983  -2.257  1.00  0.00    -0.014 A 
BRANCH  44  45
ATOM     45  C   UNL     1      -9.840   3.574  -2.593  1.00  0.00     0.031 A 
ATOM     46  C   UNL     1     -10.717   3.433  -3.739  1.00  0.00     0.074 A 
ATOM     47  C   UNL     1      -9.457   2.381  -2.056  1.00  0.00     0.049 A 
ATOM     48  N   UNL     1     -11.969   3.143  -3.687  1.00  0.00    -0.248 NA
ATOM     49  C   UNL     1     -10.203   3.699  -5.076  1.00  0.00     0.031 C 
ATOM     50  C   UNL     1      -9.962   0.996  -2.209  1.00  0.00     0.029 A 
ATOM     51  N   UNL     1      -8.571   2.195  -1.031  1.00  0.00    -0.354 N 
ATOM     52  C   UNL     1     -12.299   2.849  -4.989  1.00  0.00     0.074 A 
ATOM     53  C   UNL     1     -11.299   3.498  -5.803  1.00  0.00     0.031 C 
ATOM     54  C   UNL     1      -9.753   0.324  -1.047  1.00  0.00     0.029 A 
ATOM     55  C   UNL     1      -9.077   1.233  -0.146  1.00  0.00     0.049 A 
ATOM     56  H   UNL     1      -7.712   2.665  -0.930  1.00  0.00     0.167 HD
ATOM     57  C   UNL     1     -13.118   1.797  -5.275  1.00  0.00     0.031 A 
ATOM     58  C   UNL     1      -9.448   1.677   1.096  1.00  0.00     0.031 A 
ATOM     59  C   UNL     1     -13.376   0.994  -4.070  1.00  0.00     0.049 A 
ATOM     60  C   UNL     1     -10.978   1.695   1.168  1.00  0.00     0.074 A 
ATOM     61  C   UNL     1     -12.928  -0.258  -3.674  1.00  0.00     0.029 A 
ATOM     62  N   UNL     1     -13.875   1.603  -2.922  1.00  0.00    -0.354 N 
ATOM     63  N   UNL     1     -11.741   1.631   0.104  1.00  0.00    -0.248 NA
ATOM     64  C   UNL     1     -11.782   1.668   2.393  1.00  0.00     0.031 C 
ATOM     65  C   UNL     1     -13.069  -0.350  -2.260  1.00  0.00     0.029 A 
ATOM     66  C   UNL     1     -13.621   0.834  -1.800  1.00  0.00     0.049 A 
ATOM     67  H   UNL     1     -14.347   2.467  -2.910  1.00  0.00     0.167 HD
ATOM     68  C   UNL     1     -13.055   1.487   0.450  1.00  0.00     0.074 A 
ATOM     69  C   UNL     1     -13.033   1.539   1.902  1.00  0.00     0.031 C 
ATOM     70  C   UNL     1     -14.044   1.296  -0.478  1.00  0.00     0.031 A 
BRANCH  57  71
ATOM     71  C   UNL     1     -13.373   1.311  -6.686  1.00  0.00    -0.014 A 
ATOM     72  C   UNL     1     -13.912   0.030  -6.901  1.00  0.00     0.010 A 
ATOM     73  C   UNL     1     -13.155   2.090  -7.844  1.00  0.00     0.010 A 
ATOM     74  C   UNL     1     -14.162  -0.465  -8.190  1.00  0.00     0.020 A 
ATOM     75  C   UNL     1     -13.351   1.594  -9.139  1.00  0.00     0.020 A 
ATOM     76  C   UNL     1     -13.867   0.318  -9.305  1.00  0.00     0.054 A 
BRANCH  76  77
ATOM     77  S   UNL     1     -14.233  -0.322 -10.957  1.00  0.00     0.124 S 
ATOM     78  O   UNL     1     -13.431  -1.541 -11.010  1.00  0.00    -0.237 OA
ATOM     79  O   UNL     1     -15.679  -0.520 -10.901  1.00  0.00    -0.237 OA
ATOM     80  O   UNL     1     -13.791   0.747 -11.852  1.00  0.00    -0.744 OA
ENDBRANCH  76  77
ENDBRANCH  57  71
BRANCH  58  81
ATOM     81  C   UNL     1      -8.406   2.713   1.564  1.00  0.00    -0.014 A 
ATOM     82  C   UNL     1      -7.058   2.288   1.431  1.00  0.00     0.010 A 
ATOM     83  C   UNL     1      -8.578   4.042   1.254  1.00  0.00     0.010 A 
ATOM     84  C   UNL     1      -6.242   2.820   0.384  1.00  0.00     0.020 A 
ATOM     85  C   UNL     1      -7.606   4.665   0.413  1.00  0.00     0.020 A 
ATOM     86  C   UNL     1      -6.592   3.993  -0.275  1.00  0.00     0.054 A 
BRANCH  86  87
ATOM     87  S   UNL     1      -5.852   4.165  -2.185  1.00  0.00     0.124 S 
ATOM     88  O   UNL     1      -4.514   4.676  -2.064  1.00  0.00    -0.237 OA
ATOM     89  O   UNL     1      -5.975   2.811  -2.653  1.00  0.00    -0.237 OA
ATOM     90  O   UNL     1      -6.390   5.155  -3.071  1.00  0.00    -0.744 OA
ENDBRANCH  86  87
ENDBRANCH  58  81
BRANCH  70  91
ATOM     91  C   UNL     1     -15.534   1.427  -0.237  1.00  0.00    -0.014 A 
ATOM     92  C   UNL     1     -16.098   2.053   0.882  1.00  0.00     0.010 A 
ATOM     93  C   UNL     1     -16.436   1.021  -1.257  1.00  0.00     0.010 A 
ATOM     94  C   UNL     1     -17.486   2.193   1.015  1.00  0.00     0.020 A 
ATOM     95  C   UNL     1     -17.815   1.215  -1.166  1.00  0.00     0.020 A 
ATOM     96  C   UNL     1     -18.336   1.770  -0.008  1.00  0.00     0.054 A 
BRANCH  96  97
ATOM     97  S   UNL     1     -20.120   1.981   0.181  1.00  0.00     0.124 S 
ATOM     98  O   UNL     1     -20.455   0.886   1.089  1.00  0.00    -0.237 OA
ATOM     99  O   UNL     1     -20.227   3.322   0.751  1.00  0.00    -0.237 OA
ATOM    100  O   UNL     1     -20.636   1.845  -1.179  1.00  0.00    -0.744 OA
ENDBRANCH  96  97
ENDBRANCH  70  91
ENDBRANCH  44  45
ENDBRANCH  36  39
ENDBRANCH  34  35
ENDBRANCH  33  34
ENDBRANCH   1  33
TORSDOF 17
