REMARK SMILES CS(=O)(=O)c1ccc(C(=O)N[C@@H](CC(=O)NCCCNC(=O)c2ccc(-c3c4nc(c(-c5ccc(S(=O)(=O)[O-])cc5)c5ccc([nH]5)c(-c5ccc(S(=O)(=O)[O-])cc5)c5nc(c(-c6ccc(S(=O)(=O)[O-])cc6)c6ccc3[nH]6)C=C5)C=C4)cc2)c2ccccc2)cc1
REMARK SMILES IDX 17 1 16 2 14 3 15 4 13 6 12 7 11 8 9 9 10 10 8 12 5 13 6 14
REMARK SMILES IDX 90 15 7 16 89 17 2 18 1 19 3 20 4 21 83 22 84 23 88 24 85 25
REMARK SMILES IDX 87 26 86 27 18 28 19 29 20 30 21 31 22 33 23 34 24 35 82 36
REMARK SMILES IDX 25 37 81 38 26 39 27 40 28 41 75 42 29 43 80 44 74 45 76 46
REMARK SMILES IDX 30 47 79 48 73 49 72 50 31 52 61 53 42 54 60 55 43 56 46 57
REMARK SMILES IDX 59 58 77 59 44 60 45 61 58 63 78 64 47 65 32 66 33 67 41 68
REMARK SMILES IDX 34 69 40 70 35 71 36 72 37 73 38 74 39 75 62 76 63 77 71 78
REMARK SMILES IDX 64 79 70 80 65 81 66 82 67 83 68 84 69 85 48 86 49 87 57 88
REMARK SMILES IDX 50 89 56 90 51 91 52 92 53 93 54 94 55 95
REMARK H PARENT 16 5 11 11 20 32 76 51 46 62
REMARK Flexibility Score: inf
ROOT
ATOM      1  C   UNL     1       2.725   8.840  -2.896  1.00  0.00     0.117 C 
ENDROOT
BRANCH   1   2
ATOM      2  N   UNL     1       1.567   9.560  -2.396  1.00  0.00    -0.356 N 
ATOM      3  C   UNL     1       0.427   9.111  -1.811  1.00  0.00     0.222 C 
ATOM      4  O   UNL     1      -0.374   9.960  -1.411  1.00  0.00    -0.275 OA
ATOM      5  H   UNL     1       1.617  10.538  -2.498  1.00  0.00     0.163 HD
BRANCH   3   6
ATOM      6  C   UNL     1       0.150   7.637  -1.601  1.00  0.00     0.129 C 
BRANCH   6   7
ATOM      7  C   UNL     1      -0.336   6.769  -2.780  1.00  0.00     0.122 C 
BRANCH   7   8
ATOM      8  N   UNL     1       0.761   6.342  -3.636  1.00  0.00    -0.345 N 
ATOM      9  C   UNL     1       1.718   5.367  -3.562  1.00  0.00     0.251 C 
ATOM     10  O   UNL     1       2.754   5.541  -4.206  1.00  0.00    -0.269 OA
ATOM     11  H   UNL     1       0.831   6.879  -4.458  1.00  0.00     0.164 HD
BRANCH   9  12
ATOM     12  C   UNL     1       1.512   4.057  -2.887  1.00  0.00     0.039 A 
ATOM     13  C   UNL     1       0.955   1.444  -2.058  1.00  0.00     0.067 A 
ATOM     14  C   UNL     1       1.897   1.649  -3.061  1.00  0.00     0.021 A 
ATOM     15  C   UNL     1       0.346   2.525  -1.418  1.00  0.00     0.021 A 
ATOM     16  C   UNL     1       2.167   2.955  -3.474  1.00  0.00     0.015 A 
ATOM     17  C   UNL     1       0.666   3.829  -1.802  1.00  0.00     0.015 A 
BRANCH  13  18
ATOM     18  S   UNL     1       0.479  -0.198  -1.587  1.00  0.00     0.175 S 
ATOM     19  C   UNL     1       1.048  -0.316   0.087  1.00  0.00     0.163 C 
ATOM     20  O   UNL     1       1.243  -1.139  -2.379  1.00  0.00    -0.224 OA
ATOM     21  O   UNL     1      -0.973  -0.226  -1.571  1.00  0.00    -0.224 OA
ENDBRANCH  13  18
ENDBRANCH   9  12
ENDBRANCH   7   8
BRANCH   7  22
ATOM     22  C   UNL     1      -1.518   7.214  -3.623  1.00  0.00    -0.025 A 
ATOM     23  C   UNL     1      -1.767   8.532  -4.020  1.00  0.00     0.006 A 
ATOM     24  C   UNL     1      -2.405   6.215  -4.077  1.00  0.00     0.006 A 
ATOM     25  C   UNL     1      -2.897   8.849  -4.782  1.00  0.00     0.000 A 
ATOM     26  C   UNL     1      -3.526   6.529  -4.844  1.00  0.00     0.000 A 
ATOM     27  C   UNL     1      -3.779   7.852  -5.186  1.00  0.00     0.000 A 
ENDBRANCH   7  22
ENDBRANCH   6   7
ENDBRANCH   3   6
ENDBRANCH   1   2
BRANCH   1  28
ATOM     28  C   UNL     1       2.768   8.821  -4.419  1.00  0.00     0.042 C 
BRANCH  28  29
ATOM     29  C   UNL     1       3.010  10.173  -5.069  1.00  0.00     0.118 C 
BRANCH  29  30
ATOM     30  N   UNL     1       4.364  10.656  -4.874  1.00  0.00    -0.352 N 
ATOM     31  C   UNL     1       5.406  10.751  -5.765  1.00  0.00     0.251 C 
ATOM     32  H   UNL     1       4.569  10.962  -3.961  1.00  0.00     0.163 HD
ATOM     33  O   UNL     1       6.535  10.985  -5.339  1.00  0.00    -0.269 OA
BRANCH  31  34
ATOM     34  C   UNL     1       5.189  10.562  -7.220  1.00  0.00     0.039 A 
ATOM     35  C   UNL     1       6.161   9.888  -7.965  1.00  0.00     0.014 A 
ATOM     36  C   UNL     1       4.062  11.077  -7.865  1.00  0.00     0.014 A 
ATOM     37  C   UNL     1       5.974   9.681  -9.335  1.00  0.00     0.010 A 
ATOM     38  C   UNL     1       3.828  10.782  -9.206  1.00  0.00     0.010 A 
ATOM     39  C   UNL     1       4.788  10.095  -9.962  1.00  0.00    -0.014 A 
BRANCH  39  40
ATOM     40  C   UNL     1       4.540   9.845 -11.407  1.00  0.00     0.031 A 
ATOM     41  C   UNL     1       4.340  11.003 -12.351  1.00  0.00     0.074 A 
ATOM     42  C   UNL     1       4.431   8.580 -11.861  1.00  0.00     0.049 A 
ATOM     43  N   UNL     1       4.033  10.988 -13.623  1.00  0.00    -0.248 NA
ATOM     44  C   UNL     1       4.478  12.356 -11.786  1.00  0.00     0.031 C 
ATOM     45  C   UNL     1       4.570   7.371 -11.045  1.00  0.00     0.029 A 
ATOM     46  N   UNL     1       4.169   8.099 -13.120  1.00  0.00    -0.354 N 
ATOM     47  C   UNL     1       3.921  12.321 -14.003  1.00  0.00     0.074 A 
ATOM     48  C   UNL     1       4.139  13.117 -12.816  1.00  0.00     0.031 C 
ATOM     49  C   UNL     1       4.418   6.291 -11.828  1.00  0.00     0.029 A 
ATOM     50  C   UNL     1       4.121   6.726 -13.189  1.00  0.00     0.049 A 
ATOM     51  H   UNL     1       4.029   8.682 -13.901  1.00  0.00     0.167 HD
ATOM     52  C   UNL     1       3.680  12.838 -15.231  1.00  0.00     0.031 A 
ATOM     53  C   UNL     1       3.853   5.906 -14.225  1.00  0.00     0.031 A 
ATOM     54  C   UNL     1       3.474  12.043 -16.413  1.00  0.00     0.049 A 
ATOM     55  C   UNL     1       3.562   6.504 -15.576  1.00  0.00     0.074 A 
ATOM     56  C   UNL     1       3.275  12.471 -17.713  1.00  0.00     0.029 A 
ATOM     57  N   UNL     1       3.440  10.656 -16.438  1.00  0.00    -0.354 N 
ATOM     58  N   UNL     1       3.522   7.768 -15.926  1.00  0.00    -0.248 NA
ATOM     59  C   UNL     1       3.290   5.565 -16.673  1.00  0.00     0.031 C 
ATOM     60  C   UNL     1       3.058  11.347 -18.515  1.00  0.00     0.029 A 
ATOM     61  C   UNL     1       3.194  10.214 -17.727  1.00  0.00     0.049 A 
ATOM     62  H   UNL     1       3.571  10.073 -15.656  1.00  0.00     0.167 HD
ATOM     63  C   UNL     1       3.251   7.774 -17.290  1.00  0.00     0.074 A 
ATOM     64  C   UNL     1       3.150   6.389 -17.703  1.00  0.00     0.031 C 
ATOM     65  C   UNL     1       3.100   8.832 -18.125  1.00  0.00     0.031 A 
BRANCH  52  66
ATOM     66  C   UNL     1       3.618  14.340 -15.359  1.00  0.00    -0.014 A 
ATOM     67  C   UNL     1       4.767  15.134 -15.194  1.00  0.00     0.010 A 
ATOM     68  C   UNL     1       2.401  14.963 -15.692  1.00  0.00     0.010 A 
ATOM     69  C   UNL     1       4.692  16.524 -15.314  1.00  0.00     0.020 A 
ATOM     70  C   UNL     1       2.328  16.351 -15.846  1.00  0.00     0.020 A 
ATOM     71  C   UNL     1       3.471  17.124 -15.639  1.00  0.00     0.054 A 
BRANCH  71  72
ATOM     72  S   UNL     1       3.410  18.929 -15.811  1.00  0.00     0.124 S 
ATOM     73  O   UNL     1       3.556  19.368 -14.425  1.00  0.00    -0.237 OA
ATOM     74  O   UNL     1       4.551  19.205 -16.680  1.00  0.00    -0.237 OA
ATOM     75  O   UNL     1       2.100  19.177 -16.407  1.00  0.00    -0.744 OA
ENDBRANCH  71  72
ENDBRANCH  52  66
BRANCH  53  76
ATOM     76  C   UNL     1       3.850   4.430 -14.025  1.00  0.00    -0.014 A 
ATOM     77  C   UNL     1       4.846   3.626 -14.606  1.00  0.00     0.010 A 
ATOM     78  C   UNL     1       2.853   3.819 -13.241  1.00  0.00     0.010 A 
ATOM     79  C   UNL     1       4.834   2.239 -14.425  1.00  0.00     0.020 A 
ATOM     80  C   UNL     1       2.856   2.438 -13.031  1.00  0.00     0.020 A 
ATOM     81  C   UNL     1       3.840   1.654 -13.635  1.00  0.00     0.054 A 
BRANCH  81  82
ATOM     82  S   UNL     1       3.873  -0.141 -13.377  1.00  0.00     0.124 S 
ATOM     83  O   UNL     1       3.472  -0.644 -14.688  1.00  0.00    -0.237 OA
ATOM     84  O   UNL     1       5.266  -0.380 -13.007  1.00  0.00    -0.237 OA
ATOM     85  O   UNL     1       2.906  -0.351 -12.303  1.00  0.00    -0.744 OA
ENDBRANCH  81  82
ENDBRANCH  53  76
BRANCH  65  86
ATOM     86  C   UNL     1       2.852   8.542 -19.582  1.00  0.00    -0.014 A 
ATOM     87  C   UNL     1       1.621   8.029 -20.028  1.00  0.00     0.010 A 
ATOM     88  C   UNL     1       3.845   8.858 -20.528  1.00  0.00     0.010 A 
ATOM     89  C   UNL     1       1.397   7.816 -21.391  1.00  0.00     0.020 A 
ATOM     90  C   UNL     1       3.614   8.675 -21.893  1.00  0.00     0.020 A 
ATOM     91  C   UNL     1       2.394   8.145 -22.316  1.00  0.00     0.054 A 
BRANCH  91  92
ATOM     92  S   UNL     1       2.055   7.915 -24.082  1.00  0.00     0.124 S 
ATOM     93  O   UNL     1       2.076   6.461 -24.210  1.00  0.00    -0.237 OA
ATOM     94  O   UNL     1       0.744   8.541 -24.239  1.00  0.00    -0.237 OA
ATOM     95  O   UNL     1       3.155   8.615 -24.742  1.00  0.00    -0.744 OA
ENDBRANCH  91  92
ENDBRANCH  65  86
ENDBRANCH  39  40
ENDBRANCH  31  34
ENDBRANCH  29  30
ENDBRANCH  28  29
ENDBRANCH   1  28
TORSDOF 18
