REMARK SMILES C[NH2+][C@@]1(C(=O)NCCCNC(=O)c2ccc(-c3c4nc(c(-c5ccc(S(=O)(=O)[O-])cc5)c5ccc([nH]5)c(-c5ccc(S(=O)(=O)[O-])cc5)c5nc(c(-c6ccc(S(=O)(=O)[O-])cc6)c6ccc3[nH]6)C=C5)C=C4)cc2)CCC[C@H]1CCSc1nccc(=O)[nH]1
REMARK SMILES IDX 7 1 6 2 4 3 5 4 3 6 73 7 76 8 74 9 75 10 2 11 1 12 77 15
REMARK SMILES IDX 78 16 79 17 80 18 81 19 86 20 82 21 84 22 83 24 85 25 8 26
REMARK SMILES IDX 9 27 10 28 11 29 12 31 13 32 14 33 72 34 15 35 71 36 16 37
REMARK SMILES IDX 17 38 18 39 65 40 19 41 70 42 64 43 66 44 20 45 69 46 63 47
REMARK SMILES IDX 62 48 21 50 51 51 32 52 50 53 33 54 36 55 49 56 67 57 34 58
REMARK SMILES IDX 35 59 48 61 68 62 37 63 22 64 23 65 31 66 24 67 30 68 25 69
REMARK SMILES IDX 26 70 27 71 28 72 29 73 52 74 53 75 61 76 54 77 60 78 55 79
REMARK SMILES IDX 56 80 57 81 58 82 59 83 38 84 39 85 47 86 40 87 46 88 41 89
REMARK SMILES IDX 42 90 43 91 44 92 45 93
REMARK H PARENT 6 5 2 13 2 14 86 23 10 30 66 49 36 60
REMARK Flexibility Score: inf
ROOT
ATOM      1  C   UNL     1      -4.066   0.688   2.329  1.00  0.00     0.118 C 
ENDROOT
BRANCH   1   2
ATOM      2  N   UNL     1      -2.765   0.865   2.919  1.00  0.00    -0.351 N 
ATOM      3  C   UNL     1      -1.514   0.974   2.408  1.00  0.00     0.281 C 
ATOM      4  O   UNL     1      -0.691   1.367   3.255  1.00  0.00    -0.268 OA
ATOM      5  H   UNL     1      -2.789   0.919   3.902  1.00  0.00     0.163 HD
BRANCH   3   6
ATOM      6  C   UNL     1      -1.056   0.656   0.890  1.00  0.00     0.178 C 
ATOM      7  C   UNL     1      -1.619   1.731  -0.059  1.00  0.00     0.079 C 
ATOM      8  C   UNL     1      -1.602  -0.720   0.374  1.00  0.00     0.061 C 
ATOM      9  C   UNL     1      -2.793   1.137  -0.815  1.00  0.00     0.008 C 
ATOM     10  C   UNL     1      -2.764  -0.368  -0.596  1.00  0.00     0.011 C 
BRANCH   6  11
ATOM     11  N   UNL     1       0.413   0.749   0.993  1.00  0.00    -0.336 N 
ATOM     12  C   UNL     1       1.277   0.966  -0.133  1.00  0.00     0.331 C 
ATOM     13  H   UNL     1       0.599   1.516   1.638  1.00  0.00     0.346 HD
ATOM     14  H   UNL     1       0.654  -0.210   1.245  1.00  0.00     0.346 HD
ENDBRANCH   6  11
BRANCH   8  15
ATOM     15  C   UNL     1      -0.686  -1.702  -0.407  1.00  0.00     0.022 C 
BRANCH  15  16
ATOM     16  C   UNL     1       0.511  -2.363   0.283  1.00  0.00     0.079 C 
BRANCH  16  17
ATOM     17  S   UNL     1       0.093  -3.867   1.212  1.00  0.00    -0.088 SA
BRANCH  17  18
ATOM     18  C   UNL     1      -0.514  -3.196   2.685  1.00  0.00     0.168 A 
ATOM     19  N   UNL     1      -0.110  -2.072   3.170  1.00  0.00    -0.233 NA
ATOM     20  N   UNL     1      -1.460  -3.987   3.252  1.00  0.00    -0.301 N 
ATOM     21  C   UNL     1      -0.707  -1.674   4.340  1.00  0.00     0.120 A 
ATOM     22  C   UNL     1      -2.120  -3.613   4.379  1.00  0.00     0.251 A 
ATOM     23  H   UNL     1      -1.675  -4.853   2.836  1.00  0.00     0.172 HD
ATOM     24  C   UNL     1      -1.678  -2.342   4.970  1.00  0.00     0.091 A 
ATOM     25  O   UNL     1      -3.039  -4.257   4.871  1.00  0.00    -0.269 OA
ENDBRANCH  17  18
ENDBRANCH  16  17
ENDBRANCH  15  16
ENDBRANCH   8  15
ENDBRANCH   3   6
ENDBRANCH   1   2
BRANCH   1  26
ATOM     26  C   UNL     1      -4.721  -0.638   2.679  1.00  0.00     0.042 C 
BRANCH  26  27
ATOM     27  C   UNL     1      -5.317  -0.670   4.081  1.00  0.00     0.118 C 
BRANCH  27  28
ATOM     28  N   UNL     1      -6.324   0.369   4.282  1.00  0.00    -0.352 N 
ATOM     29  C   UNL     1      -7.691   0.296   4.386  1.00  0.00     0.251 C 
ATOM     30  H   UNL     1      -5.958   1.280   4.355  1.00  0.00     0.163 HD
ATOM     31  O   UNL     1      -8.352   1.327   4.288  1.00  0.00    -0.269 OA
BRANCH  29  32
ATOM     32  C   UNL     1      -8.367  -0.999   4.610  1.00  0.00     0.039 A 
ATOM     33  C   UNL     1      -9.614  -1.230   4.023  1.00  0.00     0.014 A 
ATOM     34  C   UNL     1      -7.798  -1.970   5.435  1.00  0.00     0.014 A 
ATOM     35  C   UNL     1     -10.255  -2.457   4.214  1.00  0.00     0.010 A 
ATOM     36  C   UNL     1      -8.381  -3.227   5.534  1.00  0.00     0.010 A 
ATOM     37  C   UNL     1      -9.625  -3.479   4.942  1.00  0.00    -0.014 A 
BRANCH  37  38
ATOM     38  C   UNL     1     -10.254  -4.812   5.123  1.00  0.00     0.031 A 
ATOM     39  C   UNL     1     -10.574  -5.310   6.508  1.00  0.00     0.074 A 
ATOM     40  C   UNL     1     -10.469  -5.600   4.051  1.00  0.00     0.049 A 
ATOM     41  N   UNL     1     -11.053  -6.470   6.878  1.00  0.00    -0.248 NA
ATOM     42  C   UNL     1     -10.290  -4.396   7.629  1.00  0.00     0.031 C 
ATOM     43  C   UNL     1     -10.161  -5.246   2.662  1.00  0.00     0.029 A 
ATOM     44  N   UNL     1     -10.990  -6.865   3.961  1.00  0.00    -0.354 N 
ATOM     45  C   UNL     1     -11.102  -6.433   8.267  1.00  0.00     0.074 A 
ATOM     46  C   UNL     1     -10.552  -5.161   8.678  1.00  0.00     0.031 C 
ATOM     47  C   UNL     1     -10.530  -6.256   1.858  1.00  0.00     0.029 A 
ATOM     48  C   UNL     1     -11.053  -7.347   2.674  1.00  0.00     0.049 A 
ATOM     49  H   UNL     1     -11.291  -7.381   4.744  1.00  0.00     0.167 HD
ATOM     50  C   UNL     1     -11.581  -7.365   9.124  1.00  0.00     0.031 A 
ATOM     51  C   UNL     1     -11.476  -8.536   2.204  1.00  0.00     0.031 A 
ATOM     52  C   UNL     1     -12.139  -8.624   8.707  1.00  0.00     0.049 A 
ATOM     53  C   UNL     1     -11.995  -9.560   3.176  1.00  0.00     0.074 A 
ATOM     54  C   UNL     1     -12.710  -9.613   9.488  1.00  0.00     0.029 A 
ATOM     55  N   UNL     1     -12.194  -9.068   7.394  1.00  0.00    -0.354 N 
ATOM     56  N   UNL     1     -12.100  -9.479   4.481  1.00  0.00    -0.248 NA
ATOM     57  C   UNL     1     -12.464 -10.832   2.611  1.00  0.00     0.031 C 
ATOM     58  C   UNL     1     -13.052 -10.682   8.655  1.00  0.00     0.029 A 
ATOM     59  C   UNL     1     -12.763 -10.329   7.346  1.00  0.00     0.049 A 
ATOM     60  H   UNL     1     -11.876  -8.561   6.612  1.00  0.00     0.167 HD
ATOM     61  C   UNL     1     -12.678 -10.676   4.890  1.00  0.00     0.074 A 
ATOM     62  C   UNL     1     -12.913 -11.456   3.691  1.00  0.00     0.031 C 
ATOM     63  C   UNL     1     -12.991 -11.091   6.143  1.00  0.00     0.031 A 
BRANCH  50  64
ATOM     64  C   UNL     1     -11.514  -7.061  10.600  1.00  0.00    -0.014 A 
ATOM     65  C   UNL     1     -12.297  -6.041  11.172  1.00  0.00     0.010 A 
ATOM     66  C   UNL     1     -10.680  -7.829  11.433  1.00  0.00     0.010 A 
ATOM     67  C   UNL     1     -12.213  -5.765  12.540  1.00  0.00     0.020 A 
ATOM     68  C   UNL     1     -10.619  -7.579  12.808  1.00  0.00     0.020 A 
ATOM     69  C   UNL     1     -11.373  -6.535  13.349  1.00  0.00     0.054 A 
BRANCH  69  70
ATOM     70  S   UNL     1     -11.303  -6.169  15.124  1.00  0.00     0.124 S 
ATOM     71  O   UNL     1     -10.584  -4.898  15.141  1.00  0.00    -0.237 OA
ATOM     72  O   UNL     1     -12.715  -6.096  15.490  1.00  0.00    -0.237 OA
ATOM     73  O   UNL     1     -10.573  -7.304  15.685  1.00  0.00    -0.744 OA
ENDBRANCH  69  70
ENDBRANCH  50  64
BRANCH  51  74
ATOM     74  C   UNL     1     -11.443  -8.813   0.741  1.00  0.00    -0.014 A 
ATOM     75  C   UNL     1     -12.638  -8.925   0.008  1.00  0.00     0.010 A 
ATOM     76  C   UNL     1     -10.215  -8.954   0.068  1.00  0.00     0.010 A 
ATOM     77  C   UNL     1     -12.607  -9.193  -1.364  1.00  0.00     0.020 A 
ATOM     78  C   UNL     1     -10.179  -9.191  -1.309  1.00  0.00     0.020 A 
ATOM     79  C   UNL     1     -11.376  -9.321  -2.014  1.00  0.00     0.054 A 
BRANCH  79  80
ATOM     80  S   UNL     1     -11.361  -9.621  -3.804  1.00  0.00     0.124 S 
ATOM     81  O   UNL     1     -11.826 -11.002  -3.885  1.00  0.00    -0.237 OA
ATOM     82  O   UNL     1     -12.289  -8.609  -4.300  1.00  0.00    -0.237 OA
ATOM     83  O   UNL     1      -9.963  -9.408  -4.174  1.00  0.00    -0.744 OA
ENDBRANCH  79  80
ENDBRANCH  51  74
BRANCH  63  84
ATOM     84  C   UNL     1     -13.663 -12.431   6.283  1.00  0.00    -0.014 A 
ATOM     85  C   UNL     1     -12.967 -13.630   6.053  1.00  0.00     0.010 A 
ATOM     86  C   UNL     1     -15.003 -12.488   6.711  1.00  0.00     0.010 A 
ATOM     87  C   UNL     1     -13.609 -14.861   6.215  1.00  0.00     0.020 A 
ATOM     88  C   UNL     1     -15.638 -13.716   6.906  1.00  0.00     0.020 A 
ATOM     89  C   UNL     1     -14.940 -14.896   6.642  1.00  0.00     0.054 A 
BRANCH  89  90
ATOM     90  S   UNL     1     -15.735 -16.506   6.887  1.00  0.00     0.124 S 
ATOM     91  O   UNL     1     -15.914 -16.969   5.514  1.00  0.00    -0.237 OA
ATOM     92  O   UNL     1     -14.743 -17.236   7.673  1.00  0.00    -0.237 OA
ATOM     93  O   UNL     1     -16.969 -16.180   7.600  1.00  0.00    -0.744 OA
ENDBRANCH  89  90
ENDBRANCH  63  84
ENDBRANCH  37  38
ENDBRANCH  29  32
ENDBRANCH  27  28
ENDBRANCH  26  27
ENDBRANCH   1  26
TORSDOF 18
