REMARK SMILES O=C(NCCCNC(=O)C1(C/C=C/c2ccccc2)Cc2ccccc2C1)c1ccc(-c2c3nc(c(-c4ccc(S(=O)(=O)[O-])cc4)c4ccc([nH]4)c(-c4ccc(S(=O)(=O)[O-])cc4)c4nc(c(-c5ccc(S(=O)(=O)[O-])cc5)c5ccc2[nH]5)C=C4)C=C3)cc1
REMARK SMILES IDX 5 1 4 2 3 3 1 4 2 5 28 7 29 8 87 9 30 10 86 11 31 12 32 13
REMARK SMILES IDX 33 14 80 15 34 16 85 17 79 18 81 19 35 20 84 21 78 22 77 23
REMARK SMILES IDX 36 25 66 26 47 27 65 28 48 29 51 30 64 31 82 32 49 33 50 34
REMARK SMILES IDX 63 36 83 37 52 38 37 39 38 40 46 41 39 42 45 43 40 44 41 45
REMARK SMILES IDX 42 46 43 47 44 48 67 49 68 50 76 51 69 52 75 53 70 54 71 55
REMARK SMILES IDX 72 56 73 57 74 58 53 59 54 60 62 61 55 62 61 63 56 64 57 65
REMARK SMILES IDX 58 66 59 67 60 68 6 69 7 70 8 71 9 73 10 74 20 75 27 76
REMARK SMILES IDX 21 77 26 78 22 79 25 80 23 81 24 82 11 83 12 84 13 85 14 86
REMARK SMILES IDX 15 87 19 88 16 89 18 90 17 91
REMARK H PARENT 3 6 81 24 51 35 7 72
REMARK Flexibility Score: inf
ROOT
ATOM      1  C   UNL     1       4.393  -0.491   2.572  1.00  0.00     0.042 C 
ENDROOT
BRANCH   1   2
ATOM      2  C   UNL     1       4.247  -0.890   1.105  1.00  0.00     0.118 C 
BRANCH   2   3
ATOM      3  N   UNL     1       2.855  -0.974   0.702  1.00  0.00    -0.352 N 
ATOM      4  O   UNL     1       0.921  -0.247  -0.173  1.00  0.00    -0.269 OA
ATOM      5  C   UNL     1       2.147  -0.178  -0.163  1.00  0.00     0.251 C 
ATOM      6  H   UNL     1       2.344  -1.711   1.109  1.00  0.00     0.163 HD
BRANCH   5   7
ATOM      7  C   UNL     1       2.845   0.758  -1.073  1.00  0.00     0.039 A 
ATOM      8  C   UNL     1       3.980   0.366  -1.790  1.00  0.00     0.014 A 
ATOM      9  C   UNL     1       2.300   2.030  -1.271  1.00  0.00     0.014 A 
ATOM     10  C   UNL     1       4.619   1.271  -2.637  1.00  0.00     0.010 A 
ATOM     11  C   UNL     1       2.906   2.915  -2.165  1.00  0.00     0.010 A 
ATOM     12  C   UNL     1       4.077   2.547  -2.846  1.00  0.00    -0.014 A 
BRANCH  12  13
ATOM     13  C   UNL     1       4.688   3.477  -3.829  1.00  0.00     0.031 A 
ATOM     14  C   UNL     1       5.311   4.767  -3.380  1.00  0.00     0.074 A 
ATOM     15  C   UNL     1       4.625   3.178  -5.141  1.00  0.00     0.049 A 
ATOM     16  N   UNL     1       5.805   5.739  -4.103  1.00  0.00    -0.248 NA
ATOM     17  C   UNL     1       5.379   4.999  -1.929  1.00  0.00     0.031 C 
ATOM     18  C   UNL     1       4.037   1.959  -5.700  1.00  0.00     0.029 A 
ATOM     19  N   UNL     1       5.041   3.883  -6.242  1.00  0.00    -0.354 N 
ATOM     20  C   UNL     1       6.218   6.712  -3.201  1.00  0.00     0.074 A 
ATOM     21  C   UNL     1       5.900   6.217  -1.877  1.00  0.00     0.031 C 
ATOM     22  C   UNL     1       4.129   2.001  -7.037  1.00  0.00     0.029 A 
ATOM     23  C   UNL     1       4.731   3.270  -7.433  1.00  0.00     0.049 A 
ATOM     24  H   UNL     1       5.515   4.744  -6.185  1.00  0.00     0.167 HD
ATOM     25  C   UNL     1       6.804   7.907  -3.453  1.00  0.00     0.031 A 
ATOM     26  C   UNL     1       4.878   3.691  -8.703  1.00  0.00     0.031 A 
ATOM     27  C   UNL     1       7.103   8.396  -4.774  1.00  0.00     0.049 A 
ATOM     28  C   UNL     1       5.502   5.031  -8.965  1.00  0.00     0.074 A 
ATOM     29  C   UNL     1       7.729   9.577  -5.133  1.00  0.00     0.029 A 
ATOM     30  N   UNL     1       6.783   7.738  -5.953  1.00  0.00    -0.354 N 
ATOM     31  N   UNL     1       5.930   5.918  -8.098  1.00  0.00    -0.248 NA
ATOM     32  C   UNL     1       5.670   5.426 -10.369  1.00  0.00     0.031 C 
ATOM     33  C   UNL     1       7.742   9.657  -6.530  1.00  0.00     0.029 A 
ATOM     34  C   UNL     1       7.175   8.499  -7.042  1.00  0.00     0.049 A 
ATOM     35  H   UNL     1       6.343   6.860  -6.008  1.00  0.00     0.167 HD
ATOM     36  C   UNL     1       6.439   6.968  -8.852  1.00  0.00     0.074 A 
ATOM     37  C   UNL     1       6.268   6.605 -10.245  1.00  0.00     0.031 C 
ATOM     38  C   UNL     1       7.002   8.124  -8.424  1.00  0.00     0.031 A 
BRANCH  25  39
ATOM     39  C   UNL     1       7.115   8.785  -2.270  1.00  0.00    -0.014 A 
ATOM     40  C   UNL     1       8.138   8.456  -1.362  1.00  0.00     0.010 A 
ATOM     41  C   UNL     1       6.369   9.960  -2.062  1.00  0.00     0.010 A 
ATOM     42  C   UNL     1       8.363   9.248  -0.232  1.00  0.00     0.020 A 
ATOM     43  C   UNL     1       6.609  10.769  -0.947  1.00  0.00     0.020 A 
ATOM     44  C   UNL     1       7.586  10.391  -0.024  1.00  0.00     0.054 A 
BRANCH  44  45
ATOM     45  S   UNL     1       7.870  11.381   1.469  1.00  0.00     0.124 S 
ATOM     46  O   UNL     1       7.237  10.558   2.498  1.00  0.00    -0.237 OA
ATOM     47  O   UNL     1       9.327  11.455   1.536  1.00  0.00    -0.237 OA
ATOM     48  O   UNL     1       7.197  12.645   1.181  1.00  0.00    -0.744 OA
ENDBRANCH  44  45
ENDBRANCH  25  39
BRANCH  26  49
ATOM     49  C   UNL     1       4.404   2.818  -9.809  1.00  0.00    -0.014 A 
ATOM     50  C   UNL     1       5.318   2.096 -10.593  1.00  0.00     0.010 A 
ATOM     51  C   UNL     1       3.024   2.631 -10.016  1.00  0.00     0.010 A 
ATOM     52  C   UNL     1       4.861   1.190 -11.555  1.00  0.00     0.020 A 
ATOM     53  C   UNL     1       2.564   1.710 -10.960  1.00  0.00     0.020 A 
ATOM     54  C   UNL     1       3.487   0.994 -11.724  1.00  0.00     0.054 A 
BRANCH  54  55
ATOM     55  S   UNL     1       2.920  -0.269 -12.898  1.00  0.00     0.124 S 
ATOM     56  O   UNL     1       3.154   0.383 -14.182  1.00  0.00    -0.237 OA
ATOM     57  O   UNL     1       3.794  -1.399 -12.592  1.00  0.00    -0.237 OA
ATOM     58  O   UNL     1       1.517  -0.464 -12.539  1.00  0.00    -0.744 OA
ENDBRANCH  54  55
ENDBRANCH  26  49
BRANCH  38  59
ATOM     59  C   UNL     1       7.517   9.079  -9.466  1.00  0.00    -0.014 A 
ATOM     60  C   UNL     1       6.642   9.895 -10.203  1.00  0.00     0.010 A 
ATOM     61  C   UNL     1       8.906   9.233  -9.632  1.00  0.00     0.010 A 
ATOM     62  C   UNL     1       7.148  10.849 -11.090  1.00  0.00     0.020 A 
ATOM     63  C   UNL     1       9.415  10.200 -10.502  1.00  0.00     0.020 A 
ATOM     64  C   UNL     1       8.532  11.000 -11.229  1.00  0.00     0.054 A 
BRANCH  64  65
ATOM     65  S   UNL     1       9.165  12.308 -12.316  1.00  0.00     0.124 S 
ATOM     66  O   UNL     1       8.922  11.746 -13.642  1.00  0.00    -0.237 OA
ATOM     67  O   UNL     1       8.334  13.455 -11.957  1.00  0.00    -0.237 OA
ATOM     68  O   UNL     1      10.571  12.423 -11.936  1.00  0.00    -0.744 OA
ENDBRANCH  64  65
ENDBRANCH  38  59
ENDBRANCH  12  13
ENDBRANCH   5   7
ENDBRANCH   2   3
ENDBRANCH   1   2
BRANCH   1  69
ATOM     69  C   UNL     1       3.952  -1.578   3.557  1.00  0.00     0.117 C 
BRANCH  69  70
ATOM     70  N   UNL     1       4.812  -2.744   3.455  1.00  0.00    -0.356 N 
ATOM     71  C   UNL     1       5.912  -3.143   4.148  1.00  0.00     0.227 C 
ATOM     72  H   UNL     1       4.547  -3.370   2.743  1.00  0.00     0.163 HD
ATOM     73  O   UNL     1       6.581  -4.011   3.580  1.00  0.00    -0.274 OA
BRANCH  71  74
ATOM     74  C   UNL     1       6.272  -2.614   5.551  1.00  0.00     0.061 C 
ATOM     75  C   UNL     1       6.497  -1.071   5.572  1.00  0.00     0.053 C 
ATOM     76  C   UNL     1       5.110  -2.905   6.546  1.00  0.00     0.053 C 
ATOM     77  C   UNL     1       5.829  -0.645   6.842  1.00  0.00    -0.044 A 
ATOM     78  C   UNL     1       5.075  -1.677   7.399  1.00  0.00    -0.044 A 
ATOM     79  C   UNL     1       5.882   0.603   7.442  1.00  0.00     0.004 A 
ATOM     80  C   UNL     1       4.375  -1.493   8.581  1.00  0.00     0.004 A 
ATOM     81  C   UNL     1       5.181   0.799   8.634  1.00  0.00     0.000 A 
ATOM     82  C   UNL     1       4.438  -0.245   9.204  1.00  0.00     0.000 A 
BRANCH  74  83
ATOM     83  C   UNL     1       7.614  -3.259   6.045  1.00  0.00     0.045 C 
BRANCH  83  84
ATOM     84  C   UNL     1       7.636  -4.754   6.246  1.00  0.00    -0.025 C 
ATOM     85  C   UNL     1       8.411  -5.574   5.517  1.00  0.00     0.004 C 
BRANCH  85  86
ATOM     86  C   UNL     1       8.411  -7.032   5.656  1.00  0.00    -0.026 A 
ATOM     87  C   UNL     1       9.627  -7.723   5.652  1.00  0.00     0.008 A 
ATOM     88  C   UNL     1       7.214  -7.758   5.711  1.00  0.00     0.008 A 
ATOM     89  C   UNL     1       9.648  -9.117   5.730  1.00  0.00     0.001 A 
ATOM     90  C   UNL     1       7.235  -9.152   5.786  1.00  0.00     0.001 A 
ATOM     91  C   UNL     1       8.452  -9.831   5.798  1.00  0.00     0.000 A 
ENDBRANCH  85  86
ENDBRANCH  83  84
ENDBRANCH  74  83
ENDBRANCH  71  74
ENDBRANCH  69  70
ENDBRANCH   1  69
TORSDOF 16
