REMARK SMILES Cc1ccccc1[C@@H](CC(=O)NCCCNC(=O)c1ccc(-c2c3nc(c(-c4ccc(S(=O)(=O)[O-])cc4)c4ccc([nH]4)c(-c4ccc(S(=O)(=O)[O-])cc4)c4nc(c(-c5ccc(S(=O)(=O)[O-])cc5)c5ccc2[nH]5)C=C4)C=C3)cc1)NC(=O)C(F)(F)F
REMARK SMILES IDX 14 1 13 2 12 3 10 4 11 5 9 7 8 8 7 9 1 10 2 11 3 12 4 13
REMARK SMILES IDX 6 14 5 15 79 16 80 17 81 19 82 20 83 21 84 22 85 23 15 24
REMARK SMILES IDX 16 25 17 26 18 28 19 29 20 30 78 31 21 32 77 33 22 34 23 35
REMARK SMILES IDX 24 36 71 37 25 38 76 39 70 40 72 41 26 42 75 43 69 44 68 45
REMARK SMILES IDX 27 47 57 48 38 49 56 50 39 51 42 52 55 53 73 54 40 55 41 56
REMARK SMILES IDX 54 58 74 59 43 60 28 61 29 62 37 63 30 64 36 65 31 66 32 67
REMARK SMILES IDX 33 68 34 69 35 70 58 71 59 72 67 73 60 74 66 75 61 76 62 77
REMARK SMILES IDX 63 78 64 79 65 80 44 81 45 82 53 83 46 84 52 85 47 86 48 87
REMARK SMILES IDX 49 88 50 89 51 90
REMARK H PARENT 12 6 79 18 16 27 72 46 42 57
REMARK Flexibility Score: inf
ROOT
ATOM      1  C   UNL     1      -3.207   1.495  -1.001  1.00  0.00     0.042 C 
ENDROOT
BRANCH   1   2
ATOM      2  C   UNL     1      -2.035   1.883  -1.900  1.00  0.00     0.117 C 
BRANCH   2   3
ATOM      3  N   UNL     1      -1.543   3.206  -1.536  1.00  0.00    -0.356 N 
ATOM      4  C   UNL     1      -0.298   3.666  -1.263  1.00  0.00     0.222 C 
ATOM      5  O   UNL     1      -0.173   4.856  -0.962  1.00  0.00    -0.275 OA
ATOM      6  H   UNL     1      -2.246   3.893  -1.476  1.00  0.00     0.163 HD
BRANCH   4   7
ATOM      7  C   UNL     1       0.912   2.769  -1.327  1.00  0.00     0.129 C 
BRANCH   7   8
ATOM      8  C   UNL     1       1.471   2.310   0.038  1.00  0.00     0.122 C 
BRANCH   8   9
ATOM      9  C   UNL     1       1.159   0.835   0.269  1.00  0.00    -0.022 A 
ATOM     10  C   UNL     1       3.494   0.003  -0.476  1.00  0.00     0.045 C 
ATOM     11  C   UNL     1       2.052  -0.204  -0.091  1.00  0.00    -0.046 A 
ATOM     12  C   UNL     1       1.611  -1.540  -0.033  1.00  0.00     0.004 A 
ATOM     13  C   UNL     1       0.320  -1.858   0.379  1.00  0.00     0.000 A 
ATOM     14  C   UNL     1      -0.118   0.481   0.747  1.00  0.00     0.006 A 
ATOM     15  C   UNL     1      -0.535  -0.849   0.793  1.00  0.00     0.000 A 
ENDBRANCH   8   9
BRANCH   8  16
ATOM     16  N   UNL     1       1.091   3.138   1.179  1.00  0.00    -0.341 N 
ATOM     17  C   UNL     1       1.893   3.577   2.210  1.00  0.00     0.326 C 
ATOM     18  H   UNL     1       0.148   3.417   1.216  1.00  0.00     0.164 HD
ATOM     19  O   UNL     1       1.355   4.214   3.122  1.00  0.00    -0.265 OA
BRANCH  17  20
ATOM     20  C   UNL     1       3.408   3.283   2.181  1.00  0.00     0.471 C 
ATOM     21  F   UNL     1       3.684   1.948   2.139  1.00  0.00    -0.162 F 
ATOM     22  F   UNL     1       4.017   3.822   1.083  1.00  0.00    -0.162 F 
ATOM     23  F   UNL     1       4.078   3.775   3.260  1.00  0.00    -0.162 F 
ENDBRANCH  17  20
ENDBRANCH   8  16
ENDBRANCH   7   8
ENDBRANCH   4   7
ENDBRANCH   2   3
ENDBRANCH   1   2
BRANCH   1  24
ATOM     24  C   UNL     1      -4.006   0.314  -1.550  1.00  0.00     0.118 C 
BRANCH  24  25
ATOM     25  N   UNL     1      -3.389  -0.983  -1.260  1.00  0.00    -0.352 N 
ATOM     26  C   UNL     1      -3.932  -2.043  -0.555  1.00  0.00     0.251 C 
ATOM     27  H   UNL     1      -2.478  -1.116  -1.608  1.00  0.00     0.163 HD
ATOM     28  O   UNL     1      -3.329  -3.098  -0.384  1.00  0.00    -0.269 OA
BRANCH  26  29
ATOM     29  C   UNL     1      -5.241  -1.806   0.075  1.00  0.00     0.039 A 
ATOM     30  C   UNL     1      -6.401  -2.031  -0.676  1.00  0.00     0.014 A 
ATOM     31  C   UNL     1      -5.229  -0.953   1.176  1.00  0.00     0.014 A 
ATOM     32  C   UNL     1      -7.515  -1.224  -0.454  1.00  0.00     0.010 A 
ATOM     33  C   UNL     1      -6.315  -0.118   1.352  1.00  0.00     0.010 A 
ATOM     34  C   UNL     1      -7.421  -0.188   0.479  1.00  0.00    -0.014 A 
BRANCH  34  35
ATOM     35  C   UNL     1      -8.263   1.015   0.457  1.00  0.00     0.031 A 
ATOM     36  C   UNL     1      -9.010   1.448   1.667  1.00  0.00     0.074 A 
ATOM     37  C   UNL     1      -8.123   1.893  -0.569  1.00  0.00     0.049 A 
ATOM     38  N   UNL     1      -9.828   2.447   1.704  1.00  0.00    -0.248 NA
ATOM     39  C   UNL     1      -8.938   0.733   2.938  1.00  0.00     0.031 C 
ATOM     40  C   UNL     1      -8.368   3.334  -0.514  1.00  0.00     0.029 A 
ATOM     41  N   UNL     1      -7.926   1.649  -1.932  1.00  0.00    -0.354 N 
ATOM     42  C   UNL     1     -10.107   2.711   3.027  1.00  0.00     0.074 A 
ATOM     43  C   UNL     1      -9.628   1.551   3.739  1.00  0.00     0.031 C 
ATOM     44  C   UNL     1      -8.606   3.783  -1.753  1.00  0.00     0.029 A 
ATOM     45  C   UNL     1      -8.676   2.623  -2.620  1.00  0.00     0.049 A 
ATOM     46  H   UNL     1      -7.375   0.938  -2.331  1.00  0.00     0.167 HD
ATOM     47  C   UNL     1     -10.582   3.940   3.379  1.00  0.00     0.031 A 
ATOM     48  C   UNL     1      -9.687   2.363  -3.500  1.00  0.00     0.031 A 
ATOM     49  C   UNL     1     -10.971   4.726   2.208  1.00  0.00     0.049 A 
ATOM     50  C   UNL     1     -10.994   3.040  -3.146  1.00  0.00     0.074 A 
ATOM     51  C   UNL     1     -10.419   5.809   1.545  1.00  0.00     0.029 A 
ATOM     52  N   UNL     1     -11.998   4.252   1.402  1.00  0.00    -0.354 N 
ATOM     53  N   UNL     1     -11.214   3.640  -2.011  1.00  0.00    -0.248 NA
ATOM     54  C   UNL     1     -12.177   3.037  -4.004  1.00  0.00     0.031 C 
ATOM     55  C   UNL     1     -11.080   5.936   0.292  1.00  0.00     0.029 A 
ATOM     56  C   UNL     1     -12.047   4.950   0.213  1.00  0.00     0.049 A 
ATOM     57  H   UNL     1     -12.607   3.518   1.645  1.00  0.00     0.167 HD
ATOM     58  C   UNL     1     -12.524   4.032  -1.936  1.00  0.00     0.074 A 
ATOM     59  C   UNL     1     -13.078   3.666  -3.226  1.00  0.00     0.031 C 
ATOM     60  C   UNL     1     -13.035   4.586  -0.797  1.00  0.00     0.031 A 
BRANCH  47  61
ATOM     61  C   UNL     1     -10.503   4.533   4.775  1.00  0.00    -0.014 A 
ATOM     62  C   UNL     1     -10.680   5.924   4.953  1.00  0.00     0.010 A 
ATOM     63  C   UNL     1     -10.179   3.809   5.937  1.00  0.00     0.010 A 
ATOM     64  C   UNL     1     -10.486   6.554   6.195  1.00  0.00     0.020 A 
ATOM     65  C   UNL     1      -9.977   4.422   7.183  1.00  0.00     0.020 A 
ATOM     66  C   UNL     1     -10.118   5.796   7.303  1.00  0.00     0.054 A 
BRANCH  66  67
ATOM     67  S   UNL     1      -9.817   6.614   8.890  1.00  0.00     0.124 S 
ATOM     68  O   UNL     1      -8.712   7.515   8.573  1.00  0.00    -0.237 OA
ATOM     69  O   UNL     1     -11.099   7.257   9.163  1.00  0.00    -0.237 OA
ATOM     70  O   UNL     1      -9.474   5.513   9.789  1.00  0.00    -0.744 OA
ENDBRANCH  66  67
ENDBRANCH  47  61
BRANCH  48  71
ATOM     71  C   UNL     1      -9.569   1.065  -4.211  1.00  0.00    -0.014 A 
ATOM     72  C   UNL     1      -8.581   0.975  -5.212  1.00  0.00     0.010 A 
ATOM     73  C   UNL     1     -10.046  -0.111  -3.604  1.00  0.00     0.010 A 
ATOM     74  C   UNL     1      -7.932  -0.237  -5.448  1.00  0.00     0.020 A 
ATOM     75  C   UNL     1      -9.397  -1.329  -3.843  1.00  0.00     0.020 A 
ATOM     76  C   UNL     1      -8.296  -1.360  -4.704  1.00  0.00     0.054 A 
BRANCH  76  77
ATOM     77  S   UNL     1      -7.131  -2.756  -4.667  1.00  0.00     0.124 S 
ATOM     78  O   UNL     1      -7.119  -3.192  -6.059  1.00  0.00    -0.237 OA
ATOM     79  O   UNL     1      -5.912  -2.102  -4.194  1.00  0.00    -0.237 OA
ATOM     80  O   UNL     1      -7.740  -3.680  -3.715  1.00  0.00    -0.744 OA
ENDBRANCH  76  77
ENDBRANCH  48  71
BRANCH  60  81
ATOM     81  C   UNL     1     -14.492   4.867  -0.503  1.00  0.00    -0.014 A 
ATOM     82  C   UNL     1     -15.571   4.265  -1.168  1.00  0.00     0.010 A 
ATOM     83  C   UNL     1     -14.811   5.699   0.600  1.00  0.00     0.010 A 
ATOM     84  C   UNL     1     -16.899   4.521  -0.789  1.00  0.00     0.020 A 
ATOM     85  C   UNL     1     -16.127   5.925   1.015  1.00  0.00     0.020 A 
ATOM     86  C   UNL     1     -17.169   5.353   0.298  1.00  0.00     0.054 A 
BRANCH  86  87
ATOM     87  S   UNL     1     -18.881   5.627   0.821  1.00  0.00     0.124 S 
ATOM     88  O   UNL     1     -19.263   6.776   0.006  1.00  0.00    -0.237 OA
ATOM     89  O   UNL     1     -19.537   4.368   0.473  1.00  0.00    -0.237 OA
ATOM     90  O   UNL     1     -18.763   5.883   2.254  1.00  0.00    -0.744 OA
ENDBRANCH  86  87
ENDBRANCH  60  81
ENDBRANCH  34  35
ENDBRANCH  26  29
ENDBRANCH  24  25
ENDBRANCH   1  24
TORSDOF 17
