REMARK SMILES CC1CC[NH+]([C@H](c2ccc(F)cc2)c2ccc([C@@H](C)C(=O)NCCCNC(=O)c3ccc(-c4c5nc(c(-c6ccc(S(=O)(=O)[O-])cc6)c6ccc([nH]6)c(-c6ccc(S(=O)(=O)[O-])cc6)c6nc(c(-c7ccc(S(=O)(=O)[O-])cc7)c7ccc4[nH]7)C=C6)C=C5)cc3)cc2-c2ccc(C(F)(F)F)cc2)CC1
REMARK SMILES IDX 24 1 23 2 22 3 20 4 21 5 18 7 19 8 17 9 14 10 15 11 90 12
REMARK SMILES IDX 16 13 89 14 6 15 5 16 1 17 2 18 3 19 102 20 4 21 101 22 7 24
REMARK SMILES IDX 8 25 13 26 9 27 12 28 10 29 11 30 91 31 92 32 100 33 93 34
REMARK SMILES IDX 99 35 94 36 95 37 96 38 97 39 98 40 25 41 26 42 27 43 28 45
REMARK SMILES IDX 29 46 30 47 88 48 31 49 87 50 32 51 33 52 34 53 81 54 35 55
REMARK SMILES IDX 86 56 80 57 82 58 36 59 85 60 79 61 78 62 37 64 67 65 48 66
REMARK SMILES IDX 66 67 49 68 52 69 65 70 83 71 50 72 51 73 64 75 84 76 53 77
REMARK SMILES IDX 38 78 39 79 47 80 40 81 46 82 41 83 42 84 43 85 44 86 45 87
REMARK SMILES IDX 68 88 69 89 77 90 70 91 76 92 71 93 72 94 73 95 74 96 75 97
REMARK SMILES IDX 54 98 55 99 63 100 56 101 62 102 57 103 58 104 59 105 60 106
REMARK SMILES IDX 61 107
REMARK H PARENT 22 6 5 23 26 44 82 63 52 74
REMARK Flexibility Score: inf
ROOT
ATOM      1  C   UNL     1       1.028   5.342  -4.057  1.00  0.00     0.042 C 
ENDROOT
BRANCH   1   2
ATOM      2  C   UNL     1       2.263   6.028  -4.644  1.00  0.00     0.117 C 
BRANCH   2   3
ATOM      3  N   UNL     1       3.263   6.340  -3.637  1.00  0.00    -0.356 N 
ATOM      4  C   UNL     1       4.407   5.718  -3.236  1.00  0.00     0.227 C 
ATOM      5  O   UNL     1       5.020   6.270  -2.311  1.00  0.00    -0.274 OA
ATOM      6  H   UNL     1       3.074   7.170  -3.143  1.00  0.00     0.163 HD
BRANCH   4   7
ATOM      7  C   UNL     1       4.970   4.420  -3.846  1.00  0.00     0.105 C 
ATOM      8  C   UNL     1       5.259   4.497  -5.344  1.00  0.00     0.023 C 
BRANCH   7   9
ATOM      9  C   UNL     1       4.226   3.175  -3.397  1.00  0.00    -0.035 A 
ATOM     10  C   UNL     1       2.640   1.072  -2.264  1.00  0.00     0.022 A 
ATOM     11  C   UNL     1       2.209   1.851  -3.351  1.00  0.00     0.011 A 
ATOM     12  C   UNL     1       3.991   1.253  -1.858  1.00  0.00    -0.009 A 
ATOM     13  C   UNL     1       3.010   2.818  -3.951  1.00  0.00     0.005 A 
ATOM     14  C   UNL     1       4.725   2.353  -2.378  1.00  0.00     0.013 A 
BRANCH  10  15
ATOM     15  C   UNL     1       1.688   0.026  -1.605  1.00  0.00     0.247 C 
BRANCH  15  16
ATOM     16  N   UNL     1       0.265  -0.009  -2.067  1.00  0.00    -0.325 N 
ATOM     17  C   UNL     1      -3.049   1.352  -4.619  1.00  0.00     0.008 C 
ATOM     18  C   UNL     1      -1.749   1.086  -3.874  1.00  0.00    -0.003 C 
ATOM     19  C   UNL     1      -1.248  -0.337  -4.102  1.00  0.00     0.065 C 
ATOM     20  C   UNL     1      -1.914   1.259  -2.369  1.00  0.00     0.065 C 
ATOM     21  C   UNL     1       0.089  -0.595  -3.399  1.00  0.00     0.263 C 
ATOM     22  C   UNL     1      -0.557   1.138  -1.677  1.00  0.00     0.263 C 
ATOM     23  H   UNL     1      -0.200  -0.711  -1.491  1.00  0.00     0.348 HD
ENDBRANCH  15  16
BRANCH  15  24
ATOM     24  C   UNL     1       1.745   0.013  -0.064  1.00  0.00     0.014 A 
ATOM     25  C   UNL     1       1.615   1.190   0.701  1.00  0.00     0.013 A 
ATOM     26  C   UNL     1       1.930  -1.208   0.614  1.00  0.00     0.013 A 
ATOM     27  C   UNL     1       1.673   1.144   2.096  1.00  0.00     0.040 A 
ATOM     28  C   UNL     1       2.015  -1.246   2.007  1.00  0.00     0.040 A 
ATOM     29  C   UNL     1       1.883  -0.071   2.734  1.00  0.00     0.123 A 
ATOM     30  F   UNL     1       1.962  -0.110   4.071  1.00  0.00    -0.207 F 
ENDBRANCH  15  24
ENDBRANCH  10  15
BRANCH  12  31
ATOM     31  C   UNL     1       4.708   0.308  -0.979  1.00  0.00    -0.018 A 
ATOM     32  C   UNL     1       5.264   0.710   0.243  1.00  0.00     0.009 A 
ATOM     33  C   UNL     1       4.893  -1.026  -1.382  1.00  0.00     0.009 A 
ATOM     34  C   UNL     1       5.954  -0.200   1.052  1.00  0.00     0.014 A 
ATOM     35  C   UNL     1       5.572  -1.941  -0.573  1.00  0.00     0.014 A 
ATOM     36  C   UNL     1       6.104  -1.538   0.658  1.00  0.00     0.056 A 
BRANCH  36  37
ATOM     37  C   UNL     1       6.849  -2.512   1.535  1.00  0.00     0.416 C 
ATOM     38  F   UNL     1       8.194  -2.288   1.531  1.00  0.00    -0.166 F 
ATOM     39  F   UNL     1       6.466  -2.455   2.841  1.00  0.00    -0.166 F 
ATOM     40  F   UNL     1       6.692  -3.814   1.160  1.00  0.00    -0.166 F 
ENDBRANCH  36  37
ENDBRANCH  12  31
ENDBRANCH   7   9
ENDBRANCH   4   7
ENDBRANCH   2   3
ENDBRANCH   1   2
BRANCH   1  41
ATOM     41  C   UNL     1      -0.048   6.285  -3.541  1.00  0.00     0.118 C 
BRANCH  41  42
ATOM     42  N   UNL     1      -0.730   6.985  -4.617  1.00  0.00    -0.352 N 
ATOM     43  C   UNL     1      -2.054   7.011  -4.982  1.00  0.00     0.251 C 
ATOM     44  H   UNL     1      -0.142   7.537  -5.181  1.00  0.00     0.163 HD
ATOM     45  O   UNL     1      -2.348   7.527  -6.059  1.00  0.00    -0.269 OA
BRANCH  43  46
ATOM     46  C   UNL     1      -3.125   6.435  -4.128  1.00  0.00     0.039 A 
ATOM     47  C   UNL     1      -4.262   5.907  -4.753  1.00  0.00     0.014 A 
ATOM     48  C   UNL     1      -3.073   6.476  -2.733  1.00  0.00     0.014 A 
ATOM     49  C   UNL     1      -5.319   5.400  -3.988  1.00  0.00     0.010 A 
ATOM     50  C   UNL     1      -4.085   5.889  -1.973  1.00  0.00     0.010 A 
ATOM     51  C   UNL     1      -5.232   5.367  -2.589  1.00  0.00    -0.014 A 
BRANCH  51  52
ATOM     52  C   UNL     1      -6.336   4.827  -1.749  1.00  0.00     0.031 A 
ATOM     53  C   UNL     1      -7.066   5.728  -0.788  1.00  0.00     0.074 A 
ATOM     54  C   UNL     1      -6.642   3.516  -1.798  1.00  0.00     0.049 A 
ATOM     55  N   UNL     1      -8.016   5.430   0.061  1.00  0.00    -0.248 NA
ATOM     56  C   UNL     1      -6.664   7.143  -0.765  1.00  0.00     0.031 C 
ATOM     57  C   UNL     1      -6.003   2.536  -2.673  1.00  0.00     0.029 A 
ATOM     58  N   UNL     1      -7.558   2.776  -1.092  1.00  0.00    -0.354 N 
ATOM     59  C   UNL     1      -8.312   6.613   0.728  1.00  0.00     0.074 A 
ATOM     60  C   UNL     1      -7.402   7.619   0.226  1.00  0.00     0.031 C 
ATOM     61  C   UNL     1      -6.545   1.327  -2.462  1.00  0.00     0.029 A 
ATOM     62  C   UNL     1      -7.556   1.440  -1.418  1.00  0.00     0.049 A 
ATOM     63  H   UNL     1      -8.159   3.165  -0.417  1.00  0.00     0.167 HD
ATOM     64  C   UNL     1      -9.272   6.848   1.656  1.00  0.00     0.031 A 
ATOM     65  C   UNL     1      -8.286   0.416  -0.936  1.00  0.00     0.031 A 
ATOM     66  C   UNL     1     -10.184   5.848   2.142  1.00  0.00     0.049 A 
ATOM     67  C   UNL     1      -9.325   0.693   0.113  1.00  0.00     0.074 A 
ATOM     68  C   UNL     1     -11.238   5.999   3.027  1.00  0.00     0.029 A 
ATOM     69  N   UNL     1     -10.148   4.507   1.789  1.00  0.00    -0.354 N 
ATOM     70  N   UNL     1      -9.640   1.835   0.675  1.00  0.00    -0.248 NA
ATOM     71  C   UNL     1     -10.123  -0.451   0.573  1.00  0.00     0.031 C 
ATOM     72  C   UNL     1     -11.808   4.740   3.245  1.00  0.00     0.029 A 
ATOM     73  C   UNL     1     -11.144   3.814   2.456  1.00  0.00     0.049 A 
ATOM     74  H   UNL     1      -9.508   4.107   1.157  1.00  0.00     0.167 HD
ATOM     75  C   UNL     1     -10.704   1.556   1.525  1.00  0.00     0.074 A 
ATOM     76  C   UNL     1     -10.975   0.137   1.402  1.00  0.00     0.031 C 
ATOM     77  C   UNL     1     -11.400   2.401   2.324  1.00  0.00     0.031 A 
BRANCH  64  78
ATOM     78  C   UNL     1      -9.368   8.248   2.206  1.00  0.00    -0.014 A 
ATOM     79  C   UNL     1      -9.804   9.318   1.403  1.00  0.00     0.010 A 
ATOM     80  C   UNL     1      -9.017   8.499   3.545  1.00  0.00     0.010 A 
ATOM     81  C   UNL     1      -9.826  10.621   1.908  1.00  0.00     0.020 A 
ATOM     82  C   UNL     1      -9.067   9.797   4.063  1.00  0.00     0.020 A 
ATOM     83  C   UNL     1      -9.447  10.853   3.232  1.00  0.00     0.054 A 
BRANCH  83  84
ATOM     84  S   UNL     1      -9.468  12.555   3.859  1.00  0.00     0.124 S 
ATOM     85  O   UNL     1      -8.278  13.121   3.229  1.00  0.00    -0.237 OA
ATOM     86  O   UNL     1     -10.743  13.066   3.362  1.00  0.00    -0.237 OA
ATOM     87  O   UNL     1      -9.388  12.392   5.309  1.00  0.00    -0.744 OA
ENDBRANCH  83  84
ENDBRANCH  64  78
BRANCH  65  88
ATOM     88  C   UNL     1      -8.095  -0.953  -1.487  1.00  0.00    -0.014 A 
ATOM     89  C   UNL     1      -9.060  -1.510  -2.343  1.00  0.00     0.010 A 
ATOM     90  C   UNL     1      -6.933  -1.691  -1.193  1.00  0.00     0.010 A 
ATOM     91  C   UNL     1      -8.875  -2.784  -2.887  1.00  0.00     0.020 A 
ATOM     92  C   UNL     1      -6.733  -2.956  -1.754  1.00  0.00     0.020 A 
ATOM     93  C   UNL     1      -7.710  -3.498  -2.593  1.00  0.00     0.054 A 
BRANCH  93  94
ATOM     94  S   UNL     1      -7.463  -5.121  -3.365  1.00  0.00     0.124 S 
ATOM     95  O   UNL     1      -8.416  -5.953  -2.637  1.00  0.00    -0.237 OA
ATOM     96  O   UNL     1      -7.793  -4.857  -4.764  1.00  0.00    -0.237 OA
ATOM     97  O   UNL     1      -6.054  -5.411  -3.111  1.00  0.00    -0.744 OA
ENDBRANCH  93  94
ENDBRANCH  65  88
BRANCH  77  98
ATOM     98  C   UNL     1     -12.555   1.822   3.095  1.00  0.00    -0.014 A 
ATOM     99  C   UNL     1     -12.348   0.982   4.203  1.00  0.00     0.010 A 
ATOM    100  C   UNL     1     -13.870   2.157   2.722  1.00  0.00     0.010 A 
ATOM    101  C   UNL     1     -13.437   0.459   4.904  1.00  0.00     0.020 A 
ATOM    102  C   UNL     1     -14.960   1.657   3.437  1.00  0.00     0.020 A 
ATOM    103  C   UNL     1     -14.737   0.798   4.515  1.00  0.00     0.054 A 
BRANCH 103 104
ATOM    104  S   UNL     1     -16.135   0.137   5.462  1.00  0.00     0.124 S 
ATOM    105  O   UNL     1     -16.188  -1.247   4.999  1.00  0.00    -0.237 OA
ATOM    106  O   UNL     1     -15.703   0.321   6.845  1.00  0.00    -0.237 OA
ATOM    107  O   UNL     1     -17.259   0.975   5.051  1.00  0.00    -0.744 OA
ENDBRANCH 103 104
ENDBRANCH  77  98
ENDBRANCH  51  52
ENDBRANCH  43  46
ENDBRANCH  41  42
ENDBRANCH   1  41
TORSDOF 19
