REMARK SMILES O=C(NCCCNC(=O)[C@H](O)Cc1ccc(O)cc1)c1ccc(-c2c3nc(c(-c4ccc(S(=O)(=O)[O-])cc4)c4ccc([nH]4)c(-c4ccc(S(=O)(=O)[O-])cc4)c4nc(c(-c5ccc(S(=O)(=O)[O-])cc5)c5ccc2[nH]5)C=C4)C=C3)cc1
REMARK SMILES IDX 5 1 4 2 3 3 1 4 2 5 20 7 21 8 79 9 22 10 78 11 23 12 24 13
REMARK SMILES IDX 25 14 72 15 26 16 77 17 71 18 73 19 27 20 76 21 70 22 69 23
REMARK SMILES IDX 28 25 58 26 39 27 57 28 40 29 43 30 56 31 74 32 41 33 42 34
REMARK SMILES IDX 55 36 75 37 44 38 29 39 30 40 38 41 31 42 37 43 32 44 33 45
REMARK SMILES IDX 34 46 35 47 36 48 59 49 60 50 68 51 61 52 67 53 62 54 63 55
REMARK SMILES IDX 64 56 65 57 66 58 45 59 46 60 54 61 47 62 53 63 48 64 49 65
REMARK SMILES IDX 50 66 51 67 52 68 6 69 7 70 8 71 9 73 10 74 12 75 13 76
REMARK SMILES IDX 14 77 19 78 15 79 18 80 16 81 17 82 11 84
REMARK H PARENT 3 6 73 24 43 35 7 72 17 83 11 85
REMARK Flexibility Score: inf
ROOT
ATOM      1  C   UNL     1       5.759  -0.247  -2.269  1.00  0.00     0.042 C 
ENDROOT
BRANCH   1   2
ATOM      2  C   UNL     1       6.271  -0.907  -0.997  1.00  0.00     0.118 C 
BRANCH   2   3
ATOM      3  N   UNL     1       7.366  -0.177  -0.373  1.00  0.00    -0.352 N 
ATOM      4  O   UNL     1       8.394   1.186   1.091  1.00  0.00    -0.269 OA
ATOM      5  C   UNL     1       7.419   0.493   0.830  1.00  0.00     0.251 C 
ATOM      6  H   UNL     1       8.202  -0.159  -0.893  1.00  0.00     0.163 HD
BRANCH   5   7
ATOM      7  C   UNL     1       6.297   0.395   1.793  1.00  0.00     0.039 A 
ATOM      8  C   UNL     1       5.665  -0.824   2.037  1.00  0.00     0.014 A 
ATOM      9  C   UNL     1       5.888   1.540   2.486  1.00  0.00     0.014 A 
ATOM     10  C   UNL     1       4.527  -0.869   2.834  1.00  0.00     0.010 A 
ATOM     11  C   UNL     1       4.807   1.471   3.372  1.00  0.00     0.010 A 
ATOM     12  C   UNL     1       4.096   0.272   3.530  1.00  0.00    -0.014 A 
BRANCH  12  13
ATOM     13  C   UNL     1       2.951   0.155   4.470  1.00  0.00     0.031 A 
ATOM     14  C   UNL     1       1.672   0.914   4.247  1.00  0.00     0.074 A 
ATOM     15  C   UNL     1       3.067  -0.684   5.520  1.00  0.00     0.049 A 
ATOM     16  N   UNL     1       0.572   0.892   4.956  1.00  0.00    -0.248 NA
ATOM     17  C   UNL     1       1.617   1.817   3.086  1.00  0.00     0.031 C 
ATOM     18  C   UNL     1       4.263  -1.469   5.843  1.00  0.00     0.029 A 
ATOM     19  N   UNL     1       2.168  -1.039   6.492  1.00  0.00    -0.354 N 
ATOM     20  C   UNL     1      -0.297   1.788   4.345  1.00  0.00     0.074 A 
ATOM     21  C   UNL     1       0.411   2.355   3.217  1.00  0.00     0.031 C 
ATOM     22  C   UNL     1       4.003  -2.255   6.897  1.00  0.00     0.029 A 
ATOM     23  C   UNL     1       2.653  -1.978   7.371  1.00  0.00     0.049 A 
ATOM     24  H   UNL     1       1.262  -0.658   6.555  1.00  0.00     0.167 HD
ATOM     25  C   UNL     1      -1.569   2.106   4.690  1.00  0.00     0.031 A 
ATOM     26  C   UNL     1       2.087  -2.546   8.452  1.00  0.00     0.031 A 
ATOM     27  C   UNL     1      -2.267   1.537   5.815  1.00  0.00     0.049 A 
ATOM     28  C   UNL     1       0.689  -2.155   8.828  1.00  0.00     0.074 A 
ATOM     29  C   UNL     1      -3.566   1.776   6.233  1.00  0.00     0.029 A 
ATOM     30  N   UNL     1      -1.726   0.620   6.705  1.00  0.00    -0.354 N 
ATOM     31  N   UNL     1      -0.123  -1.323   8.220  1.00  0.00    -0.248 NA
ATOM     32  C   UNL     1       0.130  -2.776  10.035  1.00  0.00     0.031 C 
ATOM     33  C   UNL     1      -3.792   1.044   7.403  1.00  0.00     0.029 A 
ATOM     34  C   UNL     1      -2.655   0.303   7.683  1.00  0.00     0.049 A 
ATOM     35  H   UNL     1      -0.816   0.249   6.649  1.00  0.00     0.167 HD
ATOM     36  C   UNL     1      -1.296  -1.330   8.964  1.00  0.00     0.074 A 
ATOM     37  C   UNL     1      -1.094  -2.266  10.053  1.00  0.00     0.031 C 
ATOM     38  C   UNL     1      -2.435  -0.623   8.765  1.00  0.00     0.031 A 
BRANCH  25  39
ATOM     39  C   UNL     1      -2.284   3.140   3.858  1.00  0.00    -0.014 A 
ATOM     40  C   UNL     1      -2.727   2.851   2.555  1.00  0.00     0.010 A 
ATOM     41  C   UNL     1      -2.563   4.405   4.409  1.00  0.00     0.010 A 
ATOM     42  C   UNL     1      -3.399   3.821   1.804  1.00  0.00     0.020 A 
ATOM     43  C   UNL     1      -3.258   5.369   3.671  1.00  0.00     0.020 A 
ATOM     44  C   UNL     1      -3.656   5.076   2.365  1.00  0.00     0.054 A 
BRANCH  44  45
ATOM     45  S   UNL     1      -4.544   6.309   1.374  1.00  0.00     0.124 S 
ATOM     46  O   UNL     1      -3.523   6.710   0.409  1.00  0.00    -0.237 OA
ATOM     47  O   UNL     1      -5.657   5.539   0.825  1.00  0.00    -0.237 OA
ATOM     48  O   UNL     1      -4.918   7.333   2.346  1.00  0.00    -0.744 OA
ENDBRANCH  44  45
ENDBRANCH  25  39
BRANCH  26  49
ATOM     49  C   UNL     1       2.861  -3.527   9.259  1.00  0.00    -0.014 A 
ATOM     50  C   UNL     1       2.513  -4.888   9.262  1.00  0.00     0.010 A 
ATOM     51  C   UNL     1       3.980  -3.104  10.001  1.00  0.00     0.010 A 
ATOM     52  C   UNL     1       3.263  -5.807  10.002  1.00  0.00     0.020 A 
ATOM     53  C   UNL     1       4.750  -4.023  10.717  1.00  0.00     0.020 A 
ATOM     54  C   UNL     1       4.379  -5.368  10.722  1.00  0.00     0.054 A 
BRANCH  54  55
ATOM     55  S   UNL     1       5.374  -6.586  11.627  1.00  0.00     0.124 S 
ATOM     56  O   UNL     1       4.531  -6.865  12.785  1.00  0.00    -0.237 OA
ATOM     57  O   UNL     1       5.502  -7.672  10.659  1.00  0.00    -0.237 OA
ATOM     58  O   UNL     1       6.614  -5.868  11.912  1.00  0.00    -0.744 OA
ENDBRANCH  54  55
ENDBRANCH  26  49
BRANCH  38  59
ATOM     59  C   UNL     1      -3.561  -0.855   9.736  1.00  0.00    -0.014 A 
ATOM     60  C   UNL     1      -3.502  -0.358  11.050  1.00  0.00     0.010 A 
ATOM     61  C   UNL     1      -4.710  -1.547   9.313  1.00  0.00     0.010 A 
ATOM     62  C   UNL     1      -4.560  -0.580  11.935  1.00  0.00     0.020 A 
ATOM     63  C   UNL     1      -5.780  -1.748  10.187  1.00  0.00     0.020 A 
ATOM     64  C   UNL     1      -5.692  -1.275  11.498  1.00  0.00     0.054 A 
BRANCH  64  65
ATOM     65  S   UNL     1      -7.068  -1.518  12.655  1.00  0.00     0.124 S 
ATOM     66  O   UNL     1      -6.546  -2.562  13.532  1.00  0.00    -0.237 OA
ATOM     67  O   UNL     1      -7.212  -0.198  13.264  1.00  0.00    -0.237 OA
ATOM     68  O   UNL     1      -8.176  -1.924  11.793  1.00  0.00    -0.744 OA
ENDBRANCH  64  65
ENDBRANCH  38  59
ENDBRANCH  12  13
ENDBRANCH   5   7
ENDBRANCH   2   3
ENDBRANCH   1   2
BRANCH   1  69
ATOM     69  C   UNL     1       6.744  -0.262  -3.430  1.00  0.00     0.117 C 
BRANCH  69  70
ATOM     70  N   UNL     1       7.097  -1.614  -3.845  1.00  0.00    -0.354 N 
ATOM     71  C   UNL     1       6.972  -2.241  -5.049  1.00  0.00     0.249 C 
ATOM     72  H   UNL     1       7.494  -2.168  -3.134  1.00  0.00     0.163 HD
ATOM     73  O   UNL     1       7.353  -3.412  -5.130  1.00  0.00    -0.272 OA
BRANCH  71  74
ATOM     74  C   UNL     1       6.357  -1.528  -6.268  1.00  0.00     0.207 C 
BRANCH  74  75
ATOM     75  C   UNL     1       4.829  -1.694  -6.223  1.00  0.00     0.077 C 
BRANCH  75  76
ATOM     76  C   UNL     1       4.110  -1.105  -7.417  1.00  0.00    -0.045 A 
ATOM     77  C   UNL     1       4.008   0.288  -7.551  1.00  0.00     0.007 A 
ATOM     78  C   UNL     1       3.525  -1.922  -8.396  1.00  0.00     0.007 A 
ATOM     79  C   UNL     1       3.360   0.859  -8.645  1.00  0.00     0.046 A 
ATOM     80  C   UNL     1       2.867  -1.351  -9.490  1.00  0.00     0.046 A 
ATOM     81  C   UNL     1       2.796   0.032  -9.609  1.00  0.00     0.115 A 
BRANCH  81  82
ATOM     82  O   UNL     1       2.159   0.551 -10.698  1.00  0.00    -0.508 OA
ATOM     83  H   UNL     1       2.095   1.480 -10.805  1.00  0.00     0.293 HD
ENDBRANCH  81  82
ENDBRANCH  75  76
ENDBRANCH  74  75
BRANCH  74  84
ATOM     84  O   UNL     1       6.759  -0.165  -6.369  1.00  0.00    -0.383 OA
ATOM     85  H   UNL     1       6.455   0.321  -5.587  1.00  0.00     0.211 HD
ENDBRANCH  74  84
ENDBRANCH  71  74
ENDBRANCH  69  70
ENDBRANCH   1  69
TORSDOF 17
