REMARK SMILES Cn1cc(C(=O)NCCCNC(=O)c2ccc(-c3c4nc(c(-c5ccc(S(=O)(=O)[O-])cc5)c5ccc([nH]5)c(-c5ccc(S(=O)(=O)[O-])cc5)c5nc(c(-c6ccc(S(=O)(=O)[O-])cc6)c6ccc3[nH]6)C=C5)C=C4)cc2)c(C(=O)Nc2ccc(-c3nc4cc(Cl)ccc4o3)cc2)n1
REMARK SMILES IDX 9 1 8 2 7 3 5 4 6 5 4 7 1 8 2 9 3 10 94 11 74 12 75 13 76 14
REMARK SMILES IDX 77 15 78 17 79 18 93 19 80 20 92 21 81 22 82 23 83 24 91 25
REMARK SMILES IDX 84 26 90 27 85 28 89 29 86 30 88 31 87 32 10 33 11 34 12 35
REMARK SMILES IDX 13 37 14 38 15 39 73 40 16 41 72 42 17 43 18 44 19 45 66 46
REMARK SMILES IDX 20 47 71 48 65 49 67 50 21 51 70 52 64 53 63 54 22 56 52 57
REMARK SMILES IDX 33 58 51 59 34 60 37 61 50 62 68 63 35 64 36 65 49 67 69 68
REMARK SMILES IDX 38 69 23 70 24 71 32 72 25 73 31 74 26 75 27 76 28 77 29 78
REMARK SMILES IDX 30 79 53 80 54 81 62 82 55 83 61 84 56 85 57 86 58 87 59 88
REMARK SMILES IDX 60 89 39 90 40 91 48 92 41 93 47 94 42 95 43 96 44 97 45 98
REMARK SMILES IDX 46 99
REMARK H PARENT 7 6 77 16 11 36 67 55 37 66
REMARK Flexibility Score: inf
ROOT
ATOM      1  C   UNL     1       0.418  -4.352  -0.441  1.00  0.00     0.042 C 
ENDROOT
BRANCH   1   2
ATOM      2  C   UNL     1       0.483  -3.932   1.026  1.00  0.00     0.118 C 
BRANCH   2   3
ATOM      3  N   UNL     1       1.591  -3.072   1.405  1.00  0.00    -0.352 N 
ATOM      4  C   UNL     1       1.769  -1.710   1.365  1.00  0.00     0.255 C 
ATOM      5  O   UNL     1       2.671  -1.253   2.070  1.00  0.00    -0.269 OA
ATOM      6  H   UNL     1       2.367  -3.562   1.759  1.00  0.00     0.163 HD
BRANCH   4   7
ATOM      7  C   UNL     1       0.960  -0.840   0.524  1.00  0.00     0.090 A 
ATOM      8  C   UNL     1      -2.023   0.517  -0.993  1.00  0.00     0.173 C 
ATOM      9  N   UNL     1      -0.705   0.149  -0.531  1.00  0.00    -0.274 N 
ATOM     10  C   UNL     1      -0.362  -0.984   0.139  1.00  0.00     0.123 A 
ATOM     11  N   UNL     1       0.302   1.011  -0.674  1.00  0.00    -0.167 NA
ATOM     12  C   UNL     1       1.335   0.453  -0.008  1.00  0.00     0.163 A 
BRANCH  12  13
ATOM     13  C   UNL     1       2.573   1.243   0.168  1.00  0.00     0.276 C 
ATOM     14  O   UNL     1       2.529   2.444   0.461  1.00  0.00    -0.267 OA
ATOM     15  N   UNL     1       3.829   0.680   0.099  1.00  0.00    -0.321 N 
ATOM     16  H   UNL     1       4.545   1.258   0.448  1.00  0.00     0.170 HD
BRANCH  15  17
ATOM     17  C   UNL     1       4.278  -0.556  -0.371  1.00  0.00     0.041 A 
ATOM     18  C   UNL     1       5.401  -1.095   0.265  1.00  0.00     0.027 A 
ATOM     19  C   UNL     1       3.655  -1.270  -1.393  1.00  0.00     0.027 A 
ATOM     20  C   UNL     1       5.796  -2.405   0.000  1.00  0.00     0.016 A 
ATOM     21  C   UNL     1       4.090  -2.566  -1.699  1.00  0.00     0.016 A 
ATOM     22  C   UNL     1       5.115  -3.166  -0.955  1.00  0.00     0.037 A 
BRANCH  22  23
ATOM     23  C   UNL     1       5.386  -4.588  -1.086  1.00  0.00     0.227 A 
ATOM     24  N   UNL     1       5.508  -5.343  -2.161  1.00  0.00    -0.209 NA
ATOM     25  O   UNL     1       5.348  -5.280   0.100  1.00  0.00    -0.436 OA
ATOM     26  C   UNL     1       5.590  -6.619  -1.653  1.00  0.00     0.111 A 
ATOM     27  C   UNL     1       5.454  -6.584  -0.275  1.00  0.00     0.155 A 
ATOM     28  C   UNL     1       5.736  -7.858  -2.289  1.00  0.00     0.053 A 
ATOM     29  C   UNL     1       5.409  -7.699   0.551  1.00  0.00     0.051 A 
ATOM     30  C   UNL     1       5.687  -9.007  -1.488  1.00  0.00     0.043 A 
ATOM     31  C   UNL     1       5.518  -8.932  -0.099  1.00  0.00     0.024 A 
ATOM     32  Cl  UNL     1       5.816 -10.555  -2.230  1.00  0.00    -0.084 Cl
ENDBRANCH  22  23
ENDBRANCH  15  17
ENDBRANCH  12  13
ENDBRANCH   4   7
ENDBRANCH   2   3
ENDBRANCH   1   2
BRANCH   1  33
ATOM     33  C   UNL     1       1.521  -5.296  -0.929  1.00  0.00     0.118 C 
BRANCH  33  34
ATOM     34  N   UNL     1       1.698  -6.481  -0.110  1.00  0.00    -0.352 N 
ATOM     35  C   UNL     1       1.729  -7.821  -0.403  1.00  0.00     0.251 C 
ATOM     36  H   UNL     1       1.819  -6.285   0.847  1.00  0.00     0.163 HD
ATOM     37  O   UNL     1       1.832  -8.607   0.539  1.00  0.00    -0.269 OA
BRANCH  35  38
ATOM     38  C   UNL     1       1.635  -8.360  -1.784  1.00  0.00     0.039 A 
ATOM     39  C   UNL     1       0.966  -9.581  -1.961  1.00  0.00     0.014 A 
ATOM     40  C   UNL     1       2.261  -7.766  -2.882  1.00  0.00     0.014 A 
ATOM     41  C   UNL     1       0.880 -10.173  -3.227  1.00  0.00     0.010 A 
ATOM     42  C   UNL     1       2.164  -8.349  -4.152  1.00  0.00     0.010 A 
ATOM     43  C   UNL     1       1.466  -9.551  -4.336  1.00  0.00    -0.014 A 
BRANCH  43  44
ATOM     44  C   UNL     1       1.307 -10.108  -5.701  1.00  0.00     0.031 A 
ATOM     45  C   UNL     1       2.422 -10.858  -6.368  1.00  0.00     0.074 A 
ATOM     46  C   UNL     1       0.164  -9.873  -6.372  1.00  0.00     0.049 A 
ATOM     47  N   UNL     1       2.494 -11.306  -7.596  1.00  0.00    -0.248 NA
ATOM     48  C   UNL     1       3.612 -11.135  -5.552  1.00  0.00     0.031 C 
ATOM     49  C   UNL     1      -0.993  -9.152  -5.841  1.00  0.00     0.029 A 
ATOM     50  N   UNL     1      -0.198 -10.192  -7.657  1.00  0.00    -0.354 N 
ATOM     51  C   UNL     1       3.741 -11.905  -7.709  1.00  0.00     0.074 A 
ATOM     52  C   UNL     1       4.396 -11.758  -6.424  1.00  0.00     0.031 C 
ATOM     53  C   UNL     1      -1.928  -9.060  -6.800  1.00  0.00     0.029 A 
ATOM     54  C   UNL     1      -1.427  -9.696  -8.017  1.00  0.00     0.049 A 
ATOM     55  H   UNL     1       0.367 -10.725  -8.261  1.00  0.00     0.167 HD
ATOM     56  C   UNL     1       4.292 -12.522  -8.783  1.00  0.00     0.031 A 
ATOM     57  C   UNL     1      -2.072  -9.722  -9.198  1.00  0.00     0.031 A 
ATOM     58  C   UNL     1       3.648 -12.672 -10.061  1.00  0.00     0.049 A 
ATOM     59  C   UNL     1      -1.441 -10.397 -10.378  1.00  0.00     0.074 A 
ATOM     60  C   UNL     1       4.123 -13.306 -11.197  1.00  0.00     0.029 A 
ATOM     61  N   UNL     1       2.391 -12.181 -10.376  1.00  0.00    -0.354 N 
ATOM     62  N   UNL     1      -0.268 -10.976 -10.459  1.00  0.00    -0.248 NA
ATOM     63  C   UNL     1      -2.221 -10.427 -11.623  1.00  0.00     0.031 C 
ATOM     64  C   UNL     1       3.159 -13.180 -12.206  1.00  0.00     0.029 A 
ATOM     65  C   UNL     1       2.077 -12.487 -11.689  1.00  0.00     0.049 A 
ATOM     66  H   UNL     1       1.807 -11.686  -9.756  1.00  0.00     0.167 HD
ATOM     67  C   UNL     1      -0.173 -11.451 -11.761  1.00  0.00     0.074 A 
ATOM     68  C   UNL     1      -1.407 -11.094 -12.432  1.00  0.00     0.031 C 
ATOM     69  C   UNL     1       0.847 -12.125 -12.345  1.00  0.00     0.031 A 
BRANCH  56  70
ATOM     70  C   UNL     1       5.682 -13.067  -8.618  1.00  0.00    -0.014 A 
ATOM     71  C   UNL     1       5.899 -14.299  -7.977  1.00  0.00     0.010 A 
ATOM     72  C   UNL     1       6.779 -12.351  -9.128  1.00  0.00     0.010 A 
ATOM     73  C   UNL     1       7.198 -14.790  -7.815  1.00  0.00     0.020 A 
ATOM     74  C   UNL     1       8.078 -12.845  -8.979  1.00  0.00     0.020 A 
ATOM     75  C   UNL     1       8.280 -14.052  -8.306  1.00  0.00     0.054 A 
BRANCH  75  76
ATOM     76  S   UNL     1       9.963 -14.699  -8.094  1.00  0.00     0.124 S 
ATOM     77  O   UNL     1      10.299 -14.225  -6.754  1.00  0.00    -0.237 OA
ATOM     78  O   UNL     1       9.780 -16.143  -8.220  1.00  0.00    -0.237 OA
ATOM     79  O   UNL     1      10.708 -14.074  -9.184  1.00  0.00    -0.744 OA
ENDBRANCH  75  76
ENDBRANCH  56  70
BRANCH  57  80
ATOM     80  C   UNL     1      -3.394  -9.059  -9.310  1.00  0.00    -0.014 A 
ATOM     81  C   UNL     1      -4.577  -9.809  -9.203  1.00  0.00     0.010 A 
ATOM     82  C   UNL     1      -3.469  -7.661  -9.446  1.00  0.00     0.010 A 
ATOM     83  C   UNL     1      -5.818  -9.168  -9.216  1.00  0.00     0.020 A 
ATOM     84  C   UNL     1      -4.708  -7.018  -9.447  1.00  0.00     0.020 A 
ATOM     85  C   UNL     1      -5.876  -7.776  -9.332  1.00  0.00     0.054 A 
BRANCH  85  86
ATOM     86  S   UNL     1      -7.484  -6.939  -9.231  1.00  0.00     0.124 S 
ATOM     87  O   UNL     1      -7.926  -6.963 -10.621  1.00  0.00    -0.237 OA
ATOM     88  O   UNL     1      -8.237  -7.790  -8.312  1.00  0.00    -0.237 OA
ATOM     89  O   UNL     1      -7.139  -5.622  -8.701  1.00  0.00    -0.744 OA
ENDBRANCH  85  86
ENDBRANCH  57  80
BRANCH  69  90
ATOM     90  C   UNL     1       0.661 -12.540 -13.775  1.00  0.00    -0.014 A 
ATOM     91  C   UNL     1       0.913 -11.638 -14.823  1.00  0.00     0.010 A 
ATOM     92  C   UNL     1       0.267 -13.855 -14.075  1.00  0.00     0.010 A 
ATOM     93  C   UNL     1       0.754 -12.040 -16.152  1.00  0.00     0.020 A 
ATOM     94  C   UNL     1       0.115 -14.263 -15.403  1.00  0.00     0.020 A 
ATOM     95  C   UNL     1       0.348 -13.348 -16.434  1.00  0.00     0.054 A 
BRANCH  95  96
ATOM     96  S   UNL     1       0.181 -13.874 -18.163  1.00  0.00     0.124 S 
ATOM     97  O   UNL     1      -1.175 -13.438 -18.482  1.00  0.00    -0.237 OA
ATOM     98  O   UNL     1       1.251 -13.141 -18.836  1.00  0.00    -0.237 OA
ATOM     99  O   UNL     1       0.374 -15.321 -18.098  1.00  0.00    -0.744 OA
ENDBRANCH  95  96
ENDBRANCH  69  90
ENDBRANCH  43  44
ENDBRANCH  35  38
ENDBRANCH  33  34
ENDBRANCH   1  33
TORSDOF 16
