REMARK SMILES Cn1ccnc1[C@@H]1[C@@H](C(=O)NCCCNC(=O)c2ccc(-c3c4nc(c(-c5ccc(S(=O)(=O)[O-])cc5)c5ccc([nH]5)c(-c5ccc(S(=O)(=O)[O-])cc5)c5nc(c(-c6ccc(S(=O)(=O)[O-])cc6)c6ccc3[nH]6)C=C5)C=C4)cc2)CC(=O)N1CCCOC1CCCCC1
REMARK SMILES IDX 12 1 11 2 9 3 10 4 8 6 7 7 81 8 78 9 79 10 80 11 6 12 1 13
REMARK SMILES IDX 2 14 3 15 4 16 5 17 82 18 83 19 84 20 85 21 86 22 87 23
REMARK SMILES IDX 91 24 88 25 90 26 89 27 13 28 14 29 15 30 16 31 17 33 18 34
REMARK SMILES IDX 19 35 77 36 20 37 76 38 21 39 22 40 23 41 70 42 24 43 75 44
REMARK SMILES IDX 69 45 71 46 25 47 74 48 68 49 67 50 26 52 56 53 37 54 55 55
REMARK SMILES IDX 38 56 41 57 54 58 72 59 39 60 40 61 53 63 73 64 42 65 27 66
REMARK SMILES IDX 28 67 36 68 29 69 35 70 30 71 31 72 32 73 33 74 34 75 57 76
REMARK SMILES IDX 58 77 66 78 59 79 65 80 60 81 61 82 62 83 63 84 64 85 43 86
REMARK SMILES IDX 44 87 52 88 45 89 51 90 46 91 47 92 48 93 49 94 50 95
REMARK H PARENT 11 5 15 32 71 51 41 62
REMARK Flexibility Score: inf
ROOT
ATOM      1  C   UNL     1      -1.368   5.334  -0.668  1.00  0.00     0.117 C 
ENDROOT
BRANCH   1   2
ATOM      2  N   UNL     1      -0.780   4.955  -1.945  1.00  0.00    -0.356 N 
ATOM      3  C   UNL     1       0.282   4.165  -2.231  1.00  0.00     0.226 C 
ATOM      4  O   UNL     1       0.592   4.002  -3.412  1.00  0.00    -0.275 OA
ATOM      5  H   UNL     1      -1.230   5.338  -2.733  1.00  0.00     0.163 HD
BRANCH   3   6
ATOM      6  C   UNL     1       1.084   3.506  -1.145  1.00  0.00     0.118 C 
ATOM      7  C   UNL     1       0.191   2.717  -0.193  1.00  0.00     0.164 C 
ATOM      8  N   UNL     1       0.699   2.989   1.144  1.00  0.00    -0.332 N 
ATOM      9  C   UNL     1       1.888   4.472  -0.300  1.00  0.00     0.116 C 
ATOM     10  C   UNL     1       1.718   3.965   1.105  1.00  0.00     0.224 C 
ATOM     11  O   UNL     1       2.298   4.433   2.060  1.00  0.00    -0.275 OA
BRANCH   7  12
ATOM     12  C   UNL     1      -0.036   1.297  -0.647  1.00  0.00     0.132 A 
ATOM     13  C   UNL     1       2.292   0.354  -1.221  1.00  0.00     0.151 C 
ATOM     14  N   UNL     1       0.856   0.340  -1.097  1.00  0.00    -0.336 N 
ATOM     15  C   UNL     1       0.126  -0.753  -1.509  1.00  0.00     0.107 A 
ATOM     16  C   UNL     1      -1.186  -0.403  -1.352  1.00  0.00     0.131 A 
ATOM     17  N   UNL     1      -1.274   0.859  -0.849  1.00  0.00    -0.239 NA
ENDBRANCH   7  12
BRANCH   8  18
ATOM     18  C   UNL     1      -0.047   2.977   2.422  1.00  0.00     0.122 C 
BRANCH  18  19
ATOM     19  C   UNL     1      -1.260   2.102   2.756  1.00  0.00     0.050 C 
BRANCH  19  20
ATOM     20  C   UNL     1      -1.386   0.610   2.448  1.00  0.00     0.162 C 
BRANCH  20  21
ATOM     21  O   UNL     1      -0.533  -0.298   3.148  1.00  0.00    -0.378 OA
BRANCH  21  22
ATOM     22  C   UNL     1       0.669  -0.645   2.450  1.00  0.00     0.118 C 
ATOM     23  C   UNL     1       1.717   0.394   2.792  1.00  0.00     0.032 C 
ATOM     24  C   UNL     1       1.152  -2.037   2.853  1.00  0.00     0.032 C 
ATOM     25  C   UNL     1       3.141   0.115   2.386  1.00  0.00     0.003 C 
ATOM     26  C   UNL     1       2.546  -2.316   2.280  1.00  0.00     0.003 C 
ATOM     27  C   UNL     1       3.566  -1.285   2.755  1.00  0.00     0.000 C 
ENDBRANCH  21  22
ENDBRANCH  20  21
ENDBRANCH  19  20
ENDBRANCH  18  19
ENDBRANCH   8  18
ENDBRANCH   3   6
ENDBRANCH   1   2
BRANCH   1  28
ATOM     28  C   UNL     1      -1.562   6.820  -0.539  1.00  0.00     0.042 C 
BRANCH  28  29
ATOM     29  C   UNL     1      -2.443   7.378  -1.631  1.00  0.00     0.118 C 
BRANCH  29  30
ATOM     30  N   UNL     1      -3.794   6.831  -1.594  1.00  0.00    -0.352 N 
ATOM     31  C   UNL     1      -4.976   7.468  -1.304  1.00  0.00     0.251 C 
ATOM     32  H   UNL     1      -3.869   5.872  -1.806  1.00  0.00     0.163 HD
ATOM     33  O   UNL     1      -6.000   6.820  -1.116  1.00  0.00    -0.269 OA
BRANCH  31  34
ATOM     34  C   UNL     1      -4.980   8.940  -1.190  1.00  0.00     0.039 A 
ATOM     35  C   UNL     1      -5.655   9.546  -0.132  1.00  0.00     0.014 A 
ATOM     36  C   UNL     1      -4.250   9.709  -2.099  1.00  0.00     0.014 A 
ATOM     37  C   UNL     1      -5.531  10.923   0.055  1.00  0.00     0.010 A 
ATOM     38  C   UNL     1      -4.009  11.045  -1.825  1.00  0.00     0.010 A 
ATOM     39  C   UNL     1      -4.671  11.675  -0.763  1.00  0.00    -0.014 A 
BRANCH  39  40
ATOM     40  C   UNL     1      -4.478  13.131  -0.567  1.00  0.00     0.031 A 
ATOM     41  C   UNL     1      -4.818  14.080  -1.688  1.00  0.00     0.074 A 
ATOM     42  C   UNL     1      -3.941  13.592   0.580  1.00  0.00     0.049 A 
ATOM     43  N   UNL     1      -4.656  15.376  -1.747  1.00  0.00    -0.248 NA
ATOM     44  C   UNL     1      -5.379  13.492  -2.918  1.00  0.00     0.031 C 
ATOM     45  C   UNL     1      -3.521  12.767   1.716  1.00  0.00     0.029 A 
ATOM     46  N   UNL     1      -3.653  14.872   0.979  1.00  0.00    -0.354 N 
ATOM     47  C   UNL     1      -5.071  15.748  -3.021  1.00  0.00     0.074 A 
ATOM     48  C   UNL     1      -5.425  14.539  -3.726  1.00  0.00     0.031 C 
ATOM     49  C   UNL     1      -3.069  13.565   2.697  1.00  0.00     0.029 A 
ATOM     50  C   UNL     1      -3.122  14.951   2.245  1.00  0.00     0.049 A 
ATOM     51  H   UNL     1      -3.813  15.661   0.412  1.00  0.00     0.167 HD
ATOM     52  C   UNL     1      -5.181  16.989  -3.548  1.00  0.00     0.031 A 
ATOM     53  C   UNL     1      -2.719  16.020   2.958  1.00  0.00     0.031 A 
ATOM     54  C   UNL     1      -4.856  18.191  -2.831  1.00  0.00     0.049 A 
ATOM     55  C   UNL     1      -2.851  17.391   2.351  1.00  0.00     0.074 A 
ATOM     56  C   UNL     1      -4.990  19.503  -3.249  1.00  0.00     0.029 A 
ATOM     57  N   UNL     1      -4.339  18.228  -1.546  1.00  0.00    -0.354 N 
ATOM     58  N   UNL     1      -3.313  17.728   1.169  1.00  0.00    -0.248 NA
ATOM     59  C   UNL     1      -2.419  18.527   3.177  1.00  0.00     0.031 C 
ATOM     60  C   UNL     1      -4.502  20.332  -2.236  1.00  0.00     0.029 A 
ATOM     61  C   UNL     1      -4.125  19.540  -1.162  1.00  0.00     0.049 A 
ATOM     62  H   UNL     1      -4.151  17.438  -0.989  1.00  0.00     0.167 HD
ATOM     63  C   UNL     1      -3.255  19.117   1.123  1.00  0.00     0.074 A 
ATOM     64  C   UNL     1      -2.729  19.556   2.400  1.00  0.00     0.031 C 
ATOM     65  C   UNL     1      -3.606  19.954   0.116  1.00  0.00     0.031 A 
BRANCH  52  66
ATOM     66  C   UNL     1      -5.679  17.105  -4.964  1.00  0.00    -0.014 A 
ATOM     67  C   UNL     1      -7.011  16.790  -5.295  1.00  0.00     0.010 A 
ATOM     68  C   UNL     1      -4.816  17.569  -5.973  1.00  0.00     0.010 A 
ATOM     69  C   UNL     1      -7.458  16.902  -6.613  1.00  0.00     0.020 A 
ATOM     70  C   UNL     1      -5.269  17.713  -7.287  1.00  0.00     0.020 A 
ATOM     71  C   UNL     1      -6.585  17.363  -7.601  1.00  0.00     0.054 A 
BRANCH  71  72
ATOM     72  S   UNL     1      -7.205  17.532  -9.297  1.00  0.00     0.124 S 
ATOM     73  O   UNL     1      -7.329  16.137  -9.712  1.00  0.00    -0.237 OA
ATOM     74  O   UNL     1      -8.466  18.244  -9.106  1.00  0.00    -0.237 OA
ATOM     75  O   UNL     1      -6.159  18.293  -9.976  1.00  0.00    -0.744 OA
ENDBRANCH  71  72
ENDBRANCH  52  66
BRANCH  53  76
ATOM     76  C   UNL     1      -2.172  15.841   4.332  1.00  0.00    -0.014 A 
ATOM     77  C   UNL     1      -2.894  16.287   5.453  1.00  0.00     0.010 A 
ATOM     78  C   UNL     1      -0.923  15.222   4.527  1.00  0.00     0.010 A 
ATOM     79  C   UNL     1      -2.367  16.142   6.740  1.00  0.00     0.020 A 
ATOM     80  C   UNL     1      -0.407  15.048   5.814  1.00  0.00     0.020 A 
ATOM     81  C   UNL     1      -1.126  15.524   6.912  1.00  0.00     0.054 A 
BRANCH  81  82
ATOM     82  S   UNL     1      -0.477  15.317   8.594  1.00  0.00     0.124 S 
ATOM     83  O   UNL     1      -0.097  16.682   8.942  1.00  0.00    -0.237 OA
ATOM     84  O   UNL     1      -1.630  14.777   9.311  1.00  0.00    -0.237 OA
ATOM     85  O   UNL     1       0.632  14.382   8.419  1.00  0.00    -0.744 OA
ENDBRANCH  81  82
ENDBRANCH  53  76
BRANCH  65  86
ATOM     86  C   UNL     1      -3.473  21.433   0.365  1.00  0.00    -0.014 A 
ATOM     87  C   UNL     1      -2.213  22.052   0.428  1.00  0.00     0.010 A 
ATOM     88  C   UNL     1      -4.633  22.222   0.470  1.00  0.00     0.010 A 
ATOM     89  C   UNL     1      -2.115  23.432   0.622  1.00  0.00     0.020 A 
ATOM     90  C   UNL     1      -4.540  23.605   0.633  1.00  0.00     0.020 A 
ATOM     91  C   UNL     1      -3.280  24.200   0.722  1.00  0.00     0.054 A 
BRANCH  91  92
ATOM     92  S   UNL     1      -3.126  25.995   0.924  1.00  0.00     0.124 S 
ATOM     93  O   UNL     1      -2.669  26.107   2.306  1.00  0.00    -0.237 OA
ATOM     94  O   UNL     1      -2.140  26.348  -0.095  1.00  0.00    -0.237 OA
ATOM     95  O   UNL     1      -4.477  26.491   0.672  1.00  0.00    -0.744 OA
ENDBRANCH  91  92
ENDBRANCH  65  86
ENDBRANCH  39  40
ENDBRANCH  31  34
ENDBRANCH  29  30
ENDBRANCH  28  29
ENDBRANCH   1  28
TORSDOF 19
