REMARK SMILES O=C(NCCCNC(=O)[C@@H]1CS[C@@H](c2cc(Br)ccc2O)[NH2+]1)c1ccc(-c2c3nc(c(-c4ccc(S(=O)(=O)[O-])cc4)c4ccc([nH]4)c(-c4ccc(S(=O)(=O)[O-])cc4)c4nc(c(-c5ccc(S(=O)(=O)[O-])cc5)c5ccc2[nH]5)C=C4)C=C3)cc1
REMARK SMILES IDX 4 1 3 2 1 3 2 4 23 6 24 7 82 8 25 9 81 10 26 11 27 12 28 13
REMARK SMILES IDX 75 14 29 15 80 16 74 17 76 18 30 19 79 20 73 21 72 22 31 24
REMARK SMILES IDX 61 25 42 26 60 27 43 28 46 29 59 30 77 31 44 32 45 33 58 35
REMARK SMILES IDX 78 36 47 37 32 38 33 39 41 40 34 41 40 42 35 43 36 44 37 45
REMARK SMILES IDX 38 46 39 47 62 48 63 49 71 50 64 51 70 52 65 53 66 54 67 55
REMARK SMILES IDX 68 56 69 57 48 58 49 59 57 60 50 61 56 62 51 63 52 64 53 65
REMARK SMILES IDX 54 66 55 67 5 68 6 69 7 70 8 71 9 73 10 74 11 75 22 76 12 77
REMARK SMILES IDX 13 78 14 81 15 82 20 83 16 84 19 85 17 86 18 87 21 88
REMARK H PARENT 3 5 76 23 46 34 7 72 22 79 22 80 21 89
REMARK Flexibility Score: inf
ROOT
ATOM      1  C   UNL     1      10.365   1.217   7.688  1.00  0.00     0.118 C 
ENDROOT
BRANCH   1   2
ATOM      2  N   UNL     1      10.565  -0.114   8.238  1.00  0.00    -0.352 N 
ATOM      3  O   UNL     1      11.709  -1.963   8.809  1.00  0.00    -0.269 OA
ATOM      4  C   UNL     1      11.733  -0.760   8.556  1.00  0.00     0.251 C 
ATOM      5  H   UNL     1       9.742  -0.627   8.407  1.00  0.00     0.163 HD
BRANCH   4   6
ATOM      6  C   UNL     1      13.012  -0.019   8.582  1.00  0.00     0.039 A 
ATOM      7  C   UNL     1      13.093   1.245   9.172  1.00  0.00     0.014 A 
ATOM      8  C   UNL     1      14.156  -0.614   8.042  1.00  0.00     0.014 A 
ATOM      9  C   UNL     1      14.283   1.963   9.112  1.00  0.00     0.010 A 
ATOM     10  C   UNL     1      15.371   0.075   8.057  1.00  0.00     0.010 A 
ATOM     11  C   UNL     1      15.441   1.378   8.574  1.00  0.00    -0.014 A 
BRANCH  11  12
ATOM     12  C   UNL     1      16.729   2.113   8.640  1.00  0.00     0.031 A 
ATOM     13  C   UNL     1      17.440   2.554   7.391  1.00  0.00     0.074 A 
ATOM     14  C   UNL     1      17.252   2.389   9.851  1.00  0.00     0.049 A 
ATOM     15  N   UNL     1      18.569   3.206   7.277  1.00  0.00    -0.248 NA
ATOM     16  C   UNL     1      16.808   2.219   6.105  1.00  0.00     0.031 C 
ATOM     17  C   UNL     1      16.653   2.006  11.134  1.00  0.00     0.029 A 
ATOM     18  N   UNL     1      18.391   3.063  10.207  1.00  0.00    -0.354 N 
ATOM     19  C   UNL     1      18.794   3.346   5.912  1.00  0.00     0.074 A 
ATOM     20  C   UNL     1      17.695   2.688   5.237  1.00  0.00     0.031 C 
ATOM     21  C   UNL     1      17.407   2.486  12.133  1.00  0.00     0.029 A 
ATOM     22  C   UNL     1      18.575   3.151  11.567  1.00  0.00     0.049 A 
ATOM     23  H   UNL     1      19.017   3.448   9.552  1.00  0.00     0.167 HD
ATOM     24  C   UNL     1      19.820   3.969   5.283  1.00  0.00     0.031 A 
ATOM     25  C   UNL     1      19.581   3.684  12.284  1.00  0.00     0.031 A 
ATOM     26  C   UNL     1      20.913   4.614   5.965  1.00  0.00     0.049 A 
ATOM     27  C   UNL     1      20.728   4.328  11.561  1.00  0.00     0.074 A 
ATOM     28  C   UNL     1      21.985   5.298   5.417  1.00  0.00     0.029 A 
ATOM     29  N   UNL     1      21.082   4.648   7.341  1.00  0.00    -0.354 N 
ATOM     30  N   UNL     1      20.902   4.482  10.270  1.00  0.00    -0.248 NA
ATOM     31  C   UNL     1      21.814   4.868  12.389  1.00  0.00     0.031 C 
ATOM     32  C   UNL     1      22.831   5.694   6.458  1.00  0.00     0.029 A 
ATOM     33  C   UNL     1      22.255   5.314   7.659  1.00  0.00     0.049 A 
ATOM     34  H   UNL     1      20.460   4.257   7.996  1.00  0.00     0.167 HD
ATOM     35  C   UNL     1      22.110   5.155  10.131  1.00  0.00     0.074 A 
ATOM     36  C   UNL     1      22.612   5.394  11.469  1.00  0.00     0.031 C 
ATOM     37  C   UNL     1      22.746   5.538   8.996  1.00  0.00     0.031 A 
BRANCH  24  38
ATOM     38  C   UNL     1      19.829   3.960   3.775  1.00  0.00    -0.014 A 
ATOM     39  C   UNL     1      18.911   4.727   3.034  1.00  0.00     0.010 A 
ATOM     40  C   UNL     1      20.806   3.215   3.089  1.00  0.00     0.010 A 
ATOM     41  C   UNL     1      18.947   4.718   1.636  1.00  0.00     0.020 A 
ATOM     42  C   UNL     1      20.861   3.224   1.692  1.00  0.00     0.020 A 
ATOM     43  C   UNL     1      19.920   3.963   0.974  1.00  0.00     0.054 A 
BRANCH  43  44
ATOM     44  S   UNL     1      19.952   3.984  -0.840  1.00  0.00     0.124 S 
ATOM     45  O   UNL     1      18.770   3.192  -1.171  1.00  0.00    -0.237 OA
ATOM     46  O   UNL     1      19.858   5.409  -1.146  1.00  0.00    -0.237 OA
ATOM     47  O   UNL     1      21.231   3.361  -1.173  1.00  0.00    -0.744 OA
ENDBRANCH  43  44
ENDBRANCH  24  38
BRANCH  25  48
ATOM     48  C   UNL     1      19.548   3.608  13.770  1.00  0.00    -0.014 A 
ATOM     49  C   UNL     1      19.361   4.766  14.544  1.00  0.00     0.010 A 
ATOM     50  C   UNL     1      19.673   2.364  14.417  1.00  0.00     0.010 A 
ATOM     51  C   UNL     1      19.313   4.682  15.939  1.00  0.00     0.020 A 
ATOM     52  C   UNL     1      19.594   2.273  15.808  1.00  0.00     0.020 A 
ATOM     53  C   UNL     1      19.427   3.435  16.561  1.00  0.00     0.054 A 
BRANCH  53  54
ATOM     54  S   UNL     1      19.307   3.345  18.369  1.00  0.00     0.124 S 
ATOM     55  O   UNL     1      20.594   3.893  18.785  1.00  0.00    -0.237 OA
ATOM     56  O   UNL     1      18.141   4.179  18.650  1.00  0.00    -0.237 OA
ATOM     57  O   UNL     1      19.120   1.919  18.628  1.00  0.00    -0.744 OA
ENDBRANCH  53  54
ENDBRANCH  25  48
BRANCH  37  58
ATOM     58  C   UNL     1      24.045   6.281   9.153  1.00  0.00    -0.014 A 
ATOM     59  C   UNL     1      25.215   5.623   9.571  1.00  0.00     0.010 A 
ATOM     60  C   UNL     1      24.105   7.649   8.828  1.00  0.00     0.010 A 
ATOM     61  C   UNL     1      26.417   6.326   9.688  1.00  0.00     0.020 A 
ATOM     62  C   UNL     1      25.311   8.348   8.917  1.00  0.00     0.020 A 
ATOM     63  C   UNL     1      26.457   7.684   9.358  1.00  0.00     0.054 A 
BRANCH  63  64
ATOM     64  S   UNL     1      28.040   8.562   9.471  1.00  0.00     0.124 S 
ATOM     65  O   UNL     1      28.214   8.693  10.915  1.00  0.00    -0.237 OA
ATOM     66  O   UNL     1      28.963   7.645   8.807  1.00  0.00    -0.237 OA
ATOM     67  O   UNL     1      27.794   9.813   8.757  1.00  0.00    -0.744 OA
ENDBRANCH  63  64
ENDBRANCH  37  58
ENDBRANCH  11  12
ENDBRANCH   4   6
ENDBRANCH   1   2
BRANCH   1  68
ATOM     68  C   UNL     1       9.696   1.186   6.316  1.00  0.00     0.042 C 
BRANCH  68  69
ATOM     69  C   UNL     1       8.265   0.647   6.337  1.00  0.00     0.118 C 
BRANCH  69  70
ATOM     70  N   UNL     1       7.412   1.475   7.165  1.00  0.00    -0.351 N 
ATOM     71  C   UNL     1       6.497   2.435   6.861  1.00  0.00     0.279 C 
ATOM     72  H   UNL     1       7.513   1.312   8.130  1.00  0.00     0.163 HD
ATOM     73  O   UNL     1       6.033   3.040   7.833  1.00  0.00    -0.268 OA
BRANCH  71  74
ATOM     74  C   UNL     1       5.983   2.651   5.409  1.00  0.00     0.283 C 
ATOM     75  C   UNL     1       7.045   2.875   4.325  1.00  0.00     0.151 C 
ATOM     76  N   UNL     1       5.039   3.807   5.375  1.00  0.00    -0.320 N 
ATOM     77  S   UNL     1       6.943   4.617   3.843  1.00  0.00    -0.087 SA
ATOM     78  C   UNL     1       5.884   5.004   5.254  1.00  0.00     0.278 C 
ATOM     79  H   UNL     1       4.489   3.844   6.233  1.00  0.00     0.348 HD
ATOM     80  H   UNL     1       4.378   3.732   4.601  1.00  0.00     0.348 HD
BRANCH  78  81
ATOM     81  C   UNL     1       5.077   6.277   5.164  1.00  0.00     0.063 A 
ATOM     82  C   UNL     1       4.558   6.781   3.957  1.00  0.00     0.030 A 
ATOM     83  C   UNL     1       4.777   6.979   6.345  1.00  0.00     0.125 A 
ATOM     84  C   UNL     1       3.789   7.948   3.948  1.00  0.00     0.018 A 
ATOM     85  C   UNL     1       3.998   8.135   6.339  1.00  0.00     0.048 A 
ATOM     86  Br  UNL     1       3.127   8.623   2.310  1.00  0.00    -0.051 Br
ATOM     87  C   UNL     1       3.504   8.623   5.133  1.00  0.00     0.019 A 
BRANCH  83  88
ATOM     88  O   UNL     1       5.282   6.519   7.529  1.00  0.00    -0.507 OA
ATOM     89  H   UNL     1       5.807   5.743   7.545  1.00  0.00     0.293 HD
ENDBRANCH  83  88
ENDBRANCH  78  81
ENDBRANCH  71  74
ENDBRANCH  69  70
ENDBRANCH  68  69
ENDBRANCH   1  68
TORSDOF 15
