REMARK SMILES O=C(C[C@H](CNC(=O)c1ccccn1)c1ccc(Cl)cc1)NCCCNC(=O)c1ccc(-c2c3nc(c(-c4ccc(S(=O)(=O)[O-])cc4)c4ccc([nH]4)c(-c4ccc(S(=O)(=O)[O-])cc4)c4nc(c(-c5ccc(S(=O)(=O)[O-])cc5)c5ccc2[nH]5)C=C4)C=C3)cc1
REMARK SMILES IDX 23 1 22 2 1 3 2 4 3 6 4 7 15 8 16 9 21 10 17 11 20 12 18 13
REMARK SMILES IDX 19 14 5 15 6 16 7 17 8 19 9 20 10 21 14 22 11 23 13 24 12 25
REMARK SMILES IDX 24 26 25 27 26 28 27 29 28 31 29 32 30 33 88 34 31 35 87 36
REMARK SMILES IDX 32 37 33 38 34 39 81 40 35 41 86 42 80 43 82 44 36 45 85 46
REMARK SMILES IDX 79 47 78 48 37 50 67 51 48 52 66 53 49 54 52 55 65 56 83 57
REMARK SMILES IDX 50 58 51 59 64 61 84 62 53 63 38 64 39 65 47 66 40 67 46 68
REMARK SMILES IDX 41 69 42 70 43 71 44 72 45 73 68 74 69 75 77 76 70 77 76 78
REMARK SMILES IDX 71 79 72 80 73 81 74 82 75 83 54 84 55 85 63 86 56 87 62 88
REMARK SMILES IDX 57 89 58 90 59 91 60 92 61 93
REMARK H PARENT 22 5 6 18 26 30 82 49 52 60
REMARK Flexibility Score: inf
ROOT
ATOM      1  C   UNL     1       2.350   1.133   3.025  1.00  0.00     0.117 C 
ENDROOT
BRANCH   1   2
ATOM      2  N   UNL     1       3.216   1.510   1.921  1.00  0.00    -0.356 N 
ATOM      3  O   UNL     1       4.307  -0.500   1.806  1.00  0.00    -0.275 OA
ATOM      4  C   UNL     1       4.101   0.621   1.352  1.00  0.00     0.220 C 
ATOM      5  H   UNL     1       3.170   2.429   1.569  1.00  0.00     0.163 HD
BRANCH   4   6
ATOM      6  C   UNL     1       4.818   1.117   0.109  1.00  0.00     0.110 C 
BRANCH   6   7
ATOM      7  C   UNL     1       3.872   1.648  -0.986  1.00  0.00     0.048 C 
BRANCH   7   8
ATOM      8  C   UNL     1       4.640   2.171  -2.196  1.00  0.00    -0.043 A 
ATOM      9  C   UNL     1       5.490   1.339  -2.946  1.00  0.00     0.005 A 
ATOM     10  C   UNL     1       4.499   3.511  -2.591  1.00  0.00     0.005 A 
ATOM     11  C   UNL     1       6.139   1.818  -4.086  1.00  0.00     0.021 A 
ATOM     12  C   UNL     1       5.164   3.996  -3.721  1.00  0.00     0.021 A 
ATOM     13  C   UNL     1       5.971   3.144  -4.471  1.00  0.00     0.041 A 
ATOM     14  Cl  UNL     1       6.759   3.732  -5.883  1.00  0.00    -0.084 Cl
ENDBRANCH   7   8
BRANCH   7  15
ATOM     15  C   UNL     1       2.715   0.680  -1.357  1.00  0.00     0.125 C 
BRANCH  15  16
ATOM     16  N   UNL     1       3.037  -0.370  -2.310  1.00  0.00    -0.350 N 
ATOM     17  C   UNL     1       3.161  -1.733  -2.178  1.00  0.00     0.269 C 
ATOM     18  H   UNL     1       3.196  -0.042  -3.224  1.00  0.00     0.163 HD
ATOM     19  O   UNL     1       3.526  -2.378  -3.162  1.00  0.00    -0.268 OA
BRANCH  17  20
ATOM     20  C   UNL     1       2.858  -2.423  -0.892  1.00  0.00     0.128 A 
ATOM     21  C   UNL     1       1.652  -2.206  -0.234  1.00  0.00     0.034 A 
ATOM     22  N   UNL     1       3.797  -3.304  -0.464  1.00  0.00    -0.251 NA
ATOM     23  C   UNL     1       1.429  -2.868   0.969  1.00  0.00     0.004 A 
ATOM     24  C   UNL     1       3.545  -3.937   0.701  1.00  0.00     0.112 A 
ATOM     25  C   UNL     1       2.394  -3.746   1.450  1.00  0.00     0.020 A 
ENDBRANCH  17  20
ENDBRANCH  15  16
ENDBRANCH   7  15
ENDBRANCH   6   7
ENDBRANCH   4   6
ENDBRANCH   1   2
BRANCH   1  26
ATOM     26  C   UNL     1       2.618   1.935   4.292  1.00  0.00     0.042 C 
BRANCH  26  27
ATOM     27  C   UNL     1       2.330   3.428   4.172  1.00  0.00     0.118 C 
BRANCH  27  28
ATOM     28  N   UNL     1       0.926   3.729   3.925  1.00  0.00    -0.352 N 
ATOM     29  C   UNL     1       0.076   4.583   4.590  1.00  0.00     0.251 C 
ATOM     30  H   UNL     1       0.523   3.248   3.167  1.00  0.00     0.163 HD
ATOM     31  O   UNL     1      -1.117   4.591   4.295  1.00  0.00    -0.269 OA
BRANCH  29  32
ATOM     32  C   UNL     1       0.579   5.462   5.670  1.00  0.00     0.039 A 
ATOM     33  C   UNL     1      -0.172   5.585   6.843  1.00  0.00     0.014 A 
ATOM     34  C   UNL     1       1.778   6.165   5.536  1.00  0.00     0.014 A 
ATOM     35  C   UNL     1       0.319   6.348   7.907  1.00  0.00     0.010 A 
ATOM     36  C   UNL     1       2.302   6.861   6.624  1.00  0.00     0.010 A 
ATOM     37  C   UNL     1       1.581   6.957   7.824  1.00  0.00    -0.014 A 
BRANCH  37  38
ATOM     38  C   UNL     1       2.172   7.678   8.984  1.00  0.00     0.031 A 
ATOM     39  C   UNL     1       2.483   9.149   8.890  1.00  0.00     0.074 A 
ATOM     40  C   UNL     1       2.494   6.994  10.101  1.00  0.00     0.049 A 
ATOM     41  N   UNL     1       3.059   9.927   9.771  1.00  0.00    -0.248 NA
ATOM     42  C   UNL     1       2.121   9.829   7.636  1.00  0.00     0.031 C 
ATOM     43  C   UNL     1       2.280   5.560  10.308  1.00  0.00     0.029 A 
ATOM     44  N   UNL     1       3.079   7.412  11.271  1.00  0.00    -0.354 N 
ATOM     45  C   UNL     1       3.144  11.180   9.174  1.00  0.00     0.074 A 
ATOM     46  C   UNL     1       2.605  11.046   7.838  1.00  0.00     0.031 C 
ATOM     47  C   UNL     1       2.702   5.224  11.537  1.00  0.00     0.029 A 
ATOM     48  C   UNL     1       3.260   6.404  12.190  1.00  0.00     0.049 A 
ATOM     49  H   UNL     1       3.344   8.345  11.438  1.00  0.00     0.167 HD
ATOM     50  C   UNL     1       3.610  12.340   9.694  1.00  0.00     0.031 A 
ATOM     51  C   UNL     1       3.823   6.420  13.415  1.00  0.00     0.031 A 
ATOM     52  C   UNL     1       4.141  12.472  11.026  1.00  0.00     0.049 A 
ATOM     53  C   UNL     1       4.355   7.716  13.963  1.00  0.00     0.074 A 
ATOM     54  C   UNL     1       4.589  13.617  11.662  1.00  0.00     0.029 A 
ATOM     55  N   UNL     1       4.301  11.428  11.925  1.00  0.00    -0.354 N 
ATOM     56  N   UNL     1       4.365   8.903  13.406  1.00  0.00    -0.248 NA
ATOM     57  C   UNL     1       4.941   7.677  15.311  1.00  0.00     0.031 C 
ATOM     58  C   UNL     1       5.075  13.256  12.922  1.00  0.00     0.029 A 
ATOM     59  C   UNL     1       4.865  11.898  13.099  1.00  0.00     0.049 A 
ATOM     60  H   UNL     1       4.050  10.492  11.753  1.00  0.00     0.167 HD
ATOM     61  C   UNL     1       4.926   9.758  14.348  1.00  0.00     0.074 A 
ATOM     62  C   UNL     1       5.233   8.955  15.513  1.00  0.00     0.031 C 
ATOM     63  C   UNL     1       5.161  11.091  14.256  1.00  0.00     0.031 A 
BRANCH  50  64
ATOM     64  C   UNL     1       3.576  13.565   8.816  1.00  0.00    -0.014 A 
ATOM     65  C   UNL     1       2.357  14.166   8.451  1.00  0.00     0.010 A 
ATOM     66  C   UNL     1       4.781  14.152   8.388  1.00  0.00     0.010 A 
ATOM     67  C   UNL     1       2.343  15.303   7.638  1.00  0.00     0.020 A 
ATOM     68  C   UNL     1       4.772  15.308   7.602  1.00  0.00     0.020 A 
ATOM     69  C   UNL     1       3.552  15.866   7.217  1.00  0.00     0.054 A 
BRANCH  69  70
ATOM     70  S   UNL     1       3.502  17.352   6.179  1.00  0.00     0.124 S 
ATOM     71  O   UNL     1       3.013  16.816   4.911  1.00  0.00    -0.237 OA
ATOM     72  O   UNL     1       2.566  18.212   6.899  1.00  0.00    -0.237 OA
ATOM     73  O   UNL     1       4.887  17.815   6.167  1.00  0.00    -0.744 OA
ENDBRANCH  69  70
ENDBRANCH  50  64
BRANCH  51  74
ATOM     74  C   UNL     1       3.901   5.164  14.213  1.00  0.00    -0.014 A 
ATOM     75  C   UNL     1       3.122   5.003  15.373  1.00  0.00     0.010 A 
ATOM     76  C   UNL     1       4.750   4.116  13.811  1.00  0.00     0.010 A 
ATOM     77  C   UNL     1       3.205   3.828  16.125  1.00  0.00     0.020 A 
ATOM     78  C   UNL     1       4.812   2.927  14.543  1.00  0.00     0.020 A 
ATOM     79  C   UNL     1       4.047   2.796  15.703  1.00  0.00     0.054 A 
BRANCH  79  80
ATOM     80  S   UNL     1       4.098   1.260  16.668  1.00  0.00     0.124 S 
ATOM     81  O   UNL     1       4.822   1.677  17.865  1.00  0.00    -0.237 OA
ATOM     82  O   UNL     1       2.681   0.960  16.857  1.00  0.00    -0.237 OA
ATOM     83  O   UNL     1       4.813   0.332  15.795  1.00  0.00    -0.744 OA
ENDBRANCH  79  80
ENDBRANCH  51  74
BRANCH  63  84
ATOM     84  C   UNL     1       5.737  11.785  15.463  1.00  0.00    -0.014 A 
ATOM     85  C   UNL     1       7.072  11.590  15.857  1.00  0.00     0.010 A 
ATOM     86  C   UNL     1       4.941  12.703  16.174  1.00  0.00     0.010 A 
ATOM     87  C   UNL     1       7.593  12.281  16.954  1.00  0.00     0.020 A 
ATOM     88  C   UNL     1       5.467  13.419  17.252  1.00  0.00     0.020 A 
ATOM     89  C   UNL     1       6.788  13.194  17.643  1.00  0.00     0.054 A 
BRANCH  89  90
ATOM     90  S   UNL     1       7.506  14.121  19.027  1.00  0.00     0.124 S 
ATOM     91  O   UNL     1       7.622  13.090  20.055  1.00  0.00    -0.237 OA
ATOM     92  O   UNL     1       8.769  14.599  18.471  1.00  0.00    -0.237 OA
ATOM     93  O   UNL     1       6.517  15.162  19.298  1.00  0.00    -0.744 OA
ENDBRANCH  89  90
ENDBRANCH  63  84
ENDBRANCH  37  38
ENDBRANCH  29  32
ENDBRANCH  27  28
ENDBRANCH  26  27
ENDBRANCH   1  26
TORSDOF 18
