REMARK SMILES COc1ccc(-c2[nH]nc3nc(-c4ccc(C(F)(F)F)cc4)cc(C(=O)NCCCNC(=O)c4ccc(-c5c6nc(c(-c7ccc(S(=O)(=O)[O-])cc7)c7ccc([nH]7)c(-c7ccc(S(=O)(=O)[O-])cc7)c7nc(c(-c8ccc(S(=O)(=O)[O-])cc8)c8ccc5[nH]8)C=C7)C=C6)cc4)c23)cc1
REMARK SMILES IDX 29 1 28 2 27 3 25 4 26 5 24 7 7 8 8 9 94 10 9 11 10 13 11 14
REMARK SMILES IDX 23 15 12 16 6 17 3 18 4 19 96 20 5 21 95 22 2 23 1 24 13 25
REMARK SMILES IDX 14 26 22 27 15 28 21 29 16 30 17 31 18 32 19 33 20 34 30 35
REMARK SMILES IDX 31 36 32 37 33 39 34 40 35 41 93 42 36 43 92 44 37 45 38 46
REMARK SMILES IDX 39 47 86 48 40 49 91 50 85 51 87 52 41 53 90 54 84 55 83 56
REMARK SMILES IDX 42 58 72 59 53 60 71 61 54 62 57 63 70 64 88 65 55 66 56 67
REMARK SMILES IDX 69 69 89 70 58 71 43 72 44 73 52 74 45 75 51 76 46 77 47 78
REMARK SMILES IDX 48 79 49 80 50 81 73 82 74 83 82 84 75 85 81 86 76 87 77 88
REMARK SMILES IDX 78 89 79 90 80 91 59 92 60 93 68 94 61 95 67 96 62 97 63 98
REMARK SMILES IDX 64 99 65 100 66 101
REMARK H PARENT 27 6 8 12 31 38 87 57 57 68
REMARK Flexibility Score: inf
ROOT
ATOM      1  C   UNL     1       6.834  -0.849   7.088  1.00  0.00     0.042 C 
ENDROOT
BRANCH   1   2
ATOM      2  C   UNL     1       5.368  -0.800   7.537  1.00  0.00     0.118 C 
BRANCH   2   3
ATOM      3  N   UNL     1       4.439  -0.864   6.422  1.00  0.00    -0.352 N 
ATOM      4  C   UNL     1       3.725  -1.870   5.816  1.00  0.00     0.252 C 
ATOM      5  O   UNL     1       2.825  -1.473   5.087  1.00  0.00    -0.269 OA
ATOM      6  H   UNL     1       4.286   0.014   6.005  1.00  0.00     0.163 HD
BRANCH   4   7
ATOM      7  C   UNL     1       3.939  -3.317   6.065  1.00  0.00     0.055 A 
ATOM      8  C   UNL     1       2.167  -4.451   4.648  1.00  0.00     0.075 A 
ATOM      9  N   UNL     1       1.727  -5.753   4.660  1.00  0.00    -0.275 N 
ATOM     10  C   UNL     1       3.149  -4.396   5.623  1.00  0.00     0.059 A 
ATOM     11  N   UNL     1       2.364  -6.561   5.523  1.00  0.00    -0.154 NA
ATOM     12  H   UNL     1       0.998  -6.070   4.079  1.00  0.00     0.190 HD
ATOM     13  C   UNL     1       3.264  -5.759   6.092  1.00  0.00     0.182 A 
ATOM     14  N   UNL     1       4.181  -6.147   7.019  1.00  0.00    -0.226 NA
ATOM     15  C   UNL     1       4.953  -3.811   6.888  1.00  0.00     0.043 A 
ATOM     16  C   UNL     1       5.007  -5.136   7.380  1.00  0.00     0.074 A 
BRANCH   8  17
ATOM     17  C   UNL     1       1.653  -3.511   3.661  1.00  0.00     0.001 A 
ATOM     18  C   UNL     1       0.751  -1.532   1.886  1.00  0.00     0.118 A 
ATOM     19  C   UNL     1      -0.089  -2.025   2.887  1.00  0.00     0.047 A 
ATOM     20  C   UNL     1       2.036  -2.054   1.751  1.00  0.00     0.047 A 
ATOM     21  C   UNL     1       0.350  -3.018   3.764  1.00  0.00     0.014 A 
ATOM     22  C   UNL     1       2.483  -3.047   2.630  1.00  0.00     0.014 A 
BRANCH  18  23
ATOM     23  O   UNL     1       0.213  -0.517   1.147  1.00  0.00    -0.497 OA
ATOM     24  C   UNL     1       0.854  -0.220  -0.089  1.00  0.00     0.278 C 
ENDBRANCH  18  23
ENDBRANCH   8  17
BRANCH  16  25
ATOM     25  C   UNL     1       5.982  -5.409   8.449  1.00  0.00     0.000 A 
ATOM     26  C   UNL     1       7.043  -6.303   8.275  1.00  0.00     0.011 A 
ATOM     27  C   UNL     1       5.920  -4.672   9.649  1.00  0.00     0.011 A 
ATOM     28  C   UNL     1       8.033  -6.430   9.258  1.00  0.00     0.014 A 
ATOM     29  C   UNL     1       6.905  -4.796  10.629  1.00  0.00     0.014 A 
ATOM     30  C   UNL     1       7.979  -5.672  10.440  1.00  0.00     0.056 A 
BRANCH  30  31
ATOM     31  C   UNL     1       9.062  -5.804  11.483  1.00  0.00     0.416 C 
ATOM     32  F   UNL     1       9.150  -7.066  11.988  1.00  0.00    -0.166 F 
ATOM     33  F   UNL     1      10.298  -5.508  10.994  1.00  0.00    -0.166 F 
ATOM     34  F   UNL     1       8.884  -4.986  12.559  1.00  0.00    -0.166 F 
ENDBRANCH  30  31
ENDBRANCH  16  25
ENDBRANCH   4   7
ENDBRANCH   2   3
ENDBRANCH   1   2
BRANCH   1  35
ATOM     35  C   UNL     1       7.319   0.514   6.630  1.00  0.00     0.118 C 
BRANCH  35  36
ATOM     36  N   UNL     1       7.369   1.477   7.735  1.00  0.00    -0.352 N 
ATOM     37  C   UNL     1       7.696   2.822   7.708  1.00  0.00     0.251 C 
ATOM     38  H   UNL     1       7.136   1.116   8.621  1.00  0.00     0.163 HD
ATOM     39  O   UNL     1       7.999   3.406   8.733  1.00  0.00    -0.269 OA
BRANCH  37  40
ATOM     40  C   UNL     1       7.667   3.522   6.413  1.00  0.00     0.039 A 
ATOM     41  C   UNL     1       8.633   4.470   6.065  1.00  0.00     0.014 A 
ATOM     42  C   UNL     1       6.661   3.170   5.521  1.00  0.00     0.014 A 
ATOM     43  C   UNL     1       8.614   4.995   4.775  1.00  0.00     0.010 A 
ATOM     44  C   UNL     1       6.773   3.516   4.206  1.00  0.00     0.010 A 
ATOM     45  C   UNL     1       7.689   4.493   3.847  1.00  0.00    -0.014 A 
BRANCH  45  46
ATOM     46  C   UNL     1       7.705   4.888   2.448  1.00  0.00     0.031 A 
ATOM     47  C   UNL     1       8.991   4.624   1.758  1.00  0.00     0.074 A 
ATOM     48  C   UNL     1       6.579   5.229   1.784  1.00  0.00     0.049 A 
ATOM     49  N   UNL     1       9.854   5.502   1.374  1.00  0.00    -0.248 NA
ATOM     50  C   UNL     1       9.459   3.233   1.631  1.00  0.00     0.031 C 
ATOM     51  C   UNL     1       5.194   5.229   2.276  1.00  0.00     0.029 A 
ATOM     52  N   UNL     1       6.419   5.523   0.469  1.00  0.00    -0.354 N 
ATOM     53  C   UNL     1      10.860   4.790   0.734  1.00  0.00     0.074 A 
ATOM     54  C   UNL     1      10.676   3.411   1.111  1.00  0.00     0.031 C 
ATOM     55  C   UNL     1       4.340   5.256   1.229  1.00  0.00     0.029 A 
ATOM     56  C   UNL     1       5.106   5.447   0.011  1.00  0.00     0.049 A 
ATOM     57  H   UNL     1       7.171   5.771  -0.116  1.00  0.00     0.167 HD
ATOM     58  C   UNL     1      11.599   5.355  -0.261  1.00  0.00     0.031 A 
ATOM     59  C   UNL     1       4.690   5.494  -1.282  1.00  0.00     0.031 A 
ATOM     60  C   UNL     1      11.356   6.774  -0.354  1.00  0.00     0.049 A 
ATOM     61  C   UNL     1       5.779   6.134  -2.061  1.00  0.00     0.074 A 
ATOM     62  C   UNL     1      11.500   7.840   0.513  1.00  0.00     0.029 A 
ATOM     63  N   UNL     1      10.470   7.186  -1.325  1.00  0.00    -0.354 N 
ATOM     64  N   UNL     1       6.124   7.379  -1.893  1.00  0.00    -0.248 NA
ATOM     65  C   UNL     1       6.801   5.280  -2.647  1.00  0.00     0.031 C 
ATOM     66  C   UNL     1      10.342   8.643   0.298  1.00  0.00     0.029 A 
ATOM     67  C   UNL     1       9.606   8.083  -0.748  1.00  0.00     0.049 A 
ATOM     68  H   UNL     1      10.458   6.890  -2.264  1.00  0.00     0.167 HD
ATOM     69  C   UNL     1       7.511   7.361  -1.896  1.00  0.00     0.074 A 
ATOM     70  C   UNL     1       7.870   6.066  -2.475  1.00  0.00     0.031 C 
ATOM     71  C   UNL     1       8.227   8.261  -1.157  1.00  0.00     0.031 A 
BRANCH  58  72
ATOM     72  C   UNL     1      12.219   4.587  -1.397  1.00  0.00    -0.014 A 
ATOM     73  C   UNL     1      13.061   5.271  -2.296  1.00  0.00     0.010 A 
ATOM     74  C   UNL     1      11.801   3.292  -1.767  1.00  0.00     0.010 A 
ATOM     75  C   UNL     1      13.418   4.710  -3.528  1.00  0.00     0.020 A 
ATOM     76  C   UNL     1      12.186   2.706  -2.974  1.00  0.00     0.020 A 
ATOM     77  C   UNL     1      12.968   3.432  -3.861  1.00  0.00     0.054 A 
BRANCH  77  78
ATOM     78  S   UNL     1      13.365   2.753  -5.490  1.00  0.00     0.124 S 
ATOM     79  O   UNL     1      12.635   3.653  -6.377  1.00  0.00    -0.237 OA
ATOM     80  O   UNL     1      14.820   2.869  -5.525  1.00  0.00    -0.237 OA
ATOM     81  O   UNL     1      12.854   1.386  -5.424  1.00  0.00    -0.744 OA
ENDBRANCH  77  78
ENDBRANCH  58  72
BRANCH  59  82
ATOM     82  C   UNL     1       3.588   4.726  -1.918  1.00  0.00    -0.014 A 
ATOM     83  C   UNL     1       3.166   4.994  -3.236  1.00  0.00     0.010 A 
ATOM     84  C   UNL     1       3.158   3.522  -1.331  1.00  0.00     0.010 A 
ATOM     85  C   UNL     1       2.410   4.054  -3.965  1.00  0.00     0.020 A 
ATOM     86  C   UNL     1       2.413   2.587  -2.051  1.00  0.00     0.020 A 
ATOM     87  C   UNL     1       2.061   2.840  -3.372  1.00  0.00     0.054 A 
BRANCH  87  88
ATOM     88  S   UNL     1       1.275   1.527  -4.355  1.00  0.00     0.124 S 
ATOM     89  O   UNL     1      -0.060   2.065  -4.589  1.00  0.00    -0.237 OA
ATOM     90  O   UNL     1       2.143   1.444  -5.526  1.00  0.00    -0.237 OA
ATOM     91  O   UNL     1       1.326   0.363  -3.468  1.00  0.00    -0.744 OA
ENDBRANCH  87  88
ENDBRANCH  59  82
BRANCH  71  92
ATOM     92  C   UNL     1       7.482   9.426  -0.535  1.00  0.00    -0.014 A 
ATOM     93  C   UNL     1       6.427   9.287   0.391  1.00  0.00     0.010 A 
ATOM     94  C   UNL     1       7.959  10.718  -0.808  1.00  0.00     0.010 A 
ATOM     95  C   UNL     1       5.837  10.413   0.986  1.00  0.00     0.020 A 
ATOM     96  C   UNL     1       7.391  11.842  -0.204  1.00  0.00     0.020 A 
ATOM     97  C   UNL     1       6.320  11.687   0.676  1.00  0.00     0.054 A 
BRANCH  97  98
ATOM     98  S   UNL     1       5.557  13.145   1.441  1.00  0.00     0.124 S 
ATOM     99  O   UNL     1       4.233  13.170   0.826  1.00  0.00    -0.237 OA
ATOM    100  O   UNL     1       5.583  12.818   2.865  1.00  0.00    -0.237 OA
ATOM    101  O   UNL     1       6.439  14.244   1.051  1.00  0.00    -0.744 OA
ENDBRANCH  97  98
ENDBRANCH  71  92
ENDBRANCH  45  46
ENDBRANCH  37  40
ENDBRANCH  35  36
ENDBRANCH   1  35
TORSDOF 17
