REMARK SMILES Cc1cccc(N2C(=O)/C(=C/c3ccc(C(=O)NCCCNC(=O)c4ccc(-c5c6nc(c(-c7ccc(S(=O)(=O)[O-])cc7)c7ccc([nH]7)c(-c7ccc(S(=O)(=O)[O-])cc7)c7nc(c(-c8ccc(S(=O)(=O)[O-])cc8)c8ccc5[nH]8)C=C7)C=C6)cc4)cc3)c3ccccc3C2=O)c1
REMARK SMILES IDX 20 1 19 2 18 3 16 4 17 5 15 7 12 8 13 9 86 10 14 11 85 12
REMARK SMILES IDX 11 13 7 14 8 15 93 16 9 17 10 18 92 19 94 20 87 21 91 22
REMARK SMILES IDX 88 23 90 24 89 25 6 26 1 27 2 28 3 29 95 30 4 31 5 32 21 33
REMARK SMILES IDX 22 34 23 35 24 37 25 38 26 39 84 40 27 41 83 42 28 43 29 44
REMARK SMILES IDX 30 45 77 46 31 47 82 48 76 49 78 50 32 51 81 52 75 53 74 54
REMARK SMILES IDX 33 56 63 57 44 58 62 59 45 60 48 61 61 62 79 63 46 64 47 65
REMARK SMILES IDX 60 67 80 68 49 69 34 70 35 71 43 72 36 73 42 74 37 75 38 76
REMARK SMILES IDX 39 77 40 78 41 79 64 80 65 81 73 82 66 83 72 84 67 85 68 86
REMARK SMILES IDX 69 87 70 88 71 89 50 90 51 91 59 92 52 93 58 94 53 95 54 96
REMARK SMILES IDX 55 97 56 98 57 99
REMARK H PARENT 18 6 22 36 78 55 48 66
REMARK Flexibility Score: inf
ROOT
ATOM      1  C   UNL     1      -6.807   9.233   1.775  1.00  0.00     0.042 C 
ENDROOT
BRANCH   1   2
ATOM      2  C   UNL     1      -5.973   9.247   0.373  1.00  0.00     0.118 C 
BRANCH   2   3
ATOM      3  N   UNL     1      -5.269  10.443  -0.157  1.00  0.00    -0.352 N 
ATOM      4  C   UNL     1      -4.226  10.621  -1.067  1.00  0.00     0.251 C 
ATOM      5  O   UNL     1      -3.866  11.727  -1.467  1.00  0.00    -0.269 OA
ATOM      6  H   UNL     1      -5.612  11.290   0.212  1.00  0.00     0.163 HD
BRANCH   4   7
ATOM      7  C   UNL     1      -3.416   9.457  -1.502  1.00  0.00     0.039 A 
ATOM      8  C   UNL     1      -1.952   7.112  -1.391  1.00  0.00    -0.025 A 
ATOM      9  C   UNL     1      -1.276   8.335  -1.360  1.00  0.00     0.009 A 
ATOM     10  C   UNL     1      -3.305   7.079  -1.747  1.00  0.00     0.009 A 
ATOM     11  C   UNL     1      -2.015   9.520  -1.411  1.00  0.00     0.014 A 
ATOM     12  C   UNL     1      -4.031   8.259  -1.837  1.00  0.00     0.014 A 
BRANCH   8  13
ATOM     13  C   UNL     1      -1.272   5.880  -0.989  1.00  0.00     0.022 C 
ATOM     14  N   UNL     1      -1.618   2.616   0.384  1.00  0.00    -0.242 N 
ATOM     15  C   UNL     1      -0.866   3.769   0.066  1.00  0.00     0.265 C 
ATOM     16  C   UNL     1      -2.976   2.715   0.764  1.00  0.00     0.265 C 
ATOM     17  O   UNL     1       0.327   3.826  -0.235  1.00  0.00    -0.268 OA
ATOM     18  C   UNL     1      -1.652   5.046   0.008  1.00  0.00     0.049 C 
ATOM     19  C   UNL     1      -3.446   4.019   1.290  1.00  0.00     0.048 A 
ATOM     20  O   UNL     1      -3.829   1.830   0.735  1.00  0.00    -0.268 OA
ATOM     21  C   UNL     1      -2.774   5.187   0.941  1.00  0.00    -0.000 A 
ATOM     22  C   UNL     1      -4.555   4.053   2.153  1.00  0.00     0.014 A 
ATOM     23  C   UNL     1      -3.174   6.390   1.541  1.00  0.00     0.010 A 
ATOM     24  C   UNL     1      -4.967   5.259   2.713  1.00  0.00     0.001 A 
ATOM     25  C   UNL     1      -4.263   6.423   2.421  1.00  0.00     0.001 A 
BRANCH  14  26
ATOM     26  C   UNL     1      -0.995   1.294   0.244  1.00  0.00     0.053 A 
ATOM     27  C   UNL     1       2.528  -0.210  -0.006  1.00  0.00     0.044 C 
ATOM     28  C   UNL     1       1.032  -0.116   0.048  1.00  0.00    -0.049 A 
ATOM     29  C   UNL     1       0.249  -1.261  -0.060  1.00  0.00     0.003 A 
ATOM     30  C   UNL     1       0.405   1.131   0.226  1.00  0.00     0.030 A 
ATOM     31  C   UNL     1      -1.133  -1.149  -0.013  1.00  0.00     0.002 A 
ATOM     32  C   UNL     1      -1.740   0.108   0.128  1.00  0.00     0.027 A 
ENDBRANCH  14  26
ENDBRANCH   8  13
ENDBRANCH   4   7
ENDBRANCH   2   3
ENDBRANCH   1   2
BRANCH   1  33
ATOM     33  C   UNL     1      -8.259   9.888   1.774  1.00  0.00     0.118 C 
BRANCH  33  34
ATOM     34  N   UNL     1      -9.311  10.050   2.979  1.00  0.00    -0.352 N 
ATOM     35  C   UNL     1     -10.124  10.999   3.756  1.00  0.00     0.251 C 
ATOM     36  H   UNL     1      -9.479   9.152   3.345  1.00  0.00     0.163 HD
ATOM     37  O   UNL     1     -11.270  10.550   3.967  1.00  0.00    -0.269 OA
BRANCH  35  38
ATOM     38  C   UNL     1      -9.956  12.476   4.345  1.00  0.00     0.039 A 
ATOM     39  C   UNL     1     -10.926  13.504   4.127  1.00  0.00     0.014 A 
ATOM     40  C   UNL     1      -8.893  12.945   5.090  1.00  0.00     0.014 A 
ATOM     41  C   UNL     1     -10.500  14.865   3.925  1.00  0.00     0.010 A 
ATOM     42  C   UNL     1      -8.483  14.301   4.957  1.00  0.00     0.010 A 
ATOM     43  C   UNL     1      -9.161  15.198   4.124  1.00  0.00    -0.014 A 
BRANCH  43  44
ATOM     44  C   UNL     1      -8.424  16.325   3.434  1.00  0.00     0.031 A 
ATOM     45  C   UNL     1      -8.103  17.546   4.162  1.00  0.00     0.074 A 
ATOM     46  C   UNL     1      -7.886  16.349   2.177  1.00  0.00     0.049 A 
ATOM     47  N   UNL     1      -8.479  18.732   3.813  1.00  0.00    -0.248 NA
ATOM     48  C   UNL     1      -7.234  17.495   5.328  1.00  0.00     0.031 C 
ATOM     49  C   UNL     1      -7.077  17.344   1.447  1.00  0.00     0.029 A 
ATOM     50  N   UNL     1      -7.961  15.369   1.210  1.00  0.00    -0.354 N 
ATOM     51  C   UNL     1      -7.649  19.584   4.506  1.00  0.00     0.074 A 
ATOM     52  C   UNL     1      -7.070  18.796   5.577  1.00  0.00     0.031 C 
ATOM     53  C   UNL     1      -7.117  17.076   0.120  1.00  0.00     0.029 A 
ATOM     54  C   UNL     1      -7.966  15.917  -0.069  1.00  0.00     0.049 A 
ATOM     55  H   UNL     1      -8.004  14.404   1.400  1.00  0.00     0.167 HD
ATOM     56  C   UNL     1      -7.221  20.765   3.973  1.00  0.00     0.031 A 
ATOM     57  C   UNL     1      -9.083  15.763  -0.847  1.00  0.00     0.031 A 
ATOM     58  C   UNL     1      -7.518  20.864   2.542  1.00  0.00     0.049 A 
ATOM     59  C   UNL     1      -9.799  17.071  -0.987  1.00  0.00     0.074 A 
ATOM     60  C   UNL     1      -6.698  20.779   1.424  1.00  0.00     0.029 A 
ATOM     61  N   UNL     1      -8.821  20.748   2.074  1.00  0.00    -0.354 N 
ATOM     62  N   UNL     1      -9.481  18.116  -0.286  1.00  0.00    -0.248 NA
ATOM     63  C   UNL     1     -10.912  17.329  -1.890  1.00  0.00     0.031 C 
ATOM     64  C   UNL     1      -7.515  20.558   0.289  1.00  0.00     0.029 A 
ATOM     65  C   UNL     1      -8.833  20.534   0.708  1.00  0.00     0.049 A 
ATOM     66  H   UNL     1      -9.625  20.809   2.638  1.00  0.00     0.167 HD
ATOM     67  C   UNL     1     -10.272  19.167  -0.619  1.00  0.00     0.074 A 
ATOM     68  C   UNL     1     -11.158  18.629  -1.635  1.00  0.00     0.031 C 
ATOM     69  C   UNL     1     -10.091  20.375  -0.015  1.00  0.00     0.031 A 
BRANCH  56  70
ATOM     70  C   UNL     1      -6.213  21.646   4.678  1.00  0.00    -0.014 A 
ATOM     71  C   UNL     1      -5.364  22.495   3.943  1.00  0.00     0.010 A 
ATOM     72  C   UNL     1      -6.098  21.710   6.083  1.00  0.00     0.010 A 
ATOM     73  C   UNL     1      -4.403  23.303   4.564  1.00  0.00     0.020 A 
ATOM     74  C   UNL     1      -5.114  22.483   6.717  1.00  0.00     0.020 A 
ATOM     75  C   UNL     1      -4.274  23.282   5.949  1.00  0.00     0.054 A 
BRANCH  75  76
ATOM     76  S   UNL     1      -3.041  24.356   6.728  1.00  0.00     0.124 S 
ATOM     77  O   UNL     1      -1.798  23.925   6.095  1.00  0.00    -0.237 OA
ATOM     78  O   UNL     1      -3.509  25.688   6.354  1.00  0.00    -0.237 OA
ATOM     79  O   UNL     1      -3.151  24.038   8.151  1.00  0.00    -0.744 OA
ENDBRANCH  75  76
ENDBRANCH  56  70
BRANCH  57  80
ATOM     80  C   UNL     1      -9.758  14.405  -0.728  1.00  0.00    -0.014 A 
ATOM     81  C   UNL     1      -8.958  13.332  -1.163  1.00  0.00     0.010 A 
ATOM     82  C   UNL     1     -10.434  14.163   0.456  1.00  0.00     0.010 A 
ATOM     83  C   UNL     1      -8.251  12.589  -0.211  1.00  0.00     0.020 A 
ATOM     84  C   UNL     1      -9.797  13.304   1.367  1.00  0.00     0.020 A 
ATOM     85  C   UNL     1      -8.534  12.785   1.129  1.00  0.00     0.054 A 
BRANCH  85  86
ATOM     86  S   UNL     1      -6.955  12.633   2.406  1.00  0.00     0.124 S 
ATOM     87  O   UNL     1      -5.945  12.142   1.486  1.00  0.00    -0.237 OA
ATOM     88  O   UNL     1      -6.635  13.985   2.858  1.00  0.00    -0.237 OA
ATOM     89  O   UNL     1      -7.278  11.697   3.454  1.00  0.00    -0.744 OA
ENDBRANCH  85  86
ENDBRANCH  57  80
BRANCH  69  90
ATOM     90  C   UNL     1     -10.999  21.564  -0.132  1.00  0.00    -0.014 A 
ATOM     91  C   UNL     1     -12.312  21.509  -0.616  1.00  0.00     0.010 A 
ATOM     92  C   UNL     1     -10.544  22.810   0.362  1.00  0.00     0.010 A 
ATOM     93  C   UNL     1     -13.103  22.660  -0.684  1.00  0.00     0.020 A 
ATOM     94  C   UNL     1     -11.343  23.950   0.355  1.00  0.00     0.020 A 
ATOM     95  C   UNL     1     -12.610  23.873  -0.203  1.00  0.00     0.054 A 
BRANCH  95  96
ATOM     96  S   UNL     1     -13.658  25.340  -0.281  1.00  0.00     0.124 S 
ATOM     97  O   UNL     1     -13.543  25.713  -1.689  1.00  0.00    -0.237 OA
ATOM     98  O   UNL     1     -14.964  24.823   0.124  1.00  0.00    -0.237 OA
ATOM     99  O   UNL     1     -13.039  26.263   0.665  1.00  0.00    -0.744 OA
ENDBRANCH  95  96
ENDBRANCH  69  90
ENDBRANCH  43  44
ENDBRANCH  35  38
ENDBRANCH  33  34
ENDBRANCH   1  33
TORSDOF 15
