REMARK SMILES O=C(NCCCNC(=O)[C@H](Cc1ccc(O)cc1)NC(=O)c1ccc(Cl)s1)c1ccc(-c2c3nc(c(-c4ccc(S(=O)(=O)[O-])cc4)c4ccc([nH]4)c(-c4ccc(S(=O)(=O)[O-])cc4)c4nc(c(-c5ccc(S(=O)(=O)[O-])cc5)c5ccc2[nH]5)C=C4)C=C3)cc1
REMARK SMILES IDX 5 1 4 2 3 3 1 4 2 5 28 7 29 8 87 9 30 10 86 11 31 12 32 13
REMARK SMILES IDX 33 14 80 15 34 16 85 17 79 18 81 19 35 20 84 21 78 22 77 23
REMARK SMILES IDX 36 25 66 26 47 27 65 28 48 29 51 30 64 31 82 32 49 33 50 34
REMARK SMILES IDX 63 36 83 37 52 38 37 39 38 40 46 41 39 42 45 43 40 44 41 45
REMARK SMILES IDX 42 46 43 47 44 48 67 49 68 50 76 51 69 52 75 53 70 54 71 55
REMARK SMILES IDX 72 56 73 57 74 58 53 59 54 60 62 61 55 62 61 63 56 64 57 65
REMARK SMILES IDX 58 66 59 67 60 68 6 69 7 70 8 71 9 73 10 74 19 75 20 76
REMARK SMILES IDX 21 78 22 79 23 80 27 81 24 82 25 83 26 84 11 85 12 86 13 87
REMARK SMILES IDX 18 88 14 89 17 90 15 91 16 92
REMARK H PARENT 3 6 81 24 51 35 7 72 19 77 16 93
REMARK Flexibility Score: inf
ROOT
ATOM      1  C   UNL     1       3.981  -4.272   0.348  1.00  0.00     0.042 C 
ENDROOT
BRANCH   1   2
ATOM      2  C   UNL     1       4.513  -4.088   1.760  1.00  0.00     0.118 C 
BRANCH   2   3
ATOM      3  N   UNL     1       4.516  -2.692   2.184  1.00  0.00    -0.352 N 
ATOM      4  O   UNL     1       3.763  -0.812   3.165  1.00  0.00    -0.269 OA
ATOM      5  C   UNL     1       3.724  -2.037   3.099  1.00  0.00     0.251 C 
ATOM      6  H   UNL     1       5.193  -2.128   1.744  1.00  0.00     0.163 HD
BRANCH   5   7
ATOM      7  C   UNL     1       2.811  -2.804   3.973  1.00  0.00     0.039 A 
ATOM      8  C   UNL     1       3.222  -4.011   4.536  1.00  0.00     0.014 A 
ATOM      9  C   UNL     1       1.524  -2.321   4.225  1.00  0.00     0.014 A 
ATOM     10  C   UNL     1       2.292  -4.833   5.154  1.00  0.00     0.010 A 
ATOM     11  C   UNL     1       0.625  -3.095   4.966  1.00  0.00     0.010 A 
ATOM     12  C   UNL     1       0.983  -4.384   5.391  1.00  0.00    -0.014 A 
BRANCH  12  13
ATOM     13  C   UNL     1       0.038  -5.276   6.112  1.00  0.00     0.031 A 
ATOM     14  C   UNL     1      -1.234  -5.757   5.463  1.00  0.00     0.074 A 
ATOM     15  C   UNL     1       0.370  -5.705   7.347  1.00  0.00     0.049 A 
ATOM     16  N   UNL     1      -2.130  -6.589   5.932  1.00  0.00    -0.248 NA
ATOM     17  C   UNL     1      -1.550  -5.234   4.125  1.00  0.00     0.031 C 
ATOM     18  C   UNL     1       1.576  -5.308   8.082  1.00  0.00     0.029 A 
ATOM     19  N   UNL     1      -0.248  -6.593   8.188  1.00  0.00    -0.354 N 
ATOM     20  C   UNL     1      -3.127  -6.665   4.965  1.00  0.00     0.074 A 
ATOM     21  C   UNL     1      -2.738  -5.777   3.892  1.00  0.00     0.031 C 
ATOM     22  C   UNL     1       1.647  -6.005   9.224  1.00  0.00     0.029 A 
ATOM     23  C   UNL     1       0.457  -6.838   9.343  1.00  0.00     0.049 A 
ATOM     24  H   UNL     1      -1.114  -7.015   7.985  1.00  0.00     0.167 HD
ATOM     25  C   UNL     1      -4.261  -7.408   4.971  1.00  0.00     0.031 A 
ATOM     26  C   UNL     1       0.178  -7.634  10.391  1.00  0.00     0.031 A 
ATOM     27  C   UNL     1      -4.636  -8.300   6.038  1.00  0.00     0.049 A 
ATOM     28  C   UNL     1      -1.090  -8.435  10.376  1.00  0.00     0.074 A 
ATOM     29  C   UNL     1      -5.747  -9.123   6.121  1.00  0.00     0.029 A 
ATOM     30  N   UNL     1      -3.916  -8.485   7.209  1.00  0.00    -0.354 N 
ATOM     31  N   UNL     1      -2.005  -8.511   9.439  1.00  0.00    -0.248 NA
ATOM     32  C   UNL     1      -1.362  -9.261  11.559  1.00  0.00     0.031 C 
ATOM     33  C   UNL     1      -5.727  -9.762   7.365  1.00  0.00     0.029 A 
ATOM     34  C   UNL     1      -4.569  -9.390   8.030  1.00  0.00     0.049 A 
ATOM     35  H   UNL     1      -3.065  -8.040   7.425  1.00  0.00     0.167 HD
ATOM     36  C   UNL     1      -2.950  -9.415   9.908  1.00  0.00     0.074 A 
ATOM     37  C   UNL     1      -2.485  -9.870  11.203  1.00  0.00     0.031 C 
ATOM     38  C   UNL     1      -4.097  -9.831   9.318  1.00  0.00     0.031 A 
BRANCH  25  39
ATOM     39  C   UNL     1      -5.201  -7.263   3.801  1.00  0.00    -0.014 A 
ATOM     40  C   UNL     1      -4.877  -7.763   2.527  1.00  0.00     0.010 A 
ATOM     41  C   UNL     1      -6.455  -6.651   3.993  1.00  0.00     0.010 A 
ATOM     42  C   UNL     1      -5.769  -7.616   1.459  1.00  0.00     0.020 A 
ATOM     43  C   UNL     1      -7.361  -6.527   2.936  1.00  0.00     0.020 A 
ATOM     44  C   UNL     1      -7.005  -6.995   1.670  1.00  0.00     0.054 A 
BRANCH  44  45
ATOM     45  S   UNL     1      -8.148  -6.828   0.272  1.00  0.00     0.124 S 
ATOM     46  O   UNL     1      -7.502  -5.786  -0.522  1.00  0.00    -0.237 OA
ATOM     47  O   UNL     1      -8.133  -8.165  -0.316  1.00  0.00    -0.237 OA
ATOM     48  O   UNL     1      -9.410  -6.441   0.898  1.00  0.00    -0.744 OA
ENDBRANCH  44  45
ENDBRANCH  25  39
BRANCH  26  49
ATOM     49  C   UNL     1       1.123  -7.704  11.539  1.00  0.00    -0.014 A 
ATOM     50  C   UNL     1       1.855  -8.876  11.795  1.00  0.00     0.010 A 
ATOM     51  C   UNL     1       1.312  -6.584  12.369  1.00  0.00     0.010 A 
ATOM     52  C   UNL     1       2.745  -8.933  12.871  1.00  0.00     0.020 A 
ATOM     53  C   UNL     1       2.225  -6.625  13.425  1.00  0.00     0.020 A 
ATOM     54  C   UNL     1       2.927  -7.805  13.678  1.00  0.00     0.054 A 
BRANCH  54  55
ATOM     55  S   UNL     1       4.124  -7.884  15.038  1.00  0.00     0.124 S 
ATOM     56  O   UNL     1       3.421  -8.714  16.011  1.00  0.00    -0.237 OA
ATOM     57  O   UNL     1       5.285  -8.499  14.401  1.00  0.00    -0.237 OA
ATOM     58  O   UNL     1       4.301  -6.485  15.419  1.00  0.00    -0.744 OA
ENDBRANCH  54  55
ENDBRANCH  26  49
BRANCH  38  59
ATOM     59  C   UNL     1      -4.907 -10.868  10.051  1.00  0.00    -0.014 A 
ATOM     60  C   UNL     1      -5.611 -10.553  11.227  1.00  0.00     0.010 A 
ATOM     61  C   UNL     1      -4.979 -12.175   9.537  1.00  0.00     0.010 A 
ATOM     62  C   UNL     1      -6.335 -11.541  11.900  1.00  0.00     0.020 A 
ATOM     63  C   UNL     1      -5.728 -13.156  10.190  1.00  0.00     0.020 A 
ATOM     64  C   UNL     1      -6.385 -12.838  11.379  1.00  0.00     0.054 A 
BRANCH  64  65
ATOM     65  S   UNL     1      -7.348 -14.097  12.259  1.00  0.00     0.124 S 
ATOM     66  O   UNL     1      -6.490 -14.388  13.405  1.00  0.00    -0.237 OA
ATOM     67  O   UNL     1      -8.591 -13.395  12.566  1.00  0.00    -0.237 OA
ATOM     68  O   UNL     1      -7.475 -15.179  11.285  1.00  0.00    -0.744 OA
ENDBRANCH  64  65
ENDBRANCH  38  59
ENDBRANCH  12  13
ENDBRANCH   5   7
ENDBRANCH   2   3
ENDBRANCH   1   2
BRANCH   1  69
ATOM     69  C   UNL     1       4.853  -3.623  -0.711  1.00  0.00     0.117 C 
BRANCH  69  70
ATOM     70  N   UNL     1       6.173  -4.227  -0.781  1.00  0.00    -0.354 N 
ATOM     71  C   UNL     1       6.778  -4.951  -1.764  1.00  0.00     0.242 C 
ATOM     72  H   UNL     1       6.727  -4.090   0.021  1.00  0.00     0.163 HD
ATOM     73  O   UNL     1       7.910  -5.388  -1.538  1.00  0.00    -0.273 OA
BRANCH  71  74
ATOM     74  C   UNL     1       6.082  -5.235  -3.103  1.00  0.00     0.176 C 
BRANCH  74  75
ATOM     75  N   UNL     1       4.979  -6.173  -2.879  1.00  0.00    -0.339 N 
ATOM     76  C   UNL     1       4.798  -7.441  -3.367  1.00  0.00     0.262 C 
ATOM     77  H   UNL     1       4.261  -5.844  -2.291  1.00  0.00     0.164 HD
ATOM     78  O   UNL     1       3.730  -7.998  -3.096  1.00  0.00    -0.268 OA
BRANCH  76  79
ATOM     79  C   UNL     1       5.827  -8.044  -4.183  1.00  0.00     0.093 A 
ATOM     80  C   UNL     1       7.170  -8.246  -3.911  1.00  0.00     0.027 A 
ATOM     81  S   UNL     1       5.398  -8.666  -5.724  1.00  0.00    -0.118 S 
ATOM     82  C   UNL     1       7.856  -8.851  -5.007  1.00  0.00     0.033 A 
ATOM     83  C   UNL     1       6.997  -9.112  -6.043  1.00  0.00     0.094 A 
ATOM     84  Cl  UNL     1       7.400  -9.825  -7.553  1.00  0.00    -0.072 Cl
ENDBRANCH  76  79
ENDBRANCH  74  75
BRANCH  74  85
ATOM     85  C   UNL     1       5.645  -3.947  -3.816  1.00  0.00     0.070 C 
BRANCH  85  86
ATOM     86  C   UNL     1       5.769  -4.026  -5.316  1.00  0.00    -0.045 A 
ATOM     87  C   UNL     1       6.832  -3.391  -5.972  1.00  0.00     0.007 A 
ATOM     88  C   UNL     1       4.809  -4.718  -6.068  1.00  0.00     0.007 A 
ATOM     89  C   UNL     1       6.921  -3.427  -7.363  1.00  0.00     0.046 A 
ATOM     90  C   UNL     1       4.903  -4.759  -7.457  1.00  0.00     0.046 A 
ATOM     91  C   UNL     1       5.952  -4.107  -8.094  1.00  0.00     0.115 A 
BRANCH  91  92
ATOM     92  O   UNL     1       5.993  -4.149  -9.456  1.00  0.00    -0.508 OA
ATOM     93  H   UNL     1       6.686  -3.719  -9.917  1.00  0.00     0.293 HD
ENDBRANCH  91  92
ENDBRANCH  85  86
ENDBRANCH  74  85
ENDBRANCH  71  74
ENDBRANCH  69  70
ENDBRANCH   1  69
TORSDOF 18
