REMARK SMILES Cn1c(=O)c(=O)n(C)c2cc(S(=O)(=O)N3CCC[C@H]3C(=O)NCCCNC(=O)c3ccc(-c4c5nc(c(-c6ccc(S(=O)(=O)[O-])cc6)c6ccc([nH]6)c(-c6ccc(S(=O)(=O)[O-])cc6)c6nc(c(-c7ccc(S(=O)(=O)[O-])cc7)c7ccc4[nH]7)C=C6)C=C5)cc3)ccc21
REMARK SMILES IDX 24 1 23 2 22 3 20 4 21 5 19 7 15 8 16 9 17 10 18 11 12 12
REMARK SMILES IDX 13 13 14 14 11 15 1 16 2 17 3 18 91 19 4 20 5 21 9 22 90 23
REMARK SMILES IDX 6 24 7 25 10 26 89 27 8 28 25 29 26 30 27 31 28 33 29 34
REMARK SMILES IDX 30 35 88 36 31 37 87 38 32 39 33 40 34 41 81 42 35 43 86 44
REMARK SMILES IDX 80 45 82 46 36 47 85 48 79 49 78 50 37 52 67 53 48 54 66 55
REMARK SMILES IDX 49 56 52 57 65 58 83 59 50 60 51 61 64 63 84 64 53 65 38 66
REMARK SMILES IDX 39 67 47 68 40 69 46 70 41 71 42 72 43 73 44 74 45 75 68 76
REMARK SMILES IDX 69 77 77 78 70 79 76 80 71 81 72 82 73 83 74 84 75 85 54 86
REMARK SMILES IDX 55 87 63 88 56 89 62 90 57 91 58 92 59 93 60 94 61 95
REMARK H PARENT 22 6 26 32 82 51 52 62
REMARK Flexibility Score: inf
ROOT
ATOM      1  C   UNL     1       9.286   6.323  -0.714  1.00  0.00     0.042 C 
ENDROOT
BRANCH   1   2
ATOM      2  C   UNL     1       8.973   4.898  -0.322  1.00  0.00     0.117 C 
BRANCH   2   3
ATOM      3  N   UNL     1       8.565   4.815   1.062  1.00  0.00    -0.355 N 
ATOM      4  C   UNL     1       7.358   4.497   1.593  1.00  0.00     0.238 C 
ATOM      5  O   UNL     1       7.254   4.555   2.822  1.00  0.00    -0.273 OA
ATOM      6  H   UNL     1       9.270   5.021   1.718  1.00  0.00     0.163 HD
BRANCH   4   7
ATOM      7  C   UNL     1       6.212   3.981   0.739  1.00  0.00     0.162 C 
ATOM      8  N   UNL     1       5.535   4.936  -0.175  1.00  0.00    -0.185 NA
ATOM      9  C   UNL     1       5.664   4.504  -1.578  1.00  0.00     0.103 C 
ATOM     10  C   UNL     1       6.012   3.027  -1.515  1.00  0.00     0.019 C 
ATOM     11  C   UNL     1       6.597   2.773  -0.130  1.00  0.00     0.032 C 
BRANCH   8  12
ATOM     12  S   UNL     1       4.053   5.621   0.299  1.00  0.00     0.243 S 
ATOM     13  O   UNL     1       3.690   6.582  -0.713  1.00  0.00    -0.207 OA
ATOM     14  O   UNL     1       4.144   5.984   1.699  1.00  0.00    -0.207 OA
BRANCH  12  15
ATOM     15  C   UNL     1       2.824   4.315   0.205  1.00  0.00     0.084 A 
ATOM     16  C   UNL     1       0.369  -0.158  -0.170  1.00  0.00     0.154 C 
ATOM     17  N   UNL     1      -0.055   1.235  -0.176  1.00  0.00    -0.305 N 
ATOM     18  C   UNL     1      -1.412   1.495  -0.323  1.00  0.00     0.316 A 
ATOM     19  C   UNL     1       0.883   2.282  -0.012  1.00  0.00     0.068 A 
ATOM     20  O   UNL     1      -2.258   0.610  -0.422  1.00  0.00    -0.263 OA
ATOM     21  C   UNL     1      -1.860   2.963  -0.344  1.00  0.00     0.316 A 
ATOM     22  C   UNL     1       0.500   3.633  -0.129  1.00  0.00     0.069 A 
ATOM     23  C   UNL     1       2.212   1.980   0.274  1.00  0.00     0.030 A 
ATOM     24  O   UNL     1      -3.064   3.198  -0.410  1.00  0.00    -0.263 OA
ATOM     25  N   UNL     1      -0.876   3.952  -0.289  1.00  0.00    -0.305 N 
ATOM     26  C   UNL     1       1.488   4.643  -0.053  1.00  0.00     0.050 A 
ATOM     27  C   UNL     1       3.157   2.984   0.394  1.00  0.00     0.024 A 
ATOM     28  C   UNL     1      -1.308   5.341  -0.322  1.00  0.00     0.154 C 
ENDBRANCH  12  15
ENDBRANCH   8  12
ENDBRANCH   4   7
ENDBRANCH   2   3
ENDBRANCH   1   2
BRANCH   1  29
ATOM     29  C   UNL     1      10.573   6.807  -0.074  1.00  0.00     0.118 C 
BRANCH  29  30
ATOM     30  N   UNL     1      11.734   6.044  -0.530  1.00  0.00    -0.352 N 
ATOM     31  C   UNL     1      12.821   6.466  -1.257  1.00  0.00     0.251 C 
ATOM     32  H   UNL     1      11.738   5.092  -0.280  1.00  0.00     0.163 HD
ATOM     33  O   UNL     1      13.585   5.649  -1.759  1.00  0.00    -0.269 OA
BRANCH  31  34
ATOM     34  C   UNL     1      13.028   7.913  -1.440  1.00  0.00     0.039 A 
ATOM     35  C   UNL     1      12.822   8.776  -0.363  1.00  0.00     0.014 A 
ATOM     36  C   UNL     1      13.349   8.414  -2.702  1.00  0.00     0.014 A 
ATOM     37  C   UNL     1      12.708  10.135  -0.595  1.00  0.00     0.010 A 
ATOM     38  C   UNL     1      13.366   9.796  -2.901  1.00  0.00     0.010 A 
ATOM     39  C   UNL     1      12.987  10.663  -1.865  1.00  0.00    -0.014 A 
BRANCH  39  40
ATOM     40  C   UNL     1      12.873  12.127  -2.079  1.00  0.00     0.031 A 
ATOM     41  C   UNL     1      11.889  12.681  -3.074  1.00  0.00     0.074 A 
ATOM     42  C   UNL     1      13.623  12.954  -1.324  1.00  0.00     0.049 A 
ATOM     43  N   UNL     1      11.678  13.928  -3.405  1.00  0.00    -0.248 NA
ATOM     44  C   UNL     1      11.037  11.720  -3.795  1.00  0.00     0.031 C 
ATOM     45  C   UNL     1      14.576  12.522  -0.297  1.00  0.00     0.029 A 
ATOM     46  N   UNL     1      13.682  14.323  -1.274  1.00  0.00    -0.354 N 
ATOM     47  C   UNL     1      10.691  13.900  -4.385  1.00  0.00     0.074 A 
ATOM     48  C   UNL     1      10.365  12.512  -4.620  1.00  0.00     0.031 C 
ATOM     49  C   UNL     1      15.069  13.599   0.326  1.00  0.00     0.029 A 
ATOM     50  C   UNL     1      14.549  14.799  -0.318  1.00  0.00     0.049 A 
ATOM     51  H   UNL     1      13.155  14.908  -1.864  1.00  0.00     0.167 HD
ATOM     52  C   UNL     1      10.104  14.944  -5.016  1.00  0.00     0.031 A 
ATOM     53  C   UNL     1      14.910  16.058  -0.005  1.00  0.00     0.031 A 
ATOM     54  C   UNL     1      10.424  16.322  -4.747  1.00  0.00     0.049 A 
ATOM     55  C   UNL     1      14.291  17.194  -0.765  1.00  0.00     0.074 A 
ATOM     56  C   UNL     1       9.876  17.453  -5.326  1.00  0.00     0.029 A 
ATOM     57  N   UNL     1      11.360  16.759  -3.821  1.00  0.00    -0.354 N 
ATOM     58  N   UNL     1      13.370  17.148  -1.697  1.00  0.00    -0.248 NA
ATOM     59  C   UNL     1      14.756  18.548  -0.440  1.00  0.00     0.031 C 
ATOM     60  C   UNL     1      10.531  18.569  -4.804  1.00  0.00     0.029 A 
ATOM     61  C   UNL     1      11.428  18.142  -3.837  1.00  0.00     0.049 A 
ATOM     62  H   UNL     1      11.896  16.173  -3.240  1.00  0.00     0.167 HD
ATOM     63  C   UNL     1      13.135  18.467  -2.063  1.00  0.00     0.074 A 
ATOM     64  C   UNL     1      13.995  19.289  -1.235  1.00  0.00     0.031 C 
ATOM     65  C   UNL     1      12.287  18.948  -3.004  1.00  0.00     0.031 A 
BRANCH  52  66
ATOM     66  C   UNL     1       9.057  14.659  -6.064  1.00  0.00    -0.014 A 
ATOM     67  C   UNL     1       9.304  15.005  -7.406  1.00  0.00     0.010 A 
ATOM     68  C   UNL     1       7.785  14.174  -5.709  1.00  0.00     0.010 A 
ATOM     69  C   UNL     1       8.292  14.910  -8.365  1.00  0.00     0.020 A 
ATOM     70  C   UNL     1       6.778  14.047  -6.672  1.00  0.00     0.020 A 
ATOM     71  C   UNL     1       7.031  14.442  -7.989  1.00  0.00     0.054 A 
BRANCH  71  72
ATOM     72  S   UNL     1       5.719  14.362  -9.239  1.00  0.00     0.124 S 
ATOM     73  O   UNL     1       5.373  15.769  -9.415  1.00  0.00    -0.237 OA
ATOM     74  O   UNL     1       6.395  13.731 -10.370  1.00  0.00    -0.237 OA
ATOM     75  O   UNL     1       4.691  13.539  -8.604  1.00  0.00    -0.744 OA
ENDBRANCH  71  72
ENDBRANCH  52  66
BRANCH  53  76
ATOM     76  C   UNL     1      15.901  16.276   1.085  1.00  0.00    -0.014 A 
ATOM     77  C   UNL     1      17.222  15.803   0.952  1.00  0.00     0.010 A 
ATOM     78  C   UNL     1      15.505  16.854   2.303  1.00  0.00     0.010 A 
ATOM     79  C   UNL     1      18.102  15.834   2.035  1.00  0.00     0.020 A 
ATOM     80  C   UNL     1      16.396  16.922   3.379  1.00  0.00     0.020 A 
ATOM     81  C   UNL     1      17.677  16.379   3.248  1.00  0.00     0.054 A 
BRANCH  81  82
ATOM     82  S   UNL     1      18.814  16.345   4.660  1.00  0.00     0.124 S 
ATOM     83  O   UNL     1      18.773  14.936   5.043  1.00  0.00    -0.237 OA
ATOM     84  O   UNL     1      20.070  16.799   4.069  1.00  0.00    -0.237 OA
ATOM     85  O   UNL     1      18.206  17.270   5.612  1.00  0.00    -0.744 OA
ENDBRANCH  81  82
ENDBRANCH  53  76
BRANCH  65  86
ATOM     86  C   UNL     1      12.227  20.439  -3.211  1.00  0.00    -0.014 A 
ATOM     87  C   UNL     1      11.042  21.136  -2.906  1.00  0.00     0.010 A 
ATOM     88  C   UNL     1      13.277  21.118  -3.853  1.00  0.00     0.010 A 
ATOM     89  C   UNL     1      10.887  22.470  -3.288  1.00  0.00     0.020 A 
ATOM     90  C   UNL     1      13.138  22.462  -4.206  1.00  0.00     0.020 A 
ATOM     91  C   UNL     1      11.932  23.120  -3.950  1.00  0.00     0.054 A 
BRANCH  91  92
ATOM     92  S   UNL     1      11.686  24.831  -4.497  1.00  0.00     0.124 S 
ATOM     93  O   UNL     1      10.790  24.662  -5.638  1.00  0.00    -0.237 OA
ATOM     94  O   UNL     1      11.095  25.462  -3.320  1.00  0.00    -0.237 OA
ATOM     95  O   UNL     1      13.036  25.284  -4.825  1.00  0.00    -0.744 OA
ENDBRANCH  91  92
ENDBRANCH  65  86
ENDBRANCH  39  40
ENDBRANCH  31  34
ENDBRANCH  29  30
ENDBRANCH   1  29
TORSDOF 15
