REMARK SMILES CCCC[C@@H](C(=O)NCCCNC(=O)c1ccc(-c2c3nc(c(-c4ccc(S(=O)(=O)[O-])cc4)c4ccc([nH]4)c(-c4ccc(S(=O)(=O)[O-])cc4)c4nc(c(-c5ccc(S(=O)(=O)[O-])cc5)c5ccc2[nH]5)C=C4)C=C3)cc1)C1(O)Cc2ccccc2C1
REMARK SMILES IDX 10 1 9 2 8 3 6 4 7 5 5 7 4 8 3 9 2 10 1 11 75 12 77 13 84 14
REMARK SMILES IDX 78 15 83 16 79 17 82 18 80 19 81 20 76 21 11 23 12 24 13 25
REMARK SMILES IDX 14 27 15 28 16 29 74 30 17 31 73 32 18 33 19 34 20 35 67 36
REMARK SMILES IDX 21 37 72 38 66 39 68 40 22 41 71 42 65 43 64 44 23 46 53 47
REMARK SMILES IDX 34 48 52 49 35 50 38 51 51 52 69 53 36 54 37 55 50 57 70 58
REMARK SMILES IDX 39 59 24 60 25 61 33 62 26 63 32 64 27 65 28 66 29 67 30 68
REMARK SMILES IDX 31 69 54 70 55 71 63 72 56 73 62 74 57 75 58 76 59 77 60 78
REMARK SMILES IDX 61 79 40 80 41 81 49 82 42 83 48 84 43 85 44 86 45 87 46 88
REMARK SMILES IDX 47 89
REMARK H PARENT 8 6 76 22 12 26 68 45 38 56
REMARK Flexibility Score: inf
ROOT
ATOM      1  C   UNL     1       0.554   4.326   1.302  1.00  0.00     0.042 C 
ENDROOT
BRANCH   1   2
ATOM      2  C   UNL     1      -0.702   3.620   0.831  1.00  0.00     0.117 C 
BRANCH   2   3
ATOM      3  N   UNL     1      -1.031   3.970  -0.538  1.00  0.00    -0.356 N 
ATOM      4  C   UNL     1      -1.736   3.080  -1.290  1.00  0.00     0.226 C 
ATOM      5  O   UNL     1      -2.963   3.207  -1.284  1.00  0.00    -0.275 OA
ATOM      6  H   UNL     1      -0.750   4.835  -0.916  1.00  0.00     0.163 HD
BRANCH   4   7
ATOM      7  C   UNL     1      -1.029   1.897  -1.981  1.00  0.00     0.111 C 
BRANCH   7   8
ATOM      8  C   UNL     1       0.527   1.832  -1.935  1.00  0.00     0.016 C 
BRANCH   8   9
ATOM      9  C   UNL     1       1.329   1.507  -0.670  1.00  0.00     0.001 C 
BRANCH   9  10
ATOM     10  C   UNL     1       0.812   0.430   0.274  1.00  0.00    -0.003 C 
ATOM     11  C   UNL     1       1.247  -0.965  -0.129  1.00  0.00     0.004 C 
ENDBRANCH   9  10
ENDBRANCH   8   9
ENDBRANCH   7   8
BRANCH   7  12
ATOM     12  C   UNL     1      -1.496   1.726  -3.508  1.00  0.00     0.084 C 
ATOM     13  C   UNL     1      -0.593   2.479  -4.546  1.00  0.00     0.072 C 
ATOM     14  C   UNL     1      -2.905   2.260  -3.916  1.00  0.00     0.072 C 
ATOM     15  C   UNL     1      -1.240   3.830  -4.542  1.00  0.00    -0.042 A 
ATOM     16  C   UNL     1      -2.587   3.701  -4.185  1.00  0.00    -0.042 A 
ATOM     17  C   UNL     1      -0.664   5.072  -4.732  1.00  0.00     0.004 A 
ATOM     18  C   UNL     1      -3.388   4.812  -3.994  1.00  0.00     0.004 A 
ATOM     19  C   UNL     1      -1.454   6.201  -4.506  1.00  0.00     0.000 A 
ATOM     20  C   UNL     1      -2.803   6.072  -4.133  1.00  0.00     0.000 A 
BRANCH  12  21
ATOM     21  O   UNL     1      -1.470   0.314  -3.797  1.00  0.00    -0.388 OA
ATOM     22  H   UNL     1      -0.605  -0.050  -3.554  1.00  0.00     0.211 HD
ENDBRANCH  12  21
ENDBRANCH   7  12
ENDBRANCH   4   7
ENDBRANCH   2   3
ENDBRANCH   1   2
BRANCH   1  23
ATOM     23  C   UNL     1       0.270   5.738   1.770  1.00  0.00     0.118 C 
BRANCH  23  24
ATOM     24  N   UNL     1      -0.368   5.749   3.080  1.00  0.00    -0.352 N 
ATOM     25  C   UNL     1       0.162   6.093   4.299  1.00  0.00     0.251 C 
ATOM     26  H   UNL     1      -1.312   5.470   3.093  1.00  0.00     0.163 HD
ATOM     27  O   UNL     1      -0.428   5.778   5.333  1.00  0.00    -0.269 OA
BRANCH  25  28
ATOM     28  C   UNL     1       1.443   6.825   4.363  1.00  0.00     0.039 A 
ATOM     29  C   UNL     1       2.377   6.502   5.349  1.00  0.00     0.014 A 
ATOM     30  C   UNL     1       1.723   7.833   3.438  1.00  0.00     0.014 A 
ATOM     31  C   UNL     1       3.613   7.153   5.365  1.00  0.00     0.010 A 
ATOM     32  C   UNL     1       2.995   8.381   3.374  1.00  0.00     0.010 A 
ATOM     33  C   UNL     1       3.945   8.072   4.356  1.00  0.00    -0.014 A 
BRANCH  33  34
ATOM     34  C   UNL     1       5.258   8.765   4.330  1.00  0.00     0.031 A 
ATOM     35  C   UNL     1       5.307  10.270   4.403  1.00  0.00     0.074 A 
ATOM     36  C   UNL     1       6.391   8.051   4.179  1.00  0.00     0.049 A 
ATOM     37  N   UNL     1       6.343  11.065   4.331  1.00  0.00    -0.248 NA
ATOM     38  C   UNL     1       4.021  10.978   4.536  1.00  0.00     0.031 C 
ATOM     39  C   UNL     1       6.465   6.593   4.044  1.00  0.00     0.029 A 
ATOM     40  N   UNL     1       7.700   8.455   4.110  1.00  0.00    -0.354 N 
ATOM     41  C   UNL     1       5.830  12.357   4.386  1.00  0.00     0.074 A 
ATOM     42  C   UNL     1       4.391  12.244   4.426  1.00  0.00     0.031 C 
ATOM     43  C   UNL     1       7.752   6.225   3.951  1.00  0.00     0.029 A 
ATOM     44  C   UNL     1       8.592   7.418   3.970  1.00  0.00     0.049 A 
ATOM     45  H   UNL     1       7.975   9.399   4.157  1.00  0.00     0.167 HD
ATOM     46  C   UNL     1       6.498  13.534   4.430  1.00  0.00     0.031 A 
ATOM     47  C   UNL     1       9.935   7.428   3.865  1.00  0.00     0.031 A 
ATOM     48  C   UNL     1       7.932  13.636   4.414  1.00  0.00     0.049 A 
ATOM     49  C   UNL     1      10.656   8.747   3.917  1.00  0.00     0.074 A 
ATOM     50  C   UNL     1       8.713  14.772   4.519  1.00  0.00     0.029 A 
ATOM     51  N   UNL     1       8.799  12.561   4.287  1.00  0.00    -0.354 N 
ATOM     52  N   UNL     1      10.157   9.954   4.043  1.00  0.00    -0.248 NA
ATOM     53  C   UNL     1      12.121   8.705   3.826  1.00  0.00     0.031 C 
ATOM     54  C   UNL     1      10.052  14.390   4.394  1.00  0.00     0.029 A 
ATOM     55  C   UNL     1      10.108  13.009   4.283  1.00  0.00     0.049 A 
ATOM     56  H   UNL     1       8.523  11.619   4.211  1.00  0.00     0.167 HD
ATOM     57  C   UNL     1      11.250  10.814   4.075  1.00  0.00     0.074 A 
ATOM     58  C   UNL     1      12.434   9.986   3.973  1.00  0.00     0.031 C 
ATOM     59  C   UNL     1      11.272  12.166   4.179  1.00  0.00     0.031 A 
BRANCH  46  60
ATOM     60  C   UNL     1       5.683  14.800   4.497  1.00  0.00    -0.014 A 
ATOM     61  C   UNL     1       4.919  15.117   5.637  1.00  0.00     0.010 A 
ATOM     62  C   UNL     1       5.705  15.704   3.420  1.00  0.00     0.010 A 
ATOM     63  C   UNL     1       4.161  16.290   5.679  1.00  0.00     0.020 A 
ATOM     64  C   UNL     1       4.975  16.895   3.472  1.00  0.00     0.020 A 
ATOM     65  C   UNL     1       4.194  17.172   4.595  1.00  0.00     0.054 A 
BRANCH  65  66
ATOM     66  S   UNL     1       3.223  18.700   4.692  1.00  0.00     0.124 S 
ATOM     67  O   UNL     1       1.857  18.197   4.574  1.00  0.00    -0.237 OA
ATOM     68  O   UNL     1       3.587  19.227   6.004  1.00  0.00    -0.237 OA
ATOM     69  O   UNL     1       3.697  19.485   3.554  1.00  0.00    -0.744 OA
ENDBRANCH  65  66
ENDBRANCH  46  60
BRANCH  47  70
ATOM     70  C   UNL     1      10.680   6.146   3.719  1.00  0.00    -0.014 A 
ATOM     71  C   UNL     1      11.498   5.670   4.759  1.00  0.00     0.010 A 
ATOM     72  C   UNL     1      10.563   5.385   2.541  1.00  0.00     0.010 A 
ATOM     73  C   UNL     1      12.199   4.468   4.616  1.00  0.00     0.020 A 
ATOM     74  C   UNL     1      11.238   4.168   2.407  1.00  0.00     0.020 A 
ATOM     75  C   UNL     1      12.062   3.723   3.442  1.00  0.00     0.054 A 
BRANCH  75  76
ATOM     76  S   UNL     1      12.943   2.143   3.300  1.00  0.00     0.124 S 
ATOM     77  O   UNL     1      14.327   2.579   3.149  1.00  0.00    -0.237 OA
ATOM     78  O   UNL     1      12.618   1.488   4.564  1.00  0.00    -0.237 OA
ATOM     79  O   UNL     1      12.348   1.525   2.116  1.00  0.00    -0.744 OA
ENDBRANCH  75  76
ENDBRANCH  47  70
BRANCH  59  80
ATOM     80  C   UNL     1      12.620  12.835   4.225  1.00  0.00    -0.014 A 
ATOM     81  C   UNL     1      13.441  12.904   3.086  1.00  0.00     0.010 A 
ATOM     82  C   UNL     1      13.042  13.458   5.414  1.00  0.00     0.010 A 
ATOM     83  C   UNL     1      14.675  13.555   3.145  1.00  0.00     0.020 A 
ATOM     84  C   UNL     1      14.259  14.138   5.468  1.00  0.00     0.020 A 
ATOM     85  C   UNL     1      15.075  14.170   4.336  1.00  0.00     0.054 A 
BRANCH  85  86
ATOM     86  S   UNL     1      16.662  15.047   4.372  1.00  0.00     0.124 S 
ATOM     87  O   UNL     1      17.619  13.945   4.340  1.00  0.00    -0.237 OA
ATOM     88  O   UNL     1      16.602  15.864   3.163  1.00  0.00    -0.237 OA
ATOM     89  O   UNL     1      16.615  15.796   5.626  1.00  0.00    -0.744 OA
ENDBRANCH  85  86
ENDBRANCH  59  80
ENDBRANCH  33  34
ENDBRANCH  25  28
ENDBRANCH  23  24
ENDBRANCH   1  23
TORSDOF 18
