REMARK SMILES COc1cccc(CC2(CO)CCN(c3nc(C)ccc3C(=O)NCCCNC(=O)c3ccc(-c4c5nc(c(-c6ccc(S(=O)(=O)[O-])cc6)c6ccc([nH]6)c(-c6ccc(S(=O)(=O)[O-])cc6)c6nc(c(-c7ccc(S(=O)(=O)[O-])cc7)c7ccc4[nH]7)C=C6)C=C5)cc3)CC2)c1
REMARK SMILES IDX 25 1 24 2 22 3 23 4 21 6 15 7 16 8 17 9 20 10 18 11 19 12
REMARK SMILES IDX 14 13 9 14 12 15 92 16 13 17 91 18 8 19 7 20 3 21 4 22 93 23
REMARK SMILES IDX 5 24 6 25 2 26 1 27 10 28 11 29 26 31 27 32 28 33 29 34
REMARK SMILES IDX 30 36 31 37 32 38 90 39 33 40 89 41 34 42 35 43 36 44 83 45
REMARK SMILES IDX 37 46 88 47 82 48 84 49 38 50 87 51 81 52 80 53 39 55 69 56
REMARK SMILES IDX 50 57 68 58 51 59 54 60 67 61 85 62 52 63 53 64 66 66 86 67
REMARK SMILES IDX 55 68 40 69 41 70 49 71 42 72 48 73 43 74 44 75 45 76 46 77
REMARK SMILES IDX 47 78 70 79 71 80 79 81 72 82 78 83 73 84 74 85 75 86 76 87
REMARK SMILES IDX 77 88 56 89 57 90 65 91 58 92 64 93 59 94 60 95 61 96 62 97
REMARK SMILES IDX 63 98
REMARK H PARENT 24 5 11 30 28 35 84 54 54 65
REMARK Flexibility Score: inf
ROOT
ATOM      1  C   UNL     1       7.347  -8.863   2.444  1.00  0.00     0.118 C 
ENDROOT
BRANCH   1   2
ATOM      2  N   UNL     1       6.441  -7.873   1.900  1.00  0.00    -0.352 N 
ATOM      3  C   UNL     1       6.272  -7.213   0.708  1.00  0.00     0.255 C 
ATOM      4  O   UNL     1       5.362  -6.390   0.802  1.00  0.00    -0.269 OA
ATOM      5  H   UNL     1       5.766  -7.600   2.562  1.00  0.00     0.163 HD
BRANCH   3   6
ATOM      6  C   UNL     1       7.056  -7.476  -0.562  1.00  0.00     0.082 A 
ATOM      7  C   UNL     1       6.624  -7.180  -1.879  1.00  0.00     0.141 A 
ATOM      8  N   UNL     1       7.306  -7.715  -2.936  1.00  0.00    -0.235 NA
ATOM      9  C   UNL     1       8.419  -8.446  -2.789  1.00  0.00     0.040 A 
ATOM     10  C   UNL     1       8.303  -8.124  -0.452  1.00  0.00     0.019 A 
ATOM     11  C   UNL     1       9.018  -8.974  -4.051  1.00  0.00     0.067 C 
ATOM     12  C   UNL     1       8.985  -8.628  -1.557  1.00  0.00     0.024 A 
BRANCH   7  13
ATOM     13  N   UNL     1       5.621  -6.342  -2.319  1.00  0.00    -0.356 N 
ATOM     14  C   UNL     1       3.824  -4.346  -3.619  1.00  0.00     0.001 C 
ATOM     15  C   UNL     1       4.837  -5.223  -4.405  1.00  0.00     0.031 C 
ATOM     16  C   UNL     1       4.541  -4.124  -2.266  1.00  0.00     0.031 C 
ATOM     17  C   UNL     1       5.054  -6.570  -3.653  1.00  0.00     0.119 C 
ATOM     18  C   UNL     1       4.965  -5.353  -1.491  1.00  0.00     0.119 C 
BRANCH  14  19
ATOM     19  C   UNL     1       3.551  -2.894  -4.198  1.00  0.00     0.045 C 
BRANCH  19  20
ATOM     20  C   UNL     1       2.304  -2.247  -3.562  1.00  0.00    -0.044 A 
ATOM     21  C   UNL     1       1.106  -1.648  -1.536  1.00  0.00     0.119 A 
ATOM     22  C   UNL     1      -0.110  -1.933  -2.145  1.00  0.00     0.046 A 
ATOM     23  C   UNL     1       2.309  -1.773  -2.238  1.00  0.00     0.050 A 
ATOM     24  C   UNL     1      -0.134  -2.247  -3.499  1.00  0.00     0.004 A 
ATOM     25  C   UNL     1       1.063  -2.372  -4.211  1.00  0.00     0.004 A 
BRANCH  21  26
ATOM     26  O   UNL     1       1.108  -1.399  -0.191  1.00  0.00    -0.497 OA
ATOM     27  C   UNL     1       1.205   0.001   0.056  1.00  0.00     0.278 C 
ENDBRANCH  21  26
ENDBRANCH  19  20
ENDBRANCH  14  19
BRANCH  14  28
ATOM     28  C   UNL     1       2.487  -5.152  -3.655  1.00  0.00     0.163 C 
BRANCH  28  29
ATOM     29  O   UNL     1       1.884  -5.311  -2.391  1.00  0.00    -0.396 OA
ATOM     30  H   UNL     1       2.475  -5.816  -1.812  1.00  0.00     0.210 HD
ENDBRANCH  28  29
ENDBRANCH  14  28
ENDBRANCH   7  13
ENDBRANCH   3   6
ENDBRANCH   1   2
BRANCH   1  31
ATOM     31  C   UNL     1       8.480  -8.184   3.215  1.00  0.00     0.042 C 
BRANCH  31  32
ATOM     32  C   UNL     1       8.007  -7.455   4.473  1.00  0.00     0.118 C 
BRANCH  32  33
ATOM     33  N   UNL     1       7.451  -8.374   5.458  1.00  0.00    -0.352 N 
ATOM     34  C   UNL     1       7.912  -8.703   6.701  1.00  0.00     0.251 C 
ATOM     35  H   UNL     1       6.619  -8.825   5.187  1.00  0.00     0.163 HD
ATOM     36  O   UNL     1       7.469  -9.716   7.262  1.00  0.00    -0.269 OA
BRANCH  34  37
ATOM     37  C   UNL     1       8.919  -7.867   7.381  1.00  0.00     0.039 A 
ATOM     38  C   UNL     1       9.917  -8.482   8.144  1.00  0.00     0.014 A 
ATOM     39  C   UNL     1       8.846  -6.472   7.320  1.00  0.00     0.014 A 
ATOM     40  C   UNL     1      10.857  -7.699   8.817  1.00  0.00     0.010 A 
ATOM     41  C   UNL     1       9.831  -5.696   7.923  1.00  0.00     0.010 A 
ATOM     42  C   UNL     1      10.832  -6.300   8.698  1.00  0.00    -0.014 A 
BRANCH  42  43
ATOM     43  C   UNL     1      11.817  -5.447   9.410  1.00  0.00     0.031 A 
ATOM     44  C   UNL     1      11.348  -4.484  10.469  1.00  0.00     0.074 A 
ATOM     45  C   UNL     1      13.119  -5.501   9.069  1.00  0.00     0.049 A 
ATOM     46  N   UNL     1      12.041  -3.619  11.164  1.00  0.00    -0.248 NA
ATOM     47  C   UNL     1       9.906  -4.473  10.767  1.00  0.00     0.031 C 
ATOM     48  C   UNL     1      13.689  -6.369   8.036  1.00  0.00     0.029 A 
ATOM     49  N   UNL     1      14.199  -4.809   9.554  1.00  0.00    -0.354 N 
ATOM     50  C   UNL     1      11.120  -2.950  11.963  1.00  0.00     0.074 A 
ATOM     51  C   UNL     1       9.813  -3.467  11.624  1.00  0.00     0.031 C 
ATOM     52  C   UNL     1      15.018  -6.181   7.989  1.00  0.00     0.029 A 
ATOM     53  C   UNL     1      15.388  -5.153   8.956  1.00  0.00     0.049 A 
ATOM     54  H   UNL     1      14.130  -4.130  10.264  1.00  0.00     0.167 HD
ATOM     55  C   UNL     1      11.342  -2.006  12.909  1.00  0.00     0.031 A 
ATOM     56  C   UNL     1      16.637  -4.692   9.163  1.00  0.00     0.031 A 
ATOM     57  C   UNL     1      12.647  -1.502  13.247  1.00  0.00     0.049 A 
ATOM     58  C   UNL     1      16.860  -3.640  10.215  1.00  0.00     0.074 A 
ATOM     59  C   UNL     1      12.989  -0.578  14.218  1.00  0.00     0.029 A 
ATOM     60  N   UNL     1      13.826  -1.885  12.625  1.00  0.00    -0.354 N 
ATOM     61  N   UNL     1      15.982  -3.053  10.994  1.00  0.00    -0.248 NA
ATOM     62  C   UNL     1      18.246  -3.202  10.428  1.00  0.00     0.031 C 
ATOM     63  C   UNL     1      14.370  -0.365  14.149  1.00  0.00     0.029 A 
ATOM     64  C   UNL     1      14.896  -1.205  13.180  1.00  0.00     0.049 A 
ATOM     65  H   UNL     1      13.892  -2.542  11.895  1.00  0.00     0.167 HD
ATOM     66  C   UNL     1      16.715  -2.204  11.817  1.00  0.00     0.074 A 
ATOM     67  C   UNL     1      18.106  -2.362  11.444  1.00  0.00     0.031 C 
ATOM     68  C   UNL     1      16.276  -1.376  12.798  1.00  0.00     0.031 A 
BRANCH  55  69
ATOM     69  C   UNL     1      10.140  -1.457  13.636  1.00  0.00    -0.014 A 
ATOM     70  C   UNL     1       9.389  -2.261  14.514  1.00  0.00     0.010 A 
ATOM     71  C   UNL     1       9.762  -0.114  13.451  1.00  0.00     0.010 A 
ATOM     72  C   UNL     1       8.253  -1.751  15.148  1.00  0.00     0.020 A 
ATOM     73  C   UNL     1       8.645   0.410  14.109  1.00  0.00     0.020 A 
ATOM     74  C   UNL     1       7.884  -0.419  14.936  1.00  0.00     0.054 A 
BRANCH  74  75
ATOM     75  S   UNL     1       6.407   0.217  15.773  1.00  0.00     0.124 S 
ATOM     76  O   UNL     1       5.334  -0.435  15.027  1.00  0.00    -0.237 OA
ATOM     77  O   UNL     1       6.590  -0.249  17.145  1.00  0.00    -0.237 OA
ATOM     78  O   UNL     1       6.501   1.663  15.592  1.00  0.00    -0.744 OA
ENDBRANCH  74  75
ENDBRANCH  55  69
BRANCH  56  79
ATOM     79  C   UNL     1      17.773  -5.253   8.383  1.00  0.00    -0.014 A 
ATOM     80  C   UNL     1      18.724  -6.081   9.005  1.00  0.00     0.010 A 
ATOM     81  C   UNL     1      17.899  -4.983   7.008  1.00  0.00     0.010 A 
ATOM     82  C   UNL     1      19.787  -6.616   8.272  1.00  0.00     0.020 A 
ATOM     83  C   UNL     1      18.945  -5.539   6.265  1.00  0.00     0.020 A 
ATOM     84  C   UNL     1      19.889  -6.344   6.905  1.00  0.00     0.054 A 
BRANCH  84  85
ATOM     85  S   UNL     1      21.245  -7.097   5.963  1.00  0.00     0.124 S 
ATOM     86  O   UNL     1      22.399  -6.334   6.430  1.00  0.00    -0.237 OA
ATOM     87  O   UNL     1      21.191  -8.492   6.394  1.00  0.00    -0.237 OA
ATOM     88  O   UNL     1      20.863  -6.867   4.572  1.00  0.00    -0.744 OA
ENDBRANCH  84  85
ENDBRANCH  56  79
BRANCH  68  89
ATOM     89  C   UNL     1      17.317  -0.614  13.576  1.00  0.00    -0.014 A 
ATOM     90  C   UNL     1      18.038   0.446  13.000  1.00  0.00     0.010 A 
ATOM     91  C   UNL     1      17.543  -0.945  14.925  1.00  0.00     0.010 A 
ATOM     92  C   UNL     1      18.996   1.135  13.748  1.00  0.00     0.020 A 
ATOM     93  C   UNL     1      18.477  -0.238  15.685  1.00  0.00     0.020 A 
ATOM     94  C   UNL     1      19.211   0.787  15.085  1.00  0.00     0.054 A 
BRANCH  94  95
ATOM     95  S   UNL     1      20.439   1.716  16.044  1.00  0.00     0.124 S 
ATOM     96  O   UNL     1      21.695   1.211  15.498  1.00  0.00    -0.237 OA
ATOM     97  O   UNL     1      20.122   3.103  15.713  1.00  0.00    -0.237 OA
ATOM     98  O   UNL     1      20.162   1.333  17.427  1.00  0.00    -0.744 OA
ENDBRANCH  94  95
ENDBRANCH  68  89
ENDBRANCH  42  43
ENDBRANCH  34  37
ENDBRANCH  32  33
ENDBRANCH  31  32
ENDBRANCH   1  31
TORSDOF 19
