REMARK SMILES O=C(C[C@H]1C[C@H]2CC[C@@H](C1)[N@H+]2C[C@@H]1CNC(=O)O1)NCCCNC(=O)c1ccc(-c2c3nc(c(-c4ccc(S(=O)(=O)[O-])cc4)c4ccc([nH]4)c(-c4ccc(S(=O)(=O)[O-])cc4)c4nc(c(-c5ccc(S(=O)(=O)[O-])cc5)c5ccc2[nH]5)C=C4)C=C3)cc1
REMARK SMILES IDX 21 1 20 2 19 3 1 4 2 5 3 7 4 8 5 9 10 10 6 11 9 12 7 13
REMARK SMILES IDX 11 14 8 15 12 17 13 18 14 19 18 20 15 21 16 22 17 24 22 25
REMARK SMILES IDX 23 26 24 27 25 29 26 30 27 31 85 32 28 33 84 34 29 35 30 36
REMARK SMILES IDX 31 37 78 38 32 39 83 40 77 41 79 42 33 43 82 44 76 45 75 46
REMARK SMILES IDX 34 48 64 49 45 50 63 51 46 52 49 53 62 54 80 55 47 56 48 57
REMARK SMILES IDX 61 59 81 60 50 61 35 62 36 63 44 64 37 65 43 66 38 67 39 68
REMARK SMILES IDX 40 69 41 70 42 71 65 72 66 73 74 74 67 75 73 76 68 77 69 78
REMARK SMILES IDX 70 79 71 80 72 81 51 82 52 83 60 84 53 85 59 86 54 87 55 88
REMARK SMILES IDX 56 89 57 90 58 91
REMARK H PARENT 19 6 11 16 15 23 23 28 79 47 49 58
REMARK Flexibility Score: inf
ROOT
ATOM      1  C   UNL     1       2.268   3.518   1.329  1.00  0.00     0.042 C 
ENDROOT
BRANCH   1   2
ATOM      2  C   UNL     1       1.797   2.366   0.453  1.00  0.00     0.117 C 
BRANCH   2   3
ATOM      3  N   UNL     1       2.162   1.081   1.015  1.00  0.00    -0.356 N 
ATOM      4  O   UNL     1       0.802  -0.177  -0.344  1.00  0.00    -0.275 OA
ATOM      5  C   UNL     1       1.736  -0.099   0.446  1.00  0.00     0.220 C 
ATOM      6  H   UNL     1       2.728   1.051   1.820  1.00  0.00     0.163 HD
BRANCH   5   7
ATOM      7  C   UNL     1       2.661  -1.266   0.751  1.00  0.00     0.104 C 
BRANCH   7   8
ATOM      8  C   UNL     1       3.689  -1.405  -0.391  1.00  0.00     0.010 C 
ATOM      9  C   UNL     1       4.545  -0.129  -0.613  1.00  0.00     0.069 C 
ATOM     10  C   UNL     1       4.509  -2.715  -0.289  1.00  0.00     0.069 C 
ATOM     11  C   UNL     1       6.008  -0.227  -0.217  1.00  0.00     0.184 C 
ATOM     12  C   UNL     1       6.003  -2.525  -0.006  1.00  0.00     0.184 C 
ATOM     13  C   UNL     1       6.136  -0.476   1.293  1.00  0.00     0.071 C 
ATOM     14  N   UNL     1       6.587  -1.430  -0.762  1.00  0.00    -0.327 N 
ATOM     15  C   UNL     1       6.180  -1.999   1.430  1.00  0.00     0.071 C 
ATOM     16  H   UNL     1       7.600  -1.447  -0.646  1.00  0.00     0.348 HD
BRANCH  14  17
ATOM     17  C   UNL     1       6.987  -1.535  -2.158  1.00  0.00     0.310 C 
BRANCH  17  18
ATOM     18  C   UNL     1       6.128  -1.681  -3.448  1.00  0.00     0.252 C 
ATOM     19  C   UNL     1       5.271  -0.529  -3.937  1.00  0.00     0.170 C 
ATOM     20  O   UNL     1       5.259  -2.824  -3.431  1.00  0.00    -0.438 OA
ATOM     21  N   UNL     1       3.954  -1.061  -3.869  1.00  0.00    -0.318 N 
ATOM     22  C   UNL     1       3.980  -2.406  -3.658  1.00  0.00     0.407 C 
ATOM     23  H   UNL     1       3.132  -0.527  -3.962  1.00  0.00     0.167 HD
ATOM     24  O   UNL     1       3.002  -3.137  -3.654  1.00  0.00    -0.225 OA
ENDBRANCH  17  18
ENDBRANCH  14  17
ENDBRANCH   7   8
ENDBRANCH   5   7
ENDBRANCH   2   3
ENDBRANCH   1   2
BRANCH   1  25
ATOM     25  C   UNL     1       3.787   3.674   1.399  1.00  0.00     0.118 C 
BRANCH  25  26
ATOM     26  N   UNL     1       4.351   4.388   0.265  1.00  0.00    -0.352 N 
ATOM     27  C   UNL     1       5.111   5.537   0.246  1.00  0.00     0.251 C 
ATOM     28  H   UNL     1       4.163   3.992  -0.617  1.00  0.00     0.163 HD
ATOM     29  O   UNL     1       5.377   6.064  -0.831  1.00  0.00    -0.269 OA
BRANCH  27  30
ATOM     30  C   UNL     1       5.583   6.155   1.509  1.00  0.00     0.039 A 
ATOM     31  C   UNL     1       5.501   7.543   1.651  1.00  0.00     0.014 A 
ATOM     32  C   UNL     1       6.121   5.386   2.545  1.00  0.00     0.014 A 
ATOM     33  C   UNL     1       5.905   8.148   2.845  1.00  0.00     0.010 A 
ATOM     34  C   UNL     1       6.439   5.981   3.767  1.00  0.00     0.010 A 
ATOM     35  C   UNL     1       6.350   7.372   3.929  1.00  0.00    -0.014 A 
BRANCH  35  36
ATOM     36  C   UNL     1       6.737   8.010   5.219  1.00  0.00     0.031 A 
ATOM     37  C   UNL     1       8.150   7.898   5.737  1.00  0.00     0.074 A 
ATOM     38  C   UNL     1       5.814   8.677   5.942  1.00  0.00     0.049 A 
ATOM     39  N   UNL     1       8.673   8.407   6.825  1.00  0.00    -0.248 NA
ATOM     40  C   UNL     1       9.092   7.094   4.942  1.00  0.00     0.031 C 
ATOM     41  C   UNL     1       4.401   8.825   5.583  1.00  0.00     0.029 A 
ATOM     42  N   UNL     1       5.925   9.363   7.128  1.00  0.00    -0.354 N 
ATOM     43  C   UNL     1       9.996   7.979   6.848  1.00  0.00     0.074 A 
ATOM     44  C   UNL     1      10.179   7.119   5.700  1.00  0.00     0.031 C 
ATOM     45  C   UNL     1       3.790   9.591   6.501  1.00  0.00     0.029 A 
ATOM     46  C   UNL     1       4.752   9.954   7.538  1.00  0.00     0.049 A 
ATOM     47  H   UNL     1       6.766   9.426   7.636  1.00  0.00     0.167 HD
ATOM     48  C   UNL     1      10.980   8.292   7.727  1.00  0.00     0.031 A 
ATOM     49  C   UNL     1       4.477  10.705   8.623  1.00  0.00     0.031 A 
ATOM     50  C   UNL     1      10.799   9.149   8.870  1.00  0.00     0.049 A 
ATOM     51  C   UNL     1       5.582  11.028   9.592  1.00  0.00     0.074 A 
ATOM     52  C   UNL     1      11.745   9.562   9.793  1.00  0.00     0.029 A 
ATOM     53  N   UNL     1       9.595   9.721   9.252  1.00  0.00    -0.354 N 
ATOM     54  N   UNL     1       6.843  10.667   9.557  1.00  0.00    -0.248 NA
ATOM     55  C   UNL     1       5.229  11.879  10.736  1.00  0.00     0.031 C 
ATOM     56  C   UNL     1      11.100  10.330  10.768  1.00  0.00     0.029 A 
ATOM     57  C   UNL     1       9.768  10.462  10.409  1.00  0.00     0.049 A 
ATOM     58  H   UNL     1       8.742   9.615   8.771  1.00  0.00     0.167 HD
ATOM     59  C   UNL     1       7.442  11.280  10.654  1.00  0.00     0.074 A 
ATOM     60  C   UNL     1       6.408  12.047  11.319  1.00  0.00     0.031 C 
ATOM     61  C   UNL     1       8.732  11.217  11.070  1.00  0.00     0.031 A 
BRANCH  48  62
ATOM     62  C   UNL     1      12.345   7.692   7.490  1.00  0.00    -0.014 A 
ATOM     63  C   UNL     1      13.126   8.071   6.382  1.00  0.00     0.010 A 
ATOM     64  C   UNL     1      12.873   6.769   8.411  1.00  0.00     0.010 A 
ATOM     65  C   UNL     1      14.387   7.504   6.176  1.00  0.00     0.020 A 
ATOM     66  C   UNL     1      14.148   6.226   8.227  1.00  0.00     0.020 A 
ATOM     67  C   UNL     1      14.889   6.584   7.100  1.00  0.00     0.054 A 
BRANCH  67  68
ATOM     68  S   UNL     1      16.538   5.883   6.817  1.00  0.00     0.124 S 
ATOM     69  O   UNL     1      16.302   5.014   5.667  1.00  0.00    -0.237 OA
ATOM     70  O   UNL     1      17.348   7.069   6.552  1.00  0.00    -0.237 OA
ATOM     71  O   UNL     1      16.841   5.190   8.068  1.00  0.00    -0.744 OA
ENDBRANCH  67  68
ENDBRANCH  48  62
BRANCH  49  72
ATOM     72  C   UNL     1       3.097  11.226   8.840  1.00  0.00    -0.014 A 
ATOM     73  C   UNL     1       2.824  12.603   8.749  1.00  0.00     0.010 A 
ATOM     74  C   UNL     1       2.045  10.342   9.143  1.00  0.00     0.010 A 
ATOM     75  C   UNL     1       1.532  13.088   8.980  1.00  0.00     0.020 A 
ATOM     76  C   UNL     1       0.746  10.819   9.340  1.00  0.00     0.020 A 
ATOM     77  C   UNL     1       0.501  12.191   9.271  1.00  0.00     0.054 A 
BRANCH  77  78
ATOM     78  S   UNL     1      -1.176  12.838   9.520  1.00  0.00     0.124 S 
ATOM     79  O   UNL     1      -1.054  13.510  10.810  1.00  0.00    -0.237 OA
ATOM     80  O   UNL     1      -1.350  13.712   8.363  1.00  0.00    -0.237 OA
ATOM     81  O   UNL     1      -2.010  11.638   9.516  1.00  0.00    -0.744 OA
ENDBRANCH  77  78
ENDBRANCH  49  72
BRANCH  61  82
ATOM     82  C   UNL     1       9.113  12.044  12.273  1.00  0.00    -0.014 A 
ATOM     83  C   UNL     1       8.624  11.750  13.559  1.00  0.00     0.010 A 
ATOM     84  C   UNL     1       9.990  13.132  12.110  1.00  0.00     0.010 A 
ATOM     85  C   UNL     1       8.955  12.566  14.645  1.00  0.00     0.020 A 
ATOM     86  C   UNL     1      10.354  13.927  13.199  1.00  0.00     0.020 A 
ATOM     87  C   UNL     1       9.813  13.654  14.456  1.00  0.00     0.054 A 
BRANCH  87  88
ATOM     88  S   UNL     1      10.225  14.699  15.880  1.00  0.00     0.124 S 
ATOM     89  O   UNL     1       8.975  15.421  16.098  1.00  0.00    -0.237 OA
ATOM     90  O   UNL     1      10.573  13.720  16.906  1.00  0.00    -0.237 OA
ATOM     91  O   UNL     1      11.340  15.514  15.401  1.00  0.00    -0.744 OA
ENDBRANCH  87  88
ENDBRANCH  61  82
ENDBRANCH  35  36
ENDBRANCH  27  30
ENDBRANCH  25  26
ENDBRANCH   1  25
TORSDOF 16
