REMARK SMILES O=C(NCCCNC(=O)[C@H]1CC[C@H]2CCCC[C@@H]2[N@H+]1C[C@@H]1CCCCO1)c1ccc(-c2c3nc(c(-c4ccc(S(=O)(=O)[O-])cc4)c4ccc([nH]4)c(-c4ccc(S(=O)(=O)[O-])cc4)c4nc(c(-c5ccc(S(=O)(=O)[O-])cc5)c5ccc2[nH]5)C=C4)C=C3)cc1
REMARK SMILES IDX 4 1 3 2 1 3 2 4 27 6 28 7 86 8 29 9 85 10 30 11 31 12 32 13
REMARK SMILES IDX 79 14 33 15 84 16 78 17 80 18 34 19 83 20 77 21 76 22 35 24
REMARK SMILES IDX 65 25 46 26 64 27 47 28 50 29 63 30 81 31 48 32 49 33 62 35
REMARK SMILES IDX 82 36 51 37 36 38 37 39 45 40 38 41 44 42 39 43 40 44 41 45
REMARK SMILES IDX 42 46 43 47 66 48 67 49 75 50 68 51 74 52 69 53 70 54 71 55
REMARK SMILES IDX 72 56 73 57 52 58 53 59 61 60 54 61 60 62 55 63 56 64 57 65
REMARK SMILES IDX 58 66 59 67 5 68 6 69 7 70 8 71 9 73 10 74 11 75 19 76 12 77
REMARK SMILES IDX 18 78 13 80 17 81 14 82 16 83 15 84 20 85 21 86 22 87 26 88
REMARK SMILES IDX 23 89 25 90 24 91
REMARK H PARENT 3 5 80 23 50 34 7 72 19 79
REMARK Flexibility Score: inf
ROOT
ATOM      1  C   UNL     1       4.463   0.706   1.007  1.00  0.00     0.118 C 
ENDROOT
BRANCH   1   2
ATOM      2  N   UNL     1       3.022   0.487   0.959  1.00  0.00    -0.352 N 
ATOM      3  O   UNL     1       1.057  -0.002  -0.035  1.00  0.00    -0.269 OA
ATOM      4  C   UNL     1       2.278  -0.121  -0.021  1.00  0.00     0.251 C 
ATOM      5  H   UNL     1       2.515   0.821   1.734  1.00  0.00     0.163 HD
BRANCH   4   6
ATOM      6  C   UNL     1       2.973  -0.910  -1.055  1.00  0.00     0.039 A 
ATOM      7  C   UNL     1       4.023  -1.756  -0.685  1.00  0.00     0.014 A 
ATOM      8  C   UNL     1       2.583  -0.806  -2.391  1.00  0.00     0.014 A 
ATOM      9  C   UNL     1       4.779  -2.382  -1.661  1.00  0.00     0.010 A 
ATOM     10  C   UNL     1       3.269  -1.535  -3.363  1.00  0.00     0.010 A 
ATOM     11  C   UNL     1       4.375  -2.321  -3.002  1.00  0.00    -0.014 A 
BRANCH  11  12
ATOM     12  C   UNL     1       5.029  -3.224  -3.974  1.00  0.00     0.031 A 
ATOM     13  C   UNL     1       5.813  -2.693  -5.135  1.00  0.00     0.074 A 
ATOM     14  C   UNL     1       4.885  -4.551  -3.778  1.00  0.00     0.049 A 
ATOM     15  N   UNL     1       6.408  -3.362  -6.088  1.00  0.00    -0.248 NA
ATOM     16  C   UNL     1       5.944  -1.231  -5.255  1.00  0.00     0.031 C 
ATOM     17  C   UNL     1       4.126  -5.163  -2.679  1.00  0.00     0.029 A 
ATOM     18  N   UNL     1       5.368  -5.623  -4.478  1.00  0.00    -0.354 N 
ATOM     19  C   UNL     1       6.955  -2.409  -6.938  1.00  0.00     0.074 A 
ATOM     20  C   UNL     1       6.623  -1.112  -6.390  1.00  0.00     0.031 C 
ATOM     21  C   UNL     1       4.224  -6.496  -2.761  1.00  0.00     0.029 A 
ATOM     22  C   UNL     1       4.975  -6.834  -3.960  1.00  0.00     0.049 A 
ATOM     23  H   UNL     1       5.940  -5.535  -5.275  1.00  0.00     0.167 HD
ATOM     24  C   UNL     1       7.663  -2.613  -8.073  1.00  0.00     0.031 A 
ATOM     25  C   UNL     1       5.154  -8.084  -4.423  1.00  0.00     0.031 A 
ATOM     26  C   UNL     1       7.993  -3.916  -8.590  1.00  0.00     0.049 A 
ATOM     27  C   UNL     1       5.910  -8.268  -5.703  1.00  0.00     0.074 A 
ATOM     28  C   UNL     1       8.768  -4.229  -9.693  1.00  0.00     0.029 A 
ATOM     29  N   UNL     1       7.555  -5.118  -8.054  1.00  0.00    -0.354 N 
ATOM     30  N   UNL     1       6.482  -7.357  -6.454  1.00  0.00    -0.248 NA
ATOM     31  C   UNL     1       6.035  -9.640  -6.207  1.00  0.00     0.031 C 
ATOM     32  C   UNL     1       8.745  -5.617  -9.861  1.00  0.00     0.029 A 
ATOM     33  C   UNL     1       8.002  -6.172  -8.832  1.00  0.00     0.049 A 
ATOM     34  H   UNL     1       7.007  -5.208  -7.241  1.00  0.00     0.167 HD
ATOM     35  C   UNL     1       7.037  -8.048  -7.522  1.00  0.00     0.074 A 
ATOM     36  C   UNL     1       6.760  -9.454  -7.301  1.00  0.00     0.031 C 
ATOM     37  C   UNL     1       7.705  -7.562  -8.595  1.00  0.00     0.031 A 
BRANCH  24  38
ATOM     38  C   UNL     1       8.106  -1.413  -8.866  1.00  0.00    -0.014 A 
ATOM     39  C   UNL     1       9.181  -0.612  -8.445  1.00  0.00     0.010 A 
ATOM     40  C   UNL     1       7.504  -1.151 -10.112  1.00  0.00     0.010 A 
ATOM     41  C   UNL     1       9.639   0.435  -9.251  1.00  0.00     0.020 A 
ATOM     42  C   UNL     1       7.971  -0.118 -10.929  1.00  0.00     0.020 A 
ATOM     43  C   UNL     1       9.034   0.673 -10.490  1.00  0.00     0.054 A 
BRANCH  43  44
ATOM     44  S   UNL     1       9.694   1.995 -11.544  1.00  0.00     0.124 S 
ATOM     45  O   UNL     1       9.253   3.193 -10.834  1.00  0.00    -0.237 OA
ATOM     46  O   UNL     1      11.132   1.741 -11.513  1.00  0.00    -0.237 OA
ATOM     47  O   UNL     1       9.051   1.765 -12.835  1.00  0.00    -0.744 OA
ENDBRANCH  43  44
ENDBRANCH  24  38
BRANCH  25  48
ATOM     48  C   UNL     1       4.539  -9.234  -3.709  1.00  0.00    -0.014 A 
ATOM     49  C   UNL     1       5.335 -10.191  -3.061  1.00  0.00     0.010 A 
ATOM     50  C   UNL     1       3.137  -9.366  -3.668  1.00  0.00     0.010 A 
ATOM     51  C   UNL     1       4.742 -11.275  -2.408  1.00  0.00     0.020 A 
ATOM     52  C   UNL     1       2.540 -10.428  -2.989  1.00  0.00     0.020 A 
ATOM     53  C   UNL     1       3.348 -11.388  -2.380  1.00  0.00     0.054 A 
BRANCH  53  54
ATOM     54  S   UNL     1       2.597 -12.791  -1.509  1.00  0.00     0.124 S 
ATOM     55  O   UNL     1       2.815 -13.882  -2.453  1.00  0.00    -0.237 OA
ATOM     56  O   UNL     1       3.376 -12.854  -0.276  1.00  0.00    -0.237 OA
ATOM     57  O   UNL     1       1.205 -12.379  -1.337  1.00  0.00    -0.744 OA
ENDBRANCH  53  54
ENDBRANCH  25  48
BRANCH  37  58
ATOM     58  C   UNL     1       8.182  -8.561  -9.610  1.00  0.00    -0.014 A 
ATOM     59  C   UNL     1       7.276  -9.174 -10.493  1.00  0.00     0.010 A 
ATOM     60  C   UNL     1       9.555  -8.845  -9.719  1.00  0.00     0.010 A 
ATOM     61  C   UNL     1       7.735 -10.070 -11.460  1.00  0.00     0.020 A 
ATOM     62  C   UNL     1      10.019  -9.719 -10.703  1.00  0.00     0.020 A 
ATOM     63  C   UNL     1       9.105 -10.334 -11.561  1.00  0.00     0.054 A 
BRANCH  63  64
ATOM     64  S   UNL     1       9.681 -11.450 -12.868  1.00  0.00     0.124 S 
ATOM     65  O   UNL     1       9.265 -12.754 -12.358  1.00  0.00    -0.237 OA
ATOM     66  O   UNL     1       8.954 -10.972 -14.041  1.00  0.00    -0.237 OA
ATOM     67  O   UNL     1      11.125 -11.227 -12.902  1.00  0.00    -0.744 OA
ENDBRANCH  63  64
ENDBRANCH  37  58
ENDBRANCH  11  12
ENDBRANCH   4   6
ENDBRANCH   1   2
BRANCH   1  68
ATOM     68  C   UNL     1       4.814   2.172   0.873  1.00  0.00     0.042 C 
BRANCH  68  69
ATOM     69  C   UNL     1       4.326   2.986   2.052  1.00  0.00     0.118 C 
BRANCH  69  70
ATOM     70  N   UNL     1       4.999   2.621   3.286  1.00  0.00    -0.351 N 
ATOM     71  C   UNL     1       5.985   3.279   3.974  1.00  0.00     0.278 C 
ATOM     72  H   UNL     1       4.702   1.773   3.688  1.00  0.00     0.163 HD
ATOM     73  O   UNL     1       6.449   2.696   4.953  1.00  0.00    -0.268 OA
BRANCH  71  74
ATOM     74  C   UNL     1       6.394   4.686   3.486  1.00  0.00     0.274 C 
ATOM     75  C   UNL     1       5.246   5.691   3.655  1.00  0.00     0.076 C 
ATOM     76  N   UNL     1       7.674   5.211   3.994  1.00  0.00    -0.320 N 
ATOM     77  C   UNL     1       5.673   7.144   3.460  1.00  0.00     0.016 C 
ATOM     78  C   UNL     1       8.098   6.450   3.331  1.00  0.00     0.187 C 
ATOM     79  H   UNL     1       8.267   4.440   3.687  1.00  0.00     0.349 HD
ATOM     80  C   UNL     1       6.941   7.199   2.629  1.00  0.00     0.048 C 
ATOM     81  C   UNL     1       9.161   6.199   2.240  1.00  0.00     0.065 C 
ATOM     82  C   UNL     1       7.421   8.609   2.300  1.00  0.00     0.010 C 
ATOM     83  C   UNL     1       9.658   7.531   1.650  1.00  0.00     0.006 C 
ATOM     84  C   UNL     1       8.545   8.517   1.266  1.00  0.00     0.001 C 
BRANCH  76  85
ATOM     85  C   UNL     1       8.052   5.110   5.416  1.00  0.00     0.295 C 
BRANCH  85  86
ATOM     86  C   UNL     1       7.447   5.845   6.673  1.00  0.00     0.173 C 
ATOM     87  C   UNL     1       5.970   5.705   7.049  1.00  0.00     0.038 C 
ATOM     88  O   UNL     1       8.004   7.131   6.956  1.00  0.00    -0.372 OA
ATOM     89  C   UNL     1       5.091   6.945   6.919  1.00  0.00     0.005 C 
ATOM     90  C   UNL     1       7.260   8.258   6.544  1.00  0.00     0.161 C 
ATOM     91  C   UNL     1       5.824   8.269   7.045  1.00  0.00     0.029 C 
ENDBRANCH  85  86
ENDBRANCH  76  85
ENDBRANCH  71  74
ENDBRANCH  69  70
ENDBRANCH  68  69
ENDBRANCH   1  68
TORSDOF 15
