REMARK SMILES CC1(C)C(CNC(=O)N2C[C@H](O)C[C@@H]2C(=O)NCCCNC(=O)c2ccc(-c3c4nc(c(-c5ccc(S(=O)(=O)[O-])cc5)c5ccc([nH]5)c(-c5ccc(S(=O)(=O)[O-])cc5)c5nc(c(-c6ccc(S(=O)(=O)[O-])cc6)c6ccc3[nH]6)C=C5)C=C4)cc2)C1(C)C
REMARK SMILES IDX 19 1 18 2 17 3 15 4 16 5 14 7 9 8 10 9 11 10 13 11 7 12 6 13
REMARK SMILES IDX 8 15 5 16 4 17 1 18 2 19 3 20 84 21 85 22 86 23 12 24 20 26
REMARK SMILES IDX 21 27 22 28 23 30 24 31 25 32 83 33 26 34 82 35 27 36 28 37
REMARK SMILES IDX 29 38 76 39 30 40 81 41 75 42 77 43 31 44 80 45 74 46 73 47
REMARK SMILES IDX 32 49 62 50 43 51 61 52 44 53 47 54 60 55 78 56 45 57 46 58
REMARK SMILES IDX 59 60 79 61 48 62 33 63 34 64 42 65 35 66 41 67 36 68 37 69
REMARK SMILES IDX 38 70 39 71 40 72 63 73 64 74 72 75 65 76 71 77 66 78 67 79
REMARK SMILES IDX 68 80 69 81 70 82 49 83 50 84 58 85 51 86 57 87 52 88 53 89
REMARK SMILES IDX 54 90 55 91 56 92
REMARK H PARENT 17 6 6 14 12 25 21 29 77 48 47 59
REMARK Flexibility Score: inf
ROOT
ATOM      1  C   UNL     1       8.912  -0.954  -3.208  1.00  0.00     0.042 C 
ENDROOT
BRANCH   1   2
ATOM      2  C   UNL     1       8.394  -2.360  -3.495  1.00  0.00     0.117 C 
BRANCH   2   3
ATOM      3  N   UNL     1       7.281  -2.724  -2.635  1.00  0.00    -0.354 N 
ATOM      4  C   UNL     1       5.962  -2.884  -2.954  1.00  0.00     0.242 C 
ATOM      5  O   UNL     1       5.182  -3.258  -2.072  1.00  0.00    -0.273 OA
ATOM      6  H   UNL     1       7.509  -2.878  -1.689  1.00  0.00     0.163 HD
BRANCH   4   7
ATOM      7  C   UNL     1       5.520  -2.747  -4.421  1.00  0.00     0.179 C 
ATOM      8  N   UNL     1       4.089  -2.438  -4.497  1.00  0.00    -0.310 N 
ATOM      9  C   UNL     1       3.392  -3.462  -5.264  1.00  0.00     0.154 C 
ATOM     10  C   UNL     1       4.261  -4.695  -5.060  1.00  0.00     0.136 C 
ATOM     11  C   UNL     1       5.673  -4.112  -5.109  1.00  0.00     0.069 C 
BRANCH   8  12
ATOM     12  C   UNL     1       3.663  -1.189  -4.172  1.00  0.00     0.318 C 
ATOM     13  N   UNL     1       2.375  -0.980  -3.819  1.00  0.00    -0.338 N 
ATOM     14  H   UNL     1       2.024  -0.081  -4.013  1.00  0.00     0.165 HD
ATOM     15  O   UNL     1       4.435  -0.231  -4.149  1.00  0.00    -0.249 OA
BRANCH  13  16
ATOM     16  C   UNL     1       1.443  -1.893  -3.198  1.00  0.00     0.122 C 
BRANCH  16  17
ATOM     17  C   UNL     1       1.427  -1.693  -1.715  1.00  0.00     0.021 C 
ATOM     18  C   UNL     1       0.998  -0.100   0.289  1.00  0.00     0.012 C 
ATOM     19  C   UNL     1       0.453  -0.820  -0.931  1.00  0.00    -0.025 C 
ATOM     20  C   UNL     1      -0.589   0.001  -1.654  1.00  0.00     0.012 C 
ATOM     21  C   UNL     1       0.347  -2.362  -0.875  1.00  0.00    -0.025 C 
ATOM     22  C   UNL     1       0.829  -3.117   0.347  1.00  0.00     0.012 C 
ATOM     23  C   UNL     1      -0.794  -3.085  -1.560  1.00  0.00     0.012 C 
ENDBRANCH  16  17
ENDBRANCH  13  16
ENDBRANCH   8  12
BRANCH  10  24
ATOM     24  O   UNL     1       4.004  -5.299  -3.792  1.00  0.00    -0.391 OA
ATOM     25  H   UNL     1       4.144  -4.646  -3.088  1.00  0.00     0.211 HD
ENDBRANCH  10  24
ENDBRANCH   4   7
ENDBRANCH   2   3
ENDBRANCH   1   2
BRANCH   1  26
ATOM     26  C   UNL     1       9.512  -0.778  -1.815  1.00  0.00     0.118 C 
BRANCH  26  27
ATOM     27  N   UNL     1      10.690  -1.609  -1.593  1.00  0.00    -0.352 N 
ATOM     28  C   UNL     1      11.965  -1.264  -1.218  1.00  0.00     0.251 C 
ATOM     29  H   UNL     1      10.548  -2.572  -1.736  1.00  0.00     0.163 HD
ATOM     30  O   UNL     1      12.849  -2.119  -1.246  1.00  0.00    -0.269 OA
BRANCH  28  31
ATOM     31  C   UNL     1      12.292   0.121  -0.808  1.00  0.00     0.039 A 
ATOM     32  C   UNL     1      13.488   0.688  -1.257  1.00  0.00     0.014 A 
ATOM     33  C   UNL     1      11.446   0.855   0.027  1.00  0.00     0.014 A 
ATOM     34  C   UNL     1      13.795   2.013  -0.935  1.00  0.00     0.010 A 
ATOM     35  C   UNL     1      11.717   2.199   0.286  1.00  0.00     0.010 A 
ATOM     36  C   UNL     1      12.890   2.796  -0.199  1.00  0.00    -0.014 A 
BRANCH  36  37
ATOM     37  C   UNL     1      13.137   4.245   0.031  1.00  0.00     0.031 A 
ATOM     38  C   UNL     1      13.309   4.785   1.425  1.00  0.00     0.074 A 
ATOM     39  C   UNL     1      13.141   5.089  -1.021  1.00  0.00     0.049 A 
ATOM     40  N   UNL     1      13.483   6.024   1.812  1.00  0.00    -0.248 NA
ATOM     41  C   UNL     1      13.260   3.814   2.529  1.00  0.00     0.031 C 
ATOM     42  C   UNL     1      12.945   4.699  -2.420  1.00  0.00     0.029 A 
ATOM     43  N   UNL     1      13.309   6.451  -1.080  1.00  0.00    -0.354 N 
ATOM     44  C   UNL     1      13.550   5.983   3.200  1.00  0.00     0.074 A 
ATOM     45  C   UNL     1      13.353   4.604   3.590  1.00  0.00     0.031 C 
ATOM     46  C   UNL     1      13.030   5.789  -3.198  1.00  0.00     0.029 A 
ATOM     47  C   UNL     1      13.236   6.962  -2.356  1.00  0.00     0.049 A 
ATOM     48  H   UNL     1      13.467   7.009  -0.285  1.00  0.00     0.167 HD
ATOM     49  C   UNL     1      13.769   6.999   4.070  1.00  0.00     0.031 A 
ATOM     50  C   UNL     1      13.311   8.232  -2.801  1.00  0.00     0.031 A 
ATOM     51  C   UNL     1      13.963   8.372   3.679  1.00  0.00     0.049 A 
ATOM     52  C   UNL     1      13.530   9.344  -1.813  1.00  0.00     0.074 A 
ATOM     53  C   UNL     1      14.250   9.462   4.483  1.00  0.00     0.029 A 
ATOM     54  N   UNL     1      13.882   8.847   2.378  1.00  0.00    -0.354 N 
ATOM     55  N   UNL     1      13.667   9.274  -0.510  1.00  0.00    -0.248 NA
ATOM     56  C   UNL     1      13.614  10.707  -2.356  1.00  0.00     0.031 C 
ATOM     57  C   UNL     1      14.276  10.605   3.678  1.00  0.00     0.029 A 
ATOM     58  C   UNL     1      14.078  10.219   2.362  1.00  0.00     0.049 A 
ATOM     59  H   UNL     1      13.710   8.292   1.584  1.00  0.00     0.167 HD
ATOM     60  C   UNL     1      13.879  10.580  -0.081  1.00  0.00     0.074 A 
ATOM     61  C   UNL     1      13.872  11.415  -1.265  1.00  0.00     0.031 C 
ATOM     62  C   UNL     1      14.063  11.044   1.180  1.00  0.00     0.031 A 
BRANCH  49  63
ATOM     63  C   UNL     1      13.797   6.670   5.542  1.00  0.00    -0.014 A 
ATOM     64  C   UNL     1      14.845   5.917   6.101  1.00  0.00     0.010 A 
ATOM     65  C   UNL     1      12.789   7.169   6.388  1.00  0.00     0.010 A 
ATOM     66  C   UNL     1      14.865   5.637   7.470  1.00  0.00     0.020 A 
ATOM     67  C   UNL     1      12.822   6.918   7.763  1.00  0.00     0.020 A 
ATOM     68  C   UNL     1      13.852   6.139   8.293  1.00  0.00     0.054 A 
BRANCH  68  69
ATOM     69  S   UNL     1      13.921   5.784  10.070  1.00  0.00     0.124 S 
ATOM     70  O   UNL     1      13.606   4.358  10.105  1.00  0.00    -0.237 OA
ATOM     71  O   UNL     1      15.298   6.131  10.412  1.00  0.00    -0.237 OA
ATOM     72  O   UNL     1      12.901   6.660  10.641  1.00  0.00    -0.744 OA
ENDBRANCH  68  69
ENDBRANCH  49  63
BRANCH  50  73
ATOM     73  C   UNL     1      13.177   8.518  -4.257  1.00  0.00    -0.014 A 
ATOM     74  C   UNL     1      14.278   8.975  -5.002  1.00  0.00     0.010 A 
ATOM     75  C   UNL     1      11.945   8.324  -4.909  1.00  0.00     0.010 A 
ATOM     76  C   UNL     1      14.145   9.251  -6.367  1.00  0.00     0.020 A 
ATOM     77  C   UNL     1      11.816   8.568  -6.279  1.00  0.00     0.020 A 
ATOM     78  C   UNL     1      12.915   9.042  -6.997  1.00  0.00     0.054 A 
BRANCH  78  79
ATOM     79  S   UNL     1      12.780   9.360  -8.778  1.00  0.00     0.124 S 
ATOM     80  O   UNL     1      12.829  10.817  -8.832  1.00  0.00    -0.237 OA
ATOM     81  O   UNL     1      13.951   8.667  -9.310  1.00  0.00    -0.237 OA
ATOM     82  O   UNL     1      11.496   8.761  -9.137  1.00  0.00    -0.744 OA
ENDBRANCH  78  79
ENDBRANCH  50  73
BRANCH  62  83
ATOM     83  C   UNL     1      14.302  12.522   1.348  1.00  0.00    -0.014 A 
ATOM     84  C   UNL     1      13.274  13.459   1.139  1.00  0.00     0.010 A 
ATOM     85  C   UNL     1      15.565  12.977   1.772  1.00  0.00     0.010 A 
ATOM     86  C   UNL     1      13.514  14.824   1.319  1.00  0.00     0.020 A 
ATOM     87  C   UNL     1      15.799  14.338   1.984  1.00  0.00     0.020 A 
ATOM     88  C   UNL     1      14.775  15.255   1.742  1.00  0.00     0.054 A 
BRANCH  88  89
ATOM     89  S   UNL     1      15.047  17.028   2.008  1.00  0.00     0.124 S 
ATOM     90  O   UNL     1      15.065  17.542   0.641  1.00  0.00    -0.237 OA
ATOM     91  O   UNL     1      13.888  17.412   2.809  1.00  0.00    -0.237 OA
ATOM     92  O   UNL     1      16.328  17.082   2.710  1.00  0.00    -0.744 OA
ENDBRANCH  88  89
ENDBRANCH  62  83
ENDBRANCH  36  37
ENDBRANCH  28  31
ENDBRANCH  26  27
ENDBRANCH   1  26
TORSDOF 17
