REMARK SMILES CO[C@H]1C[C@@H](C(=O)NCCCNC(=O)c2ccc(-c3c4nc(c(-c5ccc(S(=O)(=O)[O-])cc5)c5ccc([nH]5)c(-c5ccc(S(=O)(=O)[O-])cc5)c5nc(c(-c6ccc(S(=O)(=O)[O-])cc6)c6ccc3[nH]6)C=C5)C=C4)cc2)N(C(=O)CSc2cccs2)C1
REMARK SMILES IDX 9 1 8 2 6 3 7 4 5 6 3 7 4 8 85 9 75 10 2 11 1 12 76 13 77 14
REMARK SMILES IDX 78 15 79 16 80 17 81 18 84 19 82 20 83 21 10 22 11 23 12 24
REMARK SMILES IDX 13 25 14 27 15 28 16 29 74 30 17 31 73 32 18 33 19 34 20 35
REMARK SMILES IDX 67 36 21 37 72 38 66 39 68 40 22 41 71 42 65 43 64 44 23 46
REMARK SMILES IDX 53 47 34 48 52 49 35 50 38 51 51 52 69 53 36 54 37 55 50 57
REMARK SMILES IDX 70 58 39 59 24 60 25 61 33 62 26 63 32 64 27 65 28 66 29 67
REMARK SMILES IDX 30 68 31 69 54 70 55 71 63 72 56 73 62 74 57 75 58 76 59 77
REMARK SMILES IDX 60 78 61 79 40 80 41 81 49 82 42 83 48 84 43 85 44 86 45 87
REMARK SMILES IDX 46 88 47 89
REMARK H PARENT 8 5 12 26 68 45 38 56
REMARK Flexibility Score: inf
ROOT
ATOM      1  C   UNL     1       4.317  -0.400  -0.046  1.00  0.00     0.117 C 
ENDROOT
BRANCH   1   2
ATOM      2  N   UNL     1       3.809  -0.852  -1.325  1.00  0.00    -0.354 N 
ATOM      3  C   UNL     1       2.699  -1.484  -1.757  1.00  0.00     0.242 C 
ATOM      4  O   UNL     1       2.629  -1.550  -2.993  1.00  0.00    -0.273 OA
ATOM      5  H   UNL     1       4.428  -0.647  -2.063  1.00  0.00     0.163 HD
BRANCH   3   6
ATOM      6  C   UNL     1       1.601  -2.170  -0.906  1.00  0.00     0.177 C 
ATOM      7  C   UNL     1       0.349  -2.473   1.113  1.00  0.00     0.139 C 
ATOM      8  C   UNL     1       1.330  -1.520   0.448  1.00  0.00     0.069 C 
ATOM      9  C   UNL     1       0.939  -3.826   0.712  1.00  0.00     0.152 C 
ATOM     10  N   UNL     1       1.640  -3.609  -0.558  1.00  0.00    -0.327 N 
BRANCH   7  11
ATOM     11  O   UNL     1       0.359  -2.228   2.514  1.00  0.00    -0.380 OA
ATOM     12  C   UNL     1      -0.617  -2.983   3.218  1.00  0.00     0.195 C 
ENDBRANCH   7  11
BRANCH  10  13
ATOM     13  C   UNL     1       1.826  -4.722  -1.357  1.00  0.00     0.233 C 
ATOM     14  O   UNL     1       1.520  -5.846  -0.935  1.00  0.00    -0.274 OA
BRANCH  13  15
ATOM     15  C   UNL     1       2.498  -4.615  -2.709  1.00  0.00     0.175 C 
BRANCH  15  16
ATOM     16  S   UNL     1       1.381  -4.165  -4.056  1.00  0.00    -0.105 SA
BRANCH  16  17
ATOM     17  C   UNL     1      -0.040  -5.145  -3.787  1.00  0.00     0.060 A 
ATOM     18  C   UNL     1      -0.107  -6.514  -3.654  1.00  0.00     0.027 A 
ATOM     19  S   UNL     1      -1.590  -4.423  -3.721  1.00  0.00    -0.137 S 
ATOM     20  C   UNL     1      -1.448  -6.973  -3.488  1.00  0.00     0.013 A 
ATOM     21  C   UNL     1      -2.354  -5.936  -3.510  1.00  0.00     0.066 A 
ENDBRANCH  16  17
ENDBRANCH  15  16
ENDBRANCH  13  15
ENDBRANCH  10  13
ENDBRANCH   3   6
ENDBRANCH   1   2
BRANCH   1  22
ATOM     22  C   UNL     1       5.371  -1.339   0.526  1.00  0.00     0.042 C 
BRANCH  22  23
ATOM     23  C   UNL     1       6.636  -1.443  -0.331  1.00  0.00     0.118 C 
BRANCH  23  24
ATOM     24  N   UNL     1       7.255  -0.147  -0.577  1.00  0.00    -0.352 N 
ATOM     25  C   UNL     1       8.483   0.348  -0.222  1.00  0.00     0.251 C 
ATOM     26  H   UNL     1       6.694   0.482  -1.086  1.00  0.00     0.163 HD
ATOM     27  O   UNL     1       8.691   1.553  -0.335  1.00  0.00    -0.269 OA
BRANCH  25  28
ATOM     28  C   UNL     1       9.552  -0.539   0.285  1.00  0.00     0.039 A 
ATOM     29  C   UNL     1      10.395  -0.061   1.293  1.00  0.00     0.014 A 
ATOM     30  C   UNL     1       9.780  -1.801  -0.272  1.00  0.00     0.014 A 
ATOM     31  C   UNL     1      11.432  -0.864   1.772  1.00  0.00     0.010 A 
ATOM     32  C   UNL     1      10.771  -2.628   0.253  1.00  0.00     0.010 A 
ATOM     33  C   UNL     1      11.614  -2.165   1.274  1.00  0.00    -0.014 A 
BRANCH  33  34
ATOM     34  C   UNL     1      12.679  -3.043   1.821  1.00  0.00     0.031 A 
ATOM     35  C   UNL     1      13.835  -3.474   0.960  1.00  0.00     0.074 A 
ATOM     36  C   UNL     1      12.582  -3.478   3.092  1.00  0.00     0.049 A 
ATOM     37  N   UNL     1      14.858  -4.229   1.273  1.00  0.00    -0.248 NA
ATOM     38  C   UNL     1      13.834  -3.020  -0.440  1.00  0.00     0.031 C 
ATOM     39  C   UNL     1      11.480  -3.175   4.010  1.00  0.00     0.029 A 
ATOM     40  N   UNL     1      13.423  -4.266   3.836  1.00  0.00    -0.354 N 
ATOM     41  C   UNL     1      15.612  -4.350   0.111  1.00  0.00     0.074 A 
ATOM     42  C   UNL     1      14.906  -3.630  -0.926  1.00  0.00     0.031 C 
ATOM     43  C   UNL     1      11.732  -3.737   5.202  1.00  0.00     0.029 A 
ATOM     44  C   UNL     1      12.995  -4.463   5.127  1.00  0.00     0.049 A 
ATOM     45  H   UNL     1      14.255  -4.653   3.478  1.00  0.00     0.167 HD
ATOM     46  C   UNL     1      16.796  -4.985  -0.072  1.00  0.00     0.031 A 
ATOM     47  C   UNL     1      13.562  -5.143   6.142  1.00  0.00     0.031 A 
ATOM     48  C   UNL     1      17.503  -5.689   0.966  1.00  0.00     0.049 A 
ATOM     49  C   UNL     1      14.890  -5.810   5.922  1.00  0.00     0.074 A 
ATOM     50  C   UNL     1      18.731  -6.324   0.894  1.00  0.00     0.029 A 
ATOM     51  N   UNL     1      17.048  -5.847   2.266  1.00  0.00    -0.354 N 
ATOM     52  N   UNL     1      15.616  -5.861   4.830  1.00  0.00    -0.248 NA
ATOM     53  C   UNL     1      15.485  -6.492   7.079  1.00  0.00     0.031 C 
ATOM     54  C   UNL     1      19.002  -6.896   2.143  1.00  0.00     0.029 A 
ATOM     55  C   UNL     1      17.964  -6.577   3.004  1.00  0.00     0.049 A 
ATOM     56  H   UNL     1      16.198  -5.492   2.613  1.00  0.00     0.167 HD
ATOM     57  C   UNL     1      16.764  -6.565   5.175  1.00  0.00     0.074 A 
ATOM     58  C   UNL     1      16.645  -6.896   6.581  1.00  0.00     0.031 C 
ATOM     59  C   UNL     1      17.822  -6.908   4.398  1.00  0.00     0.031 A 
BRANCH  46  60
ATOM     60  C   UNL     1      17.402  -4.940  -1.450  1.00  0.00    -0.014 A 
ATOM     61  C   UNL     1      17.948  -3.749  -1.962  1.00  0.00     0.010 A 
ATOM     62  C   UNL     1      17.465  -6.110  -2.229  1.00  0.00     0.010 A 
ATOM     63  C   UNL     1      18.508  -3.718  -3.242  1.00  0.00     0.020 A 
ATOM     64  C   UNL     1      18.048  -6.089  -3.500  1.00  0.00     0.020 A 
ATOM     65  C   UNL     1      18.551  -4.888  -4.005  1.00  0.00     0.054 A 
BRANCH  65  66
ATOM     66  S   UNL     1      19.306  -4.826  -5.654  1.00  0.00     0.124 S 
ATOM     67  O   UNL     1      18.275  -4.144  -6.431  1.00  0.00    -0.237 OA
ATOM     68  O   UNL     1      20.527  -4.058  -5.420  1.00  0.00    -0.237 OA
ATOM     69  O   UNL     1      19.514  -6.232  -5.993  1.00  0.00    -0.744 OA
ENDBRANCH  65  66
ENDBRANCH  46  60
BRANCH  47  70
ATOM     70  C   UNL     1      12.890  -5.196   7.468  1.00  0.00    -0.014 A 
ATOM     71  C   UNL     1      13.408  -4.472   8.556  1.00  0.00     0.010 A 
ATOM     72  C   UNL     1      11.725  -5.962   7.647  1.00  0.00     0.010 A 
ATOM     73  C   UNL     1      12.786  -4.531   9.806  1.00  0.00     0.020 A 
ATOM     74  C   UNL     1      11.085  -6.003   8.889  1.00  0.00     0.020 A 
ATOM     75  C   UNL     1      11.628  -5.298   9.965  1.00  0.00     0.054 A 
BRANCH  75  76
ATOM     76  S   UNL     1      10.807  -5.324  11.583  1.00  0.00     0.124 S 
ATOM     77  O   UNL     1      11.659  -6.234  12.340  1.00  0.00    -0.237 OA
ATOM     78  O   UNL     1      10.858  -3.922  11.989  1.00  0.00    -0.237 OA
ATOM     79  O   UNL     1       9.469  -5.825  11.276  1.00  0.00    -0.744 OA
ENDBRANCH  75  76
ENDBRANCH  47  70
BRANCH  59  80
ATOM     80  C   UNL     1      18.939  -7.661   5.069  1.00  0.00    -0.014 A 
ATOM     81  C   UNL     1      18.781  -9.005   5.452  1.00  0.00     0.010 A 
ATOM     82  C   UNL     1      20.162  -7.014   5.317  1.00  0.00     0.010 A 
ATOM     83  C   UNL     1      19.808  -9.671   6.125  1.00  0.00     0.020 A 
ATOM     84  C   UNL     1      21.201  -7.686   5.965  1.00  0.00     0.020 A 
ATOM     85  C   UNL     1      21.008  -9.003   6.387  1.00  0.00     0.054 A 
BRANCH  85  86
ATOM     86  S   UNL     1      22.329  -9.883   7.264  1.00  0.00     0.124 S 
ATOM     87  O   UNL     1      21.867  -9.819   8.648  1.00  0.00    -0.237 OA
ATOM     88  O   UNL     1      22.298 -11.209   6.652  1.00  0.00    -0.237 OA
ATOM     89  O   UNL     1      23.524  -9.096   6.968  1.00  0.00    -0.744 OA
ENDBRANCH  85  86
ENDBRANCH  59  80
ENDBRANCH  33  34
ENDBRANCH  25  28
ENDBRANCH  23  24
ENDBRANCH  22  23
ENDBRANCH   1  22
TORSDOF 18
