REMARK SMILES CC[C@@H]1C=CCN1S(=O)(=O)c1sc2c(c1C(=O)NCCCNC(=O)c1ccc(-c3c4nc(c(-c5ccc(S(=O)(=O)[O-])cc5)c5ccc([nH]5)c(-c5ccc(S(=O)(=O)[O-])cc5)c5nc(c(-c6ccc(S(=O)(=O)[O-])cc6)c6ccc3[nH]6)C=C5)C=C4)cc1)CC[NH2+]C2
REMARK SMILES IDX 20 1 19 2 18 3 16 4 17 5 15 7 11 8 12 9 13 10 14 11 88 12
REMARK SMILES IDX 85 13 87 14 86 15 8 18 9 19 10 20 7 21 3 22 4 23 5 24 6 25
REMARK SMILES IDX 2 26 1 27 21 28 22 29 23 30 24 32 25 33 26 34 84 35 27 36
REMARK SMILES IDX 83 37 28 38 29 39 30 40 77 41 31 42 82 43 76 44 78 45 32 46
REMARK SMILES IDX 81 47 75 48 74 49 33 51 63 52 44 53 62 54 45 55 48 56 61 57
REMARK SMILES IDX 79 58 46 59 47 60 60 62 80 63 49 64 34 65 35 66 43 67 36 68
REMARK SMILES IDX 42 69 37 70 38 71 39 72 40 73 41 74 64 75 65 76 73 77 66 78
REMARK SMILES IDX 72 79 67 80 68 81 69 82 70 83 71 84 50 85 51 86 59 87 52 88
REMARK SMILES IDX 58 89 53 90 54 91 55 92 56 93 57 94
REMARK H PARENT 18 6 87 16 87 17 22 31 78 50 48 61
REMARK Flexibility Score: inf
ROOT
ATOM      1  C   UNL     1      -2.626   2.147   3.749  1.00  0.00     0.042 C 
ENDROOT
BRANCH   1   2
ATOM      2  C   UNL     1      -3.896   2.376   2.930  1.00  0.00     0.118 C 
BRANCH   2   3
ATOM      3  N   UNL     1      -4.314   3.727   3.121  1.00  0.00    -0.352 N 
ATOM      4  C   UNL     1      -3.866   4.908   2.629  1.00  0.00     0.253 C 
ATOM      5  O   UNL     1      -4.314   5.856   3.288  1.00  0.00    -0.269 OA
ATOM      6  H   UNL     1      -5.081   3.819   3.731  1.00  0.00     0.163 HD
BRANCH   4   7
ATOM      7  C   UNL     1      -3.027   5.178   1.427  1.00  0.00     0.074 A 
ATOM      8  C   UNL     1      -2.031   4.492   0.678  1.00  0.00     0.148 A 
ATOM      9  S   UNL     1      -1.382   5.543  -0.566  1.00  0.00    -0.120 S 
ATOM     10  C   UNL     1      -2.352   6.835  -0.180  1.00  0.00     0.064 A 
ATOM     11  C   UNL     1      -3.225   6.540   0.833  1.00  0.00    -0.009 A 
ATOM     12  C   UNL     1      -2.271   8.127  -0.932  1.00  0.00     0.308 C 
ATOM     13  C   UNL     1      -4.222   7.611   1.252  1.00  0.00     0.099 C 
ATOM     14  N   UNL     1      -2.959   9.213  -0.217  1.00  0.00    -0.342 N 
ATOM     15  C   UNL     1      -4.295   8.759   0.219  1.00  0.00     0.265 C 
ATOM     16  H   UNL     1      -2.410   9.482   0.599  1.00  0.00     0.346 HD
ATOM     17  H   UNL     1      -3.064  10.012  -0.842  1.00  0.00     0.346 HD
BRANCH   8  18
ATOM     18  S   UNL     1      -1.092   2.899   0.510  1.00  0.00     0.254 S 
ATOM     19  O   UNL     1      -0.794   2.746  -0.896  1.00  0.00    -0.206 OA
ATOM     20  O   UNL     1      -1.884   1.853   1.117  1.00  0.00    -0.206 OA
BRANCH  18  21
ATOM     21  N   UNL     1       0.413   3.022   1.356  1.00  0.00    -0.186 NA
ATOM     22  C   UNL     1       1.099   1.703   1.653  1.00  0.00     0.096 C 
ATOM     23  C   UNL     1       2.331   1.751   0.800  1.00  0.00    -0.010 C 
ATOM     24  C   UNL     1       2.525   2.964   0.286  1.00  0.00    -0.013 C 
ATOM     25  C   UNL     1       1.406   3.881   0.623  1.00  0.00     0.130 C 
BRANCH  22  26
ATOM     26  C   UNL     1       1.609   1.621   3.106  1.00  0.00     0.021 C 
ATOM     27  C   UNL     1       0.555   1.327   4.149  1.00  0.00     0.006 C 
ENDBRANCH  22  26
ENDBRANCH  18  21
ENDBRANCH   8  18
ENDBRANCH   4   7
ENDBRANCH   2   3
ENDBRANCH   1   2
BRANCH   1  28
ATOM     28  C   UNL     1      -2.881   1.295   4.963  1.00  0.00     0.118 C 
BRANCH  28  29
ATOM     29  N   UNL     1      -3.007  -0.134   4.613  1.00  0.00    -0.352 N 
ATOM     30  C   UNL     1      -3.028  -1.235   5.460  1.00  0.00     0.251 C 
ATOM     31  H   UNL     1      -3.087  -0.333   3.652  1.00  0.00     0.163 HD
ATOM     32  O   UNL     1      -2.800  -2.361   5.037  1.00  0.00    -0.269 OA
BRANCH  30  33
ATOM     33  C   UNL     1      -3.318  -1.001   6.886  1.00  0.00     0.039 A 
ATOM     34  C   UNL     1      -2.755  -1.722   7.941  1.00  0.00     0.014 A 
ATOM     35  C   UNL     1      -4.122   0.089   7.150  1.00  0.00     0.014 A 
ATOM     36  C   UNL     1      -2.995  -1.270   9.239  1.00  0.00     0.010 A 
ATOM     37  C   UNL     1      -3.930   0.752   8.312  1.00  0.00     0.010 A 
ATOM     38  C   UNL     1      -3.596  -0.014   9.404  1.00  0.00    -0.014 A 
BRANCH  38  39
ATOM     39  C   UNL     1      -3.858   0.632  10.677  1.00  0.00     0.031 A 
ATOM     40  C   UNL     1      -2.628   0.906  11.446  1.00  0.00     0.074 A 
ATOM     41  C   UNL     1      -5.047   1.224  10.951  1.00  0.00     0.049 A 
ATOM     42  N   UNL     1      -2.170   0.237  12.449  1.00  0.00    -0.248 NA
ATOM     43  C   UNL     1      -1.677   1.888  10.895  1.00  0.00     0.031 C 
ATOM     44  C   UNL     1      -6.229   1.369  10.080  1.00  0.00     0.029 A 
ATOM     45  N   UNL     1      -5.407   1.958  12.034  1.00  0.00    -0.354 N 
ATOM     46  C   UNL     1      -1.026   0.919  12.840  1.00  0.00     0.074 A 
ATOM     47  C   UNL     1      -0.628   1.699  11.697  1.00  0.00     0.031 C 
ATOM     48  C   UNL     1      -7.043   2.332  10.569  1.00  0.00     0.029 A 
ATOM     49  C   UNL     1      -6.541   2.748  11.864  1.00  0.00     0.049 A 
ATOM     50  H   UNL     1      -4.902   1.933  12.879  1.00  0.00     0.167 HD
ATOM     51  C   UNL     1      -0.719   1.068  14.160  1.00  0.00     0.031 A 
ATOM     52  C   UNL     1      -7.002   3.703  12.716  1.00  0.00     0.031 A 
ATOM     53  C   UNL     1      -1.557   0.224  14.985  1.00  0.00     0.049 A 
ATOM     54  C   UNL     1      -6.376   3.427  14.036  1.00  0.00     0.074 A 
ATOM     55  C   UNL     1      -1.837  -1.128  15.025  1.00  0.00     0.029 A 
ATOM     56  N   UNL     1      -2.594   0.844  15.648  1.00  0.00    -0.354 N 
ATOM     57  N   UNL     1      -6.607   2.341  14.724  1.00  0.00    -0.248 NA
ATOM     58  C   UNL     1      -5.125   4.103  14.343  1.00  0.00     0.031 C 
ATOM     59  C   UNL     1      -3.241  -1.204  15.271  1.00  0.00     0.029 A 
ATOM     60  C   UNL     1      -3.724   0.091  15.470  1.00  0.00     0.049 A 
ATOM     61  H   UNL     1      -2.532   1.683  16.161  1.00  0.00     0.167 HD
ATOM     62  C   UNL     1      -5.362   1.955  15.206  1.00  0.00     0.074 A 
ATOM     63  C   UNL     1      -4.505   3.127  15.014  1.00  0.00     0.031 C 
ATOM     64  C   UNL     1      -5.066   0.639  15.433  1.00  0.00     0.031 A 
BRANCH  51  65
ATOM     65  C   UNL     1      -0.028   2.290  14.732  1.00  0.00    -0.014 A 
ATOM     66  C   UNL     1       0.177   2.341  16.126  1.00  0.00     0.010 A 
ATOM     67  C   UNL     1       0.173   3.489  14.018  1.00  0.00     0.010 A 
ATOM     68  C   UNL     1       0.448   3.550  16.778  1.00  0.00     0.020 A 
ATOM     69  C   UNL     1       0.488   4.691  14.652  1.00  0.00     0.020 A 
ATOM     70  C   UNL     1       0.580   4.721  16.035  1.00  0.00     0.054 A 
BRANCH  70  71
ATOM     71  S   UNL     1       0.809   6.294  16.893  1.00  0.00     0.124 S 
ATOM     72  O   UNL     1      -0.466   6.441  17.588  1.00  0.00    -0.237 OA
ATOM     73  O   UNL     1       1.966   6.016  17.739  1.00  0.00    -0.237 OA
ATOM     74  O   UNL     1       1.048   7.243  15.808  1.00  0.00    -0.744 OA
ENDBRANCH  70  71
ENDBRANCH  51  65
BRANCH  52  75
ATOM     75  C   UNL     1      -7.639   5.008  12.379  1.00  0.00    -0.014 A 
ATOM     76  C   UNL     1      -8.231   5.814  13.372  1.00  0.00     0.010 A 
ATOM     77  C   UNL     1      -7.411   5.600  11.119  1.00  0.00     0.010 A 
ATOM     78  C   UNL     1      -8.519   7.173  13.134  1.00  0.00     0.020 A 
ATOM     79  C   UNL     1      -7.700   6.950  10.872  1.00  0.00     0.020 A 
ATOM     80  C   UNL     1      -8.229   7.739  11.890  1.00  0.00     0.054 A 
BRANCH  80  81
ATOM     81  S   UNL     1      -8.425   9.532  11.643  1.00  0.00     0.124 S 
ATOM     82  O   UNL     1      -9.876   9.689  11.632  1.00  0.00    -0.237 OA
ATOM     83  O   UNL     1      -7.737  10.092  12.803  1.00  0.00    -0.237 OA
ATOM     84  O   UNL     1      -7.766   9.776  10.360  1.00  0.00    -0.744 OA
ENDBRANCH  80  81
ENDBRANCH  52  75
BRANCH  64  85
ATOM     85  C   UNL     1      -6.193  -0.372  15.449  1.00  0.00    -0.014 A 
ATOM     86  C   UNL     1      -7.024  -0.659  14.348  1.00  0.00     0.010 A 
ATOM     87  C   UNL     1      -6.298  -1.183  16.593  1.00  0.00     0.010 A 
ATOM     88  C   UNL     1      -7.950  -1.716  14.405  1.00  0.00     0.020 A 
ATOM     89  C   UNL     1      -7.201  -2.245  16.650  1.00  0.00     0.020 A 
ATOM     90  C   UNL     1      -8.031  -2.502  15.560  1.00  0.00     0.054 A 
BRANCH  90  91
ATOM     91  S   UNL     1      -9.203  -3.888  15.626  1.00  0.00     0.124 S 
ATOM     92  O   UNL     1     -10.496  -3.211  15.627  1.00  0.00    -0.237 OA
ATOM     93  O   UNL     1      -8.886  -4.640  14.414  1.00  0.00    -0.237 OA
ATOM     94  O   UNL     1      -8.863  -4.572  16.874  1.00  0.00    -0.744 OA
ENDBRANCH  90  91
ENDBRANCH  64  85
ENDBRANCH  38  39
ENDBRANCH  30  33
ENDBRANCH  28  29
ENDBRANCH   1  28
TORSDOF 16
