REMARK SMILES Cc1cccc(OC2(C(=O)NCCCNC(=O)c3ccc(-c4c5nc(c(-c6ccc(S(=O)(=O)[O-])cc6)c6ccc([nH]6)c(-c6ccc(S(=O)(=O)[O-])cc6)c6nc(c(-c7ccc(S(=O)(=O)[O-])cc7)c7ccc4[nH]7)C=C6)C=C5)cc3)CCN(C(=O)c3cnc[nH]c3=O)CC2)c1
REMARK SMILES IDX 13 1 12 2 11 3 9 4 10 5 8 7 78 8 91 9 79 10 90 11 80 12
REMARK SMILES IDX 81 13 82 14 7 15 6 16 1 17 2 18 3 19 92 20 4 21 5 22 83 23
REMARK SMILES IDX 84 24 88 25 85 26 87 27 89 28 86 29 14 31 15 32 16 33 17 35
REMARK SMILES IDX 18 36 19 37 77 38 20 39 76 40 21 41 22 42 23 43 70 44 24 45
REMARK SMILES IDX 75 46 69 47 71 48 25 49 74 50 68 51 67 52 26 54 56 55 37 56
REMARK SMILES IDX 55 57 38 58 41 59 54 60 72 61 39 62 40 63 53 65 73 66 42 67
REMARK SMILES IDX 27 68 28 69 36 70 29 71 35 72 30 73 31 74 32 75 33 76 34 77
REMARK SMILES IDX 57 78 58 79 66 80 59 81 65 82 60 83 61 84 62 85 63 86 64 87
REMARK SMILES IDX 43 88 44 89 52 90 45 91 51 92 46 93 47 94 48 95 49 96 50 97
REMARK H PARENT 11 6 87 30 15 34 71 53 41 64
REMARK Flexibility Score: inf
ROOT
ATOM      1  C   UNL     1       1.248   6.447  -1.819  1.00  0.00     0.042 C 
ENDROOT
BRANCH   1   2
ATOM      2  C   UNL     1      -0.261   6.582  -1.589  1.00  0.00     0.118 C 
BRANCH   2   3
ATOM      3  N   UNL     1      -1.030   5.372  -1.927  1.00  0.00    -0.353 N 
ATOM      4  C   UNL     1      -1.356   4.210  -1.286  1.00  0.00     0.264 C 
ATOM      5  O   UNL     1      -2.240   3.544  -1.846  1.00  0.00    -0.270 OA
ATOM      6  H   UNL     1      -1.401   5.410  -2.839  1.00  0.00     0.163 HD
BRANCH   4   7
ATOM      7  C   UNL     1      -0.734   3.715   0.066  1.00  0.00     0.190 C 
ATOM      8  C   UNL     1       0.764   3.997   0.141  1.00  0.00     0.080 C 
ATOM      9  C   UNL     1      -1.435   4.450   1.244  1.00  0.00     0.080 C 
ATOM     10  C   UNL     1       1.387   3.697   1.487  1.00  0.00     0.124 C 
ATOM     11  C   UNL     1      -0.757   4.118   2.588  1.00  0.00     0.124 C 
ATOM     12  N   UNL     1       0.665   4.438   2.500  1.00  0.00    -0.338 N 
ATOM     13  C   UNL     1       1.258   5.560   3.050  1.00  0.00     0.261 C 
ATOM     14  O   UNL     1       2.192   6.164   2.530  1.00  0.00    -0.269 OA
BRANCH   7  15
ATOM     15  O   UNL     1      -1.168   2.348   0.254  1.00  0.00    -0.477 OA
BRANCH  15  16
ATOM     16  C   UNL     1      -0.563   1.158   0.029  1.00  0.00     0.121 A 
ATOM     17  C   UNL     1       2.753  -0.700  -0.166  1.00  0.00     0.044 C 
ATOM     18  C   UNL     1       1.275  -0.438  -0.127  1.00  0.00    -0.047 A 
ATOM     19  C   UNL     1       0.376  -1.502  -0.046  1.00  0.00     0.003 A 
ATOM     20  C   UNL     1       0.788   0.883  -0.139  1.00  0.00     0.049 A 
ATOM     21  C   UNL     1      -0.988  -1.248   0.043  1.00  0.00     0.004 A 
ATOM     22  C   UNL     1      -1.446   0.071   0.095  1.00  0.00     0.046 A 
ENDBRANCH  15  16
ENDBRANCH   7  15
BRANCH  13  23
ATOM     23  C   UNL     1       0.785   5.950   4.384  1.00  0.00     0.123 A 
ATOM     24  C   UNL     1       0.202   7.139   4.590  1.00  0.00     0.132 A 
ATOM     25  C   UNL     1       1.036   5.099   5.559  1.00  0.00     0.263 A 
ATOM     26  N   UNL     1      -0.223   7.602   5.815  1.00  0.00    -0.246 NA
ATOM     27  N   UNL     1       0.632   5.630   6.751  1.00  0.00    -0.312 N 
ATOM     28  O   UNL     1       1.569   3.996   5.505  1.00  0.00    -0.269 OA
ATOM     29  C   UNL     1       0.020   6.845   6.830  1.00  0.00     0.199 A 
ATOM     30  H   UNL     1       0.789   5.120   7.578  1.00  0.00     0.171 HD
ENDBRANCH  13  23
ENDBRANCH   4   7
ENDBRANCH   2   3
ENDBRANCH   1   2
BRANCH   1  31
ATOM     31  C   UNL     1       1.843   7.339  -2.901  1.00  0.00     0.118 C 
BRANCH  31  32
ATOM     32  N   UNL     1       2.593   8.474  -2.353  1.00  0.00    -0.352 N 
ATOM     33  C   UNL     1       3.765   9.040  -2.819  1.00  0.00     0.251 C 
ATOM     34  H   UNL     1       2.211   8.888  -1.545  1.00  0.00     0.163 HD
ATOM     35  O   UNL     1       4.346   9.974  -2.279  1.00  0.00    -0.269 OA
BRANCH  33  36
ATOM     36  C   UNL     1       4.273   8.504  -4.091  1.00  0.00     0.039 A 
ATOM     37  C   UNL     1       3.796   9.128  -5.248  1.00  0.00     0.014 A 
ATOM     38  C   UNL     1       4.762   7.197  -4.096  1.00  0.00     0.014 A 
ATOM     39  C   UNL     1       3.570   8.352  -6.373  1.00  0.00     0.010 A 
ATOM     40  C   UNL     1       4.485   6.416  -5.204  1.00  0.00     0.010 A 
ATOM     41  C   UNL     1       3.804   6.976  -6.296  1.00  0.00    -0.014 A 
BRANCH  41  42
ATOM     42  C   UNL     1       3.202   6.053  -7.249  1.00  0.00     0.031 A 
ATOM     43  C   UNL     1       4.028   5.475  -8.322  1.00  0.00     0.074 A 
ATOM     44  C   UNL     1       1.875   5.787  -7.225  1.00  0.00     0.049 A 
ATOM     45  N   UNL     1       3.574   5.194  -9.496  1.00  0.00    -0.248 NA
ATOM     46  C   UNL     1       5.457   5.232  -8.171  1.00  0.00     0.031 C 
ATOM     47  C   UNL     1       1.162   4.786  -8.014  1.00  0.00     0.029 A 
ATOM     48  N   UNL     1       0.864   6.536  -6.633  1.00  0.00    -0.354 N 
ATOM     49  C   UNL     1       4.554   4.496 -10.152  1.00  0.00     0.074 A 
ATOM     50  C   UNL     1       5.734   4.616  -9.324  1.00  0.00     0.031 C 
ATOM     51  C   UNL     1      -0.139   5.112  -8.053  1.00  0.00     0.029 A 
ATOM     52  C   UNL     1      -0.304   6.398  -7.396  1.00  0.00     0.049 A 
ATOM     53  H   UNL     1       0.954   7.075  -5.814  1.00  0.00     0.167 HD
ATOM     54  C   UNL     1       4.249   3.768 -11.260  1.00  0.00     0.031 A 
ATOM     55  C   UNL     1      -0.916   7.487  -7.946  1.00  0.00     0.031 A 
ATOM     56  C   UNL     1       2.837   3.861 -11.624  1.00  0.00     0.049 A 
ATOM     57  C   UNL     1      -0.878   7.521  -9.465  1.00  0.00     0.074 A 
ATOM     58  C   UNL     1       1.745   3.019 -11.490  1.00  0.00     0.029 A 
ATOM     59  N   UNL     1       2.319   5.099 -11.965  1.00  0.00    -0.354 N 
ATOM     60  N   UNL     1      -0.349   6.590 -10.213  1.00  0.00    -0.248 NA
ATOM     61  C   UNL     1      -1.363   8.649 -10.262  1.00  0.00     0.031 C 
ATOM     62  C   UNL     1       0.565   3.766 -11.775  1.00  0.00     0.029 A 
ATOM     63  C   UNL     1       0.944   5.054 -12.098  1.00  0.00     0.049 A 
ATOM     64  H   UNL     1       2.862   5.910 -12.097  1.00  0.00     0.167 HD
ATOM     65  C   UNL     1      -0.347   6.992 -11.525  1.00  0.00     0.074 A 
ATOM     66  C   UNL     1      -1.012   8.281 -11.508  1.00  0.00     0.031 C 
ATOM     67  C   UNL     1       0.245   6.260 -12.516  1.00  0.00     0.031 A 
BRANCH  54  68
ATOM     68  C   UNL     1       5.218   2.760 -11.817  1.00  0.00    -0.014 A 
ATOM     69  C   UNL     1       4.749   1.520 -12.286  1.00  0.00     0.010 A 
ATOM     70  C   UNL     1       6.612   2.962 -11.837  1.00  0.00     0.010 A 
ATOM     71  C   UNL     1       5.628   0.486 -12.634  1.00  0.00     0.020 A 
ATOM     72  C   UNL     1       7.504   1.923 -12.139  1.00  0.00     0.020 A 
ATOM     73  C   UNL     1       7.003   0.682 -12.521  1.00  0.00     0.054 A 
BRANCH  73  74
ATOM     74  S   UNL     1       8.116  -0.711 -12.842  1.00  0.00     0.124 S 
ATOM     75  O   UNL     1       7.556  -1.765 -11.998  1.00  0.00    -0.237 OA
ATOM     76  O   UNL     1       7.964  -0.908 -14.280  1.00  0.00    -0.237 OA
ATOM     77  O   UNL     1       9.423  -0.215 -12.415  1.00  0.00    -0.744 OA
ENDBRANCH  73  74
ENDBRANCH  54  68
BRANCH  55  78
ATOM     78  C   UNL     1      -0.969   8.665  -7.034  1.00  0.00    -0.014 A 
ATOM     79  C   UNL     1      -1.901   8.625  -5.974  1.00  0.00     0.010 A 
ATOM     80  C   UNL     1       0.085   9.592  -6.965  1.00  0.00     0.010 A 
ATOM     81  C   UNL     1      -1.715   9.395  -4.821  1.00  0.00     0.020 A 
ATOM     82  C   UNL     1       0.278  10.363  -5.806  1.00  0.00     0.020 A 
ATOM     83  C   UNL     1      -0.594  10.219  -4.722  1.00  0.00     0.054 A 
BRANCH  83  84
ATOM     84  S   UNL     1      -0.251  11.024  -3.126  1.00  0.00     0.124 S 
ATOM     85  O   UNL     1      -1.539  11.624  -2.792  1.00  0.00    -0.237 OA
ATOM     86  O   UNL     1       0.138   9.892  -2.284  1.00  0.00    -0.237 OA
ATOM     87  O   UNL     1       0.817  11.963  -3.445  1.00  0.00    -0.744 OA
ENDBRANCH  83  84
ENDBRANCH  55  78
BRANCH  67  88
ATOM     88  C   UNL     1       0.280   6.628 -13.983  1.00  0.00    -0.014 A 
ATOM     89  C   UNL     1      -0.766   7.287 -14.648  1.00  0.00     0.010 A 
ATOM     90  C   UNL     1       1.364   6.188 -14.782  1.00  0.00     0.010 A 
ATOM     91  C   UNL     1      -0.693   7.560 -16.025  1.00  0.00     0.020 A 
ATOM     92  C   UNL     1       1.440   6.437 -16.154  1.00  0.00     0.020 A 
ATOM     93  C   UNL     1       0.417   7.143 -16.766  1.00  0.00     0.054 A 
BRANCH  93  94
ATOM     94  S   UNL     1       0.488   7.496 -18.540  1.00  0.00     0.124 S 
ATOM     95  O   UNL     1      -0.812   7.025 -19.010  1.00  0.00    -0.237 OA
ATOM     96  O   UNL     1       0.675   8.944 -18.554  1.00  0.00    -0.237 OA
ATOM     97  O   UNL     1       1.633   6.717 -19.008  1.00  0.00    -0.744 OA
ENDBRANCH  93  94
ENDBRANCH  67  88
ENDBRANCH  41  42
ENDBRANCH  33  36
ENDBRANCH  31  32
ENDBRANCH   1  31
TORSDOF 16
