REMARK SMILES Cc1cc([C@H]([NH3+])C(=O)NCCCNC(=O)c2ccc(-c3c4nc(c(-c5ccc(S(=O)(=O)[O-])cc5)c5ccc([nH]5)c(-c5ccc(S(=O)(=O)[O-])cc5)c5nc(c(-c6ccc(S(=O)(=O)[O-])cc6)c6ccc3[nH]6)C=C5)C=C4)cc2)ccc1F
REMARK SMILES IDX 12 1 11 2 10 3 9 4 7 5 8 6 5 8 4 9 1 10 2 11 3 12 78 13
REMARK SMILES IDX 77 14 79 15 76 16 6 17 13 21 14 22 15 24 16 25 17 26 75 27
REMARK SMILES IDX 18 28 74 29 19 30 20 31 21 32 68 33 22 34 73 35 67 36 69 37
REMARK SMILES IDX 23 38 72 39 66 40 65 41 24 43 54 44 35 45 53 46 36 47 39 48
REMARK SMILES IDX 52 49 70 50 37 51 38 52 51 54 71 55 40 56 25 57 26 58 34 59
REMARK SMILES IDX 27 60 33 61 28 62 29 63 30 64 31 65 32 66 55 67 56 68 64 69
REMARK SMILES IDX 57 70 63 71 58 72 59 73 60 74 61 75 62 76 41 77 42 78 50 79
REMARK SMILES IDX 43 80 49 81 44 82 45 83 46 84 47 85 48 86
REMARK H PARENT 9 7 6 18 6 19 6 20 13 23 69 42 39 53
REMARK Flexibility Score: inf
ROOT
ATOM      1  C   UNL     1      -3.721  -3.393   2.755  1.00  0.00     0.118 C 
ENDROOT
BRANCH   1   2
ATOM      2  C   UNL     1      -2.858  -2.734   1.698  1.00  0.00     0.042 C 
BRANCH   2   3
ATOM      3  C   UNL     1      -3.597  -1.802   0.762  1.00  0.00     0.118 C 
BRANCH   3   4
ATOM      4  N   UNL     1      -4.117  -0.597   1.374  1.00  0.00    -0.351 N 
ATOM      5  C   UNL     1      -4.120   0.676   0.866  1.00  0.00     0.283 C 
ATOM      6  O   UNL     1      -4.757   1.532   1.493  1.00  0.00    -0.268 OA
ATOM      7  H   UNL     1      -4.519  -0.706   2.266  1.00  0.00     0.163 HD
BRANCH   5   8
ATOM      8  C   UNL     1      -3.360   1.061  -0.440  1.00  0.00     0.302 C 
BRANCH   8   9
ATOM      9  C   UNL     1      -4.076   0.620  -1.710  1.00  0.00     0.019 A 
ATOM     10  C   UNL     1      -4.636  -2.542  -3.769  1.00  0.00     0.047 C 
ATOM     11  C   UNL     1      -4.710  -1.113  -3.325  1.00  0.00    -0.015 A 
ATOM     12  C   UNL     1      -3.921  -0.663  -2.263  1.00  0.00     0.017 A 
ATOM     13  C   UNL     1      -5.558  -0.204  -3.947  1.00  0.00     0.126 A 
ATOM     14  C   UNL     1      -5.673   1.102  -3.481  1.00  0.00     0.040 A 
ATOM     15  F   UNL     1      -6.284  -0.583  -5.009  1.00  0.00    -0.207 F 
ATOM     16  C   UNL     1      -4.962   1.503  -2.348  1.00  0.00     0.013 A 
ENDBRANCH   8   9
BRANCH   8  17
ATOM     17  N   UNL     1      -1.944   0.647  -0.389  1.00  0.00    -0.343 N 
ATOM     18  H   UNL     1      -1.889  -0.370  -0.340  1.00  0.00     0.345 HD
ATOM     19  H   UNL     1      -1.501   1.052   0.436  1.00  0.00     0.345 HD
ATOM     20  H   UNL     1      -1.464   0.974  -1.228  1.00  0.00     0.345 HD
ENDBRANCH   8  17
ENDBRANCH   5   8
ENDBRANCH   3   4
ENDBRANCH   2   3
ENDBRANCH   1   2
BRANCH   1  21
ATOM     21  N   UNL     1      -4.720  -4.302   2.208  1.00  0.00    -0.352 N 
ATOM     22  C   UNL     1      -4.822  -5.676   2.249  1.00  0.00     0.251 C 
ATOM     23  H   UNL     1      -5.451  -3.856   1.722  1.00  0.00     0.163 HD
ATOM     24  O   UNL     1      -5.693  -6.228   1.588  1.00  0.00    -0.269 OA
BRANCH  22  25
ATOM     25  C   UNL     1      -3.872  -6.490   3.046  1.00  0.00     0.039 A 
ATOM     26  C   UNL     1      -3.443  -7.719   2.537  1.00  0.00     0.014 A 
ATOM     27  C   UNL     1      -3.403  -6.063   4.287  1.00  0.00     0.014 A 
ATOM     28  C   UNL     1      -2.479  -8.461   3.227  1.00  0.00     0.010 A 
ATOM     29  C   UNL     1      -2.353  -6.733   4.905  1.00  0.00     0.010 A 
ATOM     30  C   UNL     1      -1.883  -7.947   4.390  1.00  0.00    -0.014 A 
BRANCH  30  31
ATOM     31  C   UNL     1      -0.775  -8.663   5.079  1.00  0.00     0.031 A 
ATOM     32  C   UNL     1      -0.920  -9.089   6.518  1.00  0.00     0.074 A 
ATOM     33  C   UNL     1       0.387  -8.876   4.427  1.00  0.00     0.049 A 
ATOM     34  N   UNL     1      -0.051  -9.693   7.290  1.00  0.00    -0.248 NA
ATOM     35  C   UNL     1      -2.191  -8.769   7.189  1.00  0.00     0.031 C 
ATOM     36  C   UNL     1       0.679  -8.457   3.053  1.00  0.00     0.029 A 
ATOM     37  N   UNL     1       1.541  -9.499   4.832  1.00  0.00    -0.354 N 
ATOM     38  C   UNL     1      -0.663  -9.807   8.533  1.00  0.00     0.074 A 
ATOM     39  C   UNL     1      -1.948  -9.153   8.434  1.00  0.00     0.031 C 
ATOM     40  C   UNL     1       1.909  -8.874   2.716  1.00  0.00     0.029 A 
ATOM     41  C   UNL     1       2.513  -9.548   3.860  1.00  0.00     0.049 A 
ATOM     42  H   UNL     1       1.662  -9.875   5.734  1.00  0.00     0.167 HD
ATOM     43  C   UNL     1      -0.211 -10.423   9.652  1.00  0.00     0.031 A 
ATOM     44  C   UNL     1       3.753 -10.076   3.884  1.00  0.00     0.031 A 
ATOM     45  C   UNL     1       1.062 -11.088   9.744  1.00  0.00     0.049 A 
ATOM     46  C   UNL     1       4.232 -10.758   5.136  1.00  0.00     0.074 A 
ATOM     47  C   UNL     1       1.586 -11.798  10.810  1.00  0.00     0.029 A 
ATOM     48  N   UNL     1       2.012 -11.123   8.735  1.00  0.00    -0.354 N 
ATOM     49  N   UNL     1       3.604 -10.924   6.276  1.00  0.00    -0.248 NA
ATOM     50  C   UNL     1       5.581 -11.338   5.098  1.00  0.00     0.031 C 
ATOM     51  C   UNL     1       2.877 -12.212  10.466  1.00  0.00     0.029 A 
ATOM     52  C   UNL     1       3.131 -11.818   9.162  1.00  0.00     0.049 A 
ATOM     53  H   UNL     1       1.906 -10.714   7.845  1.00  0.00     0.167 HD
ATOM     54  C   UNL     1       4.475 -11.646   7.085  1.00  0.00     0.074 A 
ATOM     55  C   UNL     1       5.660 -11.906   6.293  1.00  0.00     0.031 C 
ATOM     56  C   UNL     1       4.309 -12.057   8.367  1.00  0.00     0.031 A 
BRANCH  43  57
ATOM     57  C   UNL     1      -1.104 -10.407  10.867  1.00  0.00    -0.014 A 
ATOM     58  C   UNL     1      -2.314 -11.124  10.891  1.00  0.00     0.010 A 
ATOM     59  C   UNL     1      -0.710  -9.696  12.015  1.00  0.00     0.010 A 
ATOM     60  C   UNL     1      -3.135 -11.094  12.022  1.00  0.00     0.020 A 
ATOM     61  C   UNL     1      -1.513  -9.689  13.160  1.00  0.00     0.020 A 
ATOM     62  C   UNL     1      -2.729 -10.375  13.150  1.00  0.00     0.054 A 
BRANCH  62  63
ATOM     63  S   UNL     1      -3.802 -10.376  14.612  1.00  0.00     0.124 S 
ATOM     64  O   UNL     1      -4.913  -9.537  14.169  1.00  0.00    -0.237 OA
ATOM     65  O   UNL     1      -4.114 -11.793  14.779  1.00  0.00    -0.237 OA
ATOM     66  O   UNL     1      -2.964  -9.797  15.659  1.00  0.00    -0.744 OA
ENDBRANCH  62  63
ENDBRANCH  43  57
BRANCH  44  67
ATOM     67  C   UNL     1       4.619  -9.998   2.674  1.00  0.00    -0.014 A 
ATOM     68  C   UNL     1       4.926 -11.155   1.937  1.00  0.00     0.010 A 
ATOM     69  C   UNL     1       5.133  -8.760   2.245  1.00  0.00     0.010 A 
ATOM     70  C   UNL     1       5.745 -11.081   0.806  1.00  0.00     0.020 A 
ATOM     71  C   UNL     1       5.926  -8.677   1.097  1.00  0.00     0.020 A 
ATOM     72  C   UNL     1       6.237  -9.840   0.392  1.00  0.00     0.054 A 
BRANCH  72  73
ATOM     73  S   UNL     1       7.255  -9.760  -1.108  1.00  0.00     0.124 S 
ATOM     74  O   UNL     1       8.508 -10.358  -0.658  1.00  0.00    -0.237 OA
ATOM     75  O   UNL     1       6.479 -10.553  -2.058  1.00  0.00    -0.237 OA
ATOM     76  O   UNL     1       7.314  -8.330  -1.405  1.00  0.00    -0.744 OA
ENDBRANCH  72  73
ENDBRANCH  44  67
BRANCH  56  77
ATOM     77  C   UNL     1       5.428 -12.853   8.985  1.00  0.00    -0.014 A 
ATOM     78  C   UNL     1       6.658 -12.252   9.309  1.00  0.00     0.010 A 
ATOM     79  C   UNL     1       5.233 -14.215   9.277  1.00  0.00     0.010 A 
ATOM     80  C   UNL     1       7.688 -13.011   9.871  1.00  0.00     0.020 A 
ATOM     81  C   UNL     1       6.249 -14.969   9.870  1.00  0.00     0.020 A 
ATOM     82  C   UNL     1       7.477 -14.366  10.145  1.00  0.00     0.054 A 
BRANCH  82  83
ATOM     83  S   UNL     1       8.822 -15.323  10.895  1.00  0.00     0.124 S 
ATOM     84  O   UNL     1       9.751 -15.469   9.777  1.00  0.00    -0.237 OA
ATOM     85  O   UNL     1       9.273 -14.450  11.977  1.00  0.00    -0.237 OA
ATOM     86  O   UNL     1       8.170 -16.557  11.329  1.00  0.00    -0.744 OA
ENDBRANCH  82  83
ENDBRANCH  56  77
ENDBRANCH  30  31
ENDBRANCH  22  25
ENDBRANCH   1  21
TORSDOF 15
