REMARK SMILES O=C(/C=C/C(=O)c1ccc(F)c(Br)c1)NCCCNC(=O)c1ccc(-c2c3nc(c(-c4ccc(S(=O)(=O)[O-])cc4)c4ccc([nH]4)c(-c4ccc(S(=O)(=O)[O-])cc4)c4nc(c(-c5ccc(S(=O)(=O)[O-])cc5)c5ccc2[nH]5)C=C4)C=C3)cc1
REMARK SMILES IDX 17 1 16 2 15 3 1 4 2 5 3 7 4 8 5 9 6 10 7 11 8 12 14 13 9 14
REMARK SMILES IDX 12 15 10 16 13 17 11 18 18 19 19 20 20 21 21 23 22 24 23 25
REMARK SMILES IDX 81 26 24 27 80 28 25 29 26 30 27 31 74 32 28 33 79 34 73 35
REMARK SMILES IDX 75 36 29 37 78 38 72 39 71 40 30 42 60 43 41 44 59 45 42 46
REMARK SMILES IDX 45 47 58 48 76 49 43 50 44 51 57 53 77 54 46 55 31 56 32 57
REMARK SMILES IDX 40 58 33 59 39 60 34 61 35 62 36 63 37 64 38 65 61 66 62 67
REMARK SMILES IDX 70 68 63 69 69 70 64 71 65 72 66 73 67 74 68 75 47 76 48 77
REMARK SMILES IDX 56 78 49 79 55 80 50 81 51 82 52 83 53 84 54 85
REMARK H PARENT 15 6 19 22 75 41 45 52
REMARK Flexibility Score: inf
ROOT
ATOM      1  C   UNL     1       2.474   1.214  -3.180  1.00  0.00     0.042 C 
ENDROOT
BRANCH   1   2
ATOM      2  C   UNL     1       2.236  -0.100  -2.444  1.00  0.00     0.118 C 
BRANCH   2   3
ATOM      3  N   UNL     1       2.922  -0.146  -1.166  1.00  0.00    -0.352 N 
ATOM      4  O   UNL     1       1.050   0.197   0.114  1.00  0.00    -0.270 OA
ATOM      5  C   UNL     1       2.260   0.024   0.018  1.00  0.00     0.244 C 
ATOM      6  H   UNL     1       3.894  -0.304  -1.151  1.00  0.00     0.163 HD
BRANCH   5   7
ATOM      7  C   UNL     1       3.072  -0.001   1.261  1.00  0.00     0.075 C 
ATOM      8  C   UNL     1       4.371  -0.310   1.370  1.00  0.00     0.058 C 
BRANCH   8   9
ATOM      9  C   UNL     1       5.125  -0.304   2.651  1.00  0.00     0.186 C 
ATOM     10  O   UNL     1       6.345  -0.169   2.629  1.00  0.00    -0.289 OA
BRANCH   9  11
ATOM     11  C   UNL     1       4.433  -0.464   3.950  1.00  0.00     0.023 A 
ATOM     12  C   UNL     1       3.424  -1.421   4.131  1.00  0.00     0.015 A 
ATOM     13  C   UNL     1       4.851   0.332   5.025  1.00  0.00     0.031 A 
ATOM     14  C   UNL     1       2.800  -1.544   5.373  1.00  0.00     0.041 A 
ATOM     15  C   UNL     1       4.225   0.199   6.264  1.00  0.00     0.054 A 
ATOM     16  C   UNL     1       3.200  -0.731   6.431  1.00  0.00     0.137 A 
ATOM     17  Br  UNL     1       4.778   1.288   7.708  1.00  0.00    -0.048 Br
ATOM     18  F   UNL     1       2.583  -0.870   7.614  1.00  0.00    -0.206 F 
ENDBRANCH   9  11
ENDBRANCH   8   9
ENDBRANCH   5   7
ENDBRANCH   2   3
ENDBRANCH   1   2
BRANCH   1  19
ATOM     19  C   UNL     1       3.934   1.483  -3.536  1.00  0.00     0.118 C 
BRANCH  19  20
ATOM     20  N   UNL     1       4.492   0.500  -4.456  1.00  0.00    -0.352 N 
ATOM     21  C   UNL     1       5.186   0.691  -5.627  1.00  0.00     0.251 C 
ATOM     22  H   UNL     1       4.350  -0.440  -4.201  1.00  0.00     0.163 HD
ATOM     23  O   UNL     1       5.459  -0.276  -6.333  1.00  0.00    -0.269 OA
BRANCH  21  24
ATOM     24  C   UNL     1       5.578   2.053  -6.050  1.00  0.00     0.039 A 
ATOM     25  C   UNL     1       5.372   2.433  -7.380  1.00  0.00     0.014 A 
ATOM     26  C   UNL     1       6.147   2.954  -5.146  1.00  0.00     0.014 A 
ATOM     27  C   UNL     1       5.668   3.737  -7.786  1.00  0.00     0.010 A 
ATOM     28  C   UNL     1       6.378   4.271  -5.535  1.00  0.00     0.010 A 
ATOM     29  C   UNL     1       6.138   4.679  -6.857  1.00  0.00    -0.014 A 
BRANCH  29  30
ATOM     30  C   UNL     1       6.384   6.095  -7.234  1.00  0.00     0.031 A 
ATOM     31  C   UNL     1       7.775   6.665  -7.148  1.00  0.00     0.074 A 
ATOM     32  C   UNL     1       5.349   6.893  -7.565  1.00  0.00     0.049 A 
ATOM     33  N   UNL     1       8.171   7.903  -7.300  1.00  0.00    -0.248 NA
ATOM     34  C   UNL     1       8.858   5.723  -6.823  1.00  0.00     0.031 C 
ATOM     35  C   UNL     1       3.949   6.472  -7.661  1.00  0.00     0.029 A 
ATOM     36  N   UNL     1       5.313   8.232  -7.864  1.00  0.00    -0.354 N 
ATOM     37  C   UNL     1       9.540   7.894  -7.062  1.00  0.00     0.074 A 
ATOM     38  C   UNL     1       9.900   6.535  -6.719  1.00  0.00     0.031 C 
ATOM     39  C   UNL     1       3.195   7.528  -8.009  1.00  0.00     0.029 A 
ATOM     40  C   UNL     1       4.047   8.708  -8.114  1.00  0.00     0.049 A 
ATOM     41  H   UNL     1       6.117   8.799  -7.897  1.00  0.00     0.167 HD
ATOM     42  C   UNL     1      10.422   8.920  -7.135  1.00  0.00     0.031 A 
ATOM     43  C   UNL     1       3.615   9.957  -8.380  1.00  0.00     0.031 A 
ATOM     44  C   UNL     1      10.065  10.267  -7.492  1.00  0.00     0.049 A 
ATOM     45  C   UNL     1       4.610  11.083  -8.446  1.00  0.00     0.074 A 
ATOM     46  C   UNL     1      10.894  11.366  -7.640  1.00  0.00     0.029 A 
ATOM     47  N   UNL     1       8.776  10.701  -7.761  1.00  0.00    -0.354 N 
ATOM     48  N   UNL     1       5.908  11.046  -8.259  1.00  0.00    -0.248 NA
ATOM     49  C   UNL     1       4.085  12.417  -8.767  1.00  0.00     0.031 C 
ATOM     50  C   UNL     1      10.100  12.473  -7.954  1.00  0.00     0.029 A 
ATOM     51  C   UNL     1       8.784  12.053  -8.057  1.00  0.00     0.049 A 
ATOM     52  H   UNL     1       7.973  10.131  -7.743  1.00  0.00     0.167 HD
ATOM     53  C   UNL     1       6.358  12.345  -8.472  1.00  0.00     0.074 A 
ATOM     54  C   UNL     1       5.195  13.141  -8.809  1.00  0.00     0.031 C 
ATOM     55  C   UNL     1       7.621  12.832  -8.400  1.00  0.00     0.031 A 
BRANCH  42  56
ATOM     56  C   UNL     1      11.862   8.622  -6.811  1.00  0.00    -0.014 A 
ATOM     57  C   UNL     1      12.657   7.847  -7.675  1.00  0.00     0.010 A 
ATOM     58  C   UNL     1      12.439   9.153  -5.643  1.00  0.00     0.010 A 
ATOM     59  C   UNL     1      13.988   7.570  -7.353  1.00  0.00     0.020 A 
ATOM     60  C   UNL     1      13.779   8.902  -5.332  1.00  0.00     0.020 A 
ATOM     61  C   UNL     1      14.539   8.095  -6.181  1.00  0.00     0.054 A 
BRANCH  61  62
ATOM     62  S   UNL     1      16.273   7.730  -5.795  1.00  0.00     0.124 S 
ATOM     63  O   UNL     1      16.200   6.333  -5.374  1.00  0.00    -0.237 OA
ATOM     64  O   UNL     1      16.943   7.965  -7.072  1.00  0.00    -0.237 OA
ATOM     65  O   UNL     1      16.602   8.683  -4.738  1.00  0.00    -0.744 OA
ENDBRANCH  61  62
ENDBRANCH  42  56
BRANCH  43  66
ATOM     66  C   UNL     1       2.166  10.207  -8.614  1.00  0.00    -0.014 A 
ATOM     67  C   UNL     1       1.697  10.515  -9.903  1.00  0.00     0.010 A 
ATOM     68  C   UNL     1       1.246  10.128  -7.553  1.00  0.00     0.010 A 
ATOM     69  C   UNL     1       0.338  10.758 -10.124  1.00  0.00     0.020 A 
ATOM     70  C   UNL     1      -0.117  10.343  -7.774  1.00  0.00     0.020 A 
ATOM     71  C   UNL     1      -0.561  10.668  -9.057  1.00  0.00     0.054 A 
BRANCH  71  72
ATOM     72  S   UNL     1      -2.327  10.935  -9.377  1.00  0.00     0.124 S 
ATOM     73  O   UNL     1      -2.389  12.383  -9.548  1.00  0.00    -0.237 OA
ATOM     74  O   UNL     1      -2.553  10.144 -10.585  1.00  0.00    -0.237 OA
ATOM     75  O   UNL     1      -2.974  10.416  -8.173  1.00  0.00    -0.744 OA
ENDBRANCH  71  72
ENDBRANCH  43  66
BRANCH  55  76
ATOM     76  C   UNL     1       7.828  14.284  -8.739  1.00  0.00    -0.014 A 
ATOM     77  C   UNL     1       7.431  15.305  -7.859  1.00  0.00     0.010 A 
ATOM     78  C   UNL     1       8.493  14.625  -9.931  1.00  0.00     0.010 A 
ATOM     79  C   UNL     1       7.673  16.644  -8.178  1.00  0.00     0.020 A 
ATOM     80  C   UNL     1       8.759  15.961 -10.241  1.00  0.00     0.020 A 
ATOM     81  C   UNL     1       8.336  16.963  -9.367  1.00  0.00     0.054 A 
BRANCH  81  82
ATOM     82  S   UNL     1       8.688  18.705  -9.732  1.00  0.00     0.124 S 
ATOM     83  O   UNL     1       7.372  19.206 -10.120  1.00  0.00    -0.237 OA
ATOM     84  O   UNL     1       9.199  19.204  -8.458  1.00  0.00    -0.237 OA
ATOM     85  O   UNL     1       9.673  18.641 -10.809  1.00  0.00    -0.744 OA
ENDBRANCH  81  82
ENDBRANCH  55  76
ENDBRANCH  29  30
ENDBRANCH  21  24
ENDBRANCH  19  20
ENDBRANCH   1  19
TORSDOF 15
