REMARK SMILES Cc1nc(CSCC(=O)N2CCCC[C@@H]2C(=O)NCCCNC(=O)c2ccc(-c3c4nc(c(-c5ccc(S(=O)(=O)[O-])cc5)c5ccc([nH]5)c(-c5ccc(S(=O)(=O)[O-])cc5)c5nc(c(-c6ccc(S(=O)(=O)[O-])cc6)c6ccc3[nH]6)C=C5)C=C4)cc2)cs1
REMARK SMILES IDX 19 1 18 2 16 3 17 4 15 6 10 7 11 8 12 9 14 10 13 11 8 12
REMARK SMILES IDX 9 13 7 14 6 15 5 16 4 17 1 18 2 19 3 20 86 21 85 22 20 23
REMARK SMILES IDX 21 24 22 25 23 26 24 28 25 29 26 30 84 31 27 32 83 33 28 34
REMARK SMILES IDX 29 35 30 36 77 37 31 38 82 39 76 40 78 41 32 42 81 43 75 44
REMARK SMILES IDX 74 45 33 47 63 48 44 49 62 50 45 51 48 52 61 53 79 54 46 55
REMARK SMILES IDX 47 56 60 58 80 59 49 60 34 61 35 62 43 63 36 64 42 65 37 66
REMARK SMILES IDX 38 67 39 68 40 69 41 70 64 71 65 72 73 73 66 74 72 75 67 76
REMARK SMILES IDX 68 77 69 78 70 79 71 80 50 81 51 82 59 83 52 84 58 85 53 86
REMARK SMILES IDX 54 87 55 88 56 89 57 90
REMARK H PARENT 18 5 22 27 78 46 48 57
REMARK Flexibility Score: inf
ROOT
ATOM      1  C   UNL     1       0.852  -5.192  -0.092  1.00  0.00     0.117 C 
ENDROOT
BRANCH   1   2
ATOM      2  N   UNL     1       2.212  -4.750   0.198  1.00  0.00    -0.354 N 
ATOM      3  C   UNL     1       3.293  -4.644  -0.629  1.00  0.00     0.242 C 
ATOM      4  O   UNL     1       4.346  -4.234  -0.129  1.00  0.00    -0.273 OA
ATOM      5  H   UNL     1       2.375  -4.489   1.133  1.00  0.00     0.163 HD
BRANCH   3   6
ATOM      6  C   UNL     1       3.278  -5.231  -2.058  1.00  0.00     0.174 C 
ATOM      7  N   UNL     1       2.033  -4.990  -2.820  1.00  0.00    -0.330 N 
ATOM      8  C   UNL     1       1.680  -5.968  -3.849  1.00  0.00     0.120 C 
ATOM      9  C   UNL     1       1.774  -7.408  -3.383  1.00  0.00     0.022 C 
ATOM     10  C   UNL     1       3.551  -6.738  -1.778  1.00  0.00     0.035 C 
ATOM     11  C   UNL     1       3.181  -7.697  -2.894  1.00  0.00     0.004 C 
BRANCH   7  12
ATOM     12  C   UNL     1       1.411  -3.752  -2.981  1.00  0.00     0.233 C 
ATOM     13  O   UNL     1       0.178  -3.715  -3.089  1.00  0.00    -0.274 OA
BRANCH  12  14
ATOM     14  C   UNL     1       2.206  -2.496  -3.311  1.00  0.00     0.170 C 
BRANCH  14  15
ATOM     15  S   UNL     1       3.140  -1.638  -2.028  1.00  0.00    -0.146 SA
BRANCH  15  16
ATOM     16  C   UNL     1       2.000  -1.653  -0.626  1.00  0.00     0.127 C 
BRANCH  16  17
ATOM     17  C   UNL     1       1.051  -0.515  -0.504  1.00  0.00     0.061 A 
ATOM     18  C   UNL     1      -2.484   0.257   0.013  1.00  0.00     0.079 C 
ATOM     19  C   UNL     1      -1.007   0.251  -0.171  1.00  0.00     0.090 A 
ATOM     20  N   UNL     1      -0.303  -0.821  -0.461  1.00  0.00    -0.246 NA
ATOM     21  S   UNL     1      -0.097   1.697   0.012  1.00  0.00    -0.127 S 
ATOM     22  C   UNL     1       1.346   0.813  -0.264  1.00  0.00     0.091 A 
ENDBRANCH  16  17
ENDBRANCH  15  16
ENDBRANCH  14  15
ENDBRANCH  12  14
ENDBRANCH   7  12
ENDBRANCH   3   6
ENDBRANCH   1   2
BRANCH   1  23
ATOM     23  C   UNL     1       0.119  -5.663   1.149  1.00  0.00     0.042 C 
BRANCH  23  24
ATOM     24  C   UNL     1      -0.114  -4.566   2.178  1.00  0.00     0.118 C 
BRANCH  24  25
ATOM     25  N   UNL     1      -1.207  -3.664   1.851  1.00  0.00    -0.352 N 
ATOM     26  C   UNL     1      -2.278  -3.310   2.651  1.00  0.00     0.251 C 
ATOM     27  H   UNL     1      -1.181  -3.257   0.955  1.00  0.00     0.163 HD
ATOM     28  O   UNL     1      -3.188  -2.615   2.219  1.00  0.00    -0.269 OA
BRANCH  26  29
ATOM     29  C   UNL     1      -2.323  -3.815   4.043  1.00  0.00     0.039 A 
ATOM     30  C   UNL     1      -3.466  -4.477   4.494  1.00  0.00     0.014 A 
ATOM     31  C   UNL     1      -1.206  -3.694   4.875  1.00  0.00     0.014 A 
ATOM     32  C   UNL     1      -3.460  -5.082   5.755  1.00  0.00     0.010 A 
ATOM     33  C   UNL     1      -1.169  -4.377   6.087  1.00  0.00     0.010 A 
ATOM     34  C   UNL     1      -2.299  -5.071   6.547  1.00  0.00    -0.014 A 
BRANCH  34  35
ATOM     35  C   UNL     1      -2.249  -5.769   7.859  1.00  0.00     0.031 A 
ATOM     36  C   UNL     1      -1.997  -4.988   9.122  1.00  0.00     0.074 A 
ATOM     37  C   UNL     1      -2.359  -7.112   7.915  1.00  0.00     0.049 A 
ATOM     38  N   UNL     1      -1.882  -5.421  10.352  1.00  0.00    -0.248 NA
ATOM     39  C   UNL     1      -1.817  -3.534   8.980  1.00  0.00     0.031 C 
ATOM     40  C   UNL     1      -2.531  -7.998   6.762  1.00  0.00     0.029 A 
ATOM     41  N   UNL     1      -2.332  -7.968   8.989  1.00  0.00    -0.354 N 
ATOM     42  C   UNL     1      -1.597  -4.299  11.122  1.00  0.00     0.074 A 
ATOM     43  C   UNL     1      -1.494  -3.179  10.214  1.00  0.00     0.031 C 
ATOM     44  C   UNL     1      -2.617  -9.268   7.192  1.00  0.00     0.029 A 
ATOM     45  C   UNL     1      -2.478  -9.291   8.645  1.00  0.00     0.049 A 
ATOM     46  H   UNL     1      -2.218  -7.662   9.918  1.00  0.00     0.167 HD
ATOM     47  C   UNL     1      -1.460  -4.200  12.467  1.00  0.00     0.031 A 
ATOM     48  C   UNL     1      -2.499 -10.401   9.410  1.00  0.00     0.031 A 
ATOM     49  C   UNL     1      -1.576  -5.309  13.373  1.00  0.00     0.049 A 
ATOM     50  C   UNL     1      -2.380 -10.270  10.903  1.00  0.00     0.074 A 
ATOM     51  C   UNL     1      -1.520  -5.302  14.756  1.00  0.00     0.029 A 
ATOM     52  N   UNL     1      -1.770  -6.627  12.987  1.00  0.00    -0.354 N 
ATOM     53  N   UNL     1      -2.198  -9.187  11.621  1.00  0.00    -0.248 NA
ATOM     54  C   UNL     1      -2.488 -11.505  11.690  1.00  0.00     0.031 C 
ATOM     55  C   UNL     1      -1.637  -6.623  15.204  1.00  0.00     0.029 A 
ATOM     56  C   UNL     1      -1.817  -7.446  14.103  1.00  0.00     0.049 A 
ATOM     57  H   UNL     1      -1.860  -6.936  12.056  1.00  0.00     0.167 HD
ATOM     58  C   UNL     1      -2.187  -9.608  12.946  1.00  0.00     0.074 A 
ATOM     59  C   UNL     1      -2.398 -11.042  12.930  1.00  0.00     0.031 C 
ATOM     60  C   UNL     1      -2.019  -8.873  14.073  1.00  0.00     0.031 A 
BRANCH  47  61
ATOM     61  C   UNL     1      -1.167  -2.831  13.025  1.00  0.00    -0.014 A 
ATOM     62  C   UNL     1      -2.133  -1.808  12.980  1.00  0.00     0.010 A 
ATOM     63  C   UNL     1       0.090  -2.559  13.592  1.00  0.00     0.010 A 
ATOM     64  C   UNL     1      -1.824  -0.521  13.427  1.00  0.00     0.020 A 
ATOM     65  C   UNL     1       0.393  -1.280  14.071  1.00  0.00     0.020 A 
ATOM     66  C   UNL     1      -0.558  -0.263  13.959  1.00  0.00     0.054 A 
BRANCH  66  67
ATOM     67  S   UNL     1      -0.174   1.420  14.515  1.00  0.00     0.124 S 
ATOM     68  O   UNL     1       0.038   2.113  13.247  1.00  0.00    -0.237 OA
ATOM     69  O   UNL     1      -1.380   1.803  15.244  1.00  0.00    -0.237 OA
ATOM     70  O   UNL     1       1.020   1.249  15.339  1.00  0.00    -0.744 OA
ENDBRANCH  66  67
ENDBRANCH  47  61
BRANCH  48  71
ATOM     71  C   UNL     1      -2.668 -11.731   8.764  1.00  0.00    -0.014 A 
ATOM     72  C   UNL     1      -3.892 -12.416   8.845  1.00  0.00     0.010 A 
ATOM     73  C   UNL     1      -1.616 -12.294   8.018  1.00  0.00     0.010 A 
ATOM     74  C   UNL     1      -4.063 -13.641   8.192  1.00  0.00     0.020 A 
ATOM     75  C   UNL     1      -1.791 -13.507   7.344  1.00  0.00     0.020 A 
ATOM     76  C   UNL     1      -3.013 -14.175   7.440  1.00  0.00     0.054 A 
BRANCH  76  77
ATOM     77  S   UNL     1      -3.286 -15.720   6.526  1.00  0.00     0.124 S 
ATOM     78  O   UNL     1      -3.241 -16.715   7.592  1.00  0.00    -0.237 OA
ATOM     79  O   UNL     1      -4.596 -15.501   5.919  1.00  0.00    -0.237 OA
ATOM     80  O   UNL     1      -2.171 -15.759   5.583  1.00  0.00    -0.744 OA
ENDBRANCH  76  77
ENDBRANCH  48  71
BRANCH  60  81
ATOM     81  C   UNL     1      -2.072  -9.600  15.389  1.00  0.00    -0.014 A 
ATOM     82  C   UNL     1      -1.013 -10.424  15.809  1.00  0.00     0.010 A 
ATOM     83  C   UNL     1      -3.172  -9.406  16.245  1.00  0.00     0.010 A 
ATOM     84  C   UNL     1      -1.066 -11.063  17.050  1.00  0.00     0.020 A 
ATOM     85  C   UNL     1      -3.217 -10.025  17.497  1.00  0.00     0.020 A 
ATOM     86  C   UNL     1      -2.168 -10.860  17.887  1.00  0.00     0.054 A 
BRANCH  86  87
ATOM     87  S   UNL     1      -2.192 -11.664  19.513  1.00  0.00     0.124 S 
ATOM     88  O   UNL     1      -2.498 -13.048  19.163  1.00  0.00    -0.237 OA
ATOM     89  O   UNL     1      -0.839 -11.425  20.010  1.00  0.00    -0.237 OA
ATOM     90  O   UNL     1      -3.247 -10.955  20.234  1.00  0.00    -0.744 OA
ENDBRANCH  86  87
ENDBRANCH  60  81
ENDBRANCH  34  35
ENDBRANCH  26  29
ENDBRANCH  24  25
ENDBRANCH  23  24
ENDBRANCH   1  23
TORSDOF 18
