REMARK SMILES Cc1cc(C)cc(OCC(=O)Nc2ccc(O)cc2C(=O)NCCCNC(=O)c2ccc(-c3c4nc(c(-c5ccc(S(=O)(=O)[O-])cc5)c5ccc([nH]5)c(-c5ccc(S(=O)(=O)[O-])cc5)c5nc(c(-c6ccc(S(=O)(=O)[O-])cc6)c6ccc3[nH]6)C=C5)C=C4)cc2)c1
REMARK SMILES IDX 23 1 22 2 20 3 21 4 19 6 13 7 14 8 15 9 18 10 16 11 12 12
REMARK SMILES IDX 10 13 11 14 9 16 8 17 7 18 1 19 2 20 3 21 89 22 4 23 5 24
REMARK SMILES IDX 6 25 17 26 24 28 25 29 26 30 27 31 28 33 29 34 30 35 88 36
REMARK SMILES IDX 31 37 87 38 32 39 33 40 34 41 81 42 35 43 86 44 80 45 82 46
REMARK SMILES IDX 36 47 85 48 79 49 78 50 37 52 67 53 48 54 66 55 49 56 52 57
REMARK SMILES IDX 65 58 83 59 50 60 51 61 64 63 84 64 53 65 38 66 39 67 47 68
REMARK SMILES IDX 40 69 46 70 41 71 42 72 43 73 44 74 45 75 68 76 69 77 77 78
REMARK SMILES IDX 70 79 76 80 71 81 72 82 73 83 74 84 75 85 54 86 55 87 63 88
REMARK SMILES IDX 56 89 62 90 57 91 58 92 59 93 60 94 61 95
REMARK H PARENT 22 5 12 15 17 27 26 32 82 51 52 62
REMARK Flexibility Score: inf
ROOT
ATOM      1  C   UNL     1       2.833  -4.878  -3.104  1.00  0.00     0.118 C 
ENDROOT
BRANCH   1   2
ATOM      2  N   UNL     1       2.198  -5.506  -4.236  1.00  0.00    -0.352 N 
ATOM      3  C   UNL     1       0.866  -5.572  -4.588  1.00  0.00     0.253 C 
ATOM      4  O   UNL     1       0.616  -6.069  -5.689  1.00  0.00    -0.269 OA
ATOM      5  H   UNL     1       2.812  -5.960  -4.856  1.00  0.00     0.163 HD
BRANCH   3   6
ATOM      6  C   UNL     1      -0.291  -5.160  -3.717  1.00  0.00     0.067 A 
ATOM      7  C   UNL     1      -0.366  -4.095  -2.795  1.00  0.00     0.054 A 
ATOM      8  C   UNL     1      -1.542  -3.882  -2.056  1.00  0.00     0.031 A 
ATOM      9  C   UNL     1      -2.657  -4.698  -2.221  1.00  0.00     0.048 A 
ATOM     10  C   UNL     1      -1.435  -5.972  -3.868  1.00  0.00     0.062 A 
ATOM     11  C   UNL     1      -2.595  -5.735  -3.135  1.00  0.00     0.116 A 
BRANCH   7  12
ATOM     12  N   UNL     1       0.641  -3.134  -2.663  1.00  0.00    -0.322 N 
ATOM     13  C   UNL     1       1.308  -2.777  -1.514  1.00  0.00     0.262 C 
ATOM     14  O   UNL     1       2.308  -2.062  -1.646  1.00  0.00    -0.271 OA
ATOM     15  H   UNL     1       0.903  -2.659  -3.485  1.00  0.00     0.170 HD
BRANCH  13  16
ATOM     16  C   UNL     1       0.949  -3.410  -0.139  1.00  0.00     0.329 C 
BRANCH  16  17
ATOM     17  O   UNL     1      -0.061  -2.815   0.666  1.00  0.00    -0.484 OA
BRANCH  17  18
ATOM     18  C   UNL     1      -0.027  -1.447   0.642  1.00  0.00     0.120 A 
ATOM     19  C   UNL     1       2.427   1.399   0.208  1.00  0.00     0.044 C 
ATOM     20  C   UNL     1       1.137   0.649   0.356  1.00  0.00    -0.047 A 
ATOM     21  C   UNL     1      -0.094   1.281   0.141  1.00  0.00     0.007 A 
ATOM     22  C   UNL     1       1.154  -0.709   0.676  1.00  0.00     0.049 A 
ATOM     23  C   UNL     1      -1.296   0.561   0.217  1.00  0.00    -0.047 A 
ATOM     24  C   UNL     1      -2.606   1.251  -0.007  1.00  0.00     0.044 C 
ATOM     25  C   UNL     1      -1.253  -0.809   0.480  1.00  0.00     0.049 A 
ENDBRANCH  17  18
ENDBRANCH  16  17
ENDBRANCH  13  16
ENDBRANCH   7  12
BRANCH  11  26
ATOM     26  O   UNL     1      -3.670  -6.543  -3.356  1.00  0.00    -0.508 OA
ATOM     27  H   UNL     1      -4.464  -6.407  -2.878  1.00  0.00     0.293 HD
ENDBRANCH  11  26
ENDBRANCH   3   6
ENDBRANCH   1   2
BRANCH   1  28
ATOM     28  C   UNL     1       4.125  -5.464  -2.581  1.00  0.00     0.042 C 
BRANCH  28  29
ATOM     29  C   UNL     1       5.291  -5.460  -3.549  1.00  0.00     0.118 C 
BRANCH  29  30
ATOM     30  N   UNL     1       5.765  -4.134  -3.930  1.00  0.00    -0.352 N 
ATOM     31  C   UNL     1       6.866  -3.391  -3.566  1.00  0.00     0.251 C 
ATOM     32  H   UNL     1       5.180  -3.678  -4.577  1.00  0.00     0.163 HD
ATOM     33  O   UNL     1       6.982  -2.254  -4.027  1.00  0.00    -0.269 OA
BRANCH  31  34
ATOM     34  C   UNL     1       7.885  -3.893  -2.612  1.00  0.00     0.039 A 
ATOM     35  C   UNL     1       8.518  -2.984  -1.754  1.00  0.00     0.014 A 
ATOM     36  C   UNL     1       8.251  -5.234  -2.553  1.00  0.00     0.014 A 
ATOM     37  C   UNL     1       9.430  -3.440  -0.795  1.00  0.00     0.010 A 
ATOM     38  C   UNL     1       9.034  -5.705  -1.504  1.00  0.00     0.010 A 
ATOM     39  C   UNL     1       9.654  -4.815  -0.621  1.00  0.00    -0.014 A 
BRANCH  39  40
ATOM     40  C   UNL     1      10.549  -5.340   0.447  1.00  0.00     0.031 A 
ATOM     41  C   UNL     1      11.726  -6.219   0.091  1.00  0.00     0.074 A 
ATOM     42  C   UNL     1      10.275  -5.076   1.742  1.00  0.00     0.049 A 
ATOM     43  N   UNL     1      12.579  -6.817   0.883  1.00  0.00    -0.248 NA
ATOM     44  C   UNL     1      11.956  -6.492  -1.340  1.00  0.00     0.031 C 
ATOM     45  C   UNL     1       9.138  -4.288   2.228  1.00  0.00     0.029 A 
ATOM     46  N   UNL     1      10.934  -5.439   2.891  1.00  0.00    -0.354 N 
ATOM     47  C   UNL     1      13.428  -7.541   0.052  1.00  0.00     0.074 A 
ATOM     48  C   UNL     1      12.944  -7.372  -1.298  1.00  0.00     0.031 C 
ATOM     49  C   UNL     1       9.210  -4.183   3.565  1.00  0.00     0.029 A 
ATOM     50  C   UNL     1      10.365  -4.936   4.039  1.00  0.00     0.049 A 
ATOM     51  H   UNL     1      11.739  -6.005   2.893  1.00  0.00     0.167 HD
ATOM     52  C   UNL     1      14.535  -8.252   0.373  1.00  0.00     0.031 A 
ATOM     53  C   UNL     1      10.730  -5.067   5.330  1.00  0.00     0.031 A 
ATOM     54  C   UNL     1      15.035  -8.397   1.714  1.00  0.00     0.049 A 
ATOM     55  C   UNL     1      11.959  -5.873   5.660  1.00  0.00     0.074 A 
ATOM     56  C   UNL     1      16.175  -9.055   2.140  1.00  0.00     0.029 A 
ATOM     57  N   UNL     1      14.433  -7.865   2.844  1.00  0.00    -0.354 N 
ATOM     58  N   UNL     1      12.780  -6.496   4.849  1.00  0.00    -0.248 NA
ATOM     59  C   UNL     1      12.318  -5.979   7.081  1.00  0.00     0.031 C 
ATOM     60  C   UNL     1      16.234  -8.966   3.534  1.00  0.00     0.029 A 
ATOM     61  C   UNL     1      15.167  -8.197   3.969  1.00  0.00     0.049 A 
ATOM     62  H   UNL     1      13.605  -7.332   2.845  1.00  0.00     0.167 HD
ATOM     63  C   UNL     1      13.771  -7.040   5.660  1.00  0.00     0.074 A 
ATOM     64  C   UNL     1      13.458  -6.651   7.019  1.00  0.00     0.031 C 
ATOM     65  C   UNL     1      14.843  -7.795   5.314  1.00  0.00     0.031 A 
BRANCH  52  66
ATOM     66  C   UNL     1      15.299  -8.909  -0.749  1.00  0.00    -0.014 A 
ATOM     67  C   UNL     1      16.009  -8.137  -1.688  1.00  0.00     0.010 A 
ATOM     68  C   UNL     1      15.361 -10.312  -0.832  1.00  0.00     0.010 A 
ATOM     69  C   UNL     1      16.742  -8.754  -2.704  1.00  0.00     0.020 A 
ATOM     70  C   UNL     1      16.120 -10.934  -1.829  1.00  0.00     0.020 A 
ATOM     71  C   UNL     1      16.797 -10.149  -2.766  1.00  0.00     0.054 A 
BRANCH  71  72
ATOM     72  S   UNL     1      17.801 -10.919  -4.065  1.00  0.00     0.124 S 
ATOM     73  O   UNL     1      17.019 -10.628  -5.264  1.00  0.00    -0.237 OA
ATOM     74  O   UNL     1      19.069 -10.203  -3.954  1.00  0.00    -0.237 OA
ATOM     75  O   UNL     1      17.847 -12.328  -3.680  1.00  0.00    -0.744 OA
ENDBRANCH  71  72
ENDBRANCH  52  66
BRANCH  53  76
ATOM     76  C   UNL     1       9.940  -4.413   6.411  1.00  0.00    -0.014 A 
ATOM     77  C   UNL     1      10.496  -3.368   7.172  1.00  0.00     0.010 A 
ATOM     78  C   UNL     1       8.636  -4.851   6.708  1.00  0.00     0.010 A 
ATOM     79  C   UNL     1       9.783  -2.806   8.236  1.00  0.00     0.020 A 
ATOM     80  C   UNL     1       7.906  -4.267   7.748  1.00  0.00     0.020 A 
ATOM     81  C   UNL     1       8.493  -3.263   8.519  1.00  0.00     0.054 A 
BRANCH  81  82
ATOM     82  S   UNL     1       7.584  -2.515   9.900  1.00  0.00     0.124 S 
ATOM     83  O   UNL     1       8.277  -3.073  11.056  1.00  0.00    -0.237 OA
ATOM     84  O   UNL     1       7.780  -1.086   9.671  1.00  0.00    -0.237 OA
ATOM     85  O   UNL     1       6.215  -2.988   9.703  1.00  0.00    -0.744 OA
ENDBRANCH  81  82
ENDBRANCH  53  76
BRANCH  65  86
ATOM     86  C   UNL     1      15.779  -8.212   6.417  1.00  0.00    -0.014 A 
ATOM     87  C   UNL     1      15.395  -9.154   7.387  1.00  0.00     0.010 A 
ATOM     88  C   UNL     1      17.078  -7.673   6.461  1.00  0.00     0.010 A 
ATOM     89  C   UNL     1      16.276  -9.514   8.409  1.00  0.00     0.020 A 
ATOM     90  C   UNL     1      17.975  -8.057   7.461  1.00  0.00     0.020 A 
ATOM     91  C   UNL     1      17.560  -8.961   8.440  1.00  0.00     0.054 A 
BRANCH  91  92
ATOM     92  S   UNL     1      18.693  -9.464   9.764  1.00  0.00     0.124 S 
ATOM     93  O   UNL     1      18.126  -8.782  10.924  1.00  0.00    -0.237 OA
ATOM     94  O   UNL     1      18.560 -10.919   9.763  1.00  0.00    -0.237 OA
ATOM     95  O   UNL     1      19.991  -8.962   9.318  1.00  0.00    -0.744 OA
ENDBRANCH  91  92
ENDBRANCH  65  86
ENDBRANCH  39  40
ENDBRANCH  31  34
ENDBRANCH  29  30
ENDBRANCH  28  29
ENDBRANCH   1  28
TORSDOF 18
