REMARK SMILES Cc1ccc(OC(F)(F)F)cc1C(=O)NCCCNC(=O)c1ccc(-c2c3nc(c(-c4ccc(S(=O)(=O)[O-])cc4)c4ccc([nH]4)c(-c4ccc(S(=O)(=O)[O-])cc4)c4nc(c(-c5ccc(S(=O)(=O)[O-])cc5)c5ccc2[nH]5)C=C4)C=C3)cc1
REMARK SMILES IDX 17 1 16 2 15 3 13 4 14 5 12 7 1 8 2 9 3 10 4 11 11 12 5 13
REMARK SMILES IDX 6 14 7 15 8 16 9 17 10 18 18 19 19 20 20 21 21 23 22 24
REMARK SMILES IDX 23 25 81 26 24 27 80 28 25 29 26 30 27 31 74 32 28 33 79 34
REMARK SMILES IDX 73 35 75 36 29 37 78 38 72 39 71 40 30 42 60 43 41 44 59 45
REMARK SMILES IDX 42 46 45 47 58 48 76 49 43 50 44 51 57 53 77 54 46 55 31 56
REMARK SMILES IDX 32 57 40 58 33 59 39 60 34 61 35 62 36 63 37 64 38 65 61 66
REMARK SMILES IDX 62 67 70 68 63 69 69 70 64 71 65 72 66 73 67 74 68 75 47 76
REMARK SMILES IDX 48 77 56 78 49 79 55 80 50 81 51 82 52 83 53 84 54 85
REMARK H PARENT 15 6 19 22 75 41 45 52
REMARK Flexibility Score: inf
ROOT
ATOM      1  C   UNL     1       4.476  -0.200   0.326  1.00  0.00     0.042 C 
ENDROOT
BRANCH   1   2
ATOM      2  C   UNL     1       3.151   0.424   1.030  1.00  0.00     0.118 C 
BRANCH   2   3
ATOM      3  N   UNL     1       2.324   1.379   0.254  1.00  0.00    -0.352 N 
ATOM      4  C   UNL     1       1.002   1.549  -0.105  1.00  0.00     0.251 C 
ATOM      5  O   UNL     1       0.597   2.647  -0.496  1.00  0.00    -0.269 OA
ATOM      6  H   UNL     1       2.881   2.104  -0.112  1.00  0.00     0.163 HD
BRANCH   4   7
ATOM      7  C   UNL     1      -0.018   0.469  -0.050  1.00  0.00     0.046 A 
ATOM      8  C   UNL     1       1.531  -1.306  -1.036  1.00  0.00     0.045 C 
ATOM      9  C   UNL     1       0.255  -0.863  -0.384  1.00  0.00    -0.038 A 
ATOM     10  C   UNL     1      -0.743  -1.826  -0.185  1.00  0.00     0.008 A 
ATOM     11  C   UNL     1      -2.043  -1.450   0.145  1.00  0.00     0.047 A 
ATOM     12  C   UNL     1      -1.366   0.851   0.197  1.00  0.00     0.061 A 
ATOM     13  C   UNL     1      -2.383  -0.104   0.255  1.00  0.00     0.130 A 
BRANCH  13  14
ATOM     14  O   UNL     1      -3.719   0.116   0.429  1.00  0.00    -0.406 OA
BRANCH  14  15
ATOM     15  C   UNL     1      -4.232   1.397   0.100  1.00  0.00     0.573 C 
ATOM     16  F   UNL     1      -3.906   2.298   1.048  1.00  0.00    -0.132 F 
ATOM     17  F   UNL     1      -3.814   1.818  -1.109  1.00  0.00    -0.132 F 
ATOM     18  F   UNL     1      -5.585   1.309   0.061  1.00  0.00    -0.132 F 
ENDBRANCH  14  15
ENDBRANCH  13  14
ENDBRANCH   4   7
ENDBRANCH   2   3
ENDBRANCH   1   2
BRANCH   1  19
ATOM     19  C   UNL     1       5.870   0.485   0.698  1.00  0.00     0.118 C 
BRANCH  19  20
ATOM     20  N   UNL     1       7.268   0.195   0.035  1.00  0.00    -0.352 N 
ATOM     21  C   UNL     1       8.502   0.939  -0.228  1.00  0.00     0.251 C 
ATOM     22  H   UNL     1       7.329  -0.732  -0.290  1.00  0.00     0.163 HD
ATOM     23  O   UNL     1       9.480   0.502   0.407  1.00  0.00    -0.269 OA
BRANCH  21  24
ATOM     24  C   UNL     1       8.889   2.118  -1.225  1.00  0.00     0.039 A 
ATOM     25  C   UNL     1       9.813   3.147  -0.837  1.00  0.00     0.014 A 
ATOM     26  C   UNL     1       8.352   2.345  -2.489  1.00  0.00     0.014 A 
ATOM     27  C   UNL     1       9.729   4.497  -1.387  1.00  0.00     0.010 A 
ATOM     28  C   UNL     1       8.261   3.675  -3.030  1.00  0.00     0.010 A 
ATOM     29  C   UNL     1       8.739   4.803  -2.341  1.00  0.00    -0.014 A 
BRANCH  29  30
ATOM     30  C   UNL     1       7.958   6.129  -2.396  1.00  0.00     0.031 A 
ATOM     31  C   UNL     1       8.193   7.099  -3.458  1.00  0.00     0.074 A 
ATOM     32  C   UNL     1       6.891   6.545  -1.639  1.00  0.00     0.049 A 
ATOM     33  N   UNL     1       8.456   8.354  -3.279  1.00  0.00    -0.248 NA
ATOM     34  C   UNL     1       8.010   6.698  -4.840  1.00  0.00     0.031 C 
ATOM     35  C   UNL     1       5.989   7.713  -1.674  1.00  0.00     0.029 A 
ATOM     36  N   UNL     1       6.309   5.891  -0.582  1.00  0.00    -0.354 N 
ATOM     37  C   UNL     1       8.142   8.956  -4.480  1.00  0.00     0.074 A 
ATOM     38  C   UNL     1       8.109   7.878  -5.454  1.00  0.00     0.031 C 
ATOM     39  C   UNL     1       5.321   7.816  -0.496  1.00  0.00     0.029 A 
ATOM     40  C   UNL     1       5.788   6.753   0.373  1.00  0.00     0.049 A 
ATOM     41  H   UNL     1       6.266   4.911  -0.508  1.00  0.00     0.167 HD
ATOM     42  C   UNL     1       7.604  10.213  -4.546  1.00  0.00     0.031 A 
ATOM     43  C   UNL     1       6.362   6.801   1.621  1.00  0.00     0.031 A 
ATOM     44  C   UNL     1       7.183  10.725  -3.227  1.00  0.00     0.049 A 
ATOM     45  C   UNL     1       7.103   8.099   1.778  1.00  0.00     0.074 A 
ATOM     46  C   UNL     1       5.934  11.012  -2.688  1.00  0.00     0.029 A 
ATOM     47  N   UNL     1       8.060  10.721  -2.145  1.00  0.00    -0.354 N 
ATOM     48  N   UNL     1       7.142   9.001   0.845  1.00  0.00    -0.248 NA
ATOM     49  C   UNL     1       7.889   8.484   2.940  1.00  0.00     0.031 C 
ATOM     50  C   UNL     1       6.068  11.144  -1.276  1.00  0.00     0.029 A 
ATOM     51  C   UNL     1       7.402  10.977  -0.951  1.00  0.00     0.049 A 
ATOM     52  H   UNL     1       9.028  10.556  -2.219  1.00  0.00     0.167 HD
ATOM     53  C   UNL     1       7.944  10.037   1.198  1.00  0.00     0.074 A 
ATOM     54  C   UNL     1       8.370   9.679   2.543  1.00  0.00     0.031 C 
ATOM     55  C   UNL     1       8.157  11.054   0.310  1.00  0.00     0.031 A 
BRANCH  42  56
ATOM     56  C   UNL     1       7.158  10.826  -5.870  1.00  0.00    -0.014 A 
ATOM     57  C   UNL     1       6.240  11.894  -5.916  1.00  0.00     0.010 A 
ATOM     58  C   UNL     1       7.667  10.410  -7.119  1.00  0.00     0.010 A 
ATOM     59  C   UNL     1       5.796  12.446  -7.133  1.00  0.00     0.020 A 
ATOM     60  C   UNL     1       7.185  10.898  -8.341  1.00  0.00     0.020 A 
ATOM     61  C   UNL     1       6.257  11.928  -8.342  1.00  0.00     0.054 A 
BRANCH  61  62
ATOM     62  S   UNL     1       5.706  12.659  -9.906  1.00  0.00     0.124 S 
ATOM     63  O   UNL     1       4.253  12.550  -9.819  1.00  0.00    -0.237 OA
ATOM     64  O   UNL     1       6.243  14.014  -9.822  1.00  0.00    -0.237 OA
ATOM     65  O   UNL     1       6.327  11.813 -10.924  1.00  0.00    -0.744 OA
ENDBRANCH  61  62
ENDBRANCH  42  56
BRANCH  43  66
ATOM     66  C   UNL     1       6.841   5.457   2.234  1.00  0.00    -0.014 A 
ATOM     67  C   UNL     1       5.794   4.575   2.585  1.00  0.00     0.010 A 
ATOM     68  C   UNL     1       7.853   4.875   1.490  1.00  0.00     0.010 A 
ATOM     69  C   UNL     1       5.349   3.620   1.655  1.00  0.00     0.020 A 
ATOM     70  C   UNL     1       7.382   3.944   0.548  1.00  0.00     0.020 A 
ATOM     71  C   UNL     1       6.095   3.456   0.506  1.00  0.00     0.054 A 
BRANCH  71  72
ATOM     72  S   UNL     1       5.242   3.009  -1.241  1.00  0.00     0.124 S 
ATOM     73  O   UNL     1       3.855   2.938  -0.801  1.00  0.00    -0.237 OA
ATOM     74  O   UNL     1       5.494   4.124  -2.120  1.00  0.00    -0.237 OA
ATOM     75  O   UNL     1       5.797   1.743  -1.692  1.00  0.00    -0.744 OA
ENDBRANCH  71  72
ENDBRANCH  43  66
BRANCH  55  76
ATOM     76  C   UNL     1       9.052  12.252   0.509  1.00  0.00    -0.014 A 
ATOM     77  C   UNL     1       9.806  12.516   1.656  1.00  0.00     0.010 A 
ATOM     78  C   UNL     1       9.158  13.195  -0.546  1.00  0.00     0.010 A 
ATOM     79  C   UNL     1      10.633  13.642   1.744  1.00  0.00     0.020 A 
ATOM     80  C   UNL     1       9.998  14.304  -0.485  1.00  0.00     0.020 A 
ATOM     81  C   UNL     1      10.731  14.522   0.669  1.00  0.00     0.054 A 
BRANCH  81  82
ATOM     82  S   UNL     1      11.835  15.940   0.808  1.00  0.00     0.124 S 
ATOM     83  O   UNL     1      11.194  16.721   1.863  1.00  0.00    -0.237 OA
ATOM     84  O   UNL     1      13.102  15.312   1.175  1.00  0.00    -0.237 OA
ATOM     85  O   UNL     1      11.803  16.542  -0.522  1.00  0.00    -0.744 OA
ENDBRANCH  81  82
ENDBRANCH  55  76
ENDBRANCH  29  30
ENDBRANCH  21  24
ENDBRANCH  19  20
ENDBRANCH   1  19
TORSDOF 15
