REMARK SMILES C=CCN(CC(=O)NCCCNC(=O)c1ccc(-c2c3nc(c(-c4ccc(S(=O)(=O)[O-])cc4)c4ccc([nH]4)c(-c4ccc(S(=O)(=O)[O-])cc4)c4nc(c(-c5ccc(S(=O)(=O)[O-])cc5)c5ccc2[nH]5)C=C4)C=C3)cc1)C(=O)C1C[NH2+]C1
REMARK SMILES IDX 10 1 9 2 8 3 6 4 7 5 5 7 4 8 3 9 2 10 1 11 75 12 76 13 77 14
REMARK SMILES IDX 78 15 80 16 79 17 11 20 12 21 13 22 14 24 15 25 16 26 74 27
REMARK SMILES IDX 17 28 73 29 18 30 19 31 20 32 67 33 21 34 72 35 66 36 68 37
REMARK SMILES IDX 22 38 71 39 65 40 64 41 23 43 53 44 34 45 52 46 35 47 38 48
REMARK SMILES IDX 51 49 69 50 36 51 37 52 50 54 70 55 39 56 24 57 25 58 33 59
REMARK SMILES IDX 26 60 32 61 27 62 28 63 29 64 30 65 31 66 54 67 55 68 63 69
REMARK SMILES IDX 56 70 62 71 57 72 58 73 59 74 60 75 61 76 40 77 41 78 49 79
REMARK SMILES IDX 42 80 48 81 43 82 44 83 45 84 46 85 47 86
REMARK H PARENT 8 6 79 18 79 19 12 23 68 42 38 53
REMARK Flexibility Score: inf
ROOT
ATOM      1  C   UNL     1      -4.284  -0.495  -0.282  1.00  0.00     0.042 C 
ENDROOT
BRANCH   1   2
ATOM      2  C   UNL     1      -4.451   0.031   1.140  1.00  0.00     0.117 C 
BRANCH   2   3
ATOM      3  N   UNL     1      -4.676  -1.014   2.117  1.00  0.00    -0.354 N 
ATOM      4  C   UNL     1      -3.842  -1.522   3.066  1.00  0.00     0.239 C 
ATOM      5  O   UNL     1      -4.350  -2.220   3.950  1.00  0.00    -0.273 OA
ATOM      6  H   UNL     1      -5.572  -1.421   2.091  1.00  0.00     0.163 HD
BRANCH   4   7
ATOM      7  C   UNL     1      -2.344  -1.167   3.130  1.00  0.00     0.219 C 
BRANCH   7   8
ATOM      8  N   UNL     1      -1.601  -1.335   1.880  1.00  0.00    -0.329 N 
BRANCH   8   9
ATOM      9  C   UNL     1      -1.063  -0.147   1.222  1.00  0.00     0.147 C 
BRANCH   9  10
ATOM     10  C   UNL     1       0.428  -0.090   1.351  1.00  0.00    -0.014 C 
ATOM     11  C   UNL     1       1.247  -0.030   0.291  1.00  0.00     0.006 C 
ENDBRANCH   9  10
ENDBRANCH   8   9
BRANCH   8  12
ATOM     12  C   UNL     1      -1.361  -2.593   1.298  1.00  0.00     0.237 C 
ATOM     13  O   UNL     1      -0.829  -2.669   0.184  1.00  0.00    -0.274 OA
BRANCH  12  14
ATOM     14  C   UNL     1      -1.819  -3.856   2.066  1.00  0.00     0.188 C 
ATOM     15  C   UNL     1      -1.622  -5.226   1.375  1.00  0.00     0.280 C 
ATOM     16  C   UNL     1      -0.881  -4.454   3.135  1.00  0.00     0.280 C 
ATOM     17  N   UNL     1      -1.314  -5.807   2.708  1.00  0.00    -0.345 N 
ATOM     18  H   UNL     1      -0.573  -6.508   2.705  1.00  0.00     0.346 HD
ATOM     19  H   UNL     1      -2.010  -6.335   3.234  1.00  0.00     0.346 HD
ENDBRANCH  12  14
ENDBRANCH   8  12
ENDBRANCH   7   8
ENDBRANCH   4   7
ENDBRANCH   2   3
ENDBRANCH   1   2
BRANCH   1  20
ATOM     20  C   UNL     1      -5.544  -1.123  -0.874  1.00  0.00     0.118 C 
BRANCH  20  21
ATOM     21  N   UNL     1      -6.652  -0.180  -0.977  1.00  0.00    -0.352 N 
ATOM     22  C   UNL     1      -7.316   0.298  -2.080  1.00  0.00     0.251 C 
ATOM     23  H   UNL     1      -6.976   0.170  -0.116  1.00  0.00     0.163 HD
ATOM     24  O   UNL     1      -8.099   1.238  -1.948  1.00  0.00    -0.269 OA
BRANCH  22  25
ATOM     25  C   UNL     1      -7.083  -0.287  -3.417  1.00  0.00     0.039 A 
ATOM     26  C   UNL     1      -6.939   0.567  -4.515  1.00  0.00     0.014 A 
ATOM     27  C   UNL     1      -7.021  -1.671  -3.597  1.00  0.00     0.014 A 
ATOM     28  C   UNL     1      -6.639   0.037  -5.773  1.00  0.00     0.010 A 
ATOM     29  C   UNL     1      -6.654  -2.193  -4.835  1.00  0.00     0.010 A 
ATOM     30  C   UNL     1      -6.443  -1.344  -5.932  1.00  0.00    -0.014 A 
BRANCH  30  31
ATOM     31  C   UNL     1      -5.964  -1.919  -7.216  1.00  0.00     0.031 A 
ATOM     32  C   UNL     1      -6.817  -2.891  -7.984  1.00  0.00     0.074 A 
ATOM     33  C   UNL     1      -4.716  -1.633  -7.641  1.00  0.00     0.049 A 
ATOM     34  N   UNL     1      -6.521  -3.575  -9.059  1.00  0.00    -0.248 NA
ATOM     35  C   UNL     1      -8.171  -3.143  -7.464  1.00  0.00     0.031 C 
ATOM     36  C   UNL     1      -3.779  -0.728  -6.970  1.00  0.00     0.029 A 
ATOM     37  N   UNL     1      -4.012  -2.088  -8.729  1.00  0.00    -0.354 N 
ATOM     38  C   UNL     1      -7.641  -4.349  -9.337  1.00  0.00     0.074 A 
ATOM     39  C   UNL     1      -8.608  -4.080  -8.293  1.00  0.00     0.031 C 
ATOM     40  C   UNL     1      -2.634  -0.683  -7.668  1.00  0.00     0.029 A 
ATOM     41  C   UNL     1      -2.730  -1.595  -8.803  1.00  0.00     0.049 A 
ATOM     42  H   UNL     1      -4.389  -2.709  -9.393  1.00  0.00     0.167 HD
ATOM     43  C   UNL     1      -7.850  -5.197 -10.373  1.00  0.00     0.031 A 
ATOM     44  C   UNL     1      -1.732  -1.862  -9.669  1.00  0.00     0.031 A 
ATOM     45  C   UNL     1      -6.882  -5.462 -11.405  1.00  0.00     0.049 A 
ATOM     46  C   UNL     1      -1.972  -2.845 -10.781  1.00  0.00     0.074 A 
ATOM     47  C   UNL     1      -7.021  -6.262 -12.527  1.00  0.00     0.029 A 
ATOM     48  N   UNL     1      -5.595  -4.947 -11.439  1.00  0.00    -0.354 N 
ATOM     49  N   UNL     1      -3.065  -3.510 -11.070  1.00  0.00    -0.248 NA
ATOM     50  C   UNL     1      -0.844  -3.116 -11.684  1.00  0.00     0.031 C 
ATOM     51  C   UNL     1      -5.797  -6.283 -13.202  1.00  0.00     0.029 A 
ATOM     52  C   UNL     1      -4.916  -5.443 -12.539  1.00  0.00     0.049 A 
ATOM     53  H   UNL     1      -5.220  -4.321 -10.779  1.00  0.00     0.167 HD
ATOM     54  C   UNL     1      -2.762  -4.263 -12.199  1.00  0.00     0.074 A 
ATOM     55  C   UNL     1      -1.392  -3.956 -12.553  1.00  0.00     0.031 C 
ATOM     56  C   UNL     1      -3.550  -5.132 -12.880  1.00  0.00     0.031 A 
BRANCH  43  57
ATOM     57  C   UNL     1      -9.173  -5.916 -10.435  1.00  0.00    -0.014 A 
ATOM     58  C   UNL     1     -10.365  -5.225 -10.718  1.00  0.00     0.010 A 
ATOM     59  C   UNL     1      -9.219  -7.312 -10.260  1.00  0.00     0.010 A 
ATOM     60  C   UNL     1     -11.582  -5.908 -10.785  1.00  0.00     0.020 A 
ATOM     61  C   UNL     1     -10.430  -8.004 -10.356  1.00  0.00     0.020 A 
ATOM     62  C   UNL     1     -11.607  -7.294 -10.602  1.00  0.00     0.054 A 
BRANCH  62  63
ATOM     63  S   UNL     1     -13.198  -8.156 -10.718  1.00  0.00     0.124 S 
ATOM     64  O   UNL     1     -13.868  -7.716  -9.496  1.00  0.00    -0.237 OA
ATOM     65  O   UNL     1     -13.756  -7.631 -11.962  1.00  0.00    -0.237 OA
ATOM     66  O   UNL     1     -12.829  -9.569 -10.750  1.00  0.00    -0.744 OA
ENDBRANCH  62  63
ENDBRANCH  43  57
BRANCH  44  67
ATOM     67  C   UNL     1      -0.411  -1.194  -9.509  1.00  0.00    -0.014 A 
ATOM     68  C   UNL     1       0.025  -0.240 -10.446  1.00  0.00     0.010 A 
ATOM     69  C   UNL     1       0.415  -1.497  -8.410  1.00  0.00     0.010 A 
ATOM     70  C   UNL     1       1.265   0.386 -10.295  1.00  0.00     0.020 A 
ATOM     71  C   UNL     1       1.643  -0.850  -8.240  1.00  0.00     0.020 A 
ATOM     72  C   UNL     1       2.065   0.080  -9.190  1.00  0.00     0.054 A 
BRANCH  72  73
ATOM     73  S   UNL     1       3.646   0.948  -8.989  1.00  0.00     0.124 S 
ATOM     74  O   UNL     1       4.457   0.349 -10.044  1.00  0.00    -0.237 OA
ATOM     75  O   UNL     1       3.267   2.344  -9.197  1.00  0.00    -0.237 OA
ATOM     76  O   UNL     1       4.048   0.616  -7.624  1.00  0.00    -0.744 OA
ENDBRANCH  72  73
ENDBRANCH  44  67
BRANCH  56  77
ATOM     77  C   UNL     1      -2.961  -5.808 -14.090  1.00  0.00    -0.014 A 
ATOM     78  C   UNL     1      -1.998  -6.823 -13.957  1.00  0.00     0.010 A 
ATOM     79  C   UNL     1      -3.442  -5.482 -15.372  1.00  0.00     0.010 A 
ATOM     80  C   UNL     1      -1.519  -7.494 -15.086  1.00  0.00     0.020 A 
ATOM     81  C   UNL     1      -2.987  -6.170 -16.499  1.00  0.00     0.020 A 
ATOM     82  C   UNL     1      -2.022  -7.168 -16.349  1.00  0.00     0.054 A 
BRANCH  82  83
ATOM     83  S   UNL     1      -1.441  -8.110 -17.787  1.00  0.00     0.124 S 
ATOM     84  O   UNL     1      -0.069  -7.630 -17.931  1.00  0.00    -0.237 OA
ATOM     85  O   UNL     1      -1.580  -9.493 -17.339  1.00  0.00    -0.237 OA
ATOM     86  O   UNL     1      -2.354  -7.712 -18.855  1.00  0.00    -0.744 OA
ENDBRANCH  82  83
ENDBRANCH  56  77
ENDBRANCH  30  31
ENDBRANCH  22  25
ENDBRANCH  20  21
ENDBRANCH   1  20
TORSDOF 18
