REMARK SMILES O=C(NCCCNC(=O)[C@H]1CCCCN1c1cc(-c2ccccc2)nc(-c2cccc(Cl)c2)n1)c1ccc(-c2c3nc(c(-c4ccc(S(=O)(=O)[O-])cc4)c4ccc([nH]4)c(-c4ccc(S(=O)(=O)[O-])cc4)c4nc(c(-c5ccc(S(=O)(=O)[O-])cc5)c5ccc2[nH]5)C=C4)C=C3)cc1
REMARK SMILES IDX 4 1 3 2 1 3 2 4 35 6 36 7 94 8 37 9 93 10 38 11 39 12 40 13
REMARK SMILES IDX 87 14 41 15 92 16 86 17 88 18 42 19 91 20 85 21 84 22 43 24
REMARK SMILES IDX 73 25 54 26 72 27 55 28 58 29 71 30 89 31 56 32 57 33 70 35
REMARK SMILES IDX 90 36 59 37 44 38 45 39 53 40 46 41 52 42 47 43 48 44 49 45
REMARK SMILES IDX 50 46 51 47 74 48 75 49 83 50 76 51 82 52 77 53 78 54 79 55
REMARK SMILES IDX 80 56 81 57 60 58 61 59 69 60 62 61 68 62 63 63 64 64 65 65
REMARK SMILES IDX 66 66 67 67 5 68 6 69 7 70 8 71 9 73 10 74 11 75 15 76 12 77
REMARK SMILES IDX 14 78 13 79 16 80 17 81 34 82 18 83 26 84 25 85 19 86 20 87
REMARK SMILES IDX 24 88 21 89 23 90 22 91 27 92 28 93 33 94 29 95 31 96 30 97
REMARK SMILES IDX 32 98
REMARK H PARENT 3 5 88 23 58 34 7 72
REMARK Flexibility Score: inf
ROOT
ATOM      1  C   UNL     1       6.883   2.036  -4.151  1.00  0.00     0.118 C 
ENDROOT
BRANCH   1   2
ATOM      2  N   UNL     1       7.406   2.347  -5.478  1.00  0.00    -0.352 N 
ATOM      3  O   UNL     1       8.786   2.155  -7.247  1.00  0.00    -0.269 OA
ATOM      4  C   UNL     1       8.239   1.615  -6.293  1.00  0.00     0.251 C 
ATOM      5  H   UNL     1       7.118   3.213  -5.846  1.00  0.00     0.163 HD
BRANCH   4   6
ATOM      6  C   UNL     1       8.476   0.186  -6.000  1.00  0.00     0.039 A 
ATOM      7  C   UNL     1       7.423  -0.616  -5.564  1.00  0.00     0.014 A 
ATOM      8  C   UNL     1       9.747  -0.366  -6.179  1.00  0.00     0.014 A 
ATOM      9  C   UNL     1       7.673  -1.901  -5.118  1.00  0.00     0.010 A 
ATOM     10  C   UNL     1       9.967  -1.711  -5.864  1.00  0.00     0.010 A 
ATOM     11  C   UNL     1       8.936  -2.482  -5.306  1.00  0.00    -0.014 A 
BRANCH  11  12
ATOM     12  C   UNL     1       9.096  -3.925  -5.004  1.00  0.00     0.031 A 
ATOM     13  C   UNL     1      10.057  -4.407  -3.955  1.00  0.00     0.074 A 
ATOM     14  C   UNL     1       8.310  -4.797  -5.669  1.00  0.00     0.049 A 
ATOM     15  N   UNL     1      10.285  -5.633  -3.560  1.00  0.00    -0.248 NA
ATOM     16  C   UNL     1      10.870  -3.394  -3.263  1.00  0.00     0.031 C 
ATOM     17  C   UNL     1       7.342  -4.434  -6.713  1.00  0.00     0.029 A 
ATOM     18  N   UNL     1       8.166  -6.154  -5.551  1.00  0.00    -0.354 N 
ATOM     19  C   UNL     1      11.284  -5.546  -2.598  1.00  0.00     0.074 A 
ATOM     20  C   UNL     1      11.630  -4.146  -2.476  1.00  0.00     0.031 C 
ATOM     21  C   UNL     1       6.660  -5.524  -7.084  1.00  0.00     0.029 A 
ATOM     22  C   UNL     1       7.200  -6.677  -6.379  1.00  0.00     0.049 A 
ATOM     23  H   UNL     1       8.701  -6.702  -4.933  1.00  0.00     0.167 HD
ATOM     24  C   UNL     1      11.857  -6.546  -1.886  1.00  0.00     0.031 A 
ATOM     25  C   UNL     1       6.808  -7.949  -6.577  1.00  0.00     0.031 A 
ATOM     26  C   UNL     1      11.495  -7.935  -2.015  1.00  0.00     0.049 A 
ATOM     27  C   UNL     1       7.482  -9.034  -5.792  1.00  0.00     0.074 A 
ATOM     28  C   UNL     1      11.997  -9.022  -1.321  1.00  0.00     0.029 A 
ATOM     29  N   UNL     1      10.543  -8.430  -2.896  1.00  0.00    -0.354 N 
ATOM     30  N   UNL     1       8.411  -8.926  -4.873  1.00  0.00    -0.248 NA
ATOM     31  C   UNL     1       7.061 -10.411  -6.074  1.00  0.00     0.031 C 
ATOM     32  C   UNL     1      11.390 -10.178  -1.820  1.00  0.00     0.029 A 
ATOM     33  C   UNL     1      10.463  -9.807  -2.781  1.00  0.00     0.049 A 
ATOM     34  H   UNL     1      10.005  -7.882  -3.511  1.00  0.00     0.167 HD
ATOM     35  C   UNL     1       8.677 -10.222  -4.455  1.00  0.00     0.074 A 
ATOM     36  C   UNL     1       7.792 -11.093  -5.203  1.00  0.00     0.031 C 
ATOM     37  C   UNL     1       9.577 -10.654  -3.538  1.00  0.00     0.031 A 
BRANCH  24  38
ATOM     38  C   UNL     1      12.960  -6.190  -0.923  1.00  0.00    -0.014 A 
ATOM     39  C   UNL     1      12.690  -5.534   0.290  1.00  0.00     0.010 A 
ATOM     40  C   UNL     1      14.280  -6.591  -1.204  1.00  0.00     0.010 A 
ATOM     41  C   UNL     1      13.723  -5.266   1.195  1.00  0.00     0.020 A 
ATOM     42  C   UNL     1      15.311  -6.346  -0.291  1.00  0.00     0.020 A 
ATOM     43  C   UNL     1      15.027  -5.676   0.899  1.00  0.00     0.054 A 
BRANCH  43  44
ATOM     44  S   UNL     1      16.338  -5.355   2.112  1.00  0.00     0.124 S 
ATOM     45  O   UNL     1      16.507  -3.909   1.997  1.00  0.00    -0.237 OA
ATOM     46  O   UNL     1      15.738  -5.819   3.361  1.00  0.00    -0.237 OA
ATOM     47  O   UNL     1      17.462  -6.154   1.630  1.00  0.00    -0.744 OA
ENDBRANCH  43  44
ENDBRANCH  24  38
BRANCH  25  48
ATOM     48  C   UNL     1       5.761  -8.254  -7.589  1.00  0.00    -0.014 A 
ATOM     49  C   UNL     1       4.505  -8.750  -7.202  1.00  0.00     0.010 A 
ATOM     50  C   UNL     1       6.018  -8.033  -8.955  1.00  0.00     0.010 A 
ATOM     51  C   UNL     1       3.534  -9.042  -8.164  1.00  0.00     0.020 A 
ATOM     52  C   UNL     1       5.040  -8.291  -9.917  1.00  0.00     0.020 A 
ATOM     53  C   UNL     1       3.809  -8.812  -9.516  1.00  0.00     0.054 A 
BRANCH  53  54
ATOM     54  S   UNL     1       2.526  -9.168 -10.747  1.00  0.00     0.124 S 
ATOM     55  O   UNL     1       2.563 -10.626 -10.807  1.00  0.00    -0.237 OA
ATOM     56  O   UNL     1       1.331  -8.590 -10.137  1.00  0.00    -0.237 OA
ATOM     57  O   UNL     1       3.001  -8.478 -11.944  1.00  0.00    -0.744 OA
ENDBRANCH  53  54
ENDBRANCH  25  48
BRANCH  37  58
ATOM     58  C   UNL     1       9.622 -12.134  -3.275  1.00  0.00    -0.014 A 
ATOM     59  C   UNL     1      10.163 -13.025  -4.218  1.00  0.00     0.010 A 
ATOM     60  C   UNL     1       9.148 -12.633  -2.048  1.00  0.00     0.010 A 
ATOM     61  C   UNL     1      10.195 -14.396  -3.954  1.00  0.00     0.020 A 
ATOM     62  C   UNL     1       9.206 -13.999  -1.768  1.00  0.00     0.020 A 
ATOM     63  C   UNL     1       9.715 -14.874  -2.730  1.00  0.00     0.054 A 
BRANCH  63  64
ATOM     64  S   UNL     1       9.803 -16.653  -2.394  1.00  0.00     0.124 S 
ATOM     65  O   UNL     1       8.732 -17.174  -3.239  1.00  0.00    -0.237 OA
ATOM     66  O   UNL     1      11.159 -16.993  -2.817  1.00  0.00    -0.237 OA
ATOM     67  O   UNL     1       9.564 -16.747  -0.956  1.00  0.00    -0.744 OA
ENDBRANCH  63  64
ENDBRANCH  37  58
ENDBRANCH  11  12
ENDBRANCH   4   6
ENDBRANCH   1   2
BRANCH   1  68
ATOM     68  C   UNL     1       7.676   2.724  -3.052  1.00  0.00     0.042 C 
BRANCH  68  69
ATOM     69  C   UNL     1       7.507   4.230  -3.083  1.00  0.00     0.117 C 
BRANCH  69  70
ATOM     70  N   UNL     1       6.170   4.623  -2.688  1.00  0.00    -0.354 N 
ATOM     71  C   UNL     1       5.652   5.373  -1.690  1.00  0.00     0.242 C 
ATOM     72  H   UNL     1       5.477   4.260  -3.286  1.00  0.00     0.163 HD
ATOM     73  O   UNL     1       4.410   5.383  -1.667  1.00  0.00    -0.273 OA
BRANCH  71  74
ATOM     74  C   UNL     1       6.457   6.201  -0.639  1.00  0.00     0.173 C 
ATOM     75  C   UNL     1       7.962   6.429  -0.774  1.00  0.00     0.035 C 
ATOM     76  N   UNL     1       5.828   7.538  -0.578  1.00  0.00    -0.344 N 
ATOM     77  C   UNL     1       8.304   7.319  -1.974  1.00  0.00     0.004 C 
ATOM     78  C   UNL     1       6.047   8.435  -1.705  1.00  0.00     0.119 C 
ATOM     79  C   UNL     1       7.550   8.648  -1.902  1.00  0.00     0.022 C 
BRANCH  76  80
ATOM     80  C   UNL     1       5.473   8.036   0.656  1.00  0.00     0.133 A 
ATOM     81  C   UNL     1       4.297   8.737   0.799  1.00  0.00     0.076 A 
ATOM     82  N   UNL     1       6.259   7.775   1.710  1.00  0.00    -0.211 NA
ATOM     83  C   UNL     1       3.944   9.138   2.071  1.00  0.00     0.076 A 
ATOM     84  C   UNL     1       5.852   8.219   2.910  1.00  0.00     0.162 A 
ATOM     85  N   UNL     1       4.720   8.900   3.145  1.00  0.00    -0.228 NA
BRANCH  83  86
ATOM     86  C   UNL     1       2.674   9.825   2.327  1.00  0.00     0.000 A 
ATOM     87  C   UNL     1       2.646  11.075   2.963  1.00  0.00     0.010 A 
ATOM     88  C   UNL     1       1.452   9.253   1.929  1.00  0.00     0.010 A 
ATOM     89  C   UNL     1       1.438  11.743   3.176  1.00  0.00     0.001 A 
ATOM     90  C   UNL     1       0.243   9.915   2.150  1.00  0.00     0.001 A 
ATOM     91  C   UNL     1       0.238  11.163   2.769  1.00  0.00     0.000 A 
ENDBRANCH  83  86
BRANCH  84  92
ATOM     92  C   UNL     1       6.706   7.904   4.056  1.00  0.00     0.021 A 
ATOM     93  C   UNL     1       8.071   8.247   4.059  1.00  0.00     0.012 A 
ATOM     94  C   UNL     1       6.188   7.228   5.172  1.00  0.00     0.032 A 
ATOM     95  C   UNL     1       8.890   7.936   5.147  1.00  0.00     0.002 A 
ATOM     96  C   UNL     1       7.012   6.902   6.249  1.00  0.00     0.041 A 
ATOM     97  C   UNL     1       8.359   7.257   6.243  1.00  0.00     0.020 A 
ATOM     98  Cl  UNL     1       6.362   6.047   7.593  1.00  0.00    -0.084 Cl
ENDBRANCH  84  92
ENDBRANCH  76  80
ENDBRANCH  71  74
ENDBRANCH  69  70
ENDBRANCH  68  69
ENDBRANCH   1  68
TORSDOF 16
