REMARK SMILES COC[C@H](O)CC1(C(=O)NCCCNC(=O)c2ccc(-c3c4nc(c(-c5ccc(S(=O)(=O)[O-])cc5)c5ccc([nH]5)c(-c5ccc(S(=O)(=O)[O-])cc5)c5nc(c(-c6ccc(S(=O)(=O)[O-])cc6)c6ccc3[nH]6)C=C5)C=C4)cc2)CC1
REMARK SMILES IDX 11 1 10 2 8 3 9 4 7 6 77 7 78 8 6 9 4 10 3 11 2 12 1 13 5 14
REMARK SMILES IDX 12 16 13 17 14 18 15 19 16 21 17 22 18 23 76 24 19 25 75 26
REMARK SMILES IDX 20 27 21 28 22 29 69 30 23 31 74 32 68 33 70 34 24 35 73 36
REMARK SMILES IDX 67 37 66 38 25 40 55 41 36 42 54 43 37 44 40 45 53 46 71 47
REMARK SMILES IDX 38 48 39 49 52 51 72 52 41 53 26 54 27 55 35 56 28 57 34 58
REMARK SMILES IDX 29 59 30 60 31 61 32 62 33 63 56 64 57 65 65 66 58 67 64 68
REMARK SMILES IDX 59 69 60 70 61 71 62 72 63 73 42 74 43 75 51 76 44 77 50 78
REMARK SMILES IDX 45 79 46 80 47 81 48 82 49 83
REMARK H PARENT 10 5 5 15 14 20 70 39 40 50
REMARK Flexibility Score: inf
ROOT
ATOM      1  C   UNL     1      -0.089   3.250   7.388  1.00  0.00     0.117 C 
ENDROOT
BRANCH   1   2
ATOM      2  N   UNL     1       0.528   1.935   7.327  1.00  0.00    -0.356 N 
ATOM      3  C   UNL     1       0.772   1.029   6.335  1.00  0.00     0.226 C 
ATOM      4  O   UNL     1       1.249  -0.051   6.691  1.00  0.00    -0.274 OA
ATOM      5  H   UNL     1       0.844   1.626   8.206  1.00  0.00     0.163 HD
BRANCH   3   6
ATOM      6  C   UNL     1       0.533   1.265   4.852  1.00  0.00     0.052 C 
ATOM      7  C   UNL     1       0.768   2.666   4.305  1.00  0.00     0.018 C 
ATOM      8  C   UNL     1      -0.633   2.121   4.385  1.00  0.00     0.018 C 
BRANCH   6   9
ATOM      9  C   UNL     1       0.973   0.065   3.979  1.00  0.00     0.051 C 
BRANCH   9  10
ATOM     10  C   UNL     1       0.702   0.104   2.473  1.00  0.00     0.141 C 
BRANCH  10  11
ATOM     11  C   UNL     1       1.028  -1.259   1.825  1.00  0.00     0.191 C 
BRANCH  11  12
ATOM     12  O   UNL     1       1.256  -1.142   0.413  1.00  0.00    -0.382 OA
ATOM     13  C   UNL     1       0.095  -0.773  -0.322  1.00  0.00     0.195 C 
ENDBRANCH  11  12
ENDBRANCH  10  11
BRANCH  10  14
ATOM     14  O   UNL     1       1.513   1.114   1.861  1.00  0.00    -0.391 OA
ATOM     15  H   UNL     1       2.450   0.905   2.001  1.00  0.00     0.211 HD
ENDBRANCH  10  14
ENDBRANCH   9  10
ENDBRANCH   6   9
ENDBRANCH   3   6
ENDBRANCH   1   2
BRANCH   1  16
ATOM     16  C   UNL     1      -1.448   3.201   8.072  1.00  0.00     0.042 C 
BRANCH  16  17
ATOM     17  C   UNL     1      -1.380   2.733   9.520  1.00  0.00     0.118 C 
BRANCH  17  18
ATOM     18  N   UNL     1      -0.538   3.592  10.344  1.00  0.00    -0.352 N 
ATOM     19  C   UNL     1      -0.871   4.403  11.400  1.00  0.00     0.251 C 
ATOM     20  H   UNL     1       0.417   3.590  10.106  1.00  0.00     0.163 HD
ATOM     21  O   UNL     1      -0.058   5.221  11.820  1.00  0.00    -0.269 OA
BRANCH  19  22
ATOM     22  C   UNL     1      -2.210   4.299  12.014  1.00  0.00     0.039 A 
ATOM     23  C   UNL     1      -2.892   5.466  12.366  1.00  0.00     0.014 A 
ATOM     24  C   UNL     1      -2.791   3.050  12.242  1.00  0.00     0.014 A 
ATOM     25  C   UNL     1      -4.186   5.378  12.882  1.00  0.00     0.010 A 
ATOM     26  C   UNL     1      -4.113   2.969  12.659  1.00  0.00     0.010 A 
ATOM     27  C   UNL     1      -4.822   4.131  12.995  1.00  0.00    -0.014 A 
BRANCH  27  28
ATOM     28  C   UNL     1      -6.224   4.015  13.465  1.00  0.00     0.031 A 
ATOM     29  C   UNL     1      -6.540   3.251  14.722  1.00  0.00     0.074 A 
ATOM     30  C   UNL     1      -7.220   4.539  12.724  1.00  0.00     0.049 A 
ATOM     31  N   UNL     1      -7.703   3.005  15.269  1.00  0.00    -0.248 NA
ATOM     32  C   UNL     1      -5.401   2.660  15.443  1.00  0.00     0.031 C 
ATOM     33  C   UNL     1      -7.046   5.271  11.467  1.00  0.00     0.029 A 
ATOM     34  N   UNL     1      -8.577   4.538  12.922  1.00  0.00    -0.354 N 
ATOM     35  C   UNL     1      -7.437   2.219  16.384  1.00  0.00     0.074 A 
ATOM     36  C   UNL     1      -6.012   1.975  16.397  1.00  0.00     0.031 C 
ATOM     37  C   UNL     1      -8.245   5.689  11.033  1.00  0.00     0.029 A 
ATOM     38  C   UNL     1      -9.276   5.213  11.950  1.00  0.00     0.049 A 
ATOM     39  H   UNL     1      -9.010   4.096  13.688  1.00  0.00     0.167 HD
ATOM     40  C   UNL     1      -8.297   1.760  17.325  1.00  0.00     0.031 A 
ATOM     41  C   UNL     1     -10.599   5.427  11.811  1.00  0.00     0.031 A 
ATOM     42  C   UNL     1      -9.715   2.000  17.301  1.00  0.00     0.049 A 
ATOM     43  C   UNL     1     -11.541   4.879  12.846  1.00  0.00     0.074 A 
ATOM     44  C   UNL     1     -10.669   1.623  18.229  1.00  0.00     0.029 A 
ATOM     45  N   UNL     1     -10.386   2.670  16.287  1.00  0.00    -0.354 N 
ATOM     46  N   UNL     1     -11.266   4.195  13.931  1.00  0.00    -0.248 NA
ATOM     47  C   UNL     1     -12.971   5.141  12.642  1.00  0.00     0.031 C 
ATOM     48  C   UNL     1     -11.924   2.008  17.745  1.00  0.00     0.029 A 
ATOM     49  C   UNL     1     -11.746   2.688  16.550  1.00  0.00     0.049 A 
ATOM     50  H   UNL     1      -9.959   3.073  15.497  1.00  0.00     0.167 HD
ATOM     51  C   UNL     1     -12.487   3.970  14.557  1.00  0.00     0.074 A 
ATOM     52  C   UNL     1     -13.499   4.600  13.732  1.00  0.00     0.031 C 
ATOM     53  C   UNL     1     -12.745   3.308  15.713  1.00  0.00     0.031 A 
BRANCH  40  54
ATOM     54  C   UNL     1      -7.714   0.927  18.441  1.00  0.00    -0.014 A 
ATOM     55  C   UNL     1      -6.821   1.481  19.378  1.00  0.00     0.010 A 
ATOM     56  C   UNL     1      -8.050  -0.435  18.544  1.00  0.00     0.010 A 
ATOM     57  C   UNL     1      -6.217   0.674  20.346  1.00  0.00     0.020 A 
ATOM     58  C   UNL     1      -7.477  -1.238  19.536  1.00  0.00     0.020 A 
ATOM     59  C   UNL     1      -6.542  -0.684  20.411  1.00  0.00     0.054 A 
BRANCH  59  60
ATOM     60  S   UNL     1      -5.720  -1.715  21.656  1.00  0.00     0.124 S 
ATOM     61  O   UNL     1      -4.368  -1.822  21.112  1.00  0.00    -0.237 OA
ATOM     62  O   UNL     1      -5.845  -0.913  22.870  1.00  0.00    -0.237 OA
ATOM     63  O   UNL     1      -6.494  -2.953  21.648  1.00  0.00    -0.744 OA
ENDBRANCH  59  60
ENDBRANCH  40  54
BRANCH  41  64
ATOM     64  C   UNL     1     -11.095   6.239  10.667  1.00  0.00    -0.014 A 
ATOM     65  C   UNL     1     -11.587   7.538  10.885  1.00  0.00     0.010 A 
ATOM     66  C   UNL     1     -11.029   5.745   9.351  1.00  0.00     0.010 A 
ATOM     67  C   UNL     1     -12.002   8.329   9.810  1.00  0.00     0.020 A 
ATOM     68  C   UNL     1     -11.417   6.543   8.271  1.00  0.00     0.020 A 
ATOM     69  C   UNL     1     -11.904   7.830   8.508  1.00  0.00     0.054 A 
BRANCH  69  70
ATOM     70  S   UNL     1     -12.364   8.910   7.125  1.00  0.00     0.124 S 
ATOM     71  O   UNL     1     -13.814   8.988   7.268  1.00  0.00    -0.237 OA
ATOM     72  O   UNL     1     -11.630  10.136   7.428  1.00  0.00    -0.237 OA
ATOM     73  O   UNL     1     -11.889   8.183   5.950  1.00  0.00    -0.744 OA
ENDBRANCH  69  70
ENDBRANCH  41  64
BRANCH  53  74
ATOM     74  C   UNL     1     -14.178   3.254  16.175  1.00  0.00    -0.014 A 
ATOM     75  C   UNL     1     -15.137   2.475  15.504  1.00  0.00     0.010 A 
ATOM     76  C   UNL     1     -14.557   3.956  17.335  1.00  0.00     0.010 A 
ATOM     77  C   UNL     1     -16.455   2.423  15.967  1.00  0.00     0.020 A 
ATOM     78  C   UNL     1     -15.865   3.881  17.819  1.00  0.00     0.020 A 
ATOM     79  C   UNL     1     -16.810   3.126  17.123  1.00  0.00     0.054 A 
BRANCH  79  80
ATOM     80  S   UNL     1     -18.515   3.004  17.728  1.00  0.00     0.124 S 
ATOM     81  O   UNL     1     -19.246   3.791  16.738  1.00  0.00    -0.237 OA
ATOM     82  O   UNL     1     -18.764   1.565  17.696  1.00  0.00    -0.237 OA
ATOM     83  O   UNL     1     -18.452   3.590  19.065  1.00  0.00    -0.744 OA
ENDBRANCH  79  80
ENDBRANCH  53  74
ENDBRANCH  27  28
ENDBRANCH  19  22
ENDBRANCH  17  18
ENDBRANCH  16  17
ENDBRANCH   1  16
TORSDOF 18
