REMARK SMILES CC[C@@H](C)[C@H](NC(=O)CCc1ccc(F)c(F)c1)C(=O)NCCCNC(=O)c1ccc(-c2c3nc(c(-c4ccc(S(=O)(=O)[O-])cc4)c4ccc([nH]4)c(-c4ccc(S(=O)(=O)[O-])cc4)c4nc(c(-c5ccc(S(=O)(=O)[O-])cc5)c5ccc2[nH]5)C=C4)C=C3)cc1
REMARK SMILES IDX 22 1 21 2 19 3 20 4 5 6 3 7 4 8 2 9 1 10 6 11 7 12 8 14 9 15
REMARK SMILES IDX 10 16 11 17 12 18 18 19 13 20 16 21 14 22 17 23 15 24 23 25
REMARK SMILES IDX 24 26 25 27 26 28 27 30 28 31 29 32 87 33 30 34 86 35 31 36
REMARK SMILES IDX 32 37 33 38 80 39 34 40 85 41 79 42 81 43 35 44 84 45 78 46
REMARK SMILES IDX 77 47 36 49 66 50 47 51 65 52 48 53 51 54 64 55 82 56 49 57
REMARK SMILES IDX 50 58 63 60 83 61 52 62 37 63 38 64 46 65 39 66 45 67 40 68
REMARK SMILES IDX 41 69 42 70 43 71 44 72 67 73 68 74 76 75 69 76 75 77 70 78
REMARK SMILES IDX 71 79 72 80 73 81 74 82 53 83 54 84 62 85 55 86 61 87 56 88
REMARK SMILES IDX 57 89 58 90 59 91 60 92
REMARK H PARENT 21 5 6 13 25 29 81 48 51 59
REMARK Flexibility Score: inf
ROOT
ATOM      1  C   UNL     1       4.433  -0.601   4.274  1.00  0.00     0.117 C 
ENDROOT
BRANCH   1   2
ATOM      2  N   UNL     1       3.403  -0.593   5.285  1.00  0.00    -0.354 N 
ATOM      3  C   UNL     1       2.070  -0.801   5.181  1.00  0.00     0.242 C 
ATOM      4  O   UNL     1       1.452  -0.940   6.243  1.00  0.00    -0.273 OA
ATOM      5  H   UNL     1       3.722  -0.405   6.198  1.00  0.00     0.163 HD
BRANCH   3   6
ATOM      6  C   UNL     1       1.359  -0.994   3.828  1.00  0.00     0.174 C 
BRANCH   6   7
ATOM      7  C   UNL     1       1.442  -2.476   3.305  1.00  0.00     0.018 C 
ATOM      8  C   UNL     1       1.310  -3.509   4.433  1.00  0.00     0.010 C 
BRANCH   7   9
ATOM      9  C   UNL     1       2.590  -2.817   2.318  1.00  0.00     0.002 C 
ATOM     10  C   UNL     1       3.812  -3.535   2.885  1.00  0.00     0.004 C 
ENDBRANCH   7   9
ENDBRANCH   6   7
BRANCH   6  11
ATOM     11  N   UNL     1       1.621  -0.010   2.759  1.00  0.00    -0.344 N 
ATOM     12  C   UNL     1       1.377   1.335   2.761  1.00  0.00     0.220 C 
ATOM     13  H   UNL     1       2.024  -0.370   1.936  1.00  0.00     0.164 HD
ATOM     14  O   UNL     1       0.946   1.844   1.725  1.00  0.00    -0.275 OA
BRANCH  12  15
ATOM     15  C   UNL     1       1.722   2.195   3.961  1.00  0.00     0.105 C 
BRANCH  15  16
ATOM     16  C   UNL     1       0.538   2.913   4.599  1.00  0.00     0.045 C 
BRANCH  16  17
ATOM     17  C   UNL     1      -0.460   1.961   5.207  1.00  0.00    -0.044 A 
ATOM     18  C   UNL     1      -0.408   1.632   6.571  1.00  0.00     0.007 A 
ATOM     19  C   UNL     1      -1.413   1.337   4.388  1.00  0.00     0.046 A 
ATOM     20  C   UNL     1      -1.272   0.668   7.098  1.00  0.00     0.043 A 
ATOM     21  C   UNL     1      -2.254   0.365   4.918  1.00  0.00     0.159 A 
ATOM     22  C   UNL     1      -2.181   0.029   6.262  1.00  0.00     0.158 A 
ATOM     23  F   UNL     1      -3.109  -0.272   4.106  1.00  0.00    -0.204 F 
ATOM     24  F   UNL     1      -2.977  -0.927   6.761  1.00  0.00    -0.204 F 
ENDBRANCH  16  17
ENDBRANCH  15  16
ENDBRANCH  12  15
ENDBRANCH   6  11
ENDBRANCH   3   6
ENDBRANCH   1   2
BRANCH   1  25
ATOM     25  C   UNL     1       5.024   0.760   3.968  1.00  0.00     0.042 C 
BRANCH  25  26
ATOM     26  C   UNL     1       5.381   1.545   5.215  1.00  0.00     0.118 C 
BRANCH  26  27
ATOM     27  N   UNL     1       6.405   0.867   6.002  1.00  0.00    -0.352 N 
ATOM     28  C   UNL     1       7.771   0.978   5.908  1.00  0.00     0.251 C 
ATOM     29  H   UNL     1       6.073   0.247   6.691  1.00  0.00     0.163 HD
ATOM     30  O   UNL     1       8.497   0.117   6.399  1.00  0.00    -0.269 OA
BRANCH  28  31
ATOM     31  C   UNL     1       8.345   2.136   5.200  1.00  0.00     0.039 A 
ATOM     32  C   UNL     1       9.403   1.962   4.304  1.00  0.00     0.014 A 
ATOM     33  C   UNL     1       7.810   3.404   5.424  1.00  0.00     0.014 A 
ATOM     34  C   UNL     1       9.884   3.062   3.590  1.00  0.00     0.010 A 
ATOM     35  C   UNL     1       8.202   4.464   4.627  1.00  0.00     0.010 A 
ATOM     36  C   UNL     1       9.268   4.316   3.728  1.00  0.00    -0.014 A 
BRANCH  36  37
ATOM     37  C   UNL     1       9.746   5.532   3.027  1.00  0.00     0.031 A 
ATOM     38  C   UNL     1      10.179   6.715   3.853  1.00  0.00     0.074 A 
ATOM     39  C   UNL     1       9.668   5.626   1.687  1.00  0.00     0.049 A 
ATOM     40  N   UNL     1      10.408   7.947   3.483  1.00  0.00    -0.248 NA
ATOM     41  C   UNL     1      10.311   6.489   5.304  1.00  0.00     0.031 C 
ATOM     42  C   UNL     1       9.232   4.562   0.781  1.00  0.00     0.029 A 
ATOM     43  N   UNL     1       9.930   6.686   0.855  1.00  0.00    -0.354 N 
ATOM     44  C   UNL     1      10.655   8.649   4.657  1.00  0.00     0.074 A 
ATOM     45  C   UNL     1      10.487   7.722   5.752  1.00  0.00     0.031 C 
ATOM     46  C   UNL     1       9.268   5.019  -0.481  1.00  0.00     0.029 A 
ATOM     47  C   UNL     1       9.678   6.420  -0.470  1.00  0.00     0.049 A 
ATOM     48  H   UNL     1      10.266   7.553   1.177  1.00  0.00     0.167 HD
ATOM     49  C   UNL     1      11.009   9.947   4.810  1.00  0.00     0.031 A 
ATOM     50  C   UNL     1       9.750   7.223  -1.550  1.00  0.00     0.031 A 
ATOM     51  C   UNL     1      11.211  10.847   3.709  1.00  0.00     0.049 A 
ATOM     52  C   UNL     1      10.177   8.653  -1.369  1.00  0.00     0.074 A 
ATOM     53  C   UNL     1      11.637  12.162   3.738  1.00  0.00     0.029 A 
ATOM     54  N   UNL     1      11.008  10.518   2.376  1.00  0.00    -0.354 N 
ATOM     55  N   UNL     1      10.451   9.295  -0.257  1.00  0.00    -0.248 NA
ATOM     56  C   UNL     1      10.318   9.466  -2.584  1.00  0.00     0.031 C 
ATOM     57  C   UNL     1      11.652  12.641   2.425  1.00  0.00     0.029 A 
ATOM     58  C   UNL     1      11.292  11.607   1.573  1.00  0.00     0.049 A 
ATOM     59  H   UNL     1      10.707   9.639   2.051  1.00  0.00     0.167 HD
ATOM     60  C   UNL     1      10.832  10.576  -0.641  1.00  0.00     0.074 A 
ATOM     61  C   UNL     1      10.752  10.618  -2.088  1.00  0.00     0.031 C 
ATOM     62  C   UNL     1      11.220  11.619   0.133  1.00  0.00     0.031 A 
BRANCH  49  63
ATOM     63  C   UNL     1      11.185  10.454   6.218  1.00  0.00    -0.014 A 
ATOM     64  C   UNL     1      12.217   9.975   7.046  1.00  0.00     0.010 A 
ATOM     65  C   UNL     1      10.292  11.413   6.730  1.00  0.00     0.010 A 
ATOM     66  C   UNL     1      12.306  10.384   8.379  1.00  0.00     0.020 A 
ATOM     67  C   UNL     1      10.400  11.854   8.052  1.00  0.00     0.020 A 
ATOM     68  C   UNL     1      11.389  11.314   8.876  1.00  0.00     0.054 A 
BRANCH  68  69
ATOM     69  S   UNL     1      11.512  11.812  10.616  1.00  0.00     0.124 S 
ATOM     70  O   UNL     1      10.984  10.635  11.301  1.00  0.00    -0.237 OA
ATOM     71  O   UNL     1      12.945  12.044  10.784  1.00  0.00    -0.237 OA
ATOM     72  O   UNL     1      10.676  13.007  10.695  1.00  0.00    -0.744 OA
ENDBRANCH  68  69
ENDBRANCH  49  63
BRANCH  50  73
ATOM     73  C   UNL     1       9.437   6.668  -2.895  1.00  0.00    -0.014 A 
ATOM     74  C   UNL     1      10.470   6.403  -3.811  1.00  0.00     0.010 A 
ATOM     75  C   UNL     1       8.113   6.339  -3.243  1.00  0.00     0.010 A 
ATOM     76  C   UNL     1      10.187   5.818  -5.049  1.00  0.00     0.020 A 
ATOM     77  C   UNL     1       7.830   5.731  -4.470  1.00  0.00     0.020 A 
ATOM     78  C   UNL     1       8.869   5.477  -5.367  1.00  0.00     0.054 A 
BRANCH  78  79
ATOM     79  S   UNL     1       8.542   4.634  -6.941  1.00  0.00     0.124 S 
ATOM     80  O   UNL     1       8.732   5.710  -7.907  1.00  0.00    -0.237 OA
ATOM     81  O   UNL     1       9.558   3.585  -6.952  1.00  0.00    -0.237 OA
ATOM     82  O   UNL     1       7.168   4.158  -6.794  1.00  0.00    -0.744 OA
ENDBRANCH  78  79
ENDBRANCH  50  73
BRANCH  62  83
ATOM     83  C   UNL     1      11.649  12.884  -0.559  1.00  0.00    -0.014 A 
ATOM     84  C   UNL     1      10.712  13.759  -1.134  1.00  0.00     0.010 A 
ATOM     85  C   UNL     1      13.008  13.251  -0.531  1.00  0.00     0.010 A 
ATOM     86  C   UNL     1      11.130  14.977  -1.677  1.00  0.00     0.020 A 
ATOM     87  C   UNL     1      13.425  14.478  -1.050  1.00  0.00     0.020 A 
ATOM     88  C   UNL     1      12.482  15.332  -1.625  1.00  0.00     0.054 A 
BRANCH  88  89
ATOM     89  S   UNL     1      12.985  16.955  -2.259  1.00  0.00     0.124 S 
ATOM     90  O   UNL     1      12.877  16.764  -3.702  1.00  0.00    -0.237 OA
ATOM     91  O   UNL     1      11.994  17.850  -1.667  1.00  0.00    -0.237 OA
ATOM     92  O   UNL     1      14.345  17.120  -1.751  1.00  0.00    -0.744 OA
ENDBRANCH  88  89
ENDBRANCH  62  83
ENDBRANCH  36  37
ENDBRANCH  28  31
ENDBRANCH  26  27
ENDBRANCH  25  26
ENDBRANCH   1  25
TORSDOF 19
