REMARK SMILES Cc1cccc(CN(C)c2nc(C)c(C(=O)NCCCNC(=O)c3ccc(-c4c5nc(c(-c6ccc(S(=O)(=O)[O-])cc6)c6ccc([nH]6)c(-c6ccc(S(=O)(=O)[O-])cc6)c6nc(c(-c7ccc(S(=O)(=O)[O-])cc7)c7ccc4[nH]7)C=C6)C=C5)cc3)s2)n1
REMARK SMILES IDX 19 1 18 2 17 3 15 4 16 5 14 7 10 8 11 9 84 10 12 11 13 12
REMARK SMILES IDX 8 13 9 14 7 15 6 16 1 17 2 18 3 19 85 20 4 21 5 22 20 23
REMARK SMILES IDX 21 24 22 25 23 27 24 28 25 29 83 30 26 31 82 32 27 33 28 34
REMARK SMILES IDX 29 35 76 36 30 37 81 38 75 39 77 40 31 41 80 42 74 43 73 44
REMARK SMILES IDX 32 46 62 47 43 48 61 49 44 50 47 51 60 52 78 53 45 54 46 55
REMARK SMILES IDX 59 57 79 58 48 59 33 60 34 61 42 62 35 63 41 64 36 65 37 66
REMARK SMILES IDX 38 67 39 68 40 69 63 70 64 71 72 72 65 73 71 74 66 75 67 76
REMARK SMILES IDX 68 77 69 78 70 79 49 80 50 81 58 82 51 83 57 84 52 85 53 86
REMARK SMILES IDX 54 87 55 88 56 89
REMARK H PARENT 17 6 21 26 77 45 47 56
REMARK Flexibility Score: inf
ROOT
ATOM      1  C   UNL     1      -3.077   2.221   8.278  1.00  0.00     0.042 C 
ENDROOT
BRANCH   1   2
ATOM      2  C   UNL     1      -1.704   1.887   7.701  1.00  0.00     0.118 C 
BRANCH   2   3
ATOM      3  N   UNL     1      -1.804   0.751   6.817  1.00  0.00    -0.351 N 
ATOM      4  C   UNL     1      -1.909   0.623   5.458  1.00  0.00     0.263 C 
ATOM      5  O   UNL     1      -2.048  -0.553   5.098  1.00  0.00    -0.268 OA
ATOM      6  H   UNL     1      -1.797  -0.113   7.290  1.00  0.00     0.163 HD
BRANCH   4   7
ATOM      7  C   UNL     1      -1.796   1.725   4.513  1.00  0.00     0.117 A 
ATOM      8  C   UNL     1      -1.332   2.854   2.354  1.00  0.00     0.186 A 
ATOM      9  N   UNL     1      -1.699   3.713   3.273  1.00  0.00    -0.225 NA
ATOM     10  S   UNL     1      -1.253   1.248   2.940  1.00  0.00    -0.091 S 
ATOM     11  C   UNL     1      -2.055   3.090   4.467  1.00  0.00     0.063 A 
ATOM     12  C   UNL     1      -2.692   4.007   5.444  1.00  0.00     0.068 C 
BRANCH   8  13
ATOM     13  N   UNL     1      -1.008   3.220   1.081  1.00  0.00    -0.345 N 
ATOM     14  C   UNL     1      -0.581   4.590   0.872  1.00  0.00     0.146 C 
BRANCH  13  15
ATOM     15  C   UNL     1      -1.513   2.478  -0.080  1.00  0.00     0.174 C 
BRANCH  15  16
ATOM     16  C   UNL     1      -0.884   1.105  -0.253  1.00  0.00     0.060 A 
ATOM     17  C   UNL     1       2.537  -0.226  -0.157  1.00  0.00     0.067 C 
ATOM     18  C   UNL     1       1.044  -0.195  -0.254  1.00  0.00     0.038 A 
ATOM     19  C   UNL     1       0.298  -1.368  -0.243  1.00  0.00     0.023 A 
ATOM     20  N   UNL     1       0.473   1.031  -0.288  1.00  0.00    -0.256 NA
ATOM     21  C   UNL     1      -1.089  -1.282  -0.277  1.00  0.00     0.004 A 
ATOM     22  C   UNL     1      -1.693  -0.030  -0.284  1.00  0.00     0.026 A 
ENDBRANCH  15  16
ENDBRANCH  13  15
ENDBRANCH   8  13
ENDBRANCH   4   7
ENDBRANCH   2   3
ENDBRANCH   1   2
BRANCH   1  23
ATOM     23  C   UNL     1      -3.486   1.309   9.429  1.00  0.00     0.118 C 
BRANCH  23  24
ATOM     24  N   UNL     1      -2.774   1.642  10.652  1.00  0.00    -0.352 N 
ATOM     25  C   UNL     1      -3.254   2.141  11.839  1.00  0.00     0.251 C 
ATOM     26  H   UNL     1      -1.802   1.485  10.627  1.00  0.00     0.163 HD
ATOM     27  O   UNL     1      -2.462   2.607  12.653  1.00  0.00    -0.269 OA
BRANCH  25  28
ATOM     28  C   UNL     1      -4.705   2.127  12.139  1.00  0.00     0.039 A 
ATOM     29  C   UNL     1      -5.259   3.207  12.835  1.00  0.00     0.014 A 
ATOM     30  C   UNL     1      -5.510   1.037  11.797  1.00  0.00     0.014 A 
ATOM     31  C   UNL     1      -6.622   3.210  13.149  1.00  0.00     0.010 A 
ATOM     32  C   UNL     1      -6.881   1.076  12.040  1.00  0.00     0.010 A 
ATOM     33  C   UNL     1      -7.448   2.154  12.735  1.00  0.00    -0.014 A 
BRANCH  33  34
ATOM     34  C   UNL     1      -8.902   2.142  13.041  1.00  0.00     0.031 A 
ATOM     35  C   UNL     1      -9.477   1.078  13.938  1.00  0.00     0.074 A 
ATOM     36  C   UNL     1      -9.714   3.050  12.464  1.00  0.00     0.049 A 
ATOM     37  N   UNL     1     -10.723   0.868  14.277  1.00  0.00    -0.248 NA
ATOM     38  C   UNL     1      -8.529   0.105  14.506  1.00  0.00     0.031 C 
ATOM     39  C   UNL     1      -9.284   4.113  11.553  1.00  0.00     0.029 A 
ATOM     40  N   UNL     1     -11.072   3.221  12.557  1.00  0.00    -0.354 N 
ATOM     41  C   UNL     1     -10.713  -0.275  15.069  1.00  0.00     0.074 A 
ATOM     42  C   UNL     1      -9.343  -0.736  15.127  1.00  0.00     0.031 C 
ATOM     43  C   UNL     1     -10.352   4.848  11.201  1.00  0.00     0.029 A 
ATOM     44  C   UNL     1     -11.545   4.284  11.825  1.00  0.00     0.049 A 
ATOM     45  H   UNL     1     -11.653   2.638  13.097  1.00  0.00     0.167 HD
ATOM     46  C   UNL     1     -11.747  -0.880  15.703  1.00  0.00     0.031 A 
ATOM     47  C   UNL     1     -12.798   4.754  11.674  1.00  0.00     0.031 A 
ATOM     48  C   UNL     1     -13.104  -0.405  15.662  1.00  0.00     0.049 A 
ATOM     49  C   UNL     1     -13.930   4.068  12.386  1.00  0.00     0.074 A 
ATOM     50  C   UNL     1     -14.211  -0.900  16.329  1.00  0.00     0.029 A 
ATOM     51  N   UNL     1     -13.541   0.673  14.907  1.00  0.00    -0.354 N 
ATOM     52  N   UNL     1     -13.891   3.027  13.184  1.00  0.00    -0.248 NA
ATOM     53  C   UNL     1     -15.274   4.625  12.182  1.00  0.00     0.031 C 
ATOM     54  C   UNL     1     -15.327  -0.150  15.939  1.00  0.00     0.029 A 
ATOM     55  C   UNL     1     -14.905   0.844  15.069  1.00  0.00     0.049 A 
ATOM     56  H   UNL     1     -12.966   1.235  14.339  1.00  0.00     0.167 HD
ATOM     57  C   UNL     1     -15.201   2.821  13.600  1.00  0.00     0.074 A 
ATOM     58  C   UNL     1     -16.006   3.850  12.972  1.00  0.00     0.031 C 
ATOM     59  C   UNL     1     -15.692   1.870  14.432  1.00  0.00     0.031 A 
BRANCH  46  60
ATOM     60  C   UNL     1     -11.444  -2.136  16.478  1.00  0.00    -0.014 A 
ATOM     61  C   UNL     1     -10.689  -2.100  17.665  1.00  0.00     0.010 A 
ATOM     62  C   UNL     1     -11.925  -3.373  16.013  1.00  0.00     0.010 A 
ATOM     63  C   UNL     1     -10.367  -3.283  18.337  1.00  0.00     0.020 A 
ATOM     64  C   UNL     1     -11.631  -4.556  16.698  1.00  0.00     0.020 A 
ATOM     65  C   UNL     1     -10.832  -4.506  17.842  1.00  0.00     0.054 A 
BRANCH  65  66
ATOM     66  S   UNL     1     -10.389  -6.029  18.722  1.00  0.00     0.124 S 
ATOM     67  O   UNL     1      -8.994  -6.208  18.327  1.00  0.00    -0.237 OA
ATOM     68  O   UNL     1     -10.603  -5.667  20.121  1.00  0.00    -0.237 OA
ATOM     69  O   UNL     1     -11.320  -7.020  18.189  1.00  0.00    -0.744 OA
ENDBRANCH  65  66
ENDBRANCH  46  60
BRANCH  47  70
ATOM     70  C   UNL     1     -13.037   5.965  10.843  1.00  0.00    -0.014 A 
ATOM     71  C   UNL     1     -13.345   7.191  11.459  1.00  0.00     0.010 A 
ATOM     72  C   UNL     1     -12.921   5.912   9.443  1.00  0.00     0.010 A 
ATOM     73  C   UNL     1     -13.538   8.341  10.689  1.00  0.00     0.020 A 
ATOM     74  C   UNL     1     -13.090   7.065   8.671  1.00  0.00     0.020 A 
ATOM     75  C   UNL     1     -13.404   8.272   9.300  1.00  0.00     0.054 A 
BRANCH  75  76
ATOM     76  S   UNL     1     -13.586   9.794   8.328  1.00  0.00     0.124 S 
ATOM     77  O   UNL     1     -15.030  10.007   8.364  1.00  0.00    -0.237 OA
ATOM     78  O   UNL     1     -12.786  10.751   9.088  1.00  0.00    -0.237 OA
ATOM     79  O   UNL     1     -13.038   9.433   7.023  1.00  0.00    -0.744 OA
ENDBRANCH  75  76
ENDBRANCH  47  70
BRANCH  59  80
ATOM     80  C   UNL     1     -17.165   1.913  14.736  1.00  0.00    -0.014 A 
ATOM     81  C   UNL     1     -18.117   1.514  13.782  1.00  0.00     0.010 A 
ATOM     82  C   UNL     1     -17.597   2.309  16.015  1.00  0.00     0.010 A 
ATOM     83  C   UNL     1     -19.480   1.539  14.092  1.00  0.00     0.020 A 
ATOM     84  C   UNL     1     -18.956   2.311  16.337  1.00  0.00     0.020 A 
ATOM     85  C   UNL     1     -19.890   1.938  15.368  1.00  0.00     0.054 A 
BRANCH  85  86
ATOM     86  S   UNL     1     -21.660   1.918  15.764  1.00  0.00     0.124 S 
ATOM     87  O   UNL     1     -22.141   3.106  15.064  1.00  0.00    -0.237 OA
ATOM     88  O   UNL     1     -22.100   0.640  15.208  1.00  0.00    -0.237 OA
ATOM     89  O   UNL     1     -21.690   1.999  17.223  1.00  0.00    -0.744 OA
ENDBRANCH  85  86
ENDBRANCH  59  80
ENDBRANCH  33  34
ENDBRANCH  25  28
ENDBRANCH  23  24
ENDBRANCH   1  23
TORSDOF 16
