REMARK SMILES CC(=O)c1cc(C(=O)NC[C@H]2CC[C@H](C(=O)NCCCNC(=O)c3ccc(-c4c5nc(c(-c6ccc(S(=O)(=O)[O-])cc6)c6ccc([nH]6)c(-c6ccc(S(=O)(=O)[O-])cc6)c6nc(c(-c7ccc(S(=O)(=O)[O-])cc7)c7ccc4[nH]7)C=C6)C=C5)cc3)O2)n(C)c1
REMARK SMILES IDX 18 1 17 2 15 3 16 4 14 6 11 7 12 8 84 9 13 10 10 11 9 12
REMARK SMILES IDX 7 13 8 14 6 16 4 17 5 18 87 19 85 20 86 21 2 22 1 23 3 24
REMARK SMILES IDX 19 25 20 26 21 27 22 28 23 30 24 31 25 32 83 33 26 34 82 35
REMARK SMILES IDX 27 36 28 37 29 38 76 39 30 40 81 41 75 42 77 43 31 44 80 45
REMARK SMILES IDX 74 46 73 47 32 49 62 50 43 51 61 52 44 53 47 54 60 55 78 56
REMARK SMILES IDX 45 57 46 58 59 60 79 61 48 62 33 63 34 64 42 65 35 66 41 67
REMARK SMILES IDX 36 68 37 69 38 70 39 71 40 72 63 73 64 74 72 75 65 76 71 77
REMARK SMILES IDX 66 78 67 79 68 80 69 81 70 82 49 83 50 84 58 85 51 86 57 87
REMARK SMILES IDX 52 88 53 89 54 90 55 91 56 92
REMARK H PARENT 17 5 9 15 21 29 77 48 47 59
REMARK Flexibility Score: inf
ROOT
ATOM      1  C   UNL     1      -1.030   3.176   4.224  1.00  0.00     0.117 C 
ENDROOT
BRANCH   1   2
ATOM      2  N   UNL     1      -2.222   2.890   4.995  1.00  0.00    -0.354 N 
ATOM      3  C   UNL     1      -2.465   3.027   6.329  1.00  0.00     0.249 C 
ATOM      4  O   UNL     1      -3.585   2.701   6.734  1.00  0.00    -0.272 OA
ATOM      5  H   UNL     1      -2.978   2.540   4.471  1.00  0.00     0.163 HD
BRANCH   3   6
ATOM      6  C   UNL     1      -1.387   3.525   7.319  1.00  0.00     0.207 C 
ATOM      7  C   UNL     1       0.748   4.461   7.004  1.00  0.00     0.138 C 
ATOM      8  C   UNL     1       0.945   2.969   7.184  1.00  0.00     0.037 C 
ATOM      9  O   UNL     1      -0.673   4.689   6.910  1.00  0.00    -0.363 OA
ATOM     10  C   UNL     1      -0.376   2.462   7.709  1.00  0.00     0.045 C 
BRANCH   7  11
ATOM     11  C   UNL     1       1.326   5.421   8.051  1.00  0.00     0.148 C 
BRANCH  11  12
ATOM     12  N   UNL     1       1.697   4.863   9.328  1.00  0.00    -0.348 N 
ATOM     13  C   UNL     1       2.783   4.230   9.860  1.00  0.00     0.268 C 
ATOM     14  O   UNL     1       2.623   3.940  11.053  1.00  0.00    -0.268 OA
ATOM     15  H   UNL     1       0.977   4.967   9.991  1.00  0.00     0.163 HD
BRANCH  13  16
ATOM     16  C   UNL     1       4.003   3.824   9.166  1.00  0.00     0.107 A 
ATOM     17  C   UNL     1       5.995   2.663   8.930  1.00  0.00     0.036 A 
ATOM     18  C   UNL     1       4.807   2.795   9.684  1.00  0.00     0.045 A 
ATOM     19  C   UNL     1       5.875   3.578   7.912  1.00  0.00     0.097 A 
ATOM     20  N   UNL     1       4.699   4.280   8.059  1.00  0.00    -0.346 N 
ATOM     21  C   UNL     1       4.430   5.394   7.183  1.00  0.00     0.150 C 
BRANCH  17  22
ATOM     22  C   UNL     1       7.159   1.803   9.134  1.00  0.00     0.161 C 
ATOM     23  C   UNL     1       6.957   0.489   9.841  1.00  0.00     0.093 C 
ATOM     24  O   UNL     1       8.271   2.139   8.729  1.00  0.00    -0.294 OA
ENDBRANCH  17  22
ENDBRANCH  13  16
ENDBRANCH  11  12
ENDBRANCH   7  11
ENDBRANCH   3   6
ENDBRANCH   1   2
BRANCH   1  25
ATOM     25  C   UNL     1      -0.223   1.917   3.936  1.00  0.00     0.042 C 
BRANCH  25  26
ATOM     26  C   UNL     1      -0.784   1.098   2.783  1.00  0.00     0.118 C 
BRANCH  26  27
ATOM     27  N   UNL     1      -0.644   1.788   1.508  1.00  0.00    -0.352 N 
ATOM     28  C   UNL     1      -0.048   1.374   0.343  1.00  0.00     0.251 C 
ATOM     29  H   UNL     1      -1.037   2.690   1.477  1.00  0.00     0.163 HD
ATOM     30  O   UNL     1       0.154   2.191  -0.550  1.00  0.00    -0.269 OA
BRANCH  28  31
ATOM     31  C   UNL     1       0.361  -0.037   0.169  1.00  0.00     0.039 A 
ATOM     32  C   UNL     1       1.556  -0.314  -0.500  1.00  0.00     0.014 A 
ATOM     33  C   UNL     1      -0.438  -1.085   0.635  1.00  0.00     0.014 A 
ATOM     34  C   UNL     1       1.975  -1.638  -0.652  1.00  0.00     0.010 A 
ATOM     35  C   UNL     1       0.021  -2.396   0.558  1.00  0.00     0.010 A 
ATOM     36  C   UNL     1       1.226  -2.687  -0.096  1.00  0.00    -0.014 A 
BRANCH  36  37
ATOM     37  C   UNL     1       1.679  -4.097  -0.196  1.00  0.00     0.031 A 
ATOM     38  C   UNL     1       0.848  -5.106  -0.942  1.00  0.00     0.074 A 
ATOM     39  C   UNL     1       2.804  -4.480   0.441  1.00  0.00     0.049 A 
ATOM     40  N   UNL     1       1.042  -6.392  -1.081  1.00  0.00    -0.248 NA
ATOM     41  C   UNL     1      -0.377  -4.611  -1.594  1.00  0.00     0.031 C 
ATOM     42  C   UNL     1       3.671  -3.603   1.233  1.00  0.00     0.029 A 
ATOM     43  N   UNL     1       3.407  -5.709   0.531  1.00  0.00    -0.354 N 
ATOM     44  C   UNL     1      -0.041  -6.862  -1.815  1.00  0.00     0.074 A 
ATOM     45  C   UNL     1      -0.914  -5.733  -2.050  1.00  0.00     0.031 C 
ATOM     46  C   UNL     1       4.707  -4.316   1.703  1.00  0.00     0.029 A 
ATOM     47  C   UNL     1       4.556  -5.705   1.286  1.00  0.00     0.049 A 
ATOM     48  H   UNL     1       3.051  -6.517   0.096  1.00  0.00     0.167 HD
ATOM     49  C   UNL     1      -0.278  -8.115  -2.270  1.00  0.00     0.031 A 
ATOM     50  C   UNL     1       5.392  -6.710   1.612  1.00  0.00     0.031 A 
ATOM     51  C   UNL     1       0.604  -9.230  -2.047  1.00  0.00     0.049 A 
ATOM     52  C   UNL     1       5.108  -8.093   1.095  1.00  0.00     0.074 A 
ATOM     53  C   UNL     1       0.485 -10.527  -2.515  1.00  0.00     0.029 A 
ATOM     54  N   UNL     1       1.767  -9.181  -1.293  1.00  0.00    -0.354 N 
ATOM     55  N   UNL     1       4.112  -8.504   0.347  1.00  0.00    -0.248 NA
ATOM     56  C   UNL     1       6.067  -9.146   1.455  1.00  0.00     0.031 C 
ATOM     57  C   UNL     1       1.550 -11.274  -2.001  1.00  0.00     0.029 A 
ATOM     58  C   UNL     1       2.364 -10.429  -1.264  1.00  0.00     0.049 A 
ATOM     59  H   UNL     1       2.116  -8.377  -0.845  1.00  0.00     0.167 HD
ATOM     60  C   UNL     1       4.340  -9.857   0.123  1.00  0.00     0.074 A 
ATOM     61  C   UNL     1       5.575 -10.190   0.802  1.00  0.00     0.031 C 
ATOM     62  C   UNL     1       3.595 -10.742  -0.583  1.00  0.00     0.031 A 
BRANCH  49  63
ATOM     63  C   UNL     1      -1.544  -8.347  -3.054  1.00  0.00    -0.014 A 
ATOM     64  C   UNL     1      -1.710  -7.810  -4.344  1.00  0.00     0.010 A 
ATOM     65  C   UNL     1      -2.565  -9.149  -2.511  1.00  0.00     0.010 A 
ATOM     66  C   UNL     1      -2.888  -8.036  -5.059  1.00  0.00     0.020 A 
ATOM     67  C   UNL     1      -3.733  -9.402  -3.236  1.00  0.00     0.020 A 
ATOM     68  C   UNL     1      -3.894  -8.829  -4.499  1.00  0.00     0.054 A 
BRANCH  68  69
ATOM     69  S   UNL     1      -5.402  -9.127  -5.462  1.00  0.00     0.124 S 
ATOM     70  O   UNL     1      -6.067  -7.828  -5.388  1.00  0.00    -0.237 OA
ATOM     71  O   UNL     1      -4.877  -9.489  -6.776  1.00  0.00    -0.237 OA
ATOM     72  O   UNL     1      -6.067 -10.209  -4.741  1.00  0.00    -0.744 OA
ENDBRANCH  68  69
ENDBRANCH  49  63
BRANCH  50  73
ATOM     73  C   UNL     1       6.584  -6.438   2.462  1.00  0.00    -0.014 A 
ATOM     74  C   UNL     1       7.878  -6.489   1.914  1.00  0.00     0.010 A 
ATOM     75  C   UNL     1       6.429  -6.113   3.822  1.00  0.00     0.010 A 
ATOM     76  C   UNL     1       8.996  -6.239   2.715  1.00  0.00     0.020 A 
ATOM     77  C   UNL     1       7.543  -5.835   4.619  1.00  0.00     0.020 A 
ATOM     78  C   UNL     1       8.821  -5.913   4.063  1.00  0.00     0.054 A 
BRANCH  78  79
ATOM     79  S   UNL     1      10.283  -5.547   5.073  1.00  0.00     0.124 S 
ATOM     80  O   UNL     1      10.858  -6.875   5.264  1.00  0.00    -0.237 OA
ATOM     81  O   UNL     1      11.043  -4.645   4.211  1.00  0.00    -0.237 OA
ATOM     82  O   UNL     1       9.722  -4.928   6.271  1.00  0.00    -0.744 OA
ENDBRANCH  78  79
ENDBRANCH  50  73
BRANCH  62  83
ATOM     83  C   UNL     1       4.113 -12.152  -0.691  1.00  0.00    -0.014 A 
ATOM     84  C   UNL     1       4.082 -13.027   0.408  1.00  0.00     0.010 A 
ATOM     85  C   UNL     1       4.584 -12.621  -1.931  1.00  0.00     0.010 A 
ATOM     86  C   UNL     1       4.543 -14.340   0.276  1.00  0.00     0.020 A 
ATOM     87  C   UNL     1       5.019 -13.941  -2.074  1.00  0.00     0.020 A 
ATOM     88  C   UNL     1       5.008 -14.788  -0.964  1.00  0.00     0.054 A 
BRANCH  88  89
ATOM     89  S   UNL     1       5.558 -16.509  -1.120  1.00  0.00     0.124 S 
ATOM     90  O   UNL     1       6.840 -16.483  -0.423  1.00  0.00    -0.237 OA
ATOM     91  O   UNL     1       4.491 -17.248  -0.448  1.00  0.00    -0.237 OA
ATOM     92  O   UNL     1       5.637 -16.718  -2.564  1.00  0.00    -0.744 OA
ENDBRANCH  88  89
ENDBRANCH  62  83
ENDBRANCH  36  37
ENDBRANCH  28  31
ENDBRANCH  26  27
ENDBRANCH  25  26
ENDBRANCH   1  25
TORSDOF 17
