REMARK SMILES O=C(CSc1nc2cnccc2n1CCC1CC1)NCCCNC(=O)c1ccc(-c2c3nc(c(-c4ccc(S(=O)(=O)[O-])cc4)c4ccc([nH]4)c(-c4ccc(S(=O)(=O)[O-])cc4)c4nc(c(-c5ccc(S(=O)(=O)[O-])cc5)c5ccc2[nH]5)C=C4)C=C3)cc1
REMARK SMILES IDX 20 1 19 2 1 3 2 4 3 6 4 7 5 8 6 9 13 10 7 11 12 12 8 13
REMARK SMILES IDX 11 14 9 15 10 16 14 17 15 18 16 19 17 20 18 21 21 22 22 23
REMARK SMILES IDX 23 24 24 25 25 27 26 28 27 29 85 30 28 31 84 32 29 33 30 34
REMARK SMILES IDX 31 35 78 36 32 37 83 38 77 39 79 40 33 41 82 42 76 43 75 44
REMARK SMILES IDX 34 46 64 47 45 48 63 49 46 50 49 51 62 52 80 53 47 54 48 55
REMARK SMILES IDX 61 57 81 58 50 59 35 60 36 61 44 62 37 63 43 64 38 65 39 66
REMARK SMILES IDX 40 67 41 68 42 69 65 70 66 71 74 72 67 73 73 74 68 75 69 76
REMARK SMILES IDX 70 77 71 78 72 79 51 80 52 81 60 82 53 83 59 84 54 85 55 86
REMARK SMILES IDX 56 87 57 88 58 89
REMARK H PARENT 19 5 23 26 79 45 49 56
REMARK Flexibility Score: inf
ROOT
ATOM      1  C   UNL     1       1.873   0.984   1.936  1.00  0.00     0.117 C 
ENDROOT
BRANCH   1   2
ATOM      2  N   UNL     1       2.481  -0.083   1.130  1.00  0.00    -0.355 N 
ATOM      3  O   UNL     1       0.910   0.075  -0.536  1.00  0.00    -0.274 OA
ATOM      4  C   UNL     1       1.958  -0.417  -0.125  1.00  0.00     0.230 C 
ATOM      5  H   UNL     1       3.265  -0.569   1.475  1.00  0.00     0.163 HD
BRANCH   4   6
ATOM      6  C   UNL     1       2.751  -1.431  -0.953  1.00  0.00     0.178 C 
BRANCH   6   7
ATOM      7  S   UNL     1       3.720  -0.811  -2.372  1.00  0.00    -0.078 SA
BRANCH   7   8
ATOM      8  C   UNL     1       2.770   0.327  -3.286  1.00  0.00     0.169 A 
ATOM      9  N   UNL     1       1.771  -0.040  -4.061  1.00  0.00    -0.221 NA
ATOM     10  N   UNL     1       3.140   1.645  -3.539  1.00  0.00    -0.319 N 
ATOM     11  C   UNL     1       1.415   1.086  -4.773  1.00  0.00     0.108 A 
ATOM     12  C   UNL     1       2.177   2.180  -4.382  1.00  0.00     0.072 A 
ATOM     13  C   UNL     1       0.484   1.262  -5.803  1.00  0.00     0.141 A 
ATOM     14  C   UNL     1       1.975   3.461  -4.905  1.00  0.00     0.049 A 
ATOM     15  N   UNL     1       0.302   2.486  -6.373  1.00  0.00    -0.262 NA
ATOM     16  C   UNL     1       1.012   3.536  -5.901  1.00  0.00     0.113 A 
BRANCH  10  17
ATOM     17  C   UNL     1       4.430   2.311  -3.357  1.00  0.00     0.125 C 
BRANCH  17  18
ATOM     18  C   UNL     1       4.532   3.338  -2.224  1.00  0.00     0.025 C 
BRANCH  18  19
ATOM     19  C   UNL     1       5.037   2.810  -0.920  1.00  0.00    -0.009 C 
ATOM     20  C   UNL     1       4.087   1.827  -0.356  1.00  0.00     0.004 C 
ATOM     21  C   UNL     1       5.507   1.412  -0.565  1.00  0.00     0.004 C 
ENDBRANCH  18  19
ENDBRANCH  17  18
ENDBRANCH  10  17
ENDBRANCH   7   8
ENDBRANCH   6   7
ENDBRANCH   4   6
ENDBRANCH   1   2
BRANCH   1  22
ATOM     22  C   UNL     1       2.602   1.375   3.241  1.00  0.00     0.042 C 
BRANCH  22  23
ATOM     23  C   UNL     1       4.091   1.761   3.184  1.00  0.00     0.118 C 
BRANCH  23  24
ATOM     24  N   UNL     1       4.378   3.084   2.646  1.00  0.00    -0.352 N 
ATOM     25  C   UNL     1       5.231   4.033   3.136  1.00  0.00     0.251 C 
ATOM     26  H   UNL     1       3.895   3.326   1.823  1.00  0.00     0.163 HD
ATOM     27  O   UNL     1       6.136   4.444   2.412  1.00  0.00    -0.269 OA
BRANCH  25  28
ATOM     28  C   UNL     1       4.840   4.772   4.347  1.00  0.00     0.039 A 
ATOM     29  C   UNL     1       4.016   4.222   5.328  1.00  0.00     0.014 A 
ATOM     30  C   UNL     1       5.162   6.139   4.363  1.00  0.00     0.014 A 
ATOM     31  C   UNL     1       3.403   5.058   6.241  1.00  0.00     0.010 A 
ATOM     32  C   UNL     1       4.553   6.975   5.279  1.00  0.00     0.010 A 
ATOM     33  C   UNL     1       3.623   6.435   6.166  1.00  0.00    -0.014 A 
BRANCH  33  34
ATOM     34  C   UNL     1       2.910   7.283   7.108  1.00  0.00     0.031 A 
ATOM     35  C   UNL     1       3.322   7.093   8.525  1.00  0.00     0.074 A 
ATOM     36  C   UNL     1       2.040   8.227   6.701  1.00  0.00     0.049 A 
ATOM     37  N   UNL     1       2.591   6.756   9.536  1.00  0.00    -0.248 NA
ATOM     38  C   UNL     1       4.765   7.151   8.822  1.00  0.00     0.031 C 
ATOM     39  C   UNL     1       1.764   8.664   5.328  1.00  0.00     0.029 A 
ATOM     40  N   UNL     1       1.308   9.098   7.447  1.00  0.00    -0.354 N 
ATOM     41  C   UNL     1       3.444   6.746  10.637  1.00  0.00     0.074 A 
ATOM     42  C   UNL     1       4.783   6.830  10.114  1.00  0.00     0.031 C 
ATOM     43  C   UNL     1       1.153   9.870   5.360  1.00  0.00     0.029 A 
ATOM     44  C   UNL     1       0.872  10.217   6.743  1.00  0.00     0.049 A 
ATOM     45  H   UNL     1       1.105   8.951   8.399  1.00  0.00     0.167 HD
ATOM     46  C   UNL     1       2.985   6.888  11.911  1.00  0.00     0.031 A 
ATOM     47  C   UNL     1       0.407  11.379   7.273  1.00  0.00     0.031 A 
ATOM     48  C   UNL     1       1.580   6.597  12.005  1.00  0.00     0.049 A 
ATOM     49  C   UNL     1       0.001  11.091   8.670  1.00  0.00     0.074 A 
ATOM     50  C   UNL     1       0.816   5.472  11.770  1.00  0.00     0.029 A 
ATOM     51  N   UNL     1       0.707   7.659  12.014  1.00  0.00    -0.354 N 
ATOM     52  N   UNL     1      -0.998  10.315   8.983  1.00  0.00    -0.248 NA
ATOM     53  C   UNL     1       0.987  11.297   9.721  1.00  0.00     0.031 C 
ATOM     54  C   UNL     1      -0.376   5.963  11.168  1.00  0.00     0.029 A 
ATOM     55  C   UNL     1      -0.311   7.358  11.146  1.00  0.00     0.049 A 
ATOM     56  H   UNL     1       0.796   8.482  12.546  1.00  0.00     0.167 HD
ATOM     57  C   UNL     1      -0.553   9.595  10.082  1.00  0.00     0.074 A 
ATOM     58  C   UNL     1       0.637  10.307  10.546  1.00  0.00     0.031 C 
ATOM     59  C   UNL     1      -1.016   8.336  10.341  1.00  0.00     0.031 A 
BRANCH  46  60
ATOM     60  C   UNL     1       3.740   7.629  12.987  1.00  0.00    -0.014 A 
ATOM     61  C   UNL     1       4.872   8.428  12.722  1.00  0.00     0.010 A 
ATOM     62  C   UNL     1       3.170   7.747  14.271  1.00  0.00     0.010 A 
ATOM     63  C   UNL     1       5.411   9.296  13.671  1.00  0.00     0.020 A 
ATOM     64  C   UNL     1       3.675   8.650  15.219  1.00  0.00     0.020 A 
ATOM     65  C   UNL     1       4.797   9.416  14.910  1.00  0.00     0.054 A 
BRANCH  65  66
ATOM     66  S   UNL     1       5.451  10.648  16.061  1.00  0.00     0.124 S 
ATOM     67  O   UNL     1       6.741  10.065  16.421  1.00  0.00    -0.237 OA
ATOM     68  O   UNL     1       5.512  11.848  15.231  1.00  0.00    -0.237 OA
ATOM     69  O   UNL     1       4.457  10.679  17.130  1.00  0.00    -0.744 OA
ENDBRANCH  65  66
ENDBRANCH  46  60
BRANCH  47  70
ATOM     70  C   UNL     1       0.707  12.761   6.809  1.00  0.00    -0.014 A 
ATOM     71  C   UNL     1       1.891  13.019   6.088  1.00  0.00     0.010 A 
ATOM     72  C   UNL     1       0.009  13.866   7.337  1.00  0.00     0.010 A 
ATOM     73  C   UNL     1       2.407  14.313   5.971  1.00  0.00     0.020 A 
ATOM     74  C   UNL     1       0.524  15.171   7.225  1.00  0.00     0.020 A 
ATOM     75  C   UNL     1       1.743  15.377   6.576  1.00  0.00     0.054 A 
BRANCH  75  76
ATOM     76  S   UNL     1       2.553  17.003   6.587  1.00  0.00     0.124 S 
ATOM     77  O   UNL     1       3.714  16.755   7.445  1.00  0.00    -0.237 OA
ATOM     78  O   UNL     1       2.864  17.208   5.169  1.00  0.00    -0.237 OA
ATOM     79  O   UNL     1       1.548  17.895   7.136  1.00  0.00    -0.744 OA
ENDBRANCH  75  76
ENDBRANCH  47  70
BRANCH  59  80
ATOM     80  C   UNL     1      -2.193   7.803   9.547  1.00  0.00    -0.014 A 
ATOM     81  C   UNL     1      -3.252   7.227  10.271  1.00  0.00     0.010 A 
ATOM     82  C   UNL     1      -2.180   7.648   8.145  1.00  0.00     0.010 A 
ATOM     83  C   UNL     1      -4.239   6.476   9.631  1.00  0.00     0.020 A 
ATOM     84  C   UNL     1      -3.186   6.918   7.491  1.00  0.00     0.020 A 
ATOM     85  C   UNL     1      -4.194   6.312   8.245  1.00  0.00     0.054 A 
BRANCH  85  86
ATOM     86  S   UNL     1      -5.456   5.266   7.469  1.00  0.00     0.124 S 
ATOM     87  O   UNL     1      -5.066   3.930   7.915  1.00  0.00    -0.237 OA
ATOM     88  O   UNL     1      -6.697   5.777   8.046  1.00  0.00    -0.237 OA
ATOM     89  O   UNL     1      -5.292   5.514   6.038  1.00  0.00    -0.744 OA
ENDBRANCH  85  86
ENDBRANCH  59  80
ENDBRANCH  33  34
ENDBRANCH  25  28
ENDBRANCH  23  24
ENDBRANCH  22  23
ENDBRANCH   1  22
TORSDOF 18
