REMARK SMILES CN1C=C/C(=C\C=C/C=N\c2ccc(C(=O)NCCCNC(=O)c3ccc(-c4c5nc(c(-c6ccc(S(=O)(=O)[O-])cc6)c6ccc([nH]6)c(-c6ccc(S(=O)(=O)[O-])cc6)c6nc(c(-c7ccc(S(=O)(=O)[O-])cc7)c7ccc4[nH]7)C=C6)C=C5)cc3)cc2)c2ccccc21
REMARK SMILES IDX 19 1 18 2 17 3 15 4 16 5 14 7 11 8 12 9 85 10 13 11 84 12
REMARK SMILES IDX 10 13 9 14 8 15 7 16 6 17 1 18 2 19 3 20 91 21 4 22 86 23
REMARK SMILES IDX 90 24 5 25 87 26 89 27 88 28 20 29 21 30 22 31 23 33 24 34
REMARK SMILES IDX 25 35 83 36 26 37 82 38 27 39 28 40 29 41 76 42 30 43 81 44
REMARK SMILES IDX 75 45 77 46 31 47 80 48 74 49 73 50 32 52 62 53 43 54 61 55
REMARK SMILES IDX 44 56 47 57 60 58 78 59 45 60 46 61 59 63 79 64 48 65 33 66
REMARK SMILES IDX 34 67 42 68 35 69 41 70 36 71 37 72 38 73 39 74 40 75 63 76
REMARK SMILES IDX 64 77 72 78 65 79 71 80 66 81 67 82 68 83 69 84 70 85 49 86
REMARK SMILES IDX 50 87 58 88 51 89 57 90 52 91 53 92 54 93 55 94 56 95
REMARK H PARENT 17 6 21 32 77 51 47 62
REMARK Flexibility Score: inf
ROOT
ATOM      1  C   UNL     1      -0.965   1.795  15.331  1.00  0.00     0.042 C 
ENDROOT
BRANCH   1   2
ATOM      2  C   UNL     1      -2.183   1.074  14.768  1.00  0.00     0.118 C 
BRANCH   2   3
ATOM      3  N   UNL     1      -3.140   1.961  14.124  1.00  0.00    -0.352 N 
ATOM      4  C   UNL     1      -3.743   1.961  12.894  1.00  0.00     0.251 C 
ATOM      5  O   UNL     1      -4.489   2.905  12.627  1.00  0.00    -0.269 OA
ATOM      6  H   UNL     1      -3.412   2.719  14.691  1.00  0.00     0.163 HD
BRANCH   4   7
ATOM      7  C   UNL     1      -3.512   0.916  11.862  1.00  0.00     0.039 A 
ATOM      8  C   UNL     1      -2.970  -0.901   9.771  1.00  0.00     0.063 A 
ATOM      9  C   UNL     1      -3.463   0.374   9.491  1.00  0.00     0.029 A 
ATOM     10  C   UNL     1      -2.879  -1.297  11.107  1.00  0.00     0.029 A 
ATOM     11  C   UNL     1      -3.694   1.288  10.522  1.00  0.00     0.016 A 
ATOM     12  C   UNL     1      -3.189  -0.411  12.145  1.00  0.00     0.016 A 
BRANCH   8  13
ATOM     13  N   UNL     1      -2.651  -1.841   8.786  1.00  0.00    -0.257 NA
ATOM     14  C   UNL     1      -1.892  -1.571   7.772  1.00  0.00     0.111 C 
BRANCH  14  15
ATOM     15  C   UNL     1      -1.217  -0.302   7.380  1.00  0.00     0.020 C 
ATOM     16  C   UNL     1      -0.622  -0.086   6.195  1.00  0.00     0.002 C 
BRANCH  16  17
ATOM     17  C   UNL     1      -0.386  -1.065   5.151  1.00  0.00     0.009 C 
ATOM     18  C   UNL     1       1.120  -0.049  -0.215  1.00  0.00     0.149 C 
ATOM     19  N   UNL     1       0.668  -0.337   1.144  1.00  0.00    -0.351 N 
ATOM     20  C   UNL     1       0.252   0.669   1.998  1.00  0.00     0.086 C 
ATOM     21  C   UNL     1       0.675  -1.688   1.596  1.00  0.00     0.048 A 
ATOM     22  C   UNL     1      -0.125   0.494   3.271  1.00  0.00     0.026 C 
ATOM     23  C   UNL     1       0.259  -1.997   2.929  1.00  0.00     0.005 A 
ATOM     24  C   UNL     1       1.079  -2.752   0.762  1.00  0.00     0.027 A 
ATOM     25  C   UNL     1      -0.106  -0.849   3.846  1.00  0.00    -0.015 C 
ATOM     26  C   UNL     1       0.235  -3.347   3.338  1.00  0.00     0.011 A 
ATOM     27  C   UNL     1       1.067  -4.077   1.202  1.00  0.00     0.002 A 
ATOM     28  C   UNL     1       0.638  -4.374   2.485  1.00  0.00     0.001 A 
ENDBRANCH  16  17
ENDBRANCH  14  15
ENDBRANCH   8  13
ENDBRANCH   4   7
ENDBRANCH   2   3
ENDBRANCH   1   2
BRANCH   1  29
ATOM     29  C   UNL     1      -1.274   2.900  16.330  1.00  0.00     0.118 C 
BRANCH  29  30
ATOM     30  N   UNL     1      -1.841   2.414  17.581  1.00  0.00    -0.352 N 
ATOM     31  C   UNL     1      -1.266   2.149  18.805  1.00  0.00     0.251 C 
ATOM     32  H   UNL     1      -2.810   2.245  17.545  1.00  0.00     0.163 HD
ATOM     33  O   UNL     1      -1.937   1.603  19.673  1.00  0.00    -0.269 OA
BRANCH  31  34
ATOM     34  C   UNL     1       0.158   2.468  19.068  1.00  0.00     0.039 A 
ATOM     35  C   UNL     1       0.736   3.647  18.606  1.00  0.00     0.014 A 
ATOM     36  C   UNL     1       0.934   1.570  19.810  1.00  0.00     0.014 A 
ATOM     37  C   UNL     1       2.114   3.818  18.674  1.00  0.00     0.010 A 
ATOM     38  C   UNL     1       2.303   1.806  19.989  1.00  0.00     0.010 A 
ATOM     39  C   UNL     1       2.920   2.901  19.368  1.00  0.00    -0.014 A 
BRANCH  39  40
ATOM     40  C   UNL     1       4.394   3.117  19.418  1.00  0.00     0.031 A 
ATOM     41  C   UNL     1       5.343   2.105  18.823  1.00  0.00     0.074 A 
ATOM     42  C   UNL     1       4.877   4.273  19.921  1.00  0.00     0.049 A 
ATOM     43  N   UNL     1       6.649   2.154  18.745  1.00  0.00    -0.248 NA
ATOM     44  C   UNL     1       4.761   0.883  18.241  1.00  0.00     0.031 C 
ATOM     45  C   UNL     1       4.060   5.346  20.494  1.00  0.00     0.029 A 
ATOM     46  N   UNL     1       6.157   4.766  19.985  1.00  0.00    -0.354 N 
ATOM     47  C   UNL     1       7.042   0.969  18.132  1.00  0.00     0.074 A 
ATOM     48  C   UNL     1       5.842   0.206  17.877  1.00  0.00     0.031 C 
ATOM     49  C   UNL     1       4.841   6.403  20.757  1.00  0.00     0.029 A 
ATOM     50  C   UNL     1       6.227   6.057  20.460  1.00  0.00     0.049 A 
ATOM     51  H   UNL     1       6.949   4.247  19.718  1.00  0.00     0.167 HD
ATOM     52  C   UNL     1       8.290   0.563  17.799  1.00  0.00     0.031 A 
ATOM     53  C   UNL     1       7.282   6.876  20.644  1.00  0.00     0.031 A 
ATOM     54  C   UNL     1       9.480   1.342  18.020  1.00  0.00     0.049 A 
ATOM     55  C   UNL     1       8.659   6.377  20.315  1.00  0.00     0.074 A 
ATOM     56  C   UNL     1      10.787   1.012  17.702  1.00  0.00     0.029 A 
ATOM     57  N   UNL     1       9.513   2.603  18.593  1.00  0.00    -0.354 N 
ATOM     58  N   UNL     1       9.007   5.241  19.761  1.00  0.00    -0.248 NA
ATOM     59  C   UNL     1       9.786   7.258  20.649  1.00  0.00     0.031 C 
ATOM     60  C   UNL     1      11.616   2.049  18.135  1.00  0.00     0.029 A 
ATOM     61  C   UNL     1      10.820   3.054  18.661  1.00  0.00     0.049 A 
ATOM     62  H   UNL     1       8.725   3.104  18.906  1.00  0.00     0.167 HD
ATOM     63  C   UNL     1      10.394   5.274  19.673  1.00  0.00     0.074 A 
ATOM     64  C   UNL     1      10.819   6.550  20.210  1.00  0.00     0.031 C 
ATOM     65  C   UNL     1      11.235   4.326  19.196  1.00  0.00     0.031 A 
BRANCH  52  66
ATOM     66  C   UNL     1       8.465  -0.786  17.150  1.00  0.00    -0.014 A 
ATOM     67  C   UNL     1       9.113  -1.817  17.857  1.00  0.00     0.010 A 
ATOM     68  C   UNL     1       8.136  -0.985  15.798  1.00  0.00     0.010 A 
ATOM     69  C   UNL     1       9.470  -3.005  17.213  1.00  0.00     0.020 A 
ATOM     70  C   UNL     1       8.470  -2.182  15.156  1.00  0.00     0.020 A 
ATOM     71  C   UNL     1       9.159  -3.173  15.861  1.00  0.00     0.054 A 
BRANCH  71  72
ATOM     72  S   UNL     1       9.681  -4.697  15.026  1.00  0.00     0.124 S 
ATOM     73  O   UNL     1      11.113  -4.477  14.850  1.00  0.00    -0.237 OA
ATOM     74  O   UNL     1       9.314  -5.731  15.990  1.00  0.00    -0.237 OA
ATOM     75  O   UNL     1       8.892  -4.699  13.796  1.00  0.00    -0.744 OA
ENDBRANCH  71  72
ENDBRANCH  52  66
BRANCH  53  76
ATOM     76  C   UNL     1       7.060   8.257  21.157  1.00  0.00    -0.014 A 
ATOM     77  C   UNL     1       6.574   8.467  22.461  1.00  0.00     0.010 A 
ATOM     78  C   UNL     1       7.272   9.367  20.321  1.00  0.00     0.010 A 
ATOM     79  C   UNL     1       6.249   9.752  22.900  1.00  0.00     0.020 A 
ATOM     80  C   UNL     1       6.979  10.660  20.768  1.00  0.00     0.020 A 
ATOM     81  C   UNL     1       6.441  10.840  22.045  1.00  0.00     0.054 A 
BRANCH  81  82
ATOM     82  S   UNL     1       5.982  12.497  22.623  1.00  0.00     0.124 S 
ATOM     83  O   UNL     1       4.533  12.484  22.445  1.00  0.00    -0.237 OA
ATOM     84  O   UNL     1       6.446  12.494  24.008  1.00  0.00    -0.237 OA
ATOM     85  O   UNL     1       6.716  13.386  21.726  1.00  0.00    -0.744 OA
ENDBRANCH  81  82
ENDBRANCH  53  76
BRANCH  65  86
ATOM     86  C   UNL     1      12.712   4.609  19.220  1.00  0.00    -0.014 A 
ATOM     87  C   UNL     1      13.405   4.797  18.010  1.00  0.00     0.010 A 
ATOM     88  C   UNL     1      13.434   4.550  20.425  1.00  0.00     0.010 A 
ATOM     89  C   UNL     1      14.799   4.882  17.999  1.00  0.00     0.020 A 
ATOM     90  C   UNL     1      14.826   4.662  20.420  1.00  0.00     0.020 A 
ATOM     91  C   UNL     1      15.501   4.800  19.204  1.00  0.00     0.054 A 
BRANCH  91  92
ATOM     92  S   UNL     1      17.313   4.872  19.168  1.00  0.00     0.124 S 
ATOM     93  O   UNL     1      17.665   3.524  18.730  1.00  0.00    -0.237 OA
ATOM     94  O   UNL     1      17.575   5.936  18.201  1.00  0.00    -0.237 OA
ATOM     95  O   UNL     1      17.670   5.194  20.548  1.00  0.00    -0.744 OA
ENDBRANCH  91  92
ENDBRANCH  65  86
ENDBRANCH  39  40
ENDBRANCH  31  34
ENDBRANCH  29  30
ENDBRANCH   1  29
TORSDOF 16
