REMARK SMILES Cc1ccccc1[C@@H]1[NH2+][C@@H](C(=O)NCCCNC(=O)c2ccc(-c3c4nc(c(-c5ccc(S(=O)(=O)[O-])cc5)c5ccc([nH]5)c(-c5ccc(S(=O)(=O)[O-])cc5)c5nc(c(-c6ccc(S(=O)(=O)[O-])cc6)c6ccc3[nH]6)C=C5)C=C4)cc2)CC2=c3ccccc3=N[C@@H]21
REMARK SMILES IDX 16 1 15 2 14 3 13 4 11 5 12 6 10 8 8 9 9 10 89 11 81 14
REMARK SMILES IDX 88 15 80 16 82 17 87 18 83 19 86 20 84 21 85 22 7 23 1 24
REMARK SMILES IDX 2 25 3 26 4 27 6 28 5 29 17 30 18 31 19 33 20 34 21 35 79 36
REMARK SMILES IDX 22 37 78 38 23 39 24 40 25 41 72 42 26 43 77 44 71 45 73 46
REMARK SMILES IDX 27 47 76 48 70 49 69 50 28 52 58 53 39 54 57 55 40 56 43 57
REMARK SMILES IDX 56 58 74 59 41 60 42 61 55 63 75 64 44 65 29 66 30 67 38 68
REMARK SMILES IDX 31 69 37 70 32 71 33 72 34 73 35 74 36 75 59 76 60 77 68 78
REMARK SMILES IDX 61 79 67 80 62 81 63 82 64 83 65 84 66 85 45 86 46 87 54 88
REMARK SMILES IDX 47 89 53 90 48 91 49 92 50 93 51 94 52 95
REMARK H PARENT 13 7 9 12 9 13 17 32 73 51 43 62
REMARK Flexibility Score: inf
ROOT
ATOM      1  C   UNL     1       3.419   3.886  -2.141  1.00  0.00     0.118 C 
ENDROOT
BRANCH   1   2
ATOM      2  C   UNL     1       3.641   5.136  -1.268  1.00  0.00     0.042 C 
BRANCH   2   3
ATOM      3  C   UNL     1       2.710   6.384  -1.363  1.00  0.00     0.118 C 
BRANCH   3   4
ATOM      4  N   UNL     1       1.329   6.546  -0.834  1.00  0.00    -0.351 N 
ATOM      5  C   UNL     1       0.808   6.388   0.465  1.00  0.00     0.278 C 
ATOM      6  O   UNL     1      -0.139   7.054   0.871  1.00  0.00    -0.268 OA
ATOM      7  H   UNL     1       0.663   6.810  -1.509  1.00  0.00     0.163 HD
BRANCH   5   8
ATOM      8  C   UNL     1       1.435   5.234   1.224  1.00  0.00     0.277 C 
ATOM      9  C   UNL     1       0.508   2.918   0.841  1.00  0.00     0.243 C 
ATOM     10  N   UNL     1       1.165   4.120   0.327  1.00  0.00    -0.327 N 
ATOM     11  C   UNL     1       1.630   2.329   1.821  1.00  0.00     0.196 C 
ATOM     12  H   UNL     1       0.576   4.481  -0.423  1.00  0.00     0.347 HD
ATOM     13  H   UNL     1       2.096   3.791   0.070  1.00  0.00     0.347 HD
ATOM     14  C   UNL     1       2.163   3.520   2.691  1.00  0.00    -0.024 C 
ATOM     15  N   UNL     1       2.862   1.884   1.089  1.00  0.00    -0.270 NA
ATOM     16  C   UNL     1       1.288   4.793   2.688  1.00  0.00     0.109 C 
ATOM     17  C   UNL     1       3.502   3.634   2.595  1.00  0.00     0.002 A 
ATOM     18  C   UNL     1       3.825   2.632   1.550  1.00  0.00     0.066 A 
ATOM     19  C   UNL     1       4.356   4.791   2.775  1.00  0.00     0.010 A 
ATOM     20  C   UNL     1       5.201   2.712   0.988  1.00  0.00     0.028 A 
ATOM     21  C   UNL     1       5.503   4.887   2.081  1.00  0.00     0.001 A 
ATOM     22  C   UNL     1       5.950   3.805   1.225  1.00  0.00     0.002 A 
BRANCH   9  23
ATOM     23  C   UNL     1      -0.191   2.307  -0.407  1.00  0.00     0.015 A 
ATOM     24  C   UNL     1      -1.592   0.573   0.856  1.00  0.00     0.045 C 
ATOM     25  C   UNL     1      -1.182   1.308  -0.384  1.00  0.00    -0.042 A 
ATOM     26  C   UNL     1      -1.992   1.082  -1.535  1.00  0.00     0.004 A 
ATOM     27  C   UNL     1      -1.888   1.860  -2.684  1.00  0.00     0.000 A 
ATOM     28  C   UNL     1      -0.104   3.039  -1.632  1.00  0.00     0.010 A 
ATOM     29  C   UNL     1      -0.952   2.863  -2.715  1.00  0.00     0.001 A 
ENDBRANCH   9  23
ENDBRANCH   5   8
ENDBRANCH   3   4
ENDBRANCH   2   3
ENDBRANCH   1   2
BRANCH   1  30
ATOM     30  N   UNL     1       4.665   3.386  -2.749  1.00  0.00    -0.352 N 
ATOM     31  C   UNL     1       5.040   2.039  -2.741  1.00  0.00     0.251 C 
ATOM     32  H   UNL     1       5.264   4.035  -3.183  1.00  0.00     0.163 HD
ATOM     33  O   UNL     1       5.911   1.559  -2.046  1.00  0.00    -0.269 OA
BRANCH  31  34
ATOM     34  C   UNL     1       4.154   1.175  -3.546  1.00  0.00     0.039 A 
ATOM     35  C   UNL     1       4.301   1.129  -4.935  1.00  0.00     0.014 A 
ATOM     36  C   UNL     1       2.969   0.808  -2.917  1.00  0.00     0.014 A 
ATOM     37  C   UNL     1       3.174   0.995  -5.723  1.00  0.00     0.010 A 
ATOM     38  C   UNL     1       1.844   0.711  -3.695  1.00  0.00     0.010 A 
ATOM     39  C   UNL     1       1.948   0.915  -5.076  1.00  0.00    -0.014 A 
BRANCH  39  40
ATOM     40  C   UNL     1       0.698   1.172  -5.755  1.00  0.00     0.031 A 
ATOM     41  C   UNL     1      -0.088   0.037  -6.221  1.00  0.00     0.074 A 
ATOM     42  C   UNL     1       0.276   2.449  -5.824  1.00  0.00     0.049 A 
ATOM     43  N   UNL     1      -1.010   0.114  -7.111  1.00  0.00    -0.248 NA
ATOM     44  C   UNL     1       0.174  -1.322  -5.761  1.00  0.00     0.031 C 
ATOM     45  C   UNL     1      -1.047   2.976  -6.142  1.00  0.00     0.029 A 
ATOM     46  N   UNL     1       1.081   3.582  -5.740  1.00  0.00    -0.354 N 
ATOM     47  C   UNL     1      -1.676  -1.088  -7.087  1.00  0.00     0.074 A 
ATOM     48  C   UNL     1      -0.818  -1.987  -6.355  1.00  0.00     0.031 C 
ATOM     49  C   UNL     1      -0.931   4.287  -6.431  1.00  0.00     0.029 A 
ATOM     50  C   UNL     1       0.495   4.567  -6.536  1.00  0.00     0.049 A 
ATOM     51  H   UNL     1       1.910   3.671  -5.216  1.00  0.00     0.167 HD
ATOM     52  C   UNL     1      -2.965  -1.121  -7.521  1.00  0.00     0.031 A 
ATOM     53  C   UNL     1       1.112   4.895  -7.712  1.00  0.00     0.031 A 
ATOM     54  C   UNL     1      -3.357   0.178  -8.078  1.00  0.00     0.049 A 
ATOM     55  C   UNL     1       0.279   4.532  -8.929  1.00  0.00     0.074 A 
ATOM     56  C   UNL     1      -4.096   1.239  -7.580  1.00  0.00     0.029 A 
ATOM     57  N   UNL     1      -2.649   0.680  -9.166  1.00  0.00    -0.354 N 
ATOM     58  N   UNL     1      -0.646   3.610  -8.959  1.00  0.00    -0.248 NA
ATOM     59  C   UNL     1       0.415   5.219 -10.204  1.00  0.00     0.031 C 
ATOM     60  C   UNL     1      -3.792   2.394  -8.360  1.00  0.00     0.029 A 
ATOM     61  C   UNL     1      -2.890   2.030  -9.345  1.00  0.00     0.049 A 
ATOM     62  H   UNL     1      -2.053   0.142  -9.736  1.00  0.00     0.167 HD
ATOM     63  C   UNL     1      -1.252   3.585 -10.192  1.00  0.00     0.074 A 
ATOM     64  C   UNL     1      -0.527   4.603 -10.938  1.00  0.00     0.031 C 
ATOM     65  C   UNL     1      -2.286   2.730 -10.482  1.00  0.00     0.031 A 
BRANCH  52  66
ATOM     66  C   UNL     1      -3.930  -2.221  -7.138  1.00  0.00    -0.014 A 
ATOM     67  C   UNL     1      -5.311  -1.947  -7.095  1.00  0.00     0.010 A 
ATOM     68  C   UNL     1      -3.548  -3.522  -6.753  1.00  0.00     0.010 A 
ATOM     69  C   UNL     1      -6.243  -2.887  -6.628  1.00  0.00     0.020 A 
ATOM     70  C   UNL     1      -4.461  -4.461  -6.251  1.00  0.00     0.020 A 
ATOM     71  C   UNL     1      -5.809  -4.136  -6.190  1.00  0.00     0.054 A 
BRANCH  71  72
ATOM     72  S   UNL     1      -7.021  -5.331  -5.574  1.00  0.00     0.124 S 
ATOM     73  O   UNL     1      -7.646  -4.606  -4.471  1.00  0.00    -0.237 OA
ATOM     74  O   UNL     1      -7.865  -5.550  -6.745  1.00  0.00    -0.237 OA
ATOM     75  O   UNL     1      -6.208  -6.478  -5.174  1.00  0.00    -0.744 OA
ENDBRANCH  71  72
ENDBRANCH  52  66
BRANCH  53  76
ATOM     76  C   UNL     1       2.612   4.861  -7.643  1.00  0.00    -0.014 A 
ATOM     77  C   UNL     1       3.254   5.711  -6.711  1.00  0.00     0.010 A 
ATOM     78  C   UNL     1       3.369   3.824  -8.217  1.00  0.00     0.010 A 
ATOM     79  C   UNL     1       4.572   5.482  -6.301  1.00  0.00     0.020 A 
ATOM     80  C   UNL     1       4.702   3.597  -7.815  1.00  0.00     0.020 A 
ATOM     81  C   UNL     1       5.289   4.417  -6.846  1.00  0.00     0.054 A 
BRANCH  81  82
ATOM     82  S   UNL     1       6.948   4.040  -6.191  1.00  0.00     0.124 S 
ATOM     83  O   UNL     1       6.953   4.762  -4.919  1.00  0.00    -0.237 OA
ATOM     84  O   UNL     1       6.937   2.588  -6.064  1.00  0.00    -0.237 OA
ATOM     85  O   UNL     1       7.819   4.572  -7.231  1.00  0.00    -0.744 OA
ENDBRANCH  81  82
ENDBRANCH  53  76
BRANCH  65  86
ATOM     86  C   UNL     1      -2.865   2.422 -11.858  1.00  0.00    -0.014 A 
ATOM     87  C   UNL     1      -2.582   3.117 -13.039  1.00  0.00     0.010 A 
ATOM     88  C   UNL     1      -3.735   1.306 -11.996  1.00  0.00     0.010 A 
ATOM     89  C   UNL     1      -3.072   2.691 -14.283  1.00  0.00     0.020 A 
ATOM     90  C   UNL     1      -4.218   0.858 -13.227  1.00  0.00     0.020 A 
ATOM     91  C   UNL     1      -3.872   1.554 -14.371  1.00  0.00     0.054 A 
BRANCH  91  92
ATOM     92  S   UNL     1      -4.439   1.005 -15.995  1.00  0.00     0.124 S 
ATOM     93  O   UNL     1      -5.297   2.112 -16.408  1.00  0.00    -0.237 OA
ATOM     94  O   UNL     1      -3.185   0.873 -16.732  1.00  0.00    -0.237 OA
ATOM     95  O   UNL     1      -5.131  -0.251 -15.719  1.00  0.00    -0.744 OA
ENDBRANCH  91  92
ENDBRANCH  65  86
ENDBRANCH  39  40
ENDBRANCH  31  34
ENDBRANCH   1  30
TORSDOF 14
