REMARK SMILES O=C(NCCCNC(=O)c1c[nH]c(=O)c(-c2cccc([N+](=O)[O-])c2)c1)c1ccc(-c2c3nc(c(-c4ccc(S(=O)(=O)[O-])cc4)c4ccc([nH]4)c(-c4ccc(S(=O)(=O)[O-])cc4)c4nc(c(-c5ccc(S(=O)(=O)[O-])cc5)c5ccc2[nH]5)C=C4)C=C3)cc1
REMARK SMILES IDX 4 1 3 2 1 3 2 4 26 6 27 7 85 8 28 9 84 10 29 11 30 12 31 13
REMARK SMILES IDX 78 14 32 15 83 16 77 17 79 18 33 19 82 20 76 21 75 22 34 24
REMARK SMILES IDX 64 25 45 26 63 27 46 28 49 29 62 30 80 31 47 32 48 33 61 35
REMARK SMILES IDX 81 36 50 37 35 38 36 39 44 40 37 41 43 42 38 43 39 44 40 45
REMARK SMILES IDX 41 46 42 47 65 48 66 49 74 50 67 51 73 52 68 53 69 54 70 55
REMARK SMILES IDX 71 56 72 57 51 58 52 59 60 60 53 61 59 62 54 63 55 64 56 65
REMARK SMILES IDX 57 66 58 67 5 68 6 69 7 70 8 71 9 73 10 74 11 75 25 76 12 77
REMARK SMILES IDX 15 78 13 79 14 81 16 82 17 83 24 84 18 85 20 86 19 87 21 88
REMARK SMILES IDX 22 89 23 90
REMARK H PARENT 3 5 79 23 49 34 7 72 12 80
REMARK Flexibility Score: inf
ROOT
ATOM      1  C   UNL     1       4.670  -1.050   0.774  1.00  0.00     0.118 C 
ENDROOT
BRANCH   1   2
ATOM      2  N   UNL     1       3.227  -1.023   0.588  1.00  0.00    -0.352 N 
ATOM      3  O   UNL     1       1.219  -0.201   0.011  1.00  0.00    -0.269 OA
ATOM      4  C   UNL     1       2.439  -0.148  -0.121  1.00  0.00     0.251 C 
ATOM      5  H   UNL     1       2.738  -1.746   1.042  1.00  0.00     0.163 HD
BRANCH   4   6
ATOM      6  C   UNL     1       3.046   0.863  -1.015  1.00  0.00     0.039 A 
ATOM      7  C   UNL     1       4.112   0.539  -1.859  1.00  0.00     0.014 A 
ATOM      8  C   UNL     1       2.509   2.153  -1.035  1.00  0.00     0.014 A 
ATOM      9  C   UNL     1       4.731   1.534  -2.612  1.00  0.00     0.010 A 
ATOM     10  C   UNL     1       3.078   3.129  -1.856  1.00  0.00     0.010 A 
ATOM     11  C   UNL     1       4.213   2.836  -2.628  1.00  0.00    -0.014 A 
BRANCH  11  12
ATOM     12  C   UNL     1       4.824   3.878  -3.491  1.00  0.00     0.031 A 
ATOM     13  C   UNL     1       5.444   5.107  -2.887  1.00  0.00     0.074 A 
ATOM     14  C   UNL     1       4.781   3.732  -4.829  1.00  0.00     0.049 A 
ATOM     15  N   UNL     1       5.937   6.160  -3.486  1.00  0.00    -0.248 NA
ATOM     16  C   UNL     1       5.511   5.163  -1.419  1.00  0.00     0.031 C 
ATOM     17  C   UNL     1       4.212   2.581  -5.534  1.00  0.00     0.029 A 
ATOM     18  N   UNL     1       5.209   4.560  -5.836  1.00  0.00    -0.354 N 
ATOM     19  C   UNL     1       6.344   7.019  -2.472  1.00  0.00     0.074 A 
ATOM     20  C   UNL     1       6.021   6.370  -1.219  1.00  0.00     0.031 C 
ATOM     21  C   UNL     1       4.331   2.773  -6.855  1.00  0.00     0.029 A 
ATOM     22  C   UNL     1       4.920   4.086  -7.093  1.00  0.00     0.049 A 
ATOM     23  H   UNL     1       5.677   5.411  -5.673  1.00  0.00     0.167 HD
ATOM     24  C   UNL     1       6.929   8.237  -2.577  1.00  0.00     0.031 A 
ATOM     25  C   UNL     1       5.071   4.655  -8.304  1.00  0.00     0.031 A 
ATOM     26  C   UNL     1       7.229   8.880  -3.830  1.00  0.00     0.049 A 
ATOM     27  C   UNL     1       5.675   6.025  -8.400  1.00  0.00     0.074 A 
ATOM     28  C   UNL     1       7.850  10.099  -4.045  1.00  0.00     0.029 A 
ATOM     29  N   UNL     1       6.917   8.366  -5.081  1.00  0.00    -0.354 N 
ATOM     30  N   UNL     1       6.087   6.809  -7.433  1.00  0.00    -0.248 NA
ATOM     31  C   UNL     1       5.843   6.587  -9.747  1.00  0.00     0.031 C 
ATOM     32  C   UNL     1       7.854  10.350  -5.421  1.00  0.00     0.029 A 
ATOM     33  C   UNL     1       7.305   9.255  -6.069  1.00  0.00     0.049 A 
ATOM     34  H   UNL     1       6.483   7.497  -5.242  1.00  0.00     0.167 HD
ATOM     35  C   UNL     1       6.592   7.944  -8.054  1.00  0.00     0.074 A 
ATOM     36  C   UNL     1       6.433   7.746  -9.481  1.00  0.00     0.031 C 
ATOM     37  C   UNL     1       7.146   9.045  -7.489  1.00  0.00     0.031 A 
BRANCH  24  38
ATOM     38  C   UNL     1       7.231   8.975  -1.297  1.00  0.00    -0.014 A 
ATOM     39  C   UNL     1       8.216   8.524  -0.400  1.00  0.00     0.010 A 
ATOM     40  C   UNL     1       6.513  10.146  -0.987  1.00  0.00     0.010 A 
ATOM     41  C   UNL     1       8.429   9.188   0.811  1.00  0.00     0.020 A 
ATOM     42  C   UNL     1       6.746  10.832   0.208  1.00  0.00     0.020 A 
ATOM     43  C   UNL     1       7.683  10.331   1.113  1.00  0.00     0.054 A 
BRANCH  43  44
ATOM     44  S   UNL     1       7.953  11.153   2.707  1.00  0.00     0.124 S 
ATOM     45  O   UNL     1       7.320  10.219   3.635  1.00  0.00    -0.237 OA
ATOM     46  O   UNL     1       9.410  11.227   2.787  1.00  0.00    -0.237 OA
ATOM     47  O   UNL     1       7.274  12.438   2.555  1.00  0.00    -0.744 OA
ENDBRANCH  43  44
ENDBRANCH  24  38
BRANCH  25  48
ATOM     48  C   UNL     1       4.614   3.912  -9.509  1.00  0.00    -0.014 A 
ATOM     49  C   UNL     1       5.544   3.334 -10.389  1.00  0.00     0.010 A 
ATOM     50  C   UNL     1       3.239   3.702  -9.728  1.00  0.00     0.010 A 
ATOM     51  C   UNL     1       5.107   2.549 -11.461  1.00  0.00     0.020 A 
ATOM     52  C   UNL     1       2.800   2.895 -10.780  1.00  0.00     0.020 A 
ATOM     53  C   UNL     1       3.738   2.325 -11.642  1.00  0.00     0.054 A 
BRANCH  53  54
ATOM     54  S   UNL     1       3.204   1.216 -12.975  1.00  0.00     0.124 S 
ATOM     55  O   UNL     1       3.462   2.023 -14.163  1.00  0.00    -0.237 OA
ATOM     56  O   UNL     1       4.079   0.061 -12.791  1.00  0.00    -0.237 OA
ATOM     57  O   UNL     1       1.795   0.973 -12.675  1.00  0.00    -0.744 OA
ENDBRANCH  53  54
ENDBRANCH  25  48
BRANCH  37  58
ATOM     58  C   UNL     1       7.679  10.114  -8.406  1.00  0.00    -0.014 A 
ATOM     59  C   UNL     1       6.821  10.987  -9.095  1.00  0.00     0.010 A 
ATOM     60  C   UNL     1       9.071  10.310  -8.489  1.00  0.00     0.010 A 
ATOM     61  C   UNL     1       7.346  12.038  -9.853  1.00  0.00     0.020 A 
ATOM     62  C   UNL     1       9.598  11.374  -9.224  1.00  0.00     0.020 A 
ATOM     63  C   UNL     1       8.731  12.230  -9.905  1.00  0.00     0.054 A 
BRANCH  63  64
ATOM     64  S   UNL     1       9.382  13.658 -10.816  1.00  0.00     0.124 S 
ATOM     65  O   UNL     1       9.159  13.261 -12.204  1.00  0.00    -0.237 OA
ATOM     66  O   UNL     1       8.545  14.753 -10.333  1.00  0.00    -0.237 OA
ATOM     67  O   UNL     1      10.782  13.723 -10.404  1.00  0.00    -0.744 OA
ENDBRANCH  63  64
ENDBRANCH  37  58
ENDBRANCH  11  12
ENDBRANCH   4   6
ENDBRANCH   1   2
BRANCH   1  68
ATOM     68  C   UNL     1       5.087  -0.725   2.200  1.00  0.00     0.042 C 
BRANCH  68  69
ATOM     69  C   UNL     1       4.604  -1.726   3.240  1.00  0.00     0.118 C 
BRANCH  69  70
ATOM     70  N   UNL     1       5.133  -3.068   3.023  1.00  0.00    -0.352 N 
ATOM     71  C   UNL     1       5.895  -3.863   3.830  1.00  0.00     0.252 C 
ATOM     72  H   UNL     1       4.901  -3.466   2.153  1.00  0.00     0.163 HD
ATOM     73  O   UNL     1       6.337  -4.924   3.397  1.00  0.00    -0.269 OA
BRANCH  71  74
ATOM     74  C   UNL     1       6.186  -3.421   5.219  1.00  0.00     0.056 A 
ATOM     75  C   UNL     1       7.449  -3.498   5.660  1.00  0.00     0.099 A 
ATOM     76  C   UNL     1       5.155  -2.924   6.104  1.00  0.00     0.029 A 
ATOM     77  N   UNL     1       7.770  -3.049   6.919  1.00  0.00    -0.328 N 
ATOM     78  C   UNL     1       5.441  -2.414   7.317  1.00  0.00     0.048 A 
ATOM     79  C   UNL     1       6.866  -2.486   7.793  1.00  0.00     0.255 A 
ATOM     80  H   UNL     1       8.705  -3.135   7.215  1.00  0.00     0.169 HD
ATOM     81  O   UNL     1       7.213  -2.081   8.902  1.00  0.00    -0.269 OA
BRANCH  78  82
ATOM     82  C   UNL     1       4.377  -1.720   8.067  1.00  0.00    -0.006 A 
ATOM     83  C   UNL     1       3.122  -2.320   8.265  1.00  0.00     0.009 A 
ATOM     84  C   UNL     1       4.577  -0.403   8.507  1.00  0.00     0.094 A 
ATOM     85  C   UNL     1       2.075  -1.615   8.864  1.00  0.00     0.008 A 
ATOM     86  C   UNL     1       3.525   0.299   9.111  1.00  0.00     0.270 A 
ATOM     87  C   UNL     1       2.270  -0.301   9.284  1.00  0.00     0.085 A 
BRANCH  86  88
ATOM     88  N   UNL     1       3.730   1.685   9.550  1.00  0.00     0.062 N 
ATOM     89  O   UNL     1       2.782   2.256  10.110  1.00  0.00    -0.258 OA
ATOM     90  O   UNL     1       4.835   2.200   9.338  1.00  0.00    -0.258 OA
ENDBRANCH  86  88
ENDBRANCH  78  82
ENDBRANCH  71  74
ENDBRANCH  69  70
ENDBRANCH  68  69
ENDBRANCH   1  68
TORSDOF 15
