REMARK SMILES O=C(NCCCNC(=O)[C@H]1[C@H]2CC[C@H](CC2)[C@H]1C(=O)Nc1ccc(C(=O)N2CCCC2)cc1)c1ccc(-c2c3nc(c(-c4ccc(S(=O)(=O)[O-])cc4)c4ccc([nH]4)c(-c4ccc(S(=O)(=O)[O-])cc4)c4nc(c(-c5ccc(S(=O)(=O)[O-])cc5)c5ccc2[nH]5)C=C4)C=C3)cc1
REMARK SMILES IDX 5 1 4 2 3 3 1 4 2 5 34 7 35 8 93 9 36 10 92 11 37 12 38 13
REMARK SMILES IDX 39 14 86 15 40 16 91 17 85 18 87 19 41 20 90 21 84 22 83 23
REMARK SMILES IDX 42 25 72 26 53 27 71 28 54 29 57 30 70 31 88 32 55 33 56 34
REMARK SMILES IDX 69 36 89 37 58 38 43 39 44 40 52 41 45 42 51 43 46 44 47 45
REMARK SMILES IDX 48 46 49 47 50 48 73 49 74 50 82 51 75 52 81 53 76 54 77 55
REMARK SMILES IDX 78 56 79 57 80 58 59 59 60 60 68 61 61 62 67 63 62 64 63 65
REMARK SMILES IDX 64 66 65 67 66 68 6 69 7 70 8 71 9 73 10 74 11 75 17 76
REMARK SMILES IDX 16 77 12 78 14 79 15 80 13 81 18 82 19 83 20 84 21 86 22 87
REMARK SMILES IDX 33 88 23 89 32 90 24 91 25 92 26 93 27 94 28 95 31 96 29 97
REMARK SMILES IDX 30 98
REMARK H PARENT 3 6 87 24 57 35 7 72 20 85
REMARK Flexibility Score: inf
ROOT
ATOM      1  C   UNL     1       6.349  -1.642   0.566  1.00  0.00     0.042 C 
ENDROOT
BRANCH   1   2
ATOM      2  C   UNL     1       5.323  -1.602  -0.583  1.00  0.00     0.118 C 
BRANCH   2   3
ATOM      3  N   UNL     1       3.918  -1.367  -0.225  1.00  0.00    -0.352 N 
ATOM      4  O   UNL     1       1.847  -0.521  -0.084  1.00  0.00    -0.269 OA
ATOM      5  C   UNL     1       3.007  -0.360  -0.469  1.00  0.00     0.251 C 
ATOM      6  H   UNL     1       3.538  -2.097   0.315  1.00  0.00     0.163 HD
BRANCH   5   7
ATOM      7  C   UNL     1       3.383   0.935  -1.080  1.00  0.00     0.039 A 
ATOM      8  C   UNL     1       4.350   1.021  -2.070  1.00  0.00     0.014 A 
ATOM      9  C   UNL     1       2.759   2.114  -0.636  1.00  0.00     0.014 A 
ATOM     10  C   UNL     1       4.863   2.259  -2.434  1.00  0.00     0.010 A 
ATOM     11  C   UNL     1       3.192   3.365  -1.096  1.00  0.00     0.010 A 
ATOM     12  C   UNL     1       4.285   3.450  -1.966  1.00  0.00    -0.014 A 
BRANCH  12  13
ATOM     13  C   UNL     1       4.807   4.743  -2.482  1.00  0.00     0.031 A 
ATOM     14  C   UNL     1       5.432   5.766  -1.572  1.00  0.00     0.074 A 
ATOM     15  C   UNL     1       4.778   4.956  -3.813  1.00  0.00     0.049 A 
ATOM     16  N   UNL     1       6.000   6.903  -1.887  1.00  0.00    -0.248 NA
ATOM     17  C   UNL     1       5.418   5.484  -0.128  1.00  0.00     0.031 C 
ATOM     18  C   UNL     1       4.195   4.037  -4.797  1.00  0.00     0.029 A 
ATOM     19  N   UNL     1       5.279   5.979  -4.576  1.00  0.00    -0.354 N 
ATOM     20  C   UNL     1       6.386   7.486  -0.685  1.00  0.00     0.074 A 
ATOM     21  C   UNL     1       5.974   6.582   0.368  1.00  0.00     0.031 C 
ATOM     22  C   UNL     1       4.439   4.498  -6.030  1.00  0.00     0.029 A 
ATOM     23  C   UNL     1       5.112   5.787  -5.927  1.00  0.00     0.049 A 
ATOM     24  H   UNL     1       5.715   6.774  -4.193  1.00  0.00     0.167 HD
ATOM     25  C   UNL     1       7.018   8.668  -0.479  1.00  0.00     0.031 A 
ATOM     26  C   UNL     1       5.438   6.564  -6.976  1.00  0.00     0.031 A 
ATOM     27  C   UNL     1       7.415   9.567  -1.534  1.00  0.00     0.049 A 
ATOM     28  C   UNL     1       6.116   7.876  -6.723  1.00  0.00     0.074 A 
ATOM     29  C   UNL     1       8.073  10.781  -1.428  1.00  0.00     0.029 A 
ATOM     30  N   UNL     1       7.184   9.357  -2.886  1.00  0.00    -0.354 N 
ATOM     31  N   UNL     1       6.485   8.399  -5.578  1.00  0.00    -0.248 NA
ATOM     32  C   UNL     1       6.417   8.704  -7.896  1.00  0.00     0.031 C 
ATOM     33  C   UNL     1       8.194  11.326  -2.711  1.00  0.00     0.029 A 
ATOM     34  C   UNL     1       7.666  10.426  -3.622  1.00  0.00     0.049 A 
ATOM     35  H   UNL     1       6.741   8.563  -3.266  1.00  0.00     0.167 HD
ATOM     36  C   UNL     1       7.074   9.616  -5.893  1.00  0.00     0.074 A 
ATOM     37  C   UNL     1       7.026   9.743  -7.337  1.00  0.00     0.031 C 
ATOM     38  C   UNL     1       7.608  10.541  -5.059  1.00  0.00     0.031 A 
BRANCH  25  39
ATOM     39  C   UNL     1       7.276   9.080   0.948  1.00  0.00    -0.014 A 
ATOM     40  C   UNL     1       8.240   8.429   1.738  1.00  0.00     0.010 A 
ATOM     41  C   UNL     1       6.550  10.151   1.503  1.00  0.00     0.010 A 
ATOM     42  C   UNL     1       8.431   8.802   3.073  1.00  0.00     0.020 A 
ATOM     43  C   UNL     1       6.757  10.545   2.829  1.00  0.00     0.020 A 
ATOM     44  C   UNL     1       7.679   9.850   3.613  1.00  0.00     0.054 A 
BRANCH  44  45
ATOM     45  S   UNL     1       7.927  10.295   5.354  1.00  0.00     0.124 S 
ATOM     46  O   UNL     1       7.256   9.194   6.041  1.00  0.00    -0.237 OA
ATOM     47  O   UNL     1       9.382  10.316   5.477  1.00  0.00    -0.237 OA
ATOM     48  O   UNL     1       7.275  11.596   5.477  1.00  0.00    -0.744 OA
ENDBRANCH  44  45
ENDBRANCH  25  39
BRANCH  26  49
ATOM     49  C   UNL     1       5.090   6.108  -8.348  1.00  0.00    -0.014 A 
ATOM     50  C   UNL     1       6.086   5.670  -9.236  1.00  0.00     0.010 A 
ATOM     51  C   UNL     1       3.739   6.027  -8.736  1.00  0.00     0.010 A 
ATOM     52  C   UNL     1       5.735   5.146 -10.484  1.00  0.00     0.020 A 
ATOM     53  C   UNL     1       3.384   5.477  -9.969  1.00  0.00     0.020 A 
ATOM     54  C   UNL     1       4.386   5.043 -10.838  1.00  0.00     0.054 A 
BRANCH  54  55
ATOM     55  S   UNL     1       3.949   4.265 -12.418  1.00  0.00     0.124 S 
ATOM     56  O   UNL     1       4.289   5.312 -13.375  1.00  0.00    -0.237 OA
ATOM     57  O   UNL     1       4.809   3.084 -12.437  1.00  0.00    -0.237 OA
ATOM     58  O   UNL     1       2.522   3.983 -12.276  1.00  0.00    -0.744 OA
ENDBRANCH  54  55
ENDBRANCH  26  49
BRANCH  38  59
ATOM     59  C   UNL     1       8.217  11.764  -5.686  1.00  0.00    -0.014 A 
ATOM     60  C   UNL     1       7.414  12.789  -6.216  1.00  0.00     0.010 A 
ATOM     61  C   UNL     1       9.615  11.917  -5.682  1.00  0.00     0.010 A 
ATOM     62  C   UNL     1       8.002  13.940  -6.747  1.00  0.00     0.020 A 
ATOM     63  C   UNL     1      10.205  13.077  -6.189  1.00  0.00     0.020 A 
ATOM     64  C   UNL     1       9.394  14.078  -6.727  1.00  0.00     0.054 A 
BRANCH  64  65
ATOM     65  S   UNL     1      10.130  15.610  -7.360  1.00  0.00     0.124 S 
ATOM     66  O   UNL     1       9.989  15.441  -8.804  1.00  0.00    -0.237 OA
ATOM     67  O   UNL     1       9.287  16.642  -6.762  1.00  0.00    -0.237 OA
ATOM     68  O   UNL     1      11.502  15.567  -6.858  1.00  0.00    -0.744 OA
ENDBRANCH  64  65
ENDBRANCH  38  59
ENDBRANCH  12  13
ENDBRANCH   5   7
ENDBRANCH   2   3
ENDBRANCH   1   2
BRANCH   1  69
ATOM     69  C   UNL     1       5.945  -2.515   1.741  1.00  0.00     0.117 C 
BRANCH  69  70
ATOM     70  N   UNL     1       6.731  -3.685   2.025  1.00  0.00    -0.356 N 
ATOM     71  C   UNL     1       6.499  -4.601   3.005  1.00  0.00     0.224 C 
ATOM     72  H   UNL     1       7.516  -3.840   1.451  1.00  0.00     0.163 HD
ATOM     73  O   UNL     1       6.754  -5.772   2.689  1.00  0.00    -0.275 OA
BRANCH  71  74
ATOM     74  C   UNL     1       6.066  -4.317   4.474  1.00  0.00     0.094 C 
ATOM     75  C   UNL     1       6.252  -3.022   5.366  1.00  0.00     0.002 C 
ATOM     76  C   UNL     1       4.937  -5.212   5.053  1.00  0.00     0.094 C 
ATOM     77  C   UNL     1       4.975  -2.380   5.999  1.00  0.00     0.005 C 
ATOM     78  C   UNL     1       6.961  -3.525   6.657  1.00  0.00     0.005 C 
ATOM     79  C   UNL     1       4.714  -4.797   6.543  1.00  0.00     0.002 C 
ATOM     80  C   UNL     1       4.041  -3.430   6.612  1.00  0.00     0.005 C 
ATOM     81  C   UNL     1       6.089  -4.647   7.282  1.00  0.00     0.005 C 
BRANCH  76  82
ATOM     82  C   UNL     1       3.634  -5.669   4.290  1.00  0.00     0.228 C 
ATOM     83  O   UNL     1       3.442  -6.898   4.215  1.00  0.00    -0.274 OA
ATOM     84  N   UNL     1       2.579  -4.930   3.814  1.00  0.00    -0.326 N 
ATOM     85  H   UNL     1       1.782  -5.481   3.637  1.00  0.00     0.169 HD
BRANCH  84  86
ATOM     86  C   UNL     1       2.369  -3.574   3.521  1.00  0.00     0.041 A 
ATOM     87  C   UNL     1       1.118  -2.989   3.321  1.00  0.00     0.027 A 
ATOM     88  C   UNL     1       3.439  -2.748   3.405  1.00  0.00     0.027 A 
ATOM     89  C   UNL     1       0.997  -1.574   3.171  1.00  0.00     0.016 A 
ATOM     90  C   UNL     1       3.348  -1.374   3.241  1.00  0.00     0.016 A 
ATOM     91  C   UNL     1       2.130  -0.744   3.169  1.00  0.00     0.040 A 
BRANCH  91  92
ATOM     92  C   UNL     1       2.100   0.742   3.387  1.00  0.00     0.253 C 
ATOM     93  O   UNL     1       1.066   1.241   3.823  1.00  0.00    -0.269 OA
ATOM     94  N   UNL     1       3.316   1.429   3.377  1.00  0.00    -0.339 N 
ATOM     95  C   UNL     1       4.319   1.489   2.326  1.00  0.00     0.120 C 
ATOM     96  C   UNL     1       3.750   2.204   4.525  1.00  0.00     0.120 C 
ATOM     97  C   UNL     1       5.625   1.692   3.073  1.00  0.00     0.023 C 
ATOM     98  C   UNL     1       5.206   2.584   4.237  1.00  0.00     0.023 C 
ENDBRANCH  91  92
ENDBRANCH  84  86
ENDBRANCH  76  82
ENDBRANCH  71  74
ENDBRANCH  69  70
ENDBRANCH   1  69
TORSDOF 16
