REMARK SMILES O=C(C[NH2+]C[C@@H]1CCCO1)NCCCNC(=O)c1ccc(-c2c3nc(c(-c4ccc(S(=O)(=O)[O-])cc4)c4ccc([nH]4)c(-c4ccc(S(=O)(=O)[O-])cc4)c4nc(c(-c5ccc(S(=O)(=O)[O-])cc5)c5ccc2[nH]5)C=C4)C=C3)cc1
REMARK SMILES IDX 13 1 12 2 11 3 1 4 2 5 3 7 4 8 5 11 6 12 7 13 10 14 8 15
REMARK SMILES IDX 9 16 14 17 15 18 16 19 17 21 18 22 19 23 77 24 20 25 76 26
REMARK SMILES IDX 21 27 22 28 23 29 70 30 24 31 75 32 69 33 71 34 25 35 74 36
REMARK SMILES IDX 68 37 67 38 26 40 56 41 37 42 55 43 38 44 41 45 54 46 72 47
REMARK SMILES IDX 39 48 40 49 53 51 73 52 42 53 27 54 28 55 36 56 29 57 35 58
REMARK SMILES IDX 30 59 31 60 32 61 33 62 34 63 57 64 58 65 66 66 59 67 65 68
REMARK SMILES IDX 60 69 61 70 62 71 63 72 64 73 43 74 44 75 52 76 45 77 51 78
REMARK SMILES IDX 46 79 47 80 48 81 49 82 50 83
REMARK H PARENT 11 6 4 9 4 10 15 20 71 39 41 50
REMARK Flexibility Score: inf
ROOT
ATOM      1  C   UNL     1       2.437  -3.189  -1.636  1.00  0.00     0.042 C 
ENDROOT
BRANCH   1   2
ATOM      2  C   UNL     1       2.138  -2.665  -0.234  1.00  0.00     0.118 C 
BRANCH   2   3
ATOM      3  N   UNL     1       2.849  -1.432   0.018  1.00  0.00    -0.351 N 
ATOM      4  O   UNL     1       1.017  -0.040  -0.003  1.00  0.00    -0.269 OA
ATOM      5  C   UNL     1       2.233  -0.204   0.000  1.00  0.00     0.275 C 
ATOM      6  H   UNL     1       3.813  -1.473   0.211  1.00  0.00     0.163 HD
BRANCH   5   7
ATOM      7  C   UNL     1       3.212   0.965  -0.018  1.00  0.00     0.361 C 
BRANCH   7   8
ATOM      8  N   UNL     1       3.641   1.283   1.349  1.00  0.00    -0.336 N 
ATOM      9  H   UNL     1       4.297   0.568   1.664  1.00  0.00     0.346 HD
ATOM     10  H   UNL     1       2.813   1.308   1.944  1.00  0.00     0.346 HD
BRANCH   8  11
ATOM     11  C   UNL     1       4.296   2.596   1.423  1.00  0.00     0.293 C 
BRANCH  11  12
ATOM     12  C   UNL     1       3.355   3.796   1.653  1.00  0.00     0.173 C 
ATOM     13  C   UNL     1       2.336   4.054   0.554  1.00  0.00     0.040 C 
ATOM     14  O   UNL     1       4.121   5.014   1.763  1.00  0.00    -0.372 OA
ATOM     15  C   UNL     1       2.047   5.520   0.733  1.00  0.00     0.031 C 
ATOM     16  C   UNL     1       3.420   6.058   1.068  1.00  0.00     0.161 C 
ENDBRANCH  11  12
ENDBRANCH   8  11
ENDBRANCH   7   8
ENDBRANCH   5   7
ENDBRANCH   2   3
ENDBRANCH   1   2
BRANCH   1  17
ATOM     17  C   UNL     1       3.922  -3.416  -1.909  1.00  0.00     0.118 C 
BRANCH  17  18
ATOM     18  N   UNL     1       4.531  -4.360  -0.982  1.00  0.00    -0.352 N 
ATOM     19  C   UNL     1       5.181  -5.545  -1.232  1.00  0.00     0.251 C 
ATOM     20  H   UNL     1       4.468  -4.111  -0.032  1.00  0.00     0.163 HD
ATOM     21  O   UNL     1       5.472  -6.288  -0.303  1.00  0.00    -0.269 OA
BRANCH  19  22
ATOM     22  C   UNL     1       5.503  -5.928  -2.623  1.00  0.00     0.039 A 
ATOM     23  C   UNL     1       5.217  -7.228  -3.046  1.00  0.00     0.014 A 
ATOM     24  C   UNL     1       6.073  -5.008  -3.506  1.00  0.00     0.014 A 
ATOM     25  C   UNL     1       5.430  -7.581  -4.381  1.00  0.00     0.010 A 
ATOM     26  C   UNL     1       6.214  -5.338  -4.850  1.00  0.00     0.010 A 
ATOM     27  C   UNL     1       5.887  -6.625  -5.304  1.00  0.00    -0.014 A 
BRANCH  27  28
ATOM     28  C   UNL     1       6.001  -6.941  -6.751  1.00  0.00     0.031 A 
ATOM     29  C   UNL     1       7.340  -6.893  -7.434  1.00  0.00     0.074 A 
ATOM     30  C   UNL     1       4.886  -7.193  -7.466  1.00  0.00     0.049 A 
ATOM     31  N   UNL     1       7.624  -7.051  -8.702  1.00  0.00    -0.248 NA
ATOM     32  C   UNL     1       8.510  -6.608  -6.588  1.00  0.00     0.031 C 
ATOM     33  C   UNL     1       3.524  -7.237  -6.926  1.00  0.00     0.029 A 
ATOM     34  N   UNL     1       4.718  -7.450  -8.804  1.00  0.00    -0.354 N 
ATOM     35  C   UNL     1       8.998  -6.870  -8.808  1.00  0.00     0.074 A 
ATOM     36  C   UNL     1       9.484  -6.543  -7.484  1.00  0.00     0.031 C 
ATOM     37  C   UNL     1       2.666  -7.526  -7.916  1.00  0.00     0.029 A 
ATOM     38  C   UNL     1       3.405  -7.638  -9.170  1.00  0.00     0.049 A 
ATOM     39  H   UNL     1       5.466  -7.496  -9.442  1.00  0.00     0.167 HD
ATOM     40  C   UNL     1       9.786  -6.981  -9.904  1.00  0.00     0.031 A 
ATOM     41  C   UNL     1       2.853  -7.857 -10.379  1.00  0.00     0.031 A 
ATOM     42  C   UNL     1       9.297  -7.308 -11.218  1.00  0.00     0.049 A 
ATOM     43  C   UNL     1       3.745  -7.941 -11.588  1.00  0.00     0.074 A 
ATOM     44  C   UNL     1      10.022  -7.495 -12.382  1.00  0.00     0.029 A 
ATOM     45  N   UNL     1       7.962  -7.489 -11.546  1.00  0.00    -0.354 N 
ATOM     46  N   UNL     1       5.051  -7.832 -11.656  1.00  0.00    -0.248 NA
ATOM     47  C   UNL     1       3.091  -8.183 -12.881  1.00  0.00     0.031 C 
ATOM     48  C   UNL     1       9.121  -7.726 -13.425  1.00  0.00     0.029 A 
ATOM     49  C   UNL     1       7.839  -7.753 -12.900  1.00  0.00     0.049 A 
ATOM     50  H   UNL     1       7.212  -7.438 -10.910  1.00  0.00     0.167 HD
ATOM     51  C   UNL     1       5.376  -8.020 -12.995  1.00  0.00     0.074 A 
ATOM     52  C   UNL     1       4.133  -8.264 -13.698  1.00  0.00     0.031 C 
ATOM     53  C   UNL     1       6.595  -7.994 -13.588  1.00  0.00     0.031 A 
BRANCH  40  54
ATOM     54  C   UNL     1      11.263  -6.734  -9.732  1.00  0.00    -0.014 A 
ATOM     55  C   UNL     1      12.072  -7.628  -9.007  1.00  0.00     0.010 A 
ATOM     56  C   UNL     1      11.859  -5.616 -10.344  1.00  0.00     0.010 A 
ATOM     57  C   UNL     1      13.440  -7.386  -8.861  1.00  0.00     0.020 A 
ATOM     58  C   UNL     1      13.234  -5.388 -10.228  1.00  0.00     0.020 A 
ATOM     59  C   UNL     1      14.012  -6.266  -9.472  1.00  0.00     0.054 A 
BRANCH  59  60
ATOM     60  S   UNL     1      15.796  -5.992  -9.285  1.00  0.00     0.124 S 
ATOM     61  O   UNL     1      15.894  -5.602  -7.881  1.00  0.00    -0.237 OA
ATOM     62  O   UNL     1      16.356  -7.300  -9.614  1.00  0.00    -0.237 OA
ATOM     63  O   UNL     1      16.087  -4.932 -10.247  1.00  0.00    -0.744 OA
ENDBRANCH  59  60
ENDBRANCH  40  54
BRANCH  41  64
ATOM     64  C   UNL     1       1.377  -8.013 -10.506  1.00  0.00    -0.014 A 
ATOM     65  C   UNL     1       0.816  -9.258 -10.844  1.00  0.00     0.010 A 
ATOM     66  C   UNL     1       0.522  -6.918 -10.280  1.00  0.00     0.010 A 
ATOM     67  C   UNL     1      -0.570  -9.399 -10.971  1.00  0.00     0.020 A 
ATOM     68  C   UNL     1      -0.865  -7.064 -10.375  1.00  0.00     0.020 A 
ATOM     69  C   UNL     1      -1.401  -8.302 -10.732  1.00  0.00     0.054 A 
BRANCH  69  70
ATOM     70  S   UNL     1      -3.198  -8.523 -10.855  1.00  0.00     0.124 S 
ATOM     71  O   UNL     1      -3.389  -8.661 -12.295  1.00  0.00    -0.237 OA
ATOM     72  O   UNL     1      -3.420  -9.733 -10.067  1.00  0.00    -0.237 OA
ATOM     73  O   UNL     1      -3.735  -7.298 -10.266  1.00  0.00    -0.744 OA
ENDBRANCH  69  70
ENDBRANCH  41  64
BRANCH  53  74
ATOM     74  C   UNL     1       6.658  -8.268 -15.068  1.00  0.00    -0.014 A 
ATOM     75  C   UNL     1       6.193  -7.329 -16.005  1.00  0.00     0.010 A 
ATOM     76  C   UNL     1       7.258  -9.456 -15.527  1.00  0.00     0.010 A 
ATOM     77  C   UNL     1       6.307  -7.583 -17.375  1.00  0.00     0.020 A 
ATOM     78  C   UNL     1       7.402  -9.699 -16.895  1.00  0.00     0.020 A 
ATOM     79  C   UNL     1       6.915  -8.764 -17.811  1.00  0.00     0.054 A 
BRANCH  79  80
ATOM     80  S   UNL     1       7.107  -9.039 -19.594  1.00  0.00     0.124 S 
ATOM     81  O   UNL     1       5.733  -9.305 -20.011  1.00  0.00    -0.237 OA
ATOM     82  O   UNL     1       7.669  -7.771 -20.053  1.00  0.00    -0.237 OA
ATOM     83  O   UNL     1       8.014 -10.182 -19.674  1.00  0.00    -0.744 OA
ENDBRANCH  79  80
ENDBRANCH  53  74
ENDBRANCH  27  28
ENDBRANCH  19  22
ENDBRANCH  17  18
ENDBRANCH   1  17
TORSDOF 16
