REMARK SMILES C=C[C@@H]1[C@@H](O)C[C@H]2[C@]3(CC[C@]4(C)[C@@H]([C@H](C)CCC=C(C)C)CC[C@]24C)C[C@]13CCC(=O)NCCCNC(=O)c1ccc(-c2c3nc(c(-c4ccc(S(=O)(=O)[O-])cc4)c4ccc([nH]4)c(-c4ccc(S(=O)(=O)[O-])cc4)c4nc(c(-c5ccc(S(=O)(=O)[O-])cc5)c5ccc2[nH]5)C=C4)C=C3)cc1
REMARK SMILES IDX 30 1 31 2 32 3 29 5 28 6 27 7 3 8 4 9 6 10 8 11 26 12 7 13
REMARK SMILES IDX 9 14 24 15 10 16 11 17 23 18 25 19 13 20 12 21 22 22 2 23
REMARK SMILES IDX 1 24 5 25 14 27 15 28 16 29 17 30 18 31 19 32 20 33 21 34
REMARK SMILES IDX 33 35 34 36 35 37 36 38 37 39 38 41 39 42 40 43 98 44 41 45
REMARK SMILES IDX 97 46 42 47 43 48 44 49 91 50 45 51 96 52 90 53 92 54 46 55
REMARK SMILES IDX 95 56 89 57 88 58 47 60 77 61 58 62 76 63 59 64 62 65 75 66
REMARK SMILES IDX 93 67 60 68 61 69 74 71 94 72 63 73 48 74 49 75 57 76 50 77
REMARK SMILES IDX 56 78 51 79 52 80 53 81 54 82 55 83 78 84 79 85 87 86 80 87
REMARK SMILES IDX 86 88 81 89 82 90 83 91 84 92 85 93 64 94 65 95 73 96 66 97
REMARK SMILES IDX 72 98 67 99 68 100 69 101 70 102 71 103
REMARK H PARENT 32 4 5 26 36 40 92 59 62 70
REMARK Flexibility Score: inf
ROOT
ATOM      1  C   UNL     1      -4.594   1.416   0.585  1.00  0.00     0.220 C 
ATOM      2  O   UNL     1      -5.341   1.759  -0.347  1.00  0.00    -0.275 OA
ATOM      3  N   UNL     1      -4.170   2.490   1.427  1.00  0.00    -0.356 N 
ATOM      4  H   UNL     1      -4.711   3.249   1.110  1.00  0.00     0.163 HD
ENDROOT
BRANCH   1   5
ATOM      5  C   UNL     1      -4.300  -0.087   0.623  1.00  0.00     0.100 C 
BRANCH   5   6
ATOM      6  C   UNL     1      -2.857  -0.561   0.540  1.00  0.00     0.018 C 
BRANCH   6   7
ATOM      7  C   UNL     1      -1.830   0.482   0.896  1.00  0.00    -0.014 C 
ATOM      8  C   UNL     1      -0.770   0.747  -0.213  1.00  0.00     0.047 C 
ATOM      9  C   UNL     1      -1.035   2.048  -1.011  1.00  0.00     0.122 C 
ATOM     10  C   UNL     1      -1.188   3.328  -0.133  1.00  0.00     0.037 C 
ATOM     11  C   UNL     1      -2.416   1.576   1.818  1.00  0.00    -0.019 C 
ATOM     12  C   UNL     1      -1.293   0.686   2.285  1.00  0.00     0.016 C 
ATOM     13  C   UNL     1      -2.440   3.272   0.796  1.00  0.00     0.005 C 
ATOM     14  C   UNL     1      -3.917   1.208   3.033  1.00  0.00     0.008 C 
ATOM     15  C   UNL     1      -3.736   4.699   1.392  1.00  0.00    -0.023 C 
ATOM     16  C   UNL     1      -5.370   2.465   3.103  1.00  0.00     0.008 C 
ATOM     17  C   UNL     1      -5.419   4.124   2.154  1.00  0.00    -0.024 C 
ATOM     18  C   UNL     1      -4.127   5.439   0.093  1.00  0.00     0.008 C 
ATOM     19  C   UNL     1      -3.528   5.870   2.454  1.00  0.00     0.012 C 
ATOM     20  C   UNL     1      -6.276   4.436   0.796  1.00  0.00    -0.002 C 
ATOM     21  C   UNL     1      -6.145   4.991   3.236  1.00  0.00     0.012 C 
ATOM     22  C   UNL     1      -5.619   5.709   0.183  1.00  0.00     0.005 C 
BRANCH   8  23
ATOM     23  C   UNL     1       0.685   0.704   0.240  1.00  0.00    -0.028 C 
ATOM     24  C   UNL     1       1.531  -0.315   0.041  1.00  0.00     0.004 C 
ENDBRANCH   8  23
BRANCH   9  25
ATOM     25  O   UNL     1      -2.170   1.880  -1.868  1.00  0.00    -0.392 OA
ATOM     26  H   UNL     1      -2.963   1.729  -1.330  1.00  0.00     0.210 HD
ENDBRANCH   9  25
BRANCH  20  27
ATOM     27  C   UNL     1      -7.812   4.515   0.680  1.00  0.00    -0.010 C 
ATOM     28  C   UNL     1      -8.552   5.643   1.398  1.00  0.00     0.008 C 
BRANCH  27  29
ATOM     29  C   UNL     1      -8.444   3.129   0.904  1.00  0.00     0.008 C 
BRANCH  29  30
ATOM     30  C   UNL     1      -9.243   2.626  -0.313  1.00  0.00     0.027 C 
BRANCH  30  31
ATOM     31  C   UNL     1      -8.406   2.412  -1.552  1.00  0.00    -0.028 C 
ATOM     32  C   UNL     1      -8.172   1.253  -2.199  1.00  0.00    -0.080 C 
ATOM     33  C   UNL     1      -7.263   1.210  -3.400  1.00  0.00     0.039 C 
ATOM     34  C   UNL     1      -8.741  -0.067  -1.774  1.00  0.00     0.039 C 
ENDBRANCH  30  31
ENDBRANCH  29  30
ENDBRANCH  27  29
ENDBRANCH  20  27
ENDBRANCH   6   7
ENDBRANCH   5   6
ENDBRANCH   1   5
BRANCH   3  35
ATOM     35  C   UNL     1      -3.080   3.295   2.895  1.00  0.00     0.117 C 
BRANCH  35  36
ATOM     36  C   UNL     1      -1.385   4.011   2.869  1.00  0.00     0.042 C 
BRANCH  36  37
ATOM     37  C   UNL     1      -0.686   5.264   2.115  1.00  0.00     0.118 C 
BRANCH  37  38
ATOM     38  N   UNL     1      -1.037   6.629   2.513  1.00  0.00    -0.352 N 
ATOM     39  C   UNL     1      -0.334   7.788   2.508  1.00  0.00     0.251 C 
ATOM     40  H   UNL     1      -1.959   6.723   2.847  1.00  0.00     0.163 HD
ATOM     41  O   UNL     1      -0.414   8.611   3.413  1.00  0.00    -0.269 OA
BRANCH  39  42
ATOM     42  C   UNL     1       0.285   8.144   1.227  1.00  0.00     0.039 A 
ATOM     43  C   UNL     1       1.528   8.759   1.288  1.00  0.00     0.014 A 
ATOM     44  C   UNL     1      -0.339   7.840   0.004  1.00  0.00     0.014 A 
ATOM     45  C   UNL     1       2.209   8.984   0.110  1.00  0.00     0.010 A 
ATOM     46  C   UNL     1       0.362   8.019  -1.171  1.00  0.00     0.010 A 
ATOM     47  C   UNL     1       1.641   8.576  -1.108  1.00  0.00    -0.014 A 
BRANCH  47  48
ATOM     48  C   UNL     1       2.426   8.714  -2.334  1.00  0.00     0.031 A 
ATOM     49  C   UNL     1       2.062   9.785  -3.304  1.00  0.00     0.074 A 
ATOM     50  C   UNL     1       3.447   7.858  -2.507  1.00  0.00     0.049 A 
ATOM     51  N   UNL     1       2.689  10.151  -4.384  1.00  0.00    -0.248 NA
ATOM     52  C   UNL     1       0.817  10.530  -3.040  1.00  0.00     0.031 C 
ATOM     53  C   UNL     1       3.781   6.750  -1.601  1.00  0.00     0.029 A 
ATOM     54  N   UNL     1       4.406   7.797  -3.474  1.00  0.00    -0.354 N 
ATOM     55  C   UNL     1       1.917  11.166  -4.932  1.00  0.00     0.074 A 
ATOM     56  C   UNL     1       0.745  11.317  -4.103  1.00  0.00     0.031 C 
ATOM     57  C   UNL     1       4.906   6.156  -2.029  1.00  0.00     0.029 A 
ATOM     58  C   UNL     1       5.355   6.830  -3.239  1.00  0.00     0.049 A 
ATOM     59  H   UNL     1       4.418   8.386  -4.262  1.00  0.00     0.167 HD
ATOM     60  C   UNL     1       2.196  11.917  -6.020  1.00  0.00     0.031 A 
ATOM     61  C   UNL     1       6.479   6.556  -3.922  1.00  0.00     0.031 A 
ATOM     62  C   UNL     1       3.388  11.723  -6.798  1.00  0.00     0.049 A 
ATOM     63  C   UNL     1       6.798   7.445  -5.091  1.00  0.00     0.074 A 
ATOM     64  C   UNL     1       3.827  12.421  -7.905  1.00  0.00     0.029 A 
ATOM     65  N   UNL     1       4.342  10.746  -6.527  1.00  0.00    -0.354 N 
ATOM     66  N   UNL     1       6.096   8.449  -5.569  1.00  0.00    -0.248 NA
ATOM     67  C   UNL     1       8.057   7.191  -5.794  1.00  0.00     0.031 C 
ATOM     68  C   UNL     1       5.032  11.844  -8.322  1.00  0.00     0.029 A 
ATOM     69  C   UNL     1       5.368  10.819  -7.447  1.00  0.00     0.049 A 
ATOM     70  H   UNL     1       4.292  10.098  -5.788  1.00  0.00     0.167 HD
ATOM     71  C   UNL     1       6.837   8.962  -6.622  1.00  0.00     0.074 A 
ATOM     72  C   UNL     1       8.050   8.165  -6.695  1.00  0.00     0.031 C 
ATOM     73  C   UNL     1       6.550   9.990  -7.460  1.00  0.00     0.031 A 
BRANCH  60  74
ATOM     74  C   UNL     1       1.199  12.976  -6.404  1.00  0.00    -0.014 A 
ATOM     75  C   UNL     1       0.989  14.106  -5.589  1.00  0.00     0.010 A 
ATOM     76  C   UNL     1       0.442  12.835  -7.579  1.00  0.00     0.010 A 
ATOM     77  C   UNL     1       0.007  15.046  -5.916  1.00  0.00     0.020 A 
ATOM     78  C   UNL     1      -0.522  13.788  -7.925  1.00  0.00     0.020 A 
ATOM     79  C   UNL     1      -0.747  14.877  -7.080  1.00  0.00     0.054 A 
BRANCH  79  80
ATOM     80  S   UNL     1      -2.010  16.115  -7.486  1.00  0.00     0.124 S 
ATOM     81  O   UNL     1      -3.063  15.797  -6.525  1.00  0.00    -0.237 OA
ATOM     82  O   UNL     1      -1.310  17.376  -7.253  1.00  0.00    -0.237 OA
ATOM     83  O   UNL     1      -2.334  15.834  -8.882  1.00  0.00    -0.744 OA
ENDBRANCH  79  80
ENDBRANCH  60  74
BRANCH  61  84
ATOM     84  C   UNL     1       7.373   5.457  -3.473  1.00  0.00    -0.014 A 
ATOM     85  C   UNL     1       8.615   5.734  -2.875  1.00  0.00     0.010 A 
ATOM     86  C   UNL     1       6.953   4.117  -3.576  1.00  0.00     0.010 A 
ATOM     87  C   UNL     1       9.426   4.694  -2.405  1.00  0.00     0.020 A 
ATOM     88  C   UNL     1       7.749   3.077  -3.086  1.00  0.00     0.020 A 
ATOM     89  C   UNL     1       8.986   3.372  -2.512  1.00  0.00     0.054 A 
BRANCH  89  90
ATOM     90  S   UNL     1      10.026   2.042  -1.844  1.00  0.00     0.124 S 
ATOM     91  O   UNL     1      11.092   1.963  -2.836  1.00  0.00    -0.237 OA
ATOM     92  O   UNL     1      10.413   2.569  -0.537  1.00  0.00    -0.237 OA
ATOM     93  O   UNL     1       9.124   0.893  -1.799  1.00  0.00    -0.744 OA
ENDBRANCH  89  90
ENDBRANCH  61  84
BRANCH  73  94
ATOM     94  C   UNL     1       7.578  10.308  -8.503  1.00  0.00    -0.014 A 
ATOM     95  C   UNL     1       7.724   9.492  -9.637  1.00  0.00     0.010 A 
ATOM     96  C   UNL     1       8.345  11.479  -8.379  1.00  0.00     0.010 A 
ATOM     97  C   UNL     1       8.644   9.834 -10.627  1.00  0.00     0.020 A 
ATOM     98  C   UNL     1       9.247  11.837  -9.380  1.00  0.00     0.020 A 
ATOM     99  C   UNL     1       9.398  11.005 -10.492  1.00  0.00     0.054 A 
BRANCH  99 100
ATOM    100  S   UNL     1      10.540  11.460 -11.822  1.00  0.00     0.124 S 
ATOM    101  O   UNL     1      11.646  10.533 -11.599  1.00  0.00    -0.237 OA
ATOM    102  O   UNL     1       9.746  11.216 -13.024  1.00  0.00    -0.237 OA
ATOM    103  O   UNL     1      10.839  12.865 -11.555  1.00  0.00    -0.744 OA
ENDBRANCH  99 100
ENDBRANCH  73  94
ENDBRANCH  47  48
ENDBRANCH  39  42
ENDBRANCH  37  38
ENDBRANCH  36  37
ENDBRANCH  35  36
ENDBRANCH   3  35
TORSDOF 21
