REMARK SMILES O=C(NCCCNC(=O)[C@H]1[C@H]2C[C@@H]3[C@@H](OC(=O)[C@@H]31)[C@@H]2Sc1ccccc1)c1ccc(-c2c3nc(c(-c4ccc(S(=O)(=O)[O-])cc4)c4ccc([nH]4)c(-c4ccc(S(=O)(=O)[O-])cc4)c4nc(c(-c5ccc(S(=O)(=O)[O-])cc5)c5ccc2[nH]5)C=C4)C=C3)cc1
REMARK SMILES IDX 4 1 3 2 1 3 2 4 27 6 28 7 86 8 29 9 85 10 30 11 31 12 32 13
REMARK SMILES IDX 79 14 33 15 84 16 78 17 80 18 34 19 83 20 77 21 76 22 35 24
REMARK SMILES IDX 65 25 46 26 64 27 47 28 50 29 63 30 81 31 48 32 49 33 62 35
REMARK SMILES IDX 82 36 51 37 36 38 37 39 45 40 38 41 44 42 39 43 40 44 41 45
REMARK SMILES IDX 42 46 43 47 66 48 67 49 75 50 68 51 74 52 69 53 70 54 71 55
REMARK SMILES IDX 72 56 73 57 52 58 53 59 61 60 54 61 60 62 55 63 56 64 57 65
REMARK SMILES IDX 58 66 59 67 5 68 6 69 7 70 8 71 9 73 10 74 11 75 18 76 12 77
REMARK SMILES IDX 19 78 13 79 16 80 14 81 15 82 17 83 20 84 21 85 22 86 26 87
REMARK SMILES IDX 23 88 25 89 24 90
REMARK H PARENT 3 5 80 23 50 34 7 72
REMARK Flexibility Score: inf
ROOT
ATOM      1  C   UNL     1       4.379   1.465  -0.002  1.00  0.00     0.118 C 
ENDROOT
BRANCH   1   2
ATOM      2  N   UNL     1       2.940   1.193   0.076  1.00  0.00    -0.352 N 
ATOM      3  O   UNL     1       1.044  -0.025   0.015  1.00  0.00    -0.269 OA
ATOM      4  C   UNL     1       2.248   0.014   0.250  1.00  0.00     0.251 C 
ATOM      5  H   UNL     1       2.369   1.990  -0.011  1.00  0.00     0.163 HD
BRANCH   4   6
ATOM      6  C   UNL     1       2.964  -1.196   0.699  1.00  0.00     0.039 A 
ATOM      7  C   UNL     1       4.023  -1.063   1.586  1.00  0.00     0.014 A 
ATOM      8  C   UNL     1       2.591  -2.467   0.251  1.00  0.00     0.014 A 
ATOM      9  C   UNL     1       4.874  -2.125   1.804  1.00  0.00     0.010 A 
ATOM     10  C   UNL     1       3.336  -3.586   0.650  1.00  0.00     0.010 A 
ATOM     11  C   UNL     1       4.505  -3.416   1.406  1.00  0.00    -0.014 A 
BRANCH  11  12
ATOM     12  C   UNL     1       5.317  -4.543   1.929  1.00  0.00     0.031 A 
ATOM     13  C   UNL     1       6.021  -5.503   1.015  1.00  0.00     0.074 A 
ATOM     14  C   UNL     1       5.483  -4.618   3.268  1.00  0.00     0.049 A 
ATOM     15  N   UNL     1       6.818  -6.490   1.333  1.00  0.00    -0.248 NA
ATOM     16  C   UNL     1       5.803  -5.353  -0.432  1.00  0.00     0.031 C 
ATOM     17  C   UNL     1       4.838  -3.732   4.249  1.00  0.00     0.029 A 
ATOM     18  N   UNL     1       6.277  -5.425   4.037  1.00  0.00    -0.354 N 
ATOM     19  C   UNL     1       7.180  -7.092   0.135  1.00  0.00     0.074 A 
ATOM     20  C   UNL     1       6.497  -6.374  -0.919  1.00  0.00     0.031 C 
ATOM     21  C   UNL     1       5.340  -3.974   5.465  1.00  0.00     0.029 A 
ATOM     22  C   UNL     1       6.241  -5.112   5.376  1.00  0.00     0.049 A 
ATOM     23  H   UNL     1       6.821  -6.158   3.668  1.00  0.00     0.167 HD
ATOM     24  C   UNL     1       8.009  -8.146  -0.060  1.00  0.00     0.031 A 
ATOM     25  C   UNL     1       6.836  -5.694   6.432  1.00  0.00     0.031 A 
ATOM     26  C   UNL     1       8.680  -8.849   1.005  1.00  0.00     0.049 A 
ATOM     27  C   UNL     1       7.710  -6.885   6.181  1.00  0.00     0.074 A 
ATOM     28  C   UNL     1       9.544  -9.927   0.912  1.00  0.00     0.029 A 
ATOM     29  N   UNL     1       8.566  -8.547   2.354  1.00  0.00    -0.354 N 
ATOM     30  N   UNL     1       8.043  -7.432   5.037  1.00  0.00    -0.248 NA
ATOM     31  C   UNL     1       8.281  -7.541   7.362  1.00  0.00     0.031 C 
ATOM     32  C   UNL     1       9.904 -10.313   2.207  1.00  0.00     0.029 A 
ATOM     33  C   UNL     1       9.322  -9.433   3.105  1.00  0.00     0.049 A 
ATOM     34  H   UNL     1       8.026  -7.811   2.725  1.00  0.00     0.167 HD
ATOM     35  C   UNL     1       8.873  -8.496   5.360  1.00  0.00     0.074 A 
ATOM     36  C   UNL     1       9.024  -8.484   6.802  1.00  0.00     0.031 C 
ATOM     37  C   UNL     1       9.450  -9.409   4.540  1.00  0.00     0.031 A 
BRANCH  24  38
ATOM     38  C   UNL     1       8.226  -8.625  -1.473  1.00  0.00    -0.014 A 
ATOM     39  C   UNL     1       8.988  -7.877  -2.388  1.00  0.00     0.010 A 
ATOM     40  C   UNL     1       7.734  -9.884  -1.864  1.00  0.00     0.010 A 
ATOM     41  C   UNL     1       9.239  -8.371  -3.672  1.00  0.00     0.020 A 
ATOM     42  C   UNL     1       8.005 -10.395  -3.138  1.00  0.00     0.020 A 
ATOM     43  C   UNL     1       8.750  -9.630  -4.036  1.00  0.00     0.054 A 
BRANCH  43  44
ATOM     44  S   UNL     1       9.143 -10.268  -5.689  1.00  0.00     0.124 S 
ATOM     45  O   UNL     1       8.347  -9.394  -6.546  1.00  0.00    -0.237 OA
ATOM     46  O   UNL     1      10.589 -10.078  -5.768  1.00  0.00    -0.237 OA
ATOM     47  O   UNL     1       8.701 -11.660  -5.639  1.00  0.00    -0.744 OA
ENDBRANCH  43  44
ENDBRANCH  24  38
BRANCH  25  48
ATOM     48  C   UNL     1       6.562  -5.204   7.810  1.00  0.00    -0.014 A 
ATOM     49  C   UNL     1       7.585  -4.664   8.607  1.00  0.00     0.010 A 
ATOM     50  C   UNL     1       5.258  -5.285   8.336  1.00  0.00     0.010 A 
ATOM     51  C   UNL     1       7.317  -4.252   9.916  1.00  0.00     0.020 A 
ATOM     52  C   UNL     1       4.977  -4.834   9.626  1.00  0.00     0.020 A 
ATOM     53  C   UNL     1       6.015  -4.342  10.417  1.00  0.00     0.054 A 
BRANCH  53  54
ATOM     54  S   UNL     1       5.687  -3.796  12.114  1.00  0.00     0.124 S 
ATOM     55  O   UNL     1       6.298  -4.864  12.897  1.00  0.00    -0.237 OA
ATOM     56  O   UNL     1       6.365  -2.503  12.165  1.00  0.00    -0.237 OA
ATOM     57  O   UNL     1       4.228  -3.728  12.175  1.00  0.00    -0.744 OA
ENDBRANCH  53  54
ENDBRANCH  25  48
BRANCH  37  58
ATOM     58  C   UNL     1      10.319 -10.447   5.195  1.00  0.00    -0.014 A 
ATOM     59  C   UNL     1       9.766 -11.451   6.010  1.00  0.00     0.010 A 
ATOM     60  C   UNL     1      11.710 -10.418   4.988  1.00  0.00     0.010 A 
ATOM     61  C   UNL     1      10.595 -12.375   6.651  1.00  0.00     0.020 A 
ATOM     62  C   UNL     1      12.538 -11.363   5.597  1.00  0.00     0.020 A 
ATOM     63  C   UNL     1      11.976 -12.322   6.442  1.00  0.00     0.054 A 
BRANCH  63  64
ATOM     64  S   UNL     1      13.029 -13.541   7.273  1.00  0.00     0.124 S 
ATOM     65  O   UNL     1      12.986 -13.083   8.659  1.00  0.00    -0.237 OA
ATOM     66  O   UNL     1      12.335 -14.798   7.005  1.00  0.00    -0.237 OA
ATOM     67  O   UNL     1      14.321 -13.394   6.608  1.00  0.00    -0.744 OA
ENDBRANCH  63  64
ENDBRANCH  37  58
ENDBRANCH  11  12
ENDBRANCH   4   6
ENDBRANCH   1   2
BRANCH   1  68
ATOM     68  C   UNL     1       4.879   1.453  -1.430  1.00  0.00     0.042 C 
BRANCH  68  69
ATOM     69  C   UNL     1       4.288   2.600  -2.215  1.00  0.00     0.117 C 
BRANCH  69  70
ATOM     70  N   UNL     1       4.953   3.869  -1.955  1.00  0.00    -0.356 N 
ATOM     71  C   UNL     1       5.595   4.783  -2.717  1.00  0.00     0.224 C 
ATOM     72  H   UNL     1       4.929   4.120  -1.003  1.00  0.00     0.163 HD
ATOM     73  O   UNL     1       5.894   5.842  -2.154  1.00  0.00    -0.275 OA
BRANCH  71  74
ATOM     74  C   UNL     1       5.966   4.610  -4.185  1.00  0.00     0.097 C 
ATOM     75  C   UNL     1       5.739   3.249  -4.876  1.00  0.00     0.020 C 
ATOM     76  C   UNL     1       5.163   5.572  -5.101  1.00  0.00     0.119 C 
ATOM     77  C   UNL     1       4.260   3.389  -5.292  1.00  0.00     0.014 C 
ATOM     78  C   UNL     1       6.498   3.303  -6.222  1.00  0.00     0.097 C 
ATOM     79  C   UNL     1       4.479   4.633  -6.096  1.00  0.00     0.047 C 
ATOM     80  C   UNL     1       6.053   6.333  -6.040  1.00  0.00     0.310 C 
ATOM     81  C   UNL     1       5.639   4.310  -7.029  1.00  0.00     0.194 C 
ATOM     82  O   UNL     1       6.304   5.574  -7.157  1.00  0.00    -0.461 OA
ATOM     83  O   UNL     1       6.508   7.451  -5.854  1.00  0.00    -0.252 OA
BRANCH  78  84
ATOM     84  S   UNL     1       6.890   1.704  -7.050  1.00  0.00    -0.119 SA
BRANCH  84  85
ATOM     85  C   UNL     1       5.463   0.673  -6.792  1.00  0.00     0.008 A 
ATOM     86  C   UNL     1       5.506  -0.378  -5.868  1.00  0.00     0.015 A 
ATOM     87  C   UNL     1       4.314   0.846  -7.570  1.00  0.00     0.015 A 
ATOM     88  C   UNL     1       4.395  -1.209  -5.688  1.00  0.00     0.001 A 
ATOM     89  C   UNL     1       3.194   0.035  -7.370  1.00  0.00     0.001 A 
ATOM     90  C   UNL     1       3.234  -0.992  -6.428  1.00  0.00     0.000 A 
ENDBRANCH  84  85
ENDBRANCH  78  84
ENDBRANCH  71  74
ENDBRANCH  69  70
ENDBRANCH  68  69
ENDBRANCH   1  68
TORSDOF 15
