REMARK SMILES C[C@H]([C@@H](C)C(=O)NCCCNC(=O)c1ccc(-c2c3nc(c(-c4ccc(S(=O)(=O)[O-])cc4)c4ccc([nH]4)c(-c4ccc(S(=O)(=O)[O-])cc4)c4nc(c(-c5ccc(S(=O)(=O)[O-])cc5)c5ccc2[nH]5)C=C4)C=C3)cc1)[NH+]1CCN(c2nccs2)CC1
REMARK SMILES IDX 9 1 8 2 7 3 5 4 6 5 3 7 4 8 2 9 1 10 74 11 75 12 84 13 76 15
REMARK SMILES IDX 83 16 77 17 78 18 79 19 82 20 80 21 81 22 10 23 11 24 12 25
REMARK SMILES IDX 13 27 14 28 15 29 73 30 16 31 72 32 17 33 18 34 19 35 66 36
REMARK SMILES IDX 20 37 71 38 65 39 67 40 21 41 70 42 64 43 63 44 22 46 52 47
REMARK SMILES IDX 33 48 51 49 34 50 37 51 50 52 68 53 35 54 36 55 49 57 69 58
REMARK SMILES IDX 38 59 23 60 24 61 32 62 25 63 31 64 26 65 27 66 28 67 29 68
REMARK SMILES IDX 30 69 53 70 54 71 62 72 55 73 61 74 56 75 57 76 58 77 59 78
REMARK SMILES IDX 60 79 39 80 40 81 48 82 41 83 47 84 42 85 43 86 44 87 45 88
REMARK SMILES IDX 46 89
REMARK H PARENT 7 6 74 14 11 26 67 45 37 56
REMARK Flexibility Score: inf
ROOT
ATOM      1  C   UNL     1       0.360   2.352   3.841  1.00  0.00     0.042 C 
ENDROOT
BRANCH   1   2
ATOM      2  C   UNL     1       1.386   1.608   2.975  1.00  0.00     0.117 C 
BRANCH   2   3
ATOM      3  N   UNL     1       0.985   0.282   2.530  1.00  0.00    -0.356 N 
ATOM      4  C   UNL     1       1.169  -0.386   1.364  1.00  0.00     0.228 C 
ATOM      5  O   UNL     1       1.104  -1.621   1.429  1.00  0.00    -0.275 OA
ATOM      6  H   UNL     1       0.483  -0.229   3.206  1.00  0.00     0.163 HD
BRANCH   4   7
ATOM      7  C   UNL     1       1.520   0.264   0.034  1.00  0.00     0.133 C 
ATOM      8  C   UNL     1       2.985   0.723   0.122  1.00  0.00     0.024 C 
BRANCH   7   9
ATOM      9  C   UNL     1       0.533   1.341  -0.502  1.00  0.00     0.193 C 
ATOM     10  C   UNL     1       1.031   1.874  -1.868  1.00  0.00     0.076 C 
BRANCH   9  11
ATOM     11  N   UNL     1      -0.873   1.013  -0.799  1.00  0.00    -0.329 N 
ATOM     12  C   UNL     1      -1.349  -0.366  -0.851  1.00  0.00     0.284 C 
ATOM     13  C   UNL     1      -1.881   1.861  -0.155  1.00  0.00     0.284 C 
ATOM     14  H   UNL     1      -0.776   1.247  -1.787  1.00  0.00     0.348 HD
ATOM     15  C   UNL     1      -1.930  -0.978   0.444  1.00  0.00     0.180 C 
ATOM     16  C   UNL     1      -2.252   1.400   1.256  1.00  0.00     0.180 C 
ATOM     17  N   UNL     1      -2.561  -0.028   1.366  1.00  0.00    -0.337 N 
BRANCH  17  18
ATOM     18  C   UNL     1      -3.028  -0.443   2.586  1.00  0.00     0.185 A 
ATOM     19  N   UNL     1      -3.638   0.364   3.432  1.00  0.00    -0.229 NA
ATOM     20  S   UNL     1      -2.814  -2.051   3.216  1.00  0.00    -0.106 S 
ATOM     21  C   UNL     1      -4.014  -0.303   4.578  1.00  0.00     0.125 A 
ATOM     22  C   UNL     1      -3.591  -1.606   4.669  1.00  0.00     0.088 A 
ENDBRANCH  17  18
ENDBRANCH   9  11
ENDBRANCH   7   9
ENDBRANCH   4   7
ENDBRANCH   2   3
ENDBRANCH   1   2
BRANCH   1  23
ATOM     23  C   UNL     1      -0.318   1.542   4.947  1.00  0.00     0.118 C 
BRANCH  23  24
ATOM     24  N   UNL     1       0.274   1.808   6.248  1.00  0.00    -0.352 N 
ATOM     25  C   UNL     1      -0.164   2.600   7.281  1.00  0.00     0.251 C 
ATOM     26  H   UNL     1       1.127   1.345   6.415  1.00  0.00     0.163 HD
ATOM     27  O   UNL     1       0.632   2.889   8.174  1.00  0.00    -0.269 OA
BRANCH  25  28
ATOM     28  C   UNL     1      -1.556   3.116   7.352  1.00  0.00     0.039 A 
ATOM     29  C   UNL     1      -1.764   4.391   7.891  1.00  0.00     0.014 A 
ATOM     30  C   UNL     1      -2.665   2.336   7.013  1.00  0.00     0.014 A 
ATOM     31  C   UNL     1      -3.063   4.881   8.071  1.00  0.00     0.010 A 
ATOM     32  C   UNL     1      -3.961   2.855   7.126  1.00  0.00     0.010 A 
ATOM     33  C   UNL     1      -4.179   4.122   7.683  1.00  0.00    -0.014 A 
BRANCH  33  34
ATOM     34  C   UNL     1      -5.559   4.644   7.897  1.00  0.00     0.031 A 
ATOM     35  C   UNL     1      -6.502   3.967   8.864  1.00  0.00     0.074 A 
ATOM     36  C   UNL     1      -5.974   5.740   7.230  1.00  0.00     0.049 A 
ATOM     37  N   UNL     1      -7.710   4.324   9.225  1.00  0.00    -0.248 NA
ATOM     38  C   UNL     1      -6.036   2.721   9.493  1.00  0.00     0.031 C 
ATOM     39  C   UNL     1      -5.191   6.466   6.228  1.00  0.00     0.029 A 
ATOM     40  N   UNL     1      -7.154   6.441   7.300  1.00  0.00    -0.354 N 
ATOM     41  C   UNL     1      -8.147   3.350  10.117  1.00  0.00     0.074 A 
ATOM     42  C   UNL     1      -7.098   2.358  10.199  1.00  0.00     0.031 C 
ATOM     43  C   UNL     1      -5.894   7.530   5.807  1.00  0.00     0.029 A 
ATOM     44  C   UNL     1      -7.186   7.549   6.486  1.00  0.00     0.049 A 
ATOM     45  H   UNL     1      -7.904   6.175   7.878  1.00  0.00     0.167 HD
ATOM     46  C   UNL     1      -9.302   3.294  10.825  1.00  0.00     0.031 A 
ATOM     47  C   UNL     1      -8.141   8.485   6.310  1.00  0.00     0.031 A 
ATOM     48  C   UNL     1     -10.349   4.281  10.754  1.00  0.00     0.049 A 
ATOM     49  C   UNL     1      -9.409   8.411   7.116  1.00  0.00     0.074 A 
ATOM     50  C   UNL     1     -11.534   4.332  11.468  1.00  0.00     0.029 A 
ATOM     51  N   UNL     1     -10.338   5.389   9.922  1.00  0.00    -0.354 N 
ATOM     52  N   UNL     1      -9.769   7.518   8.006  1.00  0.00    -0.248 NA
ATOM     53  C   UNL     1     -10.391   9.485   6.906  1.00  0.00     0.031 C 
ATOM     54  C   UNL     1     -12.260   5.449  11.036  1.00  0.00     0.029 A 
ATOM     55  C   UNL     1     -11.502   6.121  10.092  1.00  0.00     0.049 A 
ATOM     56  H   UNL     1      -9.610   5.622   9.301  1.00  0.00     0.167 HD
ATOM     57  C   UNL     1     -11.010   7.934   8.477  1.00  0.00     0.074 A 
ATOM     58  C   UNL     1     -11.328   9.168   7.789  1.00  0.00     0.031 C 
ATOM     59  C   UNL     1     -11.815   7.344   9.396  1.00  0.00     0.031 A 
BRANCH  46  60
ATOM     60  C   UNL     1      -9.493   2.120  11.751  1.00  0.00    -0.014 A 
ATOM     61  C   UNL     1      -8.736   1.999  12.931  1.00  0.00     0.010 A 
ATOM     62  C   UNL     1     -10.466   1.146  11.462  1.00  0.00     0.010 A 
ATOM     63  C   UNL     1      -8.915   0.904  13.780  1.00  0.00     0.020 A 
ATOM     64  C   UNL     1     -10.668   0.062  12.324  1.00  0.00     0.020 A 
ATOM     65  C   UNL     1      -9.877  -0.061  13.468  1.00  0.00     0.054 A 
BRANCH  65  66
ATOM     66  S   UNL     1     -10.097  -1.466  14.595  1.00  0.00     0.124 S 
ATOM     67  O   UNL     1      -8.912  -2.269  14.307  1.00  0.00    -0.237 OA
ATOM     68  O   UNL     1     -10.118  -0.826  15.907  1.00  0.00    -0.237 OA
ATOM     69  O   UNL     1     -11.366  -2.054  14.172  1.00  0.00    -0.744 OA
ENDBRANCH  65  66
ENDBRANCH  46  60
BRANCH  47  70
ATOM     70  C   UNL     1      -7.918   9.593   5.341  1.00  0.00    -0.014 A 
ATOM     71  C   UNL     1      -7.683  10.904   5.793  1.00  0.00     0.010 A 
ATOM     72  C   UNL     1      -7.926   9.336   3.958  1.00  0.00     0.010 A 
ATOM     73  C   UNL     1      -7.474  11.941   4.878  1.00  0.00     0.020 A 
ATOM     74  C   UNL     1      -7.691  10.365   3.042  1.00  0.00     0.020 A 
ATOM     75  C   UNL     1      -7.477  11.664   3.508  1.00  0.00     0.054 A 
BRANCH  75  76
ATOM     76  S   UNL     1      -7.144  13.011   2.339  1.00  0.00     0.124 S 
ATOM     77  O   UNL     1      -8.408  13.741   2.349  1.00  0.00    -0.237 OA
ATOM     78  O   UNL     1      -6.012  13.696   2.959  1.00  0.00    -0.237 OA
ATOM     79  O   UNL     1      -6.831  12.313   1.094  1.00  0.00    -0.744 OA
ENDBRANCH  75  76
ENDBRANCH  47  70
BRANCH  59  80
ATOM     80  C   UNL     1     -13.109   8.038   9.728  1.00  0.00    -0.014 A 
ATOM     81  C   UNL     1     -14.178   8.062   8.814  1.00  0.00     0.010 A 
ATOM     82  C   UNL     1     -13.269   8.650  10.985  1.00  0.00     0.010 A 
ATOM     83  C   UNL     1     -15.368   8.723   9.135  1.00  0.00     0.020 A 
ATOM     84  C   UNL     1     -14.466   9.288  11.319  1.00  0.00     0.020 A 
ATOM     85  C   UNL     1     -15.502   9.336  10.384  1.00  0.00     0.054 A 
BRANCH  85  86
ATOM     86  S   UNL     1     -17.063  10.169  10.787  1.00  0.00     0.124 S 
ATOM     87  O   UNL     1     -16.955  11.404  10.014  1.00  0.00    -0.237 OA
ATOM     88  O   UNL     1     -18.067   9.219  10.315  1.00  0.00    -0.237 OA
ATOM     89  O   UNL     1     -17.003  10.334  12.237  1.00  0.00    -0.744 OA
ENDBRANCH  85  86
ENDBRANCH  59  80
ENDBRANCH  33  34
ENDBRANCH  25  28
ENDBRANCH  23  24
ENDBRANCH   1  23
TORSDOF 16
