REMARK SMILES COc1ccc2c(c1)c(CC(=O)NCCCNC(=O)c1ccc(-c3c4nc(c(-c5ccc(S(=O)(=O)[O-])cc5)c5ccc([nH]5)c(-c5ccc(S(=O)(=O)[O-])cc5)c5nc(c(-c6ccc(S(=O)(=O)[O-])cc6)c6ccc3[nH]6)C=C5)C=C4)cc1)c(C)n2C(=O)c1ccc(Cl)cc1
REMARK SMILES IDX 15 1 14 2 13 3 11 4 12 5 10 7 9 8 3 9 4 10 8 11 5 12 7 13
REMARK SMILES IDX 6 14 82 15 80 16 81 17 2 18 1 19 83 20 84 21 85 22 86 23
REMARK SMILES IDX 91 24 87 25 90 26 88 27 89 28 16 29 17 30 18 31 19 33 20 34
REMARK SMILES IDX 21 35 79 36 22 37 78 38 23 39 24 40 25 41 72 42 26 43 77 44
REMARK SMILES IDX 71 45 73 46 27 47 76 48 70 49 69 50 28 52 58 53 39 54 57 55
REMARK SMILES IDX 40 56 43 57 56 58 74 59 41 60 42 61 55 63 75 64 44 65 29 66
REMARK SMILES IDX 30 67 38 68 31 69 37 70 32 71 33 72 34 73 35 74 36 75 59 76
REMARK SMILES IDX 60 77 68 78 61 79 67 80 62 81 63 82 64 83 65 84 66 85 45 86
REMARK SMILES IDX 46 87 54 88 47 89 53 90 48 91 49 92 50 93 51 94 52 95
REMARK H PARENT 13 6 17 32 73 51 43 62
REMARK Flexibility Score: inf
ROOT
ATOM      1  C   UNL     1       0.183  -7.974   0.050  1.00  0.00     0.042 C 
ENDROOT
BRANCH   1   2
ATOM      2  C   UNL     1      -1.237  -7.963  -0.521  1.00  0.00     0.117 C 
BRANCH   2   3
ATOM      3  N   UNL     1      -2.048  -6.878   0.005  1.00  0.00    -0.356 N 
ATOM      4  C   UNL     1      -2.486  -5.746  -0.619  1.00  0.00     0.224 C 
ATOM      5  O   UNL     1      -3.196  -4.967   0.024  1.00  0.00    -0.275 OA
ATOM      6  H   UNL     1      -2.320  -6.973   0.947  1.00  0.00     0.163 HD
BRANCH   4   7
ATOM      7  C   UNL     1      -2.154  -5.490  -2.081  1.00  0.00     0.138 C 
BRANCH   7   8
ATOM      8  C   UNL     1      -0.694  -5.249  -2.328  1.00  0.00    -0.009 A 
ATOM      9  C   UNL     1       0.812  -2.306  -0.423  1.00  0.00     0.119 A 
ATOM     10  C   UNL     1       2.083  -2.407  -0.965  1.00  0.00     0.048 A 
ATOM     11  C   UNL     1      -0.175  -3.222  -0.785  1.00  0.00     0.057 A 
ATOM     12  C   UNL     1       2.381  -3.400  -1.903  1.00  0.00     0.031 A 
ATOM     13  C   UNL     1       0.107  -4.241  -1.725  1.00  0.00     0.008 A 
ATOM     14  C   UNL     1       1.397  -4.345  -2.258  1.00  0.00     0.057 A 
ATOM     15  N   UNL     1       1.436  -5.497  -3.065  1.00  0.00    -0.280 N 
ATOM     16  C   UNL     1       0.108  -5.914  -3.246  1.00  0.00     0.028 A 
ATOM     17  C   UNL     1      -0.326  -6.940  -4.250  1.00  0.00     0.065 C 
BRANCH   9  18
ATOM     18  O   UNL     1       0.454  -1.354   0.494  1.00  0.00    -0.497 OA
ATOM     19  C   UNL     1       0.921  -0.049   0.163  1.00  0.00     0.278 C 
ENDBRANCH   9  18
BRANCH  15  20
ATOM     20  C   UNL     1       2.594  -6.153  -3.580  1.00  0.00     0.262 C 
ATOM     21  O   UNL     1       2.446  -7.221  -4.153  1.00  0.00    -0.268 OA
BRANCH  20  22
ATOM     22  C   UNL     1       3.979  -5.668  -3.430  1.00  0.00     0.040 A 
ATOM     23  C   UNL     1       4.604  -5.695  -2.178  1.00  0.00     0.015 A 
ATOM     24  C   UNL     1       4.636  -5.143  -4.547  1.00  0.00     0.015 A 
ATOM     25  C   UNL     1       5.855  -5.093  -2.025  1.00  0.00     0.021 A 
ATOM     26  C   UNL     1       5.892  -4.551  -4.389  1.00  0.00     0.021 A 
ATOM     27  C   UNL     1       6.483  -4.506  -3.125  1.00  0.00     0.041 A 
ATOM     28  Cl  UNL     1       7.982  -3.688  -2.911  1.00  0.00    -0.084 Cl
ENDBRANCH  20  22
ENDBRANCH  15  20
ENDBRANCH   7   8
ENDBRANCH   4   7
ENDBRANCH   2   3
ENDBRANCH   1   2
BRANCH   1  29
ATOM     29  C   UNL     1       0.237  -8.236   1.555  1.00  0.00     0.118 C 
BRANCH  29  30
ATOM     30  N   UNL     1      -0.438  -9.451   1.967  1.00  0.00    -0.352 N 
ATOM     31  C   UNL     1      -0.086 -10.761   2.126  1.00  0.00     0.251 C 
ATOM     32  H   UNL     1      -1.385  -9.293   2.186  1.00  0.00     0.163 HD
ATOM     33  O   UNL     1      -0.956 -11.483   2.622  1.00  0.00    -0.269 OA
BRANCH  31  34
ATOM     34  C   UNL     1       1.198 -11.379   1.699  1.00  0.00     0.039 A 
ATOM     35  C   UNL     1       2.284 -10.712   1.133  1.00  0.00     0.014 A 
ATOM     36  C   UNL     1       1.262 -12.782   1.822  1.00  0.00     0.014 A 
ATOM     37  C   UNL     1       3.351 -11.437   0.600  1.00  0.00     0.010 A 
ATOM     38  C   UNL     1       2.327 -13.508   1.303  1.00  0.00     0.010 A 
ATOM     39  C   UNL     1       3.344 -12.836   0.637  1.00  0.00    -0.014 A 
BRANCH  39  40
ATOM     40  C   UNL     1       4.460 -13.560   0.034  1.00  0.00     0.031 A 
ATOM     41  C   UNL     1       5.790 -13.288   0.646  1.00  0.00     0.074 A 
ATOM     42  C   UNL     1       4.316 -14.481  -0.943  1.00  0.00     0.049 A 
ATOM     43  N   UNL     1       6.813 -12.717   0.101  1.00  0.00    -0.248 NA
ATOM     44  C   UNL     1       5.961 -13.581   2.078  1.00  0.00     0.031 C 
ATOM     45  C   UNL     1       3.081 -15.058  -1.482  1.00  0.00     0.029 A 
ATOM     46  N   UNL     1       5.284 -15.169  -1.612  1.00  0.00    -0.354 N 
ATOM     47  C   UNL     1       7.823 -12.726   1.060  1.00  0.00     0.074 A 
ATOM     48  C   UNL     1       7.205 -13.149   2.292  1.00  0.00     0.031 C 
ATOM     49  C   UNL     1       3.378 -16.157  -2.217  1.00  0.00     0.029 A 
ATOM     50  C   UNL     1       4.822 -16.262  -2.337  1.00  0.00     0.049 A 
ATOM     51  H   UNL     1       6.235 -14.912  -1.584  1.00  0.00     0.167 HD
ATOM     52  C   UNL     1       9.134 -12.547   0.735  1.00  0.00     0.031 A 
ATOM     53  C   UNL     1       5.576 -17.198  -2.970  1.00  0.00     0.031 A 
ATOM     54  C   UNL     1       9.287 -11.993  -0.583  1.00  0.00     0.049 A 
ATOM     55  C   UNL     1       6.903 -16.585  -3.213  1.00  0.00     0.074 A 
ATOM     56  C   UNL     1       8.953 -10.793  -1.175  1.00  0.00     0.029 A 
ATOM     57  N   UNL     1       9.535 -12.872  -1.609  1.00  0.00    -0.354 N 
ATOM     58  N   UNL     1       7.095 -15.576  -4.017  1.00  0.00    -0.248 NA
ATOM     59  C   UNL     1       7.950 -16.819  -2.234  1.00  0.00     0.031 C 
ATOM     60  C   UNL     1       8.553 -11.139  -2.497  1.00  0.00     0.029 A 
ATOM     61  C   UNL     1       8.730 -12.516  -2.659  1.00  0.00     0.049 A 
ATOM     62  H   UNL     1      10.175 -13.620  -1.593  1.00  0.00     0.167 HD
ATOM     63  C   UNL     1       8.054 -14.801  -3.383  1.00  0.00     0.074 A 
ATOM     64  C   UNL     1       8.606 -15.661  -2.337  1.00  0.00     0.031 C 
ATOM     65  C   UNL     1       8.127 -13.454  -3.587  1.00  0.00     0.031 A 
BRANCH  52  66
ATOM     66  C   UNL     1      10.290 -13.161   1.483  1.00  0.00    -0.014 A 
ATOM     67  C   UNL     1      10.132 -14.202   2.420  1.00  0.00     0.010 A 
ATOM     68  C   UNL     1      11.609 -12.870   1.071  1.00  0.00     0.010 A 
ATOM     69  C   UNL     1      11.221 -14.910   2.932  1.00  0.00     0.020 A 
ATOM     70  C   UNL     1      12.706 -13.603   1.547  1.00  0.00     0.020 A 
ATOM     71  C   UNL     1      12.503 -14.616   2.481  1.00  0.00     0.054 A 
BRANCH  71  72
ATOM     72  S   UNL     1      13.874 -15.627   3.091  1.00  0.00     0.124 S 
ATOM     73  O   UNL     1      13.927 -15.240   4.499  1.00  0.00    -0.237 OA
ATOM     74  O   UNL     1      13.403 -16.983   2.828  1.00  0.00    -0.237 OA
ATOM     75  O   UNL     1      15.008 -15.192   2.281  1.00  0.00    -0.744 OA
ENDBRANCH  71  72
ENDBRANCH  52  66
BRANCH  53  76
ATOM     76  C   UNL     1       5.396 -18.676  -2.945  1.00  0.00    -0.014 A 
ATOM     77  C   UNL     1       4.745 -19.283  -1.852  1.00  0.00     0.010 A 
ATOM     78  C   UNL     1       6.152 -19.504  -3.800  1.00  0.00     0.010 A 
ATOM     79  C   UNL     1       4.915 -20.644  -1.568  1.00  0.00     0.020 A 
ATOM     80  C   UNL     1       6.326 -20.872  -3.521  1.00  0.00     0.020 A 
ATOM     81  C   UNL     1       5.738 -21.423  -2.382  1.00  0.00     0.054 A 
BRANCH  81  82
ATOM     82  S   UNL     1       6.096 -23.128  -1.864  1.00  0.00     0.124 S 
ATOM     83  O   UNL     1       6.879 -22.919  -0.649  1.00  0.00    -0.237 OA
ATOM     84  O   UNL     1       4.761 -23.684  -1.660  1.00  0.00    -0.237 OA
ATOM     85  O   UNL     1       6.833 -23.688  -2.994  1.00  0.00    -0.744 OA
ENDBRANCH  81  82
ENDBRANCH  53  76
BRANCH  65  86
ATOM     86  C   UNL     1       7.321 -12.827  -4.707  1.00  0.00    -0.014 A 
ATOM     87  C   UNL     1       8.021 -12.012  -5.615  1.00  0.00     0.010 A 
ATOM     88  C   UNL     1       5.911 -12.807  -4.737  1.00  0.00     0.010 A 
ATOM     89  C   UNL     1       7.345 -11.148  -6.477  1.00  0.00     0.020 A 
ATOM     90  C   UNL     1       5.224 -11.957  -5.622  1.00  0.00     0.020 A 
ATOM     91  C   UNL     1       5.950 -11.107  -6.461  1.00  0.00     0.054 A 
BRANCH  91  92
ATOM     92  S   UNL     1       5.126  -9.892  -7.529  1.00  0.00     0.124 S 
ATOM     93  O   UNL     1       5.448  -8.626  -6.871  1.00  0.00    -0.237 OA
ATOM     94  O   UNL     1       5.783 -10.099  -8.819  1.00  0.00    -0.237 OA
ATOM     95  O   UNL     1       3.718 -10.278  -7.489  1.00  0.00    -0.744 OA
ENDBRANCH  91  92
ENDBRANCH  65  86
ENDBRANCH  39  40
ENDBRANCH  31  34
ENDBRANCH  29  30
ENDBRANCH   1  29
TORSDOF 17
