REMARK SMILES Cc1ccc(S[C@H](CC(=O)c2ccc(C)cc2)C(=O)NCCCNC(=O)c2ccc(-c3c4nc(c(-c5ccc(S(=O)(=O)[O-])cc5)c5ccc([nH]5)c(-c5ccc(S(=O)(=O)[O-])cc5)c5nc(c(-c6ccc(S(=O)(=O)[O-])cc6)c6ccc3[nH]6)C=C5)C=C4)cc2)cc1
REMARK SMILES IDX 22 1 21 2 20 3 18 4 19 5 7 7 6 8 5 9 1 10 2 11 3 12 88 13
REMARK SMILES IDX 4 14 87 15 8 16 9 17 10 18 11 19 12 20 17 21 13 22 16 23
REMARK SMILES IDX 14 24 15 25 23 26 24 27 25 28 26 30 27 31 28 32 86 33 29 34
REMARK SMILES IDX 85 35 30 36 31 37 32 38 79 39 33 40 84 41 78 42 80 43 34 44
REMARK SMILES IDX 83 45 77 46 76 47 35 49 65 50 46 51 64 52 47 53 50 54 63 55
REMARK SMILES IDX 81 56 48 57 49 58 62 60 82 61 51 62 36 63 37 64 45 65 38 66
REMARK SMILES IDX 44 67 39 68 40 69 41 70 42 71 43 72 66 73 67 74 75 75 68 76
REMARK SMILES IDX 74 77 69 78 70 79 71 80 72 81 73 82 52 83 53 84 61 85 54 86
REMARK SMILES IDX 60 87 55 88 56 89 57 90 58 91 59 92
REMARK H PARENT 20 6 24 29 80 48 50 59
REMARK Flexibility Score: inf
ROOT
ATOM      1  C   UNL     1      -0.530   1.052  -0.692  1.00  0.00     0.042 C 
ENDROOT
BRANCH   1   2
ATOM      2  C   UNL     1      -1.075   2.453  -0.462  1.00  0.00     0.117 C 
BRANCH   2   3
ATOM      3  N   UNL     1      -2.317   2.693  -1.195  1.00  0.00    -0.355 N 
ATOM      4  C   UNL     1      -3.627   2.486  -0.877  1.00  0.00     0.233 C 
ATOM      5  O   UNL     1      -4.472   2.893  -1.685  1.00  0.00    -0.274 OA
ATOM      6  H   UNL     1      -2.182   3.079  -2.091  1.00  0.00     0.163 HD
BRANCH   4   7
ATOM      7  C   UNL     1      -4.093   1.700   0.366  1.00  0.00     0.148 C 
BRANCH   7   8
ATOM      8  S   UNL     1      -3.507   2.588   1.886  1.00  0.00    -0.112 SA
BRANCH   8   9
ATOM      9  C   UNL     1      -2.659   1.459   2.967  1.00  0.00     0.008 A 
ATOM     10  C   UNL     1      -1.030  -1.227   5.936  1.00  0.00     0.044 C 
ATOM     11  C   UNL     1      -1.511  -0.246   4.912  1.00  0.00    -0.051 A 
ATOM     12  C   UNL     1      -1.434  -0.557   3.554  1.00  0.00     0.004 A 
ATOM     13  C   UNL     1      -2.105   0.958   5.291  1.00  0.00     0.004 A 
ATOM     14  C   UNL     1      -1.980   0.304   2.597  1.00  0.00     0.015 A 
ATOM     15  C   UNL     1      -2.664   1.801   4.327  1.00  0.00     0.015 A 
ENDBRANCH   8   9
ENDBRANCH   7   8
BRANCH   7  16
ATOM     16  C   UNL     1      -4.060   0.200   0.072  1.00  0.00     0.106 C 
BRANCH  16  17
ATOM     17  C   UNL     1      -5.015  -0.770   0.763  1.00  0.00     0.164 C 
ATOM     18  O   UNL     1      -5.489  -1.732   0.156  1.00  0.00    -0.294 OA
BRANCH  17  19
ATOM     19  C   UNL     1      -5.234  -0.734   2.222  1.00  0.00     0.018 A 
ATOM     20  C   UNL     1      -4.805  -1.828   2.982  1.00  0.00     0.012 A 
ATOM     21  C   UNL     1      -5.880   0.334   2.840  1.00  0.00     0.012 A 
ATOM     22  C   UNL     1      -4.920  -1.798   4.373  1.00  0.00     0.004 A 
ATOM     23  C   UNL     1      -5.976   0.370   4.233  1.00  0.00     0.004 A 
ATOM     24  C   UNL     1      -5.460  -0.675   5.011  1.00  0.00    -0.051 A 
ATOM     25  C   UNL     1      -5.502  -0.599   6.507  1.00  0.00     0.044 C 
ENDBRANCH  17  19
ENDBRANCH  16  17
ENDBRANCH   7  16
ENDBRANCH   4   7
ENDBRANCH   2   3
ENDBRANCH   1   2
BRANCH   1  26
ATOM     26  C   UNL     1       0.624   1.028  -1.678  1.00  0.00     0.118 C 
BRANCH  26  27
ATOM     27  N   UNL     1       1.915   0.829  -1.036  1.00  0.00    -0.352 N 
ATOM     28  C   UNL     1       3.119   0.481  -1.653  1.00  0.00     0.251 C 
ATOM     29  H   UNL     1       1.943   0.953  -0.060  1.00  0.00     0.163 HD
ATOM     30  O   UNL     1       4.075   0.075  -1.069  1.00  0.00    -0.269 OA
BRANCH  28  31
ATOM     31  C   UNL     1       3.172   0.796  -3.102  1.00  0.00     0.039 A 
ATOM     32  C   UNL     1       3.814   1.991  -3.444  1.00  0.00     0.014 A 
ATOM     33  C   UNL     1       2.284   0.165  -3.965  1.00  0.00     0.014 A 
ATOM     34  C   UNL     1       3.417   2.666  -4.591  1.00  0.00     0.010 A 
ATOM     35  C   UNL     1       1.817   0.889  -5.042  1.00  0.00     0.010 A 
ATOM     36  C   UNL     1       2.351   2.156  -5.327  1.00  0.00    -0.014 A 
BRANCH  36  37
ATOM     37  C   UNL     1       1.698   2.879  -6.408  1.00  0.00     0.031 A 
ATOM     38  C   UNL     1       1.941   2.444  -7.800  1.00  0.00     0.074 A 
ATOM     39  C   UNL     1       0.843   3.895  -6.162  1.00  0.00     0.049 A 
ATOM     40  N   UNL     1       1.709   3.165  -8.842  1.00  0.00    -0.248 NA
ATOM     41  C   UNL     1       2.530   1.147  -8.119  1.00  0.00     0.031 C 
ATOM     42  C   UNL     1      -0.112   4.494  -7.093  1.00  0.00     0.029 A 
ATOM     43  N   UNL     1       0.777   4.730  -5.066  1.00  0.00    -0.354 N 
ATOM     44  C   UNL     1       1.804   2.342  -9.938  1.00  0.00     0.074 A 
ATOM     45  C   UNL     1       2.394   1.120  -9.445  1.00  0.00     0.031 C 
ATOM     46  C   UNL     1      -0.467   5.705  -6.634  1.00  0.00     0.029 A 
ATOM     47  C   UNL     1       0.372   5.998  -5.486  1.00  0.00     0.049 A 
ATOM     48  H   UNL     1       0.981   4.473  -4.137  1.00  0.00     0.167 HD
ATOM     49  C   UNL     1       1.241   2.730 -11.116  1.00  0.00     0.031 A 
ATOM     50  C   UNL     1       1.211   7.077  -5.404  1.00  0.00     0.031 A 
ATOM     51  C   UNL     1       0.740   4.105 -11.053  1.00  0.00     0.049 A 
ATOM     52  C   UNL     1       1.610   7.666  -6.752  1.00  0.00     0.074 A 
ATOM     53  C   UNL     1      -0.517   4.677 -10.942  1.00  0.00     0.029 A 
ATOM     54  N   UNL     1       1.645   5.126 -10.790  1.00  0.00    -0.354 N 
ATOM     55  N   UNL     1       1.294   7.165  -7.916  1.00  0.00    -0.248 NA
ATOM     56  C   UNL     1       2.467   8.841  -6.882  1.00  0.00     0.031 C 
ATOM     57  C   UNL     1      -0.355   6.049 -10.588  1.00  0.00     0.029 A 
ATOM     58  C   UNL     1       0.999   6.317 -10.507  1.00  0.00     0.049 A 
ATOM     59  H   UNL     1       2.623   5.017 -10.803  1.00  0.00     0.167 HD
ATOM     60  C   UNL     1       1.910   7.871  -8.922  1.00  0.00     0.074 A 
ATOM     61  C   UNL     1       2.632   8.915  -8.215  1.00  0.00     0.031 C 
ATOM     62  C   UNL     1       1.800   7.511 -10.241  1.00  0.00     0.031 A 
BRANCH  49  63
ATOM     63  C   UNL     1       0.912   1.735 -12.206  1.00  0.00    -0.014 A 
ATOM     64  C   UNL     1      -0.227   1.927 -13.012  1.00  0.00     0.010 A 
ATOM     65  C   UNL     1       1.640   0.551 -12.435  1.00  0.00     0.010 A 
ATOM     66  C   UNL     1      -0.676   0.945 -13.910  1.00  0.00     0.020 A 
ATOM     67  C   UNL     1       1.178  -0.461 -13.290  1.00  0.00     0.020 A 
ATOM     68  C   UNL     1       0.013  -0.261 -14.019  1.00  0.00     0.054 A 
BRANCH  68  69
ATOM     69  S   UNL     1      -0.631  -1.559 -15.107  1.00  0.00     0.124 S 
ATOM     70  O   UNL     1      -2.010  -1.706 -14.647  1.00  0.00    -0.237 OA
ATOM     71  O   UNL     1      -0.468  -0.965 -16.430  1.00  0.00    -0.237 OA
ATOM     72  O   UNL     1       0.234  -2.705 -14.829  1.00  0.00    -0.744 OA
ENDBRANCH  68  69
ENDBRANCH  49  63
BRANCH  50  73
ATOM     73  C   UNL     1       2.066   7.061  -4.177  1.00  0.00    -0.014 A 
ATOM     74  C   UNL     1       1.412   7.214  -2.934  1.00  0.00     0.010 A 
ATOM     75  C   UNL     1       3.346   6.480  -4.200  1.00  0.00     0.010 A 
ATOM     76  C   UNL     1       1.929   6.620  -1.780  1.00  0.00     0.020 A 
ATOM     77  C   UNL     1       3.874   5.896  -3.037  1.00  0.00     0.020 A 
ATOM     78  C   UNL     1       3.123   5.904  -1.857  1.00  0.00     0.054 A 
BRANCH  78  79
ATOM     79  S   UNL     1       3.558   4.821  -0.461  1.00  0.00     0.124 S 
ATOM     80  O   UNL     1       3.668   5.764   0.646  1.00  0.00    -0.237 OA
ATOM     81  O   UNL     1       2.407   3.917  -0.405  1.00  0.00    -0.237 OA
ATOM     82  O   UNL     1       4.809   4.203  -0.888  1.00  0.00    -0.744 OA
ENDBRANCH  78  79
ENDBRANCH  50  73
BRANCH  62  83
ATOM     83  C   UNL     1       2.458   8.189 -11.437  1.00  0.00    -0.014 A 
ATOM     84  C   UNL     1       2.996   9.484 -11.441  1.00  0.00     0.010 A 
ATOM     85  C   UNL     1       2.498   7.501 -12.680  1.00  0.00     0.010 A 
ATOM     86  C   UNL     1       3.621  10.020 -12.582  1.00  0.00     0.020 A 
ATOM     87  C   UNL     1       3.103   8.025 -13.826  1.00  0.00     0.020 A 
ATOM     88  C   UNL     1       3.681   9.282 -13.764  1.00  0.00     0.054 A 
BRANCH  88  89
ATOM     89  S   UNL     1       4.502   9.994 -15.210  1.00  0.00     0.124 S 
ATOM     90  O   UNL     1       3.706  11.194 -15.458  1.00  0.00    -0.237 OA
ATOM     91  O   UNL     1       5.855  10.230 -14.713  1.00  0.00    -0.237 OA
ATOM     92  O   UNL     1       4.389   8.952 -16.228  1.00  0.00    -0.744 OA
ENDBRANCH  88  89
ENDBRANCH  62  83
ENDBRANCH  36  37
ENDBRANCH  28  31
ENDBRANCH  26  27
ENDBRANCH   1  26
TORSDOF 18
