REMARK SMILES CC(C)[C@@H](C(=O)NCCCNC(=O)c1ccc(-c2c3nc(c(-c4ccc(S(=O)(=O)[O-])cc4)c4ccc([nH]4)c(-c4ccc(S(=O)(=O)[O-])cc4)c4nc(c(-c5ccc(S(=O)(=O)[O-])cc5)c5ccc2[nH]5)C=C4)C=C3)cc1)N1C(=O)/C(=C\c2ccc([N+](=O)[O-])cc2)SC1=S
REMARK SMILES IDX 9 1 8 2 7 3 5 4 6 5 4 7 2 8 1 9 3 10 74 11 75 12 89 13 76 14
REMARK SMILES IDX 77 15 88 16 90 17 78 18 79 19 80 20 87 21 81 22 86 23 82 24
REMARK SMILES IDX 83 25 84 26 85 27 10 28 11 29 12 30 13 32 14 33 15 34 73 35
REMARK SMILES IDX 16 36 72 37 17 38 18 39 19 40 66 41 20 42 71 43 65 44 67 45
REMARK SMILES IDX 21 46 70 47 64 48 63 49 22 51 52 52 33 53 51 54 34 55 37 56
REMARK SMILES IDX 50 57 68 58 35 59 36 60 49 62 69 63 38 64 23 65 24 66 32 67
REMARK SMILES IDX 25 68 31 69 26 70 27 71 28 72 29 73 30 74 53 75 54 76 62 77
REMARK SMILES IDX 55 78 61 79 56 80 57 81 58 82 59 83 60 84 39 85 40 86 48 87
REMARK SMILES IDX 41 88 47 89 42 90 43 91 44 92 45 93 46 94
REMARK H PARENT 7 6 11 31 67 50 37 61
REMARK Flexibility Score: inf
ROOT
ATOM      1  C   UNL     1       0.672  -0.914  -2.424  1.00  0.00     0.042 C 
ENDROOT
BRANCH   1   2
ATOM      2  C   UNL     1      -0.522  -0.281  -1.710  1.00  0.00     0.117 C 
BRANCH   2   3
ATOM      3  N   UNL     1      -1.105  -1.142  -0.699  1.00  0.00    -0.354 N 
ATOM      4  C   UNL     1      -1.431  -0.912   0.599  1.00  0.00     0.243 C 
ATOM      5  O   UNL     1      -2.404  -1.575   0.991  1.00  0.00    -0.273 OA
ATOM      6  H   UNL     1      -1.298  -2.056  -1.008  1.00  0.00     0.163 HD
BRANCH   4   7
ATOM      7  C   UNL     1      -0.758   0.175   1.508  1.00  0.00     0.184 C 
BRANCH   7   8
ATOM      8  C   UNL     1       0.772   0.159   1.827  1.00  0.00     0.015 C 
ATOM      9  C   UNL     1       1.713  -0.008   0.652  1.00  0.00     0.010 C 
ATOM     10  C   UNL     1       1.175   1.438   2.584  1.00  0.00     0.010 C 
ENDBRANCH   7   8
BRANCH   7  11
ATOM     11  N   UNL     1      -1.494   0.092   2.811  1.00  0.00    -0.280 N 
ATOM     12  C   UNL     1      -1.385  -1.094   3.534  1.00  0.00     0.266 C 
ATOM     13  C   UNL     1      -2.224   1.097   3.398  1.00  0.00     0.149 C 
ATOM     14  O   UNL     1      -0.698  -2.048   3.208  1.00  0.00    -0.268 OA
ATOM     15  C   UNL     1      -2.164  -1.019   4.799  1.00  0.00     0.081 C 
ATOM     16  S   UNL     1      -2.763   0.587   5.000  1.00  0.00    -0.054 SA
ATOM     17  S   UNL     1      -2.563   2.617   2.800  1.00  0.00    -0.052 S 
ATOM     18  C   UNL     1      -2.451  -2.017   5.651  1.00  0.00     0.029 C 
BRANCH  18  19
ATOM     19  C   UNL     1      -2.170  -3.445   5.439  1.00  0.00    -0.024 A 
ATOM     20  C   UNL     1      -3.260  -4.326   5.388  1.00  0.00     0.015 A 
ATOM     21  C   UNL     1      -0.878  -3.952   5.250  1.00  0.00     0.015 A 
ATOM     22  C   UNL     1      -3.074  -5.677   5.080  1.00  0.00     0.086 A 
ATOM     23  C   UNL     1      -0.680  -5.296   4.912  1.00  0.00     0.086 A 
ATOM     24  C   UNL     1      -1.783  -6.151   4.816  1.00  0.00     0.269 A 
BRANCH  24  25
ATOM     25  N   UNL     1      -1.592  -7.552   4.424  1.00  0.00     0.062 N 
ATOM     26  O   UNL     1      -2.578  -8.302   4.474  1.00  0.00    -0.258 OA
ATOM     27  O   UNL     1      -0.457  -7.905   4.076  1.00  0.00    -0.258 OA
ENDBRANCH  24  25
ENDBRANCH  18  19
ENDBRANCH   7  11
ENDBRANCH   4   7
ENDBRANCH   2   3
ENDBRANCH   1   2
BRANCH   1  28
ATOM     28  C   UNL     1       0.362  -2.218  -3.150  1.00  0.00     0.118 C 
BRANCH  28  29
ATOM     29  N   UNL     1      -0.245  -1.983  -4.447  1.00  0.00    -0.352 N 
ATOM     30  C   UNL     1       0.308  -2.093  -5.702  1.00  0.00     0.251 C 
ATOM     31  H   UNL     1      -1.189  -1.704  -4.426  1.00  0.00     0.163 HD
ATOM     32  O   UNL     1      -0.273  -1.583  -6.657  1.00  0.00    -0.269 OA
BRANCH  30  33
ATOM     33  C   UNL     1       1.595  -2.802  -5.909  1.00  0.00     0.039 A 
ATOM     34  C   UNL     1       2.509  -2.285  -6.832  1.00  0.00     0.014 A 
ATOM     35  C   UNL     1       1.889  -3.994  -5.242  1.00  0.00     0.014 A 
ATOM     36  C   UNL     1       3.729  -2.935  -7.047  1.00  0.00     0.010 A 
ATOM     37  C   UNL     1       3.141  -4.590  -5.389  1.00  0.00     0.010 A 
ATOM     38  C   UNL     1       4.071  -4.079  -6.306  1.00  0.00    -0.014 A 
BRANCH  38  39
ATOM     39  C   UNL     1       5.382  -4.757  -6.494  1.00  0.00     0.031 A 
ATOM     40  C   UNL     1       5.439  -6.184  -6.980  1.00  0.00     0.074 A 
ATOM     41  C   UNL     1       6.523  -4.110  -6.179  1.00  0.00     0.049 A 
ATOM     42  N   UNL     1       6.484  -6.951  -7.165  1.00  0.00    -0.248 NA
ATOM     43  C   UNL     1       4.156  -6.845  -7.273  1.00  0.00     0.031 C 
ATOM     44  C   UNL     1       6.605  -2.744  -5.655  1.00  0.00     0.029 A 
ATOM     45  N   UNL     1       7.834  -4.515  -6.246  1.00  0.00    -0.354 N 
ATOM     46  C   UNL     1       5.984  -8.185  -7.570  1.00  0.00     0.074 A 
ATOM     47  C   UNL     1       4.542  -8.079  -7.561  1.00  0.00     0.031 C 
ATOM     48  C   UNL     1       7.894  -2.417  -5.473  1.00  0.00     0.029 A 
ATOM     49  C   UNL     1       8.731  -3.561  -5.822  1.00  0.00     0.049 A 
ATOM     50  H   UNL     1       8.106  -5.405  -6.567  1.00  0.00     0.167 HD
ATOM     51  C   UNL     1       6.663  -9.300  -7.932  1.00  0.00     0.031 A 
ATOM     52  C   UNL     1      10.074  -3.603  -5.712  1.00  0.00     0.031 A 
ATOM     53  C   UNL     1       8.099  -9.395  -7.959  1.00  0.00     0.049 A 
ATOM     54  C   UNL     1      10.804  -4.853  -6.122  1.00  0.00     0.074 A 
ATOM     55  C   UNL     1       8.880 -10.456  -8.385  1.00  0.00     0.029 A 
ATOM     56  N   UNL     1       8.969  -8.401  -7.539  1.00  0.00    -0.354 N 
ATOM     57  N   UNL     1      10.315  -5.978  -6.586  1.00  0.00    -0.248 NA
ATOM     58  C   UNL     1      12.269  -4.835  -6.008  1.00  0.00     0.031 C 
ATOM     59  C   UNL     1      10.220 -10.129  -8.158  1.00  0.00     0.029 A 
ATOM     60  C   UNL     1      10.277  -8.837  -7.662  1.00  0.00     0.049 A 
ATOM     61  H   UNL     1       8.696  -7.517  -7.203  1.00  0.00     0.167 HD
ATOM     62  C   UNL     1      11.413  -6.791  -6.844  1.00  0.00     0.074 A 
ATOM     63  C   UNL     1      12.592  -6.022  -6.504  1.00  0.00     0.031 C 
ATOM     64  C   UNL     1      11.443  -8.061  -7.320  1.00  0.00     0.031 A 
BRANCH  51  65
ATOM     65  C   UNL     1       5.864 -10.519  -8.320  1.00  0.00    -0.014 A 
ATOM     66  C   UNL     1       5.118 -10.557  -9.512  1.00  0.00     0.010 A 
ATOM     67  C   UNL     1       5.918 -11.670  -7.512  1.00  0.00     0.010 A 
ATOM     68  C   UNL     1       4.415 -11.711  -9.870  1.00  0.00     0.020 A 
ATOM     69  C   UNL     1       5.241 -12.835  -7.882  1.00  0.00     0.020 A 
ATOM     70  C   UNL     1       4.483 -12.844  -9.054  1.00  0.00     0.054 A 
BRANCH  70  71
ATOM     71  S   UNL     1       3.596 -14.340  -9.569  1.00  0.00     0.124 S 
ATOM     72  O   UNL     1       2.203 -13.951  -9.361  1.00  0.00    -0.237 OA
ATOM     73  O   UNL     1       4.005 -14.489 -10.963  1.00  0.00    -0.237 OA
ATOM     74  O   UNL     1       4.095 -15.371  -8.662  1.00  0.00    -0.744 OA
ENDBRANCH  70  71
ENDBRANCH  51  65
BRANCH  52  75
ATOM     75  C   UNL     1      10.816  -2.424  -5.183  1.00  0.00    -0.014 A 
ATOM     76  C   UNL     1      11.664  -1.671  -6.015  1.00  0.00     0.010 A 
ATOM     77  C   UNL     1      10.676  -2.047  -3.834  1.00  0.00     0.010 A 
ATOM     78  C   UNL     1      12.376  -0.582  -5.503  1.00  0.00     0.020 A 
ATOM     79  C   UNL     1      11.360  -0.939  -3.327  1.00  0.00     0.020 A 
ATOM     80  C   UNL     1      12.218  -0.222  -4.162  1.00  0.00     0.054 A 
BRANCH  80  81
ATOM     81  S   UNL     1      13.120   1.220  -3.529  1.00  0.00     0.124 S 
ATOM     82  O   UNL     1      14.489   0.720  -3.471  1.00  0.00    -0.237 OA
ATOM     83  O   UNL     1      12.856   2.230  -4.551  1.00  0.00    -0.237 OA
ATOM     84  O   UNL     1      12.491   1.475  -2.235  1.00  0.00    -0.744 OA
ENDBRANCH  80  81
ENDBRANCH  52  75
BRANCH  64  85
ATOM     85  C   UNL     1      12.793  -8.691  -7.540  1.00  0.00    -0.014 A 
ATOM     86  C   UNL     1      13.611  -9.069  -6.460  1.00  0.00     0.010 A 
ATOM     87  C   UNL     1      13.224  -8.962  -8.853  1.00  0.00     0.010 A 
ATOM     88  C   UNL     1      14.849  -9.675  -6.691  1.00  0.00     0.020 A 
ATOM     89  C   UNL     1      14.446  -9.597  -9.086  1.00  0.00     0.020 A 
ATOM     90  C   UNL     1      15.258  -9.937  -8.002  1.00  0.00     0.054 A 
BRANCH  90  91
ATOM     91  S   UNL     1      16.850 -10.763  -8.272  1.00  0.00     0.124 S 
ATOM     92  O   UNL     1      17.801  -9.707  -7.934  1.00  0.00    -0.237 OA
ATOM     93  O   UNL     1      16.792 -11.881  -7.334  1.00  0.00    -0.237 OA
ATOM     94  O   UNL     1      16.812 -11.138  -9.684  1.00  0.00    -0.744 OA
ENDBRANCH  90  91
ENDBRANCH  64  85
ENDBRANCH  38  39
ENDBRANCH  30  33
ENDBRANCH  28  29
ENDBRANCH   1  28
TORSDOF 17
