REMARK SMILES NC(=O)c1cc(NC(=O)/C=C\C(=O)NCCCNC(=O)c2ccc(-c3c4nc(c(-c5ccc(S(=O)(=O)[O-])cc5)c5ccc([nH]5)c(-c5ccc(S(=O)(=O)[O-])cc5)c5nc(c(-c6ccc(S(=O)(=O)[O-])cc6)c6ccc3[nH]6)C=C5)C=C4)cc2)ccc1N1CCOCC1
REMARK SMILES IDX 16 1 15 2 14 3 12 4 13 5 11 7 10 8 8 9 7 10 9 12 6 13 4 14
REMARK SMILES IDX 5 15 83 16 82 17 81 18 2 19 1 20 3 23 84 24 85 25 89 26
REMARK SMILES IDX 86 27 88 28 87 29 17 30 18 31 19 32 20 34 21 35 22 36 80 37
REMARK SMILES IDX 23 38 79 39 24 40 25 41 26 42 73 43 27 44 78 45 72 46 74 47
REMARK SMILES IDX 28 48 77 49 71 50 70 51 29 53 59 54 40 55 58 56 41 57 44 58
REMARK SMILES IDX 57 59 75 60 42 61 43 62 56 64 76 65 45 66 30 67 31 68 39 69
REMARK SMILES IDX 32 70 38 71 33 72 34 73 35 74 36 75 37 76 60 77 61 78 69 79
REMARK SMILES IDX 62 80 68 81 63 82 64 83 65 84 66 85 67 86 46 87 47 88 55 89
REMARK SMILES IDX 48 90 54 91 49 92 50 93 51 94 52 95 53 96
REMARK H PARENT 14 6 7 11 1 21 1 22 18 33 74 52 44 63
REMARK Flexibility Score: inf
ROOT
ATOM      1  C   UNL     1       0.690  -2.943   6.600  1.00  0.00     0.042 C 
ENDROOT
BRANCH   1   2
ATOM      2  C   UNL     1       0.472  -1.691   5.692  1.00  0.00     0.118 C 
BRANCH   2   3
ATOM      3  N   UNL     1       1.288  -1.492   4.207  1.00  0.00    -0.352 N 
ATOM      4  C   UNL     1       1.419  -2.171   2.361  1.00  0.00     0.244 C 
ATOM      5  O   UNL     1       2.226  -1.881   1.431  1.00  0.00    -0.270 OA
ATOM      6  H   UNL     1       1.940  -0.761   4.311  1.00  0.00     0.163 HD
BRANCH   4   7
ATOM      7  C   UNL     1       0.352  -3.224   1.494  1.00  0.00     0.077 C 
ATOM      8  C   UNL     1      -0.370  -4.346   1.708  1.00  0.00     0.077 C 
BRANCH   8   9
ATOM      9  C   UNL     1      -0.377  -5.167   2.948  1.00  0.00     0.248 C 
ATOM     10  N   UNL     1       0.478  -4.734   3.909  1.00  0.00    -0.322 N 
ATOM     11  H   UNL     1       0.828  -5.353   4.590  1.00  0.00     0.170 HD
ATOM     12  O   UNL     1      -1.005  -6.213   3.017  1.00  0.00    -0.270 OA
BRANCH  10  13
ATOM     13  C   UNL     1       0.843  -3.401   3.907  1.00  0.00     0.042 A 
ATOM     14  C   UNL     1       0.179  -0.498   2.809  1.00  0.00     0.064 A 
ATOM     15  C   UNL     1      -0.414  -2.122   3.402  1.00  0.00     0.042 A 
ATOM     16  C   UNL     1       1.960  -0.094   2.796  1.00  0.00     0.050 A 
ATOM     17  C   UNL     1       3.168  -1.349   3.392  1.00  0.00     0.029 A 
ATOM     18  C   UNL     1       2.618  -2.999   3.905  1.00  0.00     0.028 A 
BRANCH  14  19
ATOM     19  C   UNL     1      -0.691   0.016   1.731  1.00  0.00     0.250 C 
ATOM     20  N   UNL     1      -0.096  -0.013   0.501  1.00  0.00    -0.366 N 
ATOM     21  H   UNL     1      -0.586   0.307  -0.291  1.00  0.00     0.159 HD
ATOM     22  H   UNL     1       0.823  -0.353   0.407  1.00  0.00     0.159 HD
ATOM     23  O   UNL     1      -1.866   0.291   1.903  1.00  0.00    -0.269 OA
ENDBRANCH  14  19
BRANCH  16  24
ATOM     24  N   UNL     1       2.472   1.020   2.114  1.00  0.00    -0.366 N 
ATOM     25  C   UNL     1       1.724   2.230   1.716  1.00  0.00     0.145 C 
ATOM     26  C   UNL     1       3.863   1.011   1.623  1.00  0.00     0.145 C 
ATOM     27  C   UNL     1       1.907   2.534   0.205  1.00  0.00     0.181 C 
ATOM     28  C   UNL     1       3.894   1.284   0.113  1.00  0.00     0.181 C 
ATOM     29  O   UNL     1       3.289   2.550  -0.191  1.00  0.00    -0.378 OA
ENDBRANCH  16  24
ENDBRANCH  10  13
ENDBRANCH   8   9
ENDBRANCH   4   7
ENDBRANCH   2   3
ENDBRANCH   1   2
BRANCH   1  30
ATOM     30  C   UNL     1       2.109  -3.208   7.095  1.00  0.00     0.118 C 
BRANCH  30  31
ATOM     31  N   UNL     1       2.374  -2.447   8.297  1.00  0.00    -0.352 N 
ATOM     32  C   UNL     1       2.894  -2.911   9.478  1.00  0.00     0.251 C 
ATOM     33  H   UNL     1       2.157  -1.487   8.263  1.00  0.00     0.163 HD
ATOM     34  O   UNL     1       2.684  -2.291  10.516  1.00  0.00    -0.269 OA
BRANCH  32  35
ATOM     35  C   UNL     1       3.718  -4.142   9.495  1.00  0.00     0.039 A 
ATOM     36  C   UNL     1       3.561  -5.042  10.550  1.00  0.00     0.014 A 
ATOM     37  C   UNL     1       4.704  -4.362   8.525  1.00  0.00     0.014 A 
ATOM     38  C   UNL     1       4.399  -6.155  10.642  1.00  0.00     0.010 A 
ATOM     39  C   UNL     1       5.504  -5.504   8.590  1.00  0.00     0.010 A 
ATOM     40  C   UNL     1       5.378  -6.399   9.663  1.00  0.00    -0.014 A 
BRANCH  40  41
ATOM     41  C   UNL     1       6.283  -7.572   9.780  1.00  0.00     0.031 A 
ATOM     42  C   UNL     1       7.762  -7.377   9.998  1.00  0.00     0.074 A 
ATOM     43  C   UNL     1       5.771  -8.816   9.692  1.00  0.00     0.049 A 
ATOM     44  N   UNL     1       8.700  -8.280  10.136  1.00  0.00    -0.248 NA
ATOM     45  C   UNL     1       8.255  -5.991  10.054  1.00  0.00     0.031 C 
ATOM     46  C   UNL     1       4.359  -9.132   9.462  1.00  0.00     0.029 A 
ATOM     47  N   UNL     1       6.373 -10.045   9.792  1.00  0.00    -0.354 N 
ATOM     48  C   UNL     1       9.888  -7.574  10.293  1.00  0.00     0.074 A 
ATOM     49  C   UNL     1       9.563  -6.170  10.176  1.00  0.00     0.031 C 
ATOM     50  C   UNL     1       4.199 -10.464   9.473  1.00  0.00     0.029 A 
ATOM     51  C   UNL     1       5.499 -11.100   9.659  1.00  0.00     0.049 A 
ATOM     52  H   UNL     1       7.338 -10.162   9.944  1.00  0.00     0.167 HD
ATOM     53  C   UNL     1      11.133  -8.051  10.534  1.00  0.00     0.031 A 
ATOM     54  C   UNL     1       5.720 -12.429   9.674  1.00  0.00     0.031 A 
ATOM     55  C   UNL     1      11.450  -9.451  10.646  1.00  0.00     0.049 A 
ATOM     56  C   UNL     1       7.122 -12.932   9.893  1.00  0.00     0.074 A 
ATOM     57  C   UNL     1      12.674 -10.036  10.924  1.00  0.00     0.029 A 
ATOM     58  N   UNL     1      10.542 -10.487  10.482  1.00  0.00    -0.354 N 
ATOM     59  N   UNL     1       8.221 -12.245  10.103  1.00  0.00    -0.248 NA
ATOM     60  C   UNL     1       7.313 -14.388   9.892  1.00  0.00     0.031 C 
ATOM     61  C   UNL     1      12.521 -11.423  10.854  1.00  0.00     0.029 A 
ATOM     62  C   UNL     1      11.185 -11.706  10.618  1.00  0.00     0.049 A 
ATOM     63  H   UNL     1       9.582 -10.372  10.295  1.00  0.00     0.167 HD
ATOM     64  C   UNL     1       9.226 -13.189  10.292  1.00  0.00     0.074 A 
ATOM     65  C   UNL     1       8.599 -14.491  10.195  1.00  0.00     0.031 C 
ATOM     66  C   UNL     1      10.548 -12.995  10.523  1.00  0.00     0.031 A 
BRANCH  53  67
ATOM     67  C   UNL     1      12.256  -7.055  10.687  1.00  0.00    -0.014 A 
ATOM     68  C   UNL     1      12.324  -6.199  11.802  1.00  0.00     0.010 A 
ATOM     69  C   UNL     1      13.300  -7.027   9.743  1.00  0.00     0.010 A 
ATOM     70  C   UNL     1      13.397  -5.318  11.955  1.00  0.00     0.020 A 
ATOM     71  C   UNL     1      14.392  -6.170   9.910  1.00  0.00     0.020 A 
ATOM     72  C   UNL     1      14.428  -5.313  11.011  1.00  0.00     0.054 A 
BRANCH  72  73
ATOM     73  S   UNL     1      15.833  -4.195  11.267  1.00  0.00     0.124 S 
ATOM     74  O   UNL     1      15.217  -2.885  11.066  1.00  0.00    -0.237 OA
ATOM     75  O   UNL     1      16.233  -4.497  12.639  1.00  0.00    -0.237 OA
ATOM     76  O   UNL     1      16.790  -4.596  10.239  1.00  0.00    -0.744 OA
ENDBRANCH  72  73
ENDBRANCH  53  67
BRANCH  54  77
ATOM     77  C   UNL     1       4.593 -13.381   9.459  1.00  0.00    -0.014 A 
ATOM     78  C   UNL     1       4.189 -14.267  10.473  1.00  0.00     0.010 A 
ATOM     79  C   UNL     1       3.930 -13.421   8.217  1.00  0.00     0.010 A 
ATOM     80  C   UNL     1       3.172 -15.198  10.238  1.00  0.00     0.020 A 
ATOM     81  C   UNL     1       2.888 -14.322   7.992  1.00  0.00     0.020 A 
ATOM     82  C   UNL     1       2.528 -15.220   8.998  1.00  0.00     0.054 A 
BRANCH  82  83
ATOM     83  S   UNL     1       1.202 -16.425   8.722  1.00  0.00     0.124 S 
ATOM     84  O   UNL     1       1.940 -17.684   8.683  1.00  0.00    -0.237 OA
ATOM     85  O   UNL     1       0.349 -16.226   9.890  1.00  0.00    -0.237 OA
ATOM     86  O   UNL     1       0.616 -16.004   7.451  1.00  0.00    -0.744 OA
ENDBRANCH  82  83
ENDBRANCH  54  77
BRANCH  66  87
ATOM     87  C   UNL     1      11.403 -14.218  10.736  1.00  0.00    -0.014 A 
ATOM     88  C   UNL     1      11.677 -15.117   9.689  1.00  0.00     0.010 A 
ATOM     89  C   UNL     1      11.986 -14.442  11.998  1.00  0.00     0.010 A 
ATOM     90  C   UNL     1      12.484 -16.236   9.911  1.00  0.00     0.020 A 
ATOM     91  C   UNL     1      12.825 -15.537  12.213  1.00  0.00     0.020 A 
ATOM     92  C   UNL     1      13.056 -16.436  11.172  1.00  0.00     0.054 A 
BRANCH  92  93
ATOM     93  S   UNL     1      14.136 -17.871  11.418  1.00  0.00     0.124 S 
ATOM     94  O   UNL     1      13.189 -18.980  11.355  1.00  0.00    -0.237 OA
ATOM     95  O   UNL     1      15.061 -17.769  10.292  1.00  0.00    -0.237 OA
ATOM     96  O   UNL     1      14.733 -17.636  12.731  1.00  0.00    -0.744 OA
ENDBRANCH  92  93
ENDBRANCH  66  87
ENDBRANCH  40  41
ENDBRANCH  32  35
ENDBRANCH  30  31
ENDBRANCH   1  30
TORSDOF 17
