REMARK SMILES COc1cc(/C=C2\SC(=S)N([C@H](C)C(=O)NCCCNC(=O)c3ccc(-c4c5nc(c(-c6ccc(S(=O)(=O)[O-])cc6)c6ccc([nH]6)c(-c6ccc(S(=O)(=O)[O-])cc6)c6nc(c(-c7ccc(S(=O)(=O)[O-])cc7)c7ccc4[nH]7)C=C6)C=C5)cc3)C2=O)ccc1OCc1ccc(Cl)cc1Cl
REMARK SMILES IDX 17 1 16 2 14 3 15 4 12 6 13 7 11 8 6 9 7 10 8 11 83 12 9 13
REMARK SMILES IDX 84 14 10 15 5 16 3 17 4 18 87 19 86 20 85 21 2 22 1 23 88 24
REMARK SMILES IDX 89 25 90 26 91 27 96 28 92 29 95 30 97 31 93 32 94 33 18 34
REMARK SMILES IDX 19 35 20 36 21 37 22 39 23 40 24 41 82 42 25 43 81 44 26 45
REMARK SMILES IDX 27 46 28 47 75 48 29 49 80 50 74 51 76 52 30 53 79 54 73 55
REMARK SMILES IDX 72 56 31 58 61 59 42 60 60 61 43 62 46 63 59 64 77 65 44 66
REMARK SMILES IDX 45 67 58 69 78 70 47 71 32 72 33 73 41 74 34 75 40 76 35 77
REMARK SMILES IDX 36 78 37 79 38 80 39 81 62 82 63 83 71 84 64 85 70 86 65 87
REMARK SMILES IDX 66 88 67 89 68 90 69 91 48 92 49 93 57 94 50 95 56 96 51 97
REMARK SMILES IDX 52 98 53 99 54 100 55 101
REMARK H PARENT 16 5 20 38 76 57 46 68
REMARK Flexibility Score: inf
ROOT
ATOM      1  C   UNL     1      -1.874   5.417  -7.229  1.00  0.00     0.117 C 
ENDROOT
BRANCH   1   2
ATOM      2  N   UNL     1      -1.359   5.867  -8.509  1.00  0.00    -0.354 N 
ATOM      3  C   UNL     1      -0.998   5.149  -9.607  1.00  0.00     0.242 C 
ATOM      4  O   UNL     1      -0.889   5.786 -10.662  1.00  0.00    -0.273 OA
ATOM      5  H   UNL     1      -1.256   6.842  -8.596  1.00  0.00     0.163 HD
BRANCH   3   6
ATOM      6  C   UNL     1      -0.858   3.610  -9.618  1.00  0.00     0.178 C 
ATOM      7  C   UNL     1      -0.019   2.999  -8.499  1.00  0.00     0.042 C 
BRANCH   6   8
ATOM      8  N   UNL     1      -2.179   3.012  -9.897  1.00  0.00    -0.281 N 
ATOM      9  C   UNL     1      -5.566   2.904  -8.728  1.00  0.00     0.029 C 
ATOM     10  C   UNL     1      -4.471   2.710  -9.473  1.00  0.00     0.081 C 
ATOM     11  S   UNL     1      -4.341   2.275 -11.120  1.00  0.00    -0.054 SA
ATOM     12  C   UNL     1      -3.123   2.894  -8.898  1.00  0.00     0.266 C 
ATOM     13  C   UNL     1      -2.612   2.632 -11.156  1.00  0.00     0.149 C 
ATOM     14  O   UNL     1      -2.937   2.880  -7.692  1.00  0.00    -0.268 OA
ATOM     15  S   UNL     1      -1.730   2.471 -12.563  1.00  0.00    -0.052 S 
BRANCH   9  16
ATOM     16  C   UNL     1      -6.923   2.623  -9.181  1.00  0.00    -0.020 A 
ATOM     17  C   UNL     1      -9.022   3.265 -10.229  1.00  0.00     0.161 A 
ATOM     18  C   UNL     1      -7.731   3.595  -9.782  1.00  0.00     0.058 A 
ATOM     19  C   UNL     1      -9.482   1.944 -10.104  1.00  0.00     0.161 A 
ATOM     20  C   UNL     1      -8.658   0.986  -9.500  1.00  0.00     0.051 A 
ATOM     21  C   UNL     1      -7.396   1.321  -9.029  1.00  0.00     0.012 A 
BRANCH  17  22
ATOM     22  O   UNL     1      -9.802   4.202 -10.854  1.00  0.00    -0.493 OA
ATOM     23  C   UNL     1      -9.867   5.464 -10.189  1.00  0.00     0.278 C 
ENDBRANCH  17  22
BRANCH  19  24
ATOM     24  O   UNL     1     -10.693   1.410 -10.453  1.00  0.00    -0.485 OA
BRANCH  24  25
ATOM     25  C   UNL     1     -11.785   2.252 -10.822  1.00  0.00     0.267 C 
BRANCH  25  26
ATOM     26  C   UNL     1     -12.398   3.050  -9.685  1.00  0.00     0.008 A 
ATOM     27  C   UNL     1     -12.058   2.791  -8.344  1.00  0.00     0.010 A 
ATOM     28  C   UNL     1     -13.324   4.075  -9.945  1.00  0.00     0.049 A 
ATOM     29  C   UNL     1     -12.560   3.580  -7.308  1.00  0.00     0.021 A 
ATOM     30  C   UNL     1     -13.837   4.859  -8.909  1.00  0.00     0.041 A 
ATOM     31  Cl  UNL     1     -13.868   4.422 -11.550  1.00  0.00    -0.084 Cl
ATOM     32  C   UNL     1     -13.439   4.617  -7.598  1.00  0.00     0.042 A 
ATOM     33  Cl  UNL     1     -14.042   5.606  -6.326  1.00  0.00    -0.084 Cl
ENDBRANCH  25  26
ENDBRANCH  24  25
ENDBRANCH  19  24
ENDBRANCH   9  16
ENDBRANCH   6   8
ENDBRANCH   3   6
ENDBRANCH   1   2
BRANCH   1  34
ATOM     34  C   UNL     1      -1.515   6.306  -6.056  1.00  0.00     0.042 C 
BRANCH  34  35
ATOM     35  C   UNL     1      -2.069   7.718  -6.143  1.00  0.00     0.118 C 
BRANCH  35  36
ATOM     36  N   UNL     1      -3.523   7.787  -6.052  1.00  0.00    -0.352 N 
ATOM     37  C   UNL     1      -4.357   8.154  -5.019  1.00  0.00     0.251 C 
ATOM     38  H   UNL     1      -3.992   7.525  -6.877  1.00  0.00     0.163 HD
ATOM     39  O   UNL     1      -5.570   8.008  -5.153  1.00  0.00    -0.269 OA
BRANCH  37  40
ATOM     40  C   UNL     1      -3.813   8.675  -3.743  1.00  0.00     0.039 A 
ATOM     41  C   UNL     1      -4.404   8.282  -2.538  1.00  0.00     0.014 A 
ATOM     42  C   UNL     1      -2.724   9.544  -3.718  1.00  0.00     0.014 A 
ATOM     43  C   UNL     1      -3.835   8.674  -1.321  1.00  0.00     0.010 A 
ATOM     44  C   UNL     1      -2.083   9.823  -2.517  1.00  0.00     0.010 A 
ATOM     45  C   UNL     1      -2.631   9.396  -1.299  1.00  0.00    -0.014 A 
BRANCH  45  46
ATOM     46  C   UNL     1      -1.925   9.727  -0.031  1.00  0.00     0.031 A 
ATOM     47  C   UNL     1      -1.608  11.163   0.305  1.00  0.00     0.074 A 
ATOM     48  C   UNL     1      -1.477   8.737   0.769  1.00  0.00     0.049 A 
ATOM     49  N   UNL     1      -0.881  11.642   1.282  1.00  0.00    -0.248 NA
ATOM     50  C   UNL     1      -2.142  12.195  -0.601  1.00  0.00     0.031 C 
ATOM     51  C   UNL     1      -1.657   7.302   0.532  1.00  0.00     0.029 A 
ATOM     52  N   UNL     1      -0.762   8.788   1.941  1.00  0.00    -0.354 N 
ATOM     53  C   UNL     1      -0.835  13.017   1.082  1.00  0.00     0.074 A 
ATOM     54  C   UNL     1      -1.563  13.292  -0.136  1.00  0.00     0.031 C 
ATOM     55  C   UNL     1      -1.099   6.614   1.540  1.00  0.00     0.029 A 
ATOM     56  C   UNL     1      -0.480   7.551   2.471  1.00  0.00     0.049 A 
ATOM     57  H   UNL     1      -0.478   9.632   2.362  1.00  0.00     0.167 HD
ATOM     58  C   UNL     1      -0.262  13.972   1.853  1.00  0.00     0.031 A 
ATOM     59  C   UNL     1       0.206   7.204   3.578  1.00  0.00     0.031 A 
ATOM     60  C   UNL     1       0.418  13.704   3.092  1.00  0.00     0.049 A 
ATOM     61  C   UNL     1       0.791   8.283   4.446  1.00  0.00     0.074 A 
ATOM     62  C   UNL     1       0.964  14.609   3.985  1.00  0.00     0.029 A 
ATOM     63  N   UNL     1       0.631  12.440   3.619  1.00  0.00    -0.354 N 
ATOM     64  N   UNL     1       0.774   9.582   4.267  1.00  0.00    -0.248 NA
ATOM     65  C   UNL     1       1.477   7.851   5.672  1.00  0.00     0.031 C 
ATOM     66  C   UNL     1       1.541  13.889   5.037  1.00  0.00     0.029 A 
ATOM     67  C   UNL     1       1.310  12.539   4.821  1.00  0.00     0.049 A 
ATOM     68  H   UNL     1       0.343  11.597   3.200  1.00  0.00     0.167 HD
ATOM     69  C   UNL     1       1.426  10.124   5.369  1.00  0.00     0.074 A 
ATOM     70  C   UNL     1       1.812   9.013   6.216  1.00  0.00     0.031 C 
ATOM     71  C   UNL     1       1.683  11.424   5.653  1.00  0.00     0.031 A 
BRANCH  58  72
ATOM     72  C   UNL     1      -0.358  15.399   1.381  1.00  0.00    -0.014 A 
ATOM     73  C   UNL     1      -1.586  16.085   1.388  1.00  0.00     0.010 A 
ATOM     74  C   UNL     1       0.800  16.076   0.957  1.00  0.00     0.010 A 
ATOM     75  C   UNL     1      -1.664  17.404   0.935  1.00  0.00     0.020 A 
ATOM     76  C   UNL     1       0.732  17.406   0.531  1.00  0.00     0.020 A 
ATOM     77  C   UNL     1      -0.504  18.055   0.505  1.00  0.00     0.054 A 
BRANCH  77  78
ATOM     78  S   UNL     1      -0.630  19.775  -0.057  1.00  0.00     0.124 S 
ATOM     79  O   UNL     1      -1.251  19.615  -1.370  1.00  0.00    -0.237 OA
ATOM     80  O   UNL     1      -1.474  20.387   0.966  1.00  0.00    -0.237 OA
ATOM     81  O   UNL     1       0.756  20.236  -0.075  1.00  0.00    -0.744 OA
ENDBRANCH  77  78
ENDBRANCH  58  72
BRANCH  59  82
ATOM     82  C   UNL     1       0.355   5.768   3.939  1.00  0.00    -0.014 A 
ATOM     83  C   UNL     1      -0.366   5.228   5.019  1.00  0.00     0.010 A 
ATOM     84  C   UNL     1       1.196   4.926   3.189  1.00  0.00     0.010 A 
ATOM     85  C   UNL     1      -0.238   3.876   5.352  1.00  0.00     0.020 A 
ATOM     86  C   UNL     1       1.308   3.568   3.504  1.00  0.00     0.020 A 
ATOM     87  C   UNL     1       0.597   3.054   4.590  1.00  0.00     0.054 A 
BRANCH  87  88
ATOM     88  S   UNL     1       0.699   1.289   5.001  1.00  0.00     0.124 S 
ATOM     89  O   UNL     1       1.535   1.304   6.197  1.00  0.00    -0.237 OA
ATOM     90  O   UNL     1      -0.702   0.931   5.211  1.00  0.00    -0.237 OA
ATOM     91  O   UNL     1       1.313   0.698   3.814  1.00  0.00    -0.744 OA
ENDBRANCH  87  88
ENDBRANCH  59  82
BRANCH  71  92
ATOM     92  C   UNL     1       2.386  11.725   6.948  1.00  0.00    -0.014 A 
ATOM     93  C   UNL     1       3.758  11.464   7.109  1.00  0.00     0.010 A 
ATOM     94  C   UNL     1       1.674  12.335   7.997  1.00  0.00     0.010 A 
ATOM     95  C   UNL     1       4.400  11.784   8.307  1.00  0.00     0.020 A 
ATOM     96  C   UNL     1       2.318  12.678   9.187  1.00  0.00     0.020 A 
ATOM     97  C   UNL     1       3.675  12.389   9.340  1.00  0.00     0.054 A 
BRANCH  97  98
ATOM     98  S   UNL     1       4.541  12.838  10.868  1.00  0.00     0.124 S 
ATOM     99  O   UNL     1       4.702  11.541  11.518  1.00  0.00    -0.237 OA
ATOM    100  O   UNL     1       5.772  13.450  10.373  1.00  0.00    -0.237 OA
ATOM    101  O   UNL     1       3.619  13.758  11.531  1.00  0.00    -0.744 OA
ENDBRANCH  97  98
ENDBRANCH  71  92
ENDBRANCH  45  46
ENDBRANCH  37  40
ENDBRANCH  35  36
ENDBRANCH  34  35
ENDBRANCH   1  34
TORSDOF 19
