REMARK SMILES O=C(NCCCNC(=O)c1cc(N2C(=O)C[C@H](Nc3ccccc3O)C2=O)ccc1O)c1ccc(-c2c3nc(c(-c4ccc(S(=O)(=O)[O-])cc4)c4ccc([nH]4)c(-c4ccc(S(=O)(=O)[O-])cc4)c4nc(c(-c5ccc(S(=O)(=O)[O-])cc5)c5ccc2[nH]5)C=C4)C=C3)cc1
REMARK SMILES IDX 5 1 4 2 3 3 1 4 2 5 32 7 33 8 91 9 34 10 90 11 35 12 36 13
REMARK SMILES IDX 37 14 84 15 38 16 89 17 83 18 85 19 39 20 88 21 82 22 81 23
REMARK SMILES IDX 40 25 70 26 51 27 69 28 52 29 55 30 68 31 86 32 53 33 54 34
REMARK SMILES IDX 67 36 87 37 56 38 41 39 42 40 50 41 43 42 49 43 44 44 45 45
REMARK SMILES IDX 46 46 47 47 48 48 71 49 72 50 80 51 73 52 79 53 74 54 75 55
REMARK SMILES IDX 76 56 77 57 78 58 57 59 58 60 66 61 59 62 65 63 60 64 61 65
REMARK SMILES IDX 62 66 63 67 64 68 6 69 7 70 8 71 9 73 10 74 11 75 30 76
REMARK SMILES IDX 12 77 29 78 28 79 31 80 13 82 14 83 26 84 15 85 16 86 17 87
REMARK SMILES IDX 27 88 18 89 19 91 20 92 24 93 21 94 23 95 22 96 25 97
REMARK H PARENT 3 6 85 24 55 35 7 72 31 81 18 90 25 98
REMARK Flexibility Score: inf
ROOT
ATOM      1  C   UNL     1       5.019  -1.689   1.682  1.00  0.00     0.042 C 
ENDROOT
BRANCH   1   2
ATOM      2  C   UNL     1       4.648  -1.334   0.248  1.00  0.00     0.118 C 
BRANCH   2   3
ATOM      3  N   UNL     1       3.212  -1.175   0.058  1.00  0.00    -0.352 N 
ATOM      4  O   UNL     1       1.238  -0.110  -0.118  1.00  0.00    -0.269 OA
ATOM      5  C   UNL     1       2.465  -0.047  -0.178  1.00  0.00     0.251 C 
ATOM      6  H   UNL     1       2.694  -2.011   0.106  1.00  0.00     0.163 HD
BRANCH   5   7
ATOM      7  C   UNL     1       3.124   1.243  -0.478  1.00  0.00     0.039 A 
ATOM      8  C   UNL     1       4.224   1.307  -1.335  1.00  0.00     0.014 A 
ATOM      9  C   UNL     1       2.617   2.417   0.089  1.00  0.00     0.014 A 
ATOM     10  C   UNL     1       4.914   2.503  -1.491  1.00  0.00     0.010 A 
ATOM     11  C   UNL     1       3.253   3.639  -0.150  1.00  0.00     0.010 A 
ATOM     12  C   UNL     1       4.430   3.687  -0.912  1.00  0.00    -0.014 A 
BRANCH  12  13
ATOM     13  C   UNL     1       5.140   4.967  -1.167  1.00  0.00     0.031 A 
ATOM     14  C   UNL     1       5.778   5.739  -0.045  1.00  0.00     0.074 A 
ATOM     15  C   UNL     1       5.228   5.418  -2.434  1.00  0.00     0.049 A 
ATOM     16  N   UNL     1       6.441   6.867  -0.098  1.00  0.00    -0.248 NA
ATOM     17  C   UNL     1       5.654   5.182   1.311  1.00  0.00     0.031 C 
ATOM     18  C   UNL     1       4.647   4.758  -3.607  1.00  0.00     0.029 A 
ATOM     19  N   UNL     1       5.851   6.524  -2.953  1.00  0.00    -0.354 N 
ATOM     20  C   UNL     1       6.790   7.168   1.213  1.00  0.00     0.074 A 
ATOM     21  C   UNL     1       6.249   6.114   2.044  1.00  0.00     0.031 C 
ATOM     22  C   UNL     1       4.983   5.442  -4.709  1.00  0.00     0.029 A 
ATOM     23  C   UNL     1       5.743   6.624  -4.319  1.00  0.00     0.049 A 
ATOM     24  H   UNL     1       6.331   7.182  -2.399  1.00  0.00     0.167 HD
ATOM     25  C   UNL     1       7.500   8.224   1.681  1.00  0.00     0.031 A 
ATOM     26  C   UNL     1       6.188   7.568  -5.169  1.00  0.00     0.031 A 
ATOM     27  C   UNL     1       8.039   9.269   0.850  1.00  0.00     0.049 A 
ATOM     28  C   UNL     1       6.951   8.739  -4.623  1.00  0.00     0.074 A 
ATOM     29  C   UNL     1       8.794  10.367   1.227  1.00  0.00     0.029 A 
ATOM     30  N   UNL     1       7.880   9.349  -0.526  1.00  0.00    -0.354 N 
ATOM     31  N   UNL     1       7.287   8.992  -3.381  1.00  0.00    -0.248 NA
ATOM     32  C   UNL     1       7.393   9.750  -5.591  1.00  0.00     0.031 C 
ATOM     33  C   UNL     1       9.051  11.134   0.086  1.00  0.00     0.029 A 
ATOM     34  C   UNL     1       8.503  10.488  -1.010  1.00  0.00     0.049 A 
ATOM     35  H   UNL     1       7.396   8.693  -1.078  1.00  0.00     0.167 HD
ATOM     36  C   UNL     1       7.994  10.188  -3.420  1.00  0.00     0.074 A 
ATOM     37  C   UNL     1       8.051  10.595  -4.810  1.00  0.00     0.031 C 
ATOM     38  C   UNL     1       8.544  10.884  -2.395  1.00  0.00     0.031 A 
BRANCH  25  39
ATOM     39  C   UNL     1       7.707   8.319   3.171  1.00  0.00    -0.014 A 
ATOM     40  C   UNL     1       8.589   7.454   3.842  1.00  0.00     0.010 A 
ATOM     41  C   UNL     1       7.035   9.314   3.905  1.00  0.00     0.010 A 
ATOM     42  C   UNL     1       8.761   7.553   5.226  1.00  0.00     0.020 A 
ATOM     43  C   UNL     1       7.223   9.432   5.285  1.00  0.00     0.020 A 
ATOM     44  C   UNL     1       8.071   8.538   5.941  1.00  0.00     0.054 A 
BRANCH  44  45
ATOM     45  S   UNL     1       8.316   8.649   7.735  1.00  0.00     0.124 S 
ATOM     46  O   UNL     1       7.548   7.503   8.214  1.00  0.00    -0.237 OA
ATOM     47  O   UNL     1       9.766   8.532   7.870  1.00  0.00    -0.237 OA
ATOM     48  O   UNL     1       7.765   9.957   8.080  1.00  0.00    -0.744 OA
ENDBRANCH  44  45
ENDBRANCH  25  39
BRANCH  26  49
ATOM     49  C   UNL     1       5.904   7.437  -6.622  1.00  0.00    -0.014 A 
ATOM     50  C   UNL     1       6.930   7.115  -7.527  1.00  0.00     0.010 A 
ATOM     51  C   UNL     1       4.588   7.583  -7.100  1.00  0.00     0.010 A 
ATOM     52  C   UNL     1       6.646   6.947  -8.885  1.00  0.00     0.020 A 
ATOM     53  C   UNL     1       4.296   7.389  -8.452  1.00  0.00     0.020 A 
ATOM     54  C   UNL     1       5.330   7.081  -9.338  1.00  0.00     0.054 A 
BRANCH  54  55
ATOM     55  S   UNL     1       4.971   6.786 -11.092  1.00  0.00     0.124 S 
ATOM     56  O   UNL     1       5.460   8.013 -11.711  1.00  0.00    -0.237 OA
ATOM     57  O   UNL     1       5.747   5.580 -11.376  1.00  0.00    -0.237 OA
ATOM     58  O   UNL     1       3.522   6.604 -11.117  1.00  0.00    -0.744 OA
ENDBRANCH  54  55
ENDBRANCH  26  49
BRANCH  38  59
ATOM     59  C   UNL     1       9.278  12.149  -2.744  1.00  0.00    -0.014 A 
ATOM     60  C   UNL     1       8.584  13.315  -3.111  1.00  0.00     0.010 A 
ATOM     61  C   UNL     1      10.682  12.182  -2.660  1.00  0.00     0.010 A 
ATOM     62  C   UNL     1       9.283  14.485  -3.418  1.00  0.00     0.020 A 
ATOM     63  C   UNL     1      11.383  13.356  -2.942  1.00  0.00     0.020 A 
ATOM     64  C   UNL     1      10.679  14.497  -3.333  1.00  0.00     0.054 A 
BRANCH  64  65
ATOM     65  S   UNL     1      11.564  16.039  -3.695  1.00  0.00     0.124 S 
ATOM     66  O   UNL     1      11.500  16.091  -5.153  1.00  0.00    -0.237 OA
ATOM     67  O   UNL     1      10.766  17.041  -2.994  1.00  0.00    -0.237 OA
ATOM     68  O   UNL     1      12.896  15.812  -3.137  1.00  0.00    -0.744 OA
ENDBRANCH  64  65
ENDBRANCH  38  59
ENDBRANCH  12  13
ENDBRANCH   5   7
ENDBRANCH   2   3
ENDBRANCH   1   2
BRANCH   1  69
ATOM     69  C   UNL     1       4.508  -3.047   2.136  1.00  0.00     0.118 C 
BRANCH  69  70
ATOM     70  N   UNL     1       5.048  -4.128   1.331  1.00  0.00    -0.352 N 
ATOM     71  C   UNL     1       5.833  -5.182   1.713  1.00  0.00     0.255 C 
ATOM     72  H   UNL     1       4.817  -4.099   0.375  1.00  0.00     0.163 HD
ATOM     73  O   UNL     1       6.304  -5.934   0.862  1.00  0.00    -0.269 OA
BRANCH  71  74
ATOM     74  C   UNL     1       6.157  -5.418   3.134  1.00  0.00     0.083 A 
ATOM     75  C   UNL     1       7.513  -5.572   3.459  1.00  0.00     0.044 A 
ATOM     76  C   UNL     1       5.177  -5.627   4.108  1.00  0.00     0.128 A 
ATOM     77  C   UNL     1       7.898  -5.974   4.745  1.00  0.00     0.053 A 
ATOM     78  C   UNL     1       5.551  -5.976   5.403  1.00  0.00     0.049 A 
ATOM     79  C   UNL     1       6.902  -6.172   5.710  1.00  0.00     0.031 A 
BRANCH  76  80
ATOM     80  O   UNL     1       3.850  -5.518   3.800  1.00  0.00    -0.507 OA
ATOM     81  H   UNL     1       3.589  -5.283   2.932  1.00  0.00     0.293 HD
ENDBRANCH  76  80
BRANCH  77  82
ATOM     82  N   UNL     1       9.262  -6.227   5.035  1.00  0.00    -0.249 N 
ATOM     83  C   UNL     1       9.704  -7.240   5.846  1.00  0.00     0.236 C 
ATOM     84  C   UNL     1      10.298  -5.470   4.537  1.00  0.00     0.256 C 
ATOM     85  O   UNL     1       9.037  -8.057   6.470  1.00  0.00    -0.274 OA
ATOM     86  C   UNL     1      11.200  -7.301   5.798  1.00  0.00     0.136 C 
ATOM     87  C   UNL     1      11.617  -6.077   5.003  1.00  0.00     0.179 C 
ATOM     88  O   UNL     1      10.196  -4.420   3.914  1.00  0.00    -0.272 OA
BRANCH  87  89
ATOM     89  N   UNL     1      12.365  -5.159   5.878  1.00  0.00    -0.370 N 
ATOM     90  H   UNL     1      11.952  -4.747   6.671  1.00  0.00     0.161 HD
BRANCH  89  91
ATOM     91  C   UNL     1      13.699  -4.901   5.521  1.00  0.00     0.077 A 
ATOM     92  C   UNL     1      14.718  -5.184   6.434  1.00  0.00     0.029 A 
ATOM     93  C   UNL     1      14.039  -4.228   4.336  1.00  0.00     0.138 A 
ATOM     94  C   UNL     1      16.044  -4.835   6.154  1.00  0.00     0.002 A 
ATOM     95  C   UNL     1      15.355  -3.870   4.051  1.00  0.00     0.048 A 
ATOM     96  C   UNL     1      16.361  -4.178   4.965  1.00  0.00     0.004 A 
BRANCH  93  97
ATOM     97  O   UNL     1      13.043  -3.907   3.456  1.00  0.00    -0.506 OA
ATOM     98  H   UNL     1      12.157  -4.145   3.644  1.00  0.00     0.293 HD
ENDBRANCH  93  97
ENDBRANCH  89  91
ENDBRANCH  87  89
ENDBRANCH  77  82
ENDBRANCH  71  74
ENDBRANCH  69  70
ENDBRANCH   1  69
TORSDOF 18
