REMARK SMILES O=C(NCCCNC(=O)[C@@H]1Nc2c(cccc2C(F)(F)F)[C@@H]2C=CC[C@@H]12)c1ccc(-c2c3nc(c(-c4ccc(S(=O)(=O)[O-])cc4)c4ccc([nH]4)c(-c4ccc(S(=O)(=O)[O-])cc4)c4nc(c(-c5ccc(S(=O)(=O)[O-])cc5)c5ccc2[nH]5)C=C4)C=C3)cc1
REMARK SMILES IDX 4 1 3 2 1 3 2 4 27 6 28 7 86 8 29 9 85 10 30 11 31 12 32 13
REMARK SMILES IDX 79 14 33 15 84 16 78 17 80 18 34 19 83 20 77 21 76 22 35 24
REMARK SMILES IDX 65 25 46 26 64 27 47 28 50 29 63 30 81 31 48 32 49 33 62 35
REMARK SMILES IDX 82 36 51 37 36 38 37 39 45 40 38 41 44 42 39 43 40 44 41 45
REMARK SMILES IDX 42 46 43 47 66 48 67 49 75 50 68 51 74 52 69 53 70 54 71 55
REMARK SMILES IDX 72 56 73 57 52 58 53 59 61 60 54 61 60 62 55 63 56 64 57 65
REMARK SMILES IDX 58 66 59 67 5 68 6 69 7 70 8 71 9 73 10 74 11 75 26 76 12 77
REMARK SMILES IDX 22 79 25 80 13 81 17 82 23 83 24 84 14 85 16 86 15 87 18 88
REMARK SMILES IDX 19 89 20 90 21 91
REMARK H PARENT 3 5 80 23 50 34 7 72 11 78
REMARK Flexibility Score: inf
ROOT
ATOM      1  C   UNL     1       6.515  -7.862   1.748  1.00  0.00     0.118 C 
ENDROOT
BRANCH   1   2
ATOM      2  N   UNL     1       6.390  -9.306   1.845  1.00  0.00    -0.352 N 
ATOM      3  O   UNL     1       6.824 -11.381   2.556  1.00  0.00    -0.269 OA
ATOM      4  C   UNL     1       6.834 -10.174   2.807  1.00  0.00     0.251 C 
ATOM      5  H   UNL     1       5.908  -9.730   1.099  1.00  0.00     0.163 HD
BRANCH   4   6
ATOM      6  C   UNL     1       7.310  -9.706   4.131  1.00  0.00     0.039 A 
ATOM      7  C   UNL     1       8.314 -10.440   4.772  1.00  0.00     0.014 A 
ATOM      8  C   UNL     1       6.710  -8.634   4.800  1.00  0.00     0.014 A 
ATOM      9  C   UNL     1       8.704 -10.111   6.073  1.00  0.00     0.010 A 
ATOM     10  C   UNL     1       7.154  -8.257   6.069  1.00  0.00     0.010 A 
ATOM     11  C   UNL     1       8.123  -9.020   6.736  1.00  0.00    -0.014 A 
BRANCH  11  12
ATOM     12  C   UNL     1       8.438  -8.742   8.163  1.00  0.00     0.031 A 
ATOM     13  C   UNL     1       7.368  -8.925   9.211  1.00  0.00     0.074 A 
ATOM     14  C   UNL     1       9.675  -8.347   8.524  1.00  0.00     0.049 A 
ATOM     15  N   UNL     1       7.443  -8.740  10.504  1.00  0.00    -0.248 NA
ATOM     16  C   UNL     1       6.037  -9.357   8.748  1.00  0.00     0.031 C 
ATOM     17  C   UNL     1      10.794  -8.132   7.606  1.00  0.00     0.029 A 
ATOM     18  N   UNL     1      10.204  -8.076   9.762  1.00  0.00    -0.354 N 
ATOM     19  C   UNL     1       6.174  -9.018  11.001  1.00  0.00     0.074 A 
ATOM     20  C   UNL     1       5.333  -9.333   9.870  1.00  0.00     0.031 C 
ATOM     21  C   UNL     1      11.889  -7.814   8.317  1.00  0.00     0.029 A 
ATOM     22  C   UNL     1      11.544  -7.766   9.736  1.00  0.00     0.049 A 
ATOM     23  H   UNL     1       9.673  -8.101  10.591  1.00  0.00     0.167 HD
ATOM     24  C   UNL     1       5.753  -9.041  12.287  1.00  0.00     0.031 A 
ATOM     25  C   UNL     1      12.404  -7.494  10.739  1.00  0.00     0.031 A 
ATOM     26  C   UNL     1       6.603  -8.775  13.416  1.00  0.00     0.049 A 
ATOM     27  C   UNL     1      11.914  -7.532  12.162  1.00  0.00     0.074 A 
ATOM     28  C   UNL     1       6.273  -8.806  14.760  1.00  0.00     0.029 A 
ATOM     29  N   UNL     1       7.950  -8.459  13.339  1.00  0.00    -0.354 N 
ATOM     30  N   UNL     1      10.713  -7.812  12.610  1.00  0.00    -0.248 NA
ATOM     31  C   UNL     1      12.895  -7.237  13.216  1.00  0.00     0.031 C 
ATOM     32  C   UNL     1       7.410  -8.466  15.495  1.00  0.00     0.029 A 
ATOM     33  C   UNL     1       8.463  -8.287  14.612  1.00  0.00     0.049 A 
ATOM     34  H   UNL     1       8.464  -8.370  12.504  1.00  0.00     0.167 HD
ATOM     35  C   UNL     1      10.805  -7.766  13.997  1.00  0.00     0.074 A 
ATOM     36  C   UNL     1      12.178  -7.433  14.316  1.00  0.00     0.031 C 
ATOM     37  C   UNL     1       9.838  -7.984  14.920  1.00  0.00     0.031 A 
BRANCH  24  38
ATOM     38  C   UNL     1       4.317  -9.397  12.565  1.00  0.00    -0.014 A 
ATOM     39  C   UNL     1       3.447  -8.430  13.101  1.00  0.00     0.010 A 
ATOM     40  C   UNL     1       3.863 -10.720  12.417  1.00  0.00     0.010 A 
ATOM     41  C   UNL     1       2.162  -8.785  13.518  1.00  0.00     0.020 A 
ATOM     42  C   UNL     1       2.568 -11.073  12.806  1.00  0.00     0.020 A 
ATOM     43  C   UNL     1       1.736 -10.108  13.379  1.00  0.00     0.054 A 
BRANCH  43  44
ATOM     44  S   UNL     1       0.079 -10.561  13.962  1.00  0.00     0.124 S 
ATOM     45  O   UNL     1       0.266 -10.616  15.409  1.00  0.00    -0.237 OA
ATOM     46  O   UNL     1      -0.745  -9.459  13.472  1.00  0.00    -0.237 OA
ATOM     47  O   UNL     1      -0.171 -11.847  13.314  1.00  0.00    -0.744 OA
ENDBRANCH  43  44
ENDBRANCH  24  38
BRANCH  25  48
ATOM     48  C   UNL     1      13.837  -7.237  10.428  1.00  0.00    -0.014 A 
ATOM     49  C   UNL     1      14.230  -6.061   9.762  1.00  0.00     0.010 A 
ATOM     50  C   UNL     1      14.814  -8.197  10.751  1.00  0.00     0.010 A 
ATOM     51  C   UNL     1      15.564  -5.867   9.392  1.00  0.00     0.020 A 
ATOM     52  C   UNL     1      16.154  -7.994  10.407  1.00  0.00     0.020 A 
ATOM     53  C   UNL     1      16.516  -6.841   9.707  1.00  0.00     0.054 A 
BRANCH  53  54
ATOM     54  S   UNL     1      18.237  -6.581   9.195  1.00  0.00     0.124 S 
ATOM     55  O   UNL     1      18.180  -6.920   7.776  1.00  0.00    -0.237 OA
ATOM     56  O   UNL     1      18.451  -5.168   9.496  1.00  0.00    -0.237 OA
ATOM     57  O   UNL     1      18.987  -7.513  10.033  1.00  0.00    -0.744 OA
ENDBRANCH  53  54
ENDBRANCH  25  48
BRANCH  37  58
ATOM     58  C   UNL     1      10.207  -7.922  16.378  1.00  0.00    -0.014 A 
ATOM     59  C   UNL     1      10.175  -9.101  17.147  1.00  0.00     0.010 A 
ATOM     60  C   UNL     1      10.435  -6.691  17.017  1.00  0.00     0.010 A 
ATOM     61  C   UNL     1      10.331  -9.049  18.533  1.00  0.00     0.020 A 
ATOM     62  C   UNL     1      10.617  -6.639  18.402  1.00  0.00     0.020 A 
ATOM     63  C   UNL     1      10.538  -7.815  19.154  1.00  0.00     0.054 A 
BRANCH  63  64
ATOM     64  S   UNL     1      10.703  -7.758  20.959  1.00  0.00     0.124 S 
ATOM     65  O   UNL     1       9.313  -7.844  21.397  1.00  0.00    -0.237 OA
ATOM     66  O   UNL     1      11.527  -8.929  21.247  1.00  0.00    -0.237 OA
ATOM     67  O   UNL     1      11.355  -6.473  21.201  1.00  0.00    -0.744 OA
ENDBRANCH  63  64
ENDBRANCH  37  58
ENDBRANCH  11  12
ENDBRANCH   4   6
ENDBRANCH   1   2
BRANCH   1  68
ATOM     68  C   UNL     1       7.310  -7.439   0.517  1.00  0.00     0.042 C 
BRANCH  68  69
ATOM     69  C   UNL     1       6.614  -7.738  -0.809  1.00  0.00     0.117 C 
BRANCH  69  70
ATOM     70  N   UNL     1       5.400  -6.956  -0.970  1.00  0.00    -0.354 N 
ATOM     71  C   UNL     1       5.159  -5.827  -1.694  1.00  0.00     0.242 C 
ATOM     72  H   UNL     1       4.622  -7.299  -0.473  1.00  0.00     0.163 HD
ATOM     73  O   UNL     1       4.038  -5.317  -1.591  1.00  0.00    -0.273 OA
BRANCH  71  74
ATOM     74  C   UNL     1       6.215  -5.200  -2.622  1.00  0.00     0.173 C 
ATOM     75  N   UNL     1       6.678  -6.176  -3.628  1.00  0.00    -0.373 N 
ATOM     76  C   UNL     1       7.417  -4.637  -1.894  1.00  0.00     0.036 C 
ATOM     77  C   UNL     1       7.939  -6.112  -4.215  1.00  0.00     0.051 A 
ATOM     78  H   UNL     1       6.070  -6.903  -3.895  1.00  0.00     0.161 HD
ATOM     79  C   UNL     1       8.326  -3.985  -2.939  1.00  0.00     0.049 C 
ATOM     80  C   UNL     1       7.222  -3.556  -0.840  1.00  0.00     0.034 C 
ATOM     81  C   UNL     1       8.837  -5.063  -3.861  1.00  0.00    -0.017 A 
ATOM     82  C   UNL     1       8.371  -7.093  -5.127  1.00  0.00     0.079 A 
ATOM     83  C   UNL     1       9.231  -3.217  -2.022  1.00  0.00    -0.023 C 
ATOM     84  C   UNL     1       8.595  -2.939  -0.871  1.00  0.00    -0.030 C 
ATOM     85  C   UNL     1      10.108  -4.987  -4.445  1.00  0.00     0.006 A 
ATOM     86  C   UNL     1       9.663  -7.000  -5.685  1.00  0.00     0.015 A 
ATOM     87  C   UNL     1      10.521  -5.957  -5.349  1.00  0.00     0.001 A 
BRANCH  82  88
ATOM     88  C   UNL     1       7.515  -8.258  -5.561  1.00  0.00     0.418 C 
ATOM     89  F   UNL     1       7.242  -8.227  -6.898  1.00  0.00    -0.166 F 
ATOM     90  F   UNL     1       8.122  -9.460  -5.343  1.00  0.00    -0.166 F 
ATOM     91  F   UNL     1       6.300  -8.348  -4.945  1.00  0.00    -0.166 F 
ENDBRANCH  82  88
ENDBRANCH  71  74
ENDBRANCH  69  70
ENDBRANCH  68  69
ENDBRANCH   1  68
TORSDOF 14
