REMARK SMILES O=C(Cn1nc(C(=O)NCCCNC(=O)c2ccc(-c3c4nc(c(-c5ccc(S(=O)(=O)[O-])cc5)c5ccc([nH]5)c(-c5ccc(S(=O)(=O)[O-])cc5)c5nc(c(-c6ccc(S(=O)(=O)[O-])cc6)c6ccc3[nH]6)C=C5)C=C4)cc2)c2ccccc2c1=O)Nc1ccc2c(c1)C(=O)c1ccccc1C2=O
REMARK SMILES IDX 11 1 10 2 9 3 7 4 8 5 6 7 4 8 5 9 82 10 81 11 83 12 76 13
REMARK SMILES IDX 80 14 77 15 79 16 78 17 3 18 2 19 1 20 84 21 85 23 86 24
REMARK SMILES IDX 90 25 87 26 89 27 88 28 91 29 99 30 92 31 93 32 98 33 100 34
REMARK SMILES IDX 94 35 97 36 95 37 96 38 12 39 13 40 14 41 15 43 16 44 17 45
REMARK SMILES IDX 75 46 18 47 74 48 19 49 20 50 21 51 68 52 22 53 73 54 67 55
REMARK SMILES IDX 69 56 23 57 72 58 66 59 65 60 24 62 54 63 35 64 53 65 36 66
REMARK SMILES IDX 39 67 52 68 70 69 37 70 38 71 51 73 71 74 40 75 25 76 26 77
REMARK SMILES IDX 34 78 27 79 33 80 28 81 29 82 30 83 31 84 32 85 55 86 56 87
REMARK SMILES IDX 64 88 57 89 63 90 58 91 59 92 60 93 61 94 62 95 41 96 42 97
REMARK SMILES IDX 50 98 43 99 49 100 44 101 45 102 46 103 47 104 48 105
REMARK H PARENT 9 6 84 22 13 42 69 61 39 72
REMARK Flexibility Score: inf
ROOT
ATOM      1  C   UNL     1       0.135  -3.531   0.524  1.00  0.00     0.042 C 
ENDROOT
BRANCH   1   2
ATOM      2  C   UNL     1       0.831  -3.405   1.892  1.00  0.00     0.118 C 
BRANCH   2   3
ATOM      3  N   UNL     1       2.021  -4.237   2.011  1.00  0.00    -0.351 N 
ATOM      4  C   UNL     1       3.362  -3.941   2.069  1.00  0.00     0.272 C 
ATOM      5  O   UNL     1       4.164  -4.868   1.973  1.00  0.00    -0.267 OA
ATOM      6  H   UNL     1       1.826  -5.201   2.059  1.00  0.00     0.163 HD
BRANCH   4   7
ATOM      7  C   UNL     1       3.902  -2.514   2.272  1.00  0.00     0.156 A 
ATOM      8  N   UNL     1       3.734  -0.244   1.788  1.00  0.00    -0.219 N 
ATOM      9  N   UNL     1       3.263  -1.536   1.702  1.00  0.00    -0.163 NA
ATOM     10  C   UNL     1       4.885   0.111   2.477  1.00  0.00     0.275 A 
ATOM     11  C   UNL     1       5.641  -0.987   3.108  1.00  0.00     0.051 A 
ATOM     12  O   UNL     1       5.288   1.266   2.588  1.00  0.00    -0.267 OA
ATOM     13  C   UNL     1       5.159  -2.294   3.041  1.00  0.00     0.020 A 
ATOM     14  C   UNL     1       6.844  -0.698   3.775  1.00  0.00     0.014 A 
ATOM     15  C   UNL     1       5.891  -3.309   3.675  1.00  0.00     0.011 A 
ATOM     16  C   UNL     1       7.574  -1.718   4.378  1.00  0.00     0.001 A 
ATOM     17  C   UNL     1       7.095  -3.023   4.330  1.00  0.00     0.001 A 
BRANCH   8  18
ATOM     18  C   UNL     1       2.932   0.819   1.162  1.00  0.00     0.248 C 
BRANCH  18  19
ATOM     19  C   UNL     1       2.104   0.302  -0.009  1.00  0.00     0.246 C 
ATOM     20  O   UNL     1       1.050  -0.312   0.167  1.00  0.00    -0.273 OA
ATOM     21  N   UNL     1       2.703   0.455  -1.253  1.00  0.00    -0.324 N 
ATOM     22  H   UNL     1       3.176   1.295  -1.451  1.00  0.00     0.169 HD
BRANCH  21  23
ATOM     23  C   UNL     1       2.658  -0.547  -2.243  1.00  0.00     0.042 A 
ATOM     24  C   UNL     1       2.867  -0.238  -3.589  1.00  0.00     0.027 A 
ATOM     25  C   UNL     1       2.575  -1.884  -1.857  1.00  0.00     0.039 A 
ATOM     26  C   UNL     1       3.030  -1.266  -4.535  1.00  0.00     0.015 A 
ATOM     27  C   UNL     1       2.780  -2.900  -2.784  1.00  0.00     0.036 A 
ATOM     28  C   UNL     1       3.051  -2.600  -4.113  1.00  0.00     0.034 A 
ATOM     29  C   UNL     1       2.891  -4.281  -2.303  1.00  0.00     0.194 C 
ATOM     30  C   UNL     1       3.531  -3.684  -5.003  1.00  0.00     0.194 C 
ATOM     31  O   UNL     1       2.334  -4.676  -1.289  1.00  0.00    -0.289 OA
ATOM     32  C   UNL     1       3.784  -5.174  -3.029  1.00  0.00     0.034 A 
ATOM     33  C   UNL     1       4.096  -4.898  -4.357  1.00  0.00     0.034 A 
ATOM     34  O   UNL     1       3.554  -3.541  -6.215  1.00  0.00    -0.289 OA
ATOM     35  C   UNL     1       4.373  -6.237  -2.338  1.00  0.00     0.013 A 
ATOM     36  C   UNL     1       5.007  -5.721  -5.018  1.00  0.00     0.013 A 
ATOM     37  C   UNL     1       5.308  -7.030  -2.987  1.00  0.00     0.001 A 
ATOM     38  C   UNL     1       5.620  -6.775  -4.326  1.00  0.00     0.001 A 
ENDBRANCH  21  23
ENDBRANCH  18  19
ENDBRANCH   8  18
ENDBRANCH   4   7
ENDBRANCH   2   3
ENDBRANCH   1   2
BRANCH   1  39
ATOM     39  C   UNL     1      -0.385  -4.936   0.183  1.00  0.00     0.118 C 
BRANCH  39  40
ATOM     40  N   UNL     1      -1.759  -4.915  -0.299  1.00  0.00    -0.352 N 
ATOM     41  C   UNL     1      -2.371  -4.871  -1.524  1.00  0.00     0.251 C 
ATOM     42  H   UNL     1      -2.411  -4.940   0.438  1.00  0.00     0.163 HD
ATOM     43  O   UNL     1      -3.600  -4.742  -1.500  1.00  0.00    -0.269 OA
BRANCH  41  44
ATOM     44  C   UNL     1      -1.704  -4.943  -2.861  1.00  0.00     0.039 A 
ATOM     45  C   UNL     1      -0.572  -5.697  -3.176  1.00  0.00     0.014 A 
ATOM     46  C   UNL     1      -2.374  -4.305  -3.921  1.00  0.00     0.014 A 
ATOM     47  C   UNL     1      -0.089  -5.750  -4.508  1.00  0.00     0.010 A 
ATOM     48  C   UNL     1      -1.920  -4.394  -5.248  1.00  0.00     0.010 A 
ATOM     49  C   UNL     1      -0.747  -5.090  -5.564  1.00  0.00    -0.014 A 
BRANCH  49  50
ATOM     50  C   UNL     1      -0.222  -5.091  -6.973  1.00  0.00     0.031 A 
ATOM     51  C   UNL     1       0.202  -3.796  -7.639  1.00  0.00     0.074 A 
ATOM     52  C   UNL     1      -0.120  -6.227  -7.697  1.00  0.00     0.049 A 
ATOM     53  N   UNL     1       0.667  -3.603  -8.851  1.00  0.00    -0.248 NA
ATOM     54  C   UNL     1       0.075  -2.562  -6.848  1.00  0.00     0.031 C 
ATOM     55  C   UNL     1      -0.492  -7.563  -7.237  1.00  0.00     0.029 A 
ATOM     56  N   UNL     1       0.336  -6.437  -8.984  1.00  0.00    -0.354 N 
ATOM     57  C   UNL     1       0.927  -2.240  -8.950  1.00  0.00     0.074 A 
ATOM     58  C   UNL     1       0.483  -1.640  -7.710  1.00  0.00     0.031 C 
ATOM     59  C   UNL     1      -0.212  -8.454  -8.204  1.00  0.00     0.029 A 
ATOM     60  C   UNL     1       0.318  -7.756  -9.377  1.00  0.00     0.049 A 
ATOM     61  H   UNL     1       0.646  -5.708  -9.568  1.00  0.00     0.167 HD
ATOM     62  C   UNL     1       1.514  -1.544  -9.953  1.00  0.00     0.031 A 
ATOM     63  C   UNL     1       0.676  -8.353 -10.537  1.00  0.00     0.031 A 
ATOM     64  C   UNL     1       1.974  -2.101 -11.198  1.00  0.00     0.049 A 
ATOM     65  C   UNL     1       1.216  -7.545 -11.689  1.00  0.00     0.074 A 
ATOM     66  C   UNL     1       2.607  -1.446 -12.242  1.00  0.00     0.029 A 
ATOM     67  N   UNL     1       1.857  -3.427 -11.573  1.00  0.00    -0.354 N 
ATOM     68  N   UNL     1       1.478  -6.263 -11.743  1.00  0.00    -0.248 NA
ATOM     69  C   UNL     1       1.505  -8.266 -12.942  1.00  0.00     0.031 C 
ATOM     70  C   UNL     1       2.815  -2.362 -13.276  1.00  0.00     0.029 A 
ATOM     71  C   UNL     1       2.366  -3.601 -12.851  1.00  0.00     0.049 A 
ATOM     72  H   UNL     1       1.470  -4.141 -11.016  1.00  0.00     0.167 HD
ATOM     73  C   UNL     1       1.974  -6.027 -13.023  1.00  0.00     0.074 A 
ATOM     74  C   UNL     1       1.989  -7.298 -13.712  1.00  0.00     0.031 C 
ATOM     75  C   UNL     1       2.381  -4.853 -13.564  1.00  0.00     0.031 A 
BRANCH  62  76
ATOM     76  C   UNL     1       1.746  -0.071  -9.743  1.00  0.00    -0.014 A 
ATOM     77  C   UNL     1       1.016   0.874 -10.486  1.00  0.00     0.010 A 
ATOM     78  C   UNL     1       2.785   0.366  -8.903  1.00  0.00     0.010 A 
ATOM     79  C   UNL     1       1.335   2.232 -10.409  1.00  0.00     0.020 A 
ATOM     80  C   UNL     1       3.092   1.724  -8.806  1.00  0.00     0.020 A 
ATOM     81  C   UNL     1       2.378   2.647  -9.575  1.00  0.00     0.054 A 
BRANCH  81  82
ATOM     82  S   UNL     1       2.792   4.411  -9.494  1.00  0.00     0.124 S 
ATOM     83  O   UNL     1       3.533   4.613 -10.735  1.00  0.00    -0.237 OA
ATOM     84  O   UNL     1       1.478   5.047  -9.430  1.00  0.00    -0.237 OA
ATOM     85  O   UNL     1       3.582   4.517  -8.268  1.00  0.00    -0.744 OA
ENDBRANCH  81  82
ENDBRANCH  62  76
BRANCH  63  86
ATOM     86  C   UNL     1       0.550  -9.834 -10.658  1.00  0.00    -0.014 A 
ATOM     87  C   UNL     1      -0.718 -10.440 -10.717  1.00  0.00     0.010 A 
ATOM     88  C   UNL     1       1.697 -10.647 -10.657  1.00  0.00     0.010 A 
ATOM     89  C   UNL     1      -0.840 -11.832 -10.710  1.00  0.00     0.020 A 
ATOM     90  C   UNL     1       1.580 -12.041 -10.677  1.00  0.00     0.020 A 
ATOM     91  C   UNL     1       0.310 -12.623 -10.669  1.00  0.00     0.054 A 
BRANCH  91  92
ATOM     92  S   UNL     1       0.131 -14.428 -10.594  1.00  0.00     0.124 S 
ATOM     93  O   UNL     1      -0.164 -14.639  -9.179  1.00  0.00    -0.237 OA
ATOM     94  O   UNL     1      -0.976 -14.682 -11.512  1.00  0.00    -0.237 OA
ATOM     95  O   UNL     1       1.432 -14.918 -11.042  1.00  0.00    -0.744 OA
ENDBRANCH  91  92
ENDBRANCH  63  86
BRANCH  75  96
ATOM     96  C   UNL     1       2.880  -4.837 -14.988  1.00  0.00    -0.014 A 
ATOM     97  C   UNL     1       4.238  -4.573 -15.254  1.00  0.00     0.010 A 
ATOM     98  C   UNL     1       1.984  -4.939 -16.067  1.00  0.00     0.010 A 
ATOM     99  C   UNL     1       4.683  -4.372 -16.565  1.00  0.00     0.020 A 
ATOM    100  C   UNL     1       2.430  -4.763 -17.382  1.00  0.00     0.020 A 
ATOM    101  C   UNL     1       3.772  -4.455 -17.621  1.00  0.00     0.054 A 
BRANCH 101 102
ATOM    102  S   UNL     1       4.356  -4.152 -19.313  1.00  0.00     0.124 S 
ATOM    103  O   UNL     1       4.443  -2.696 -19.355  1.00  0.00    -0.237 OA
ATOM    104  O   UNL     1       5.634  -4.860 -19.346  1.00  0.00    -0.237 OA
ATOM    105  O   UNL     1       3.309  -4.739 -20.147  1.00  0.00    -0.744 OA
ENDBRANCH 101 102
ENDBRANCH  75  96
ENDBRANCH  49  50
ENDBRANCH  41  44
ENDBRANCH  39  40
ENDBRANCH   1  39
TORSDOF 16
