REMARK SMILES Cc1nc2cc(S(=O)(=O)N3CCC(C(=O)NCCCNC(=O)c4ccc(-c5c6nc(c(-c7ccc(S(=O)(=O)[O-])cc7)c7ccc([nH]7)c(-c7ccc(S(=O)(=O)[O-])cc7)c7nc(c(-c8ccc(S(=O)(=O)[O-])cc8)c8ccc5[nH]8)C=C7)C=C6)cc4)CC3)ccc2n1C1CCCC1
REMARK SMILES IDX 18 1 17 2 16 3 14 4 15 5 13 7 10 8 11 9 84 10 12 11 83 12
REMARK SMILES IDX 7 13 8 14 9 15 6 16 1 17 2 18 3 19 88 20 4 21 87 22 5 23
REMARK SMILES IDX 86 24 85 25 89 26 90 27 93 28 91 29 92 30 19 31 20 32 21 33
REMARK SMILES IDX 22 35 23 36 24 37 82 38 25 39 81 40 26 41 27 42 28 43 75 44
REMARK SMILES IDX 29 45 80 46 74 47 76 48 30 49 79 50 73 51 72 52 31 54 61 55
REMARK SMILES IDX 42 56 60 57 43 58 46 59 59 60 77 61 44 62 45 63 58 65 78 66
REMARK SMILES IDX 47 67 32 68 33 69 41 70 34 71 40 72 35 73 36 74 37 75 38 76
REMARK SMILES IDX 39 77 62 78 63 79 71 80 64 81 70 82 65 83 66 84 67 85 68 86
REMARK SMILES IDX 69 87 48 88 49 89 57 90 50 91 56 92 51 93 52 94 53 95 54 96
REMARK SMILES IDX 55 97
REMARK H PARENT 16 6 20 34 76 53 46 64
REMARK Flexibility Score: inf
ROOT
ATOM      1  C   UNL     1      -1.661  12.492   4.870  1.00  0.00     0.042 C 
ENDROOT
BRANCH   1   2
ATOM      2  C   UNL     1      -1.983  12.075   3.438  1.00  0.00     0.117 C 
BRANCH   2   3
ATOM      3  N   UNL     1      -0.902  12.400   2.510  1.00  0.00    -0.356 N 
ATOM      4  C   UNL     1      -0.075  11.608   1.777  1.00  0.00     0.223 C 
ATOM      5  O   UNL     1       0.783  12.150   1.077  1.00  0.00    -0.275 OA
ATOM      6  H   UNL     1      -0.744  13.365   2.396  1.00  0.00     0.163 HD
BRANCH   4   7
ATOM      7  C   UNL     1      -0.212  10.097   1.796  1.00  0.00     0.081 C 
ATOM      8  N   UNL     1      -1.548   7.718   2.739  1.00  0.00    -0.198 NA
ATOM      9  C   UNL     1      -0.248   8.080   3.345  1.00  0.00     0.103 C 
ATOM     10  C   UNL     1      -1.910   8.235   1.402  1.00  0.00     0.103 C 
ATOM     11  C   UNL     1       0.086   9.545   3.185  1.00  0.00     0.030 C 
ATOM     12  C   UNL     1      -1.558   9.691   1.204  1.00  0.00     0.030 C 
BRANCH   8  13
ATOM     13  S   UNL     1      -2.060   6.098   3.044  1.00  0.00     0.243 S 
ATOM     14  O   UNL     1      -3.385   5.953   2.496  1.00  0.00    -0.207 OA
ATOM     15  O   UNL     1      -1.718   5.790   4.418  1.00  0.00    -0.207 OA
BRANCH  13  16
ATOM     16  C   UNL     1      -1.000   5.062   2.047  1.00  0.00     0.085 A 
ATOM     17  C   UNL     1       1.006  -0.166  -0.038  1.00  0.00     0.088 C 
ATOM     18  C   UNL     1       0.601   1.204   0.357  1.00  0.00     0.106 A 
ATOM     19  N   UNL     1      -0.373   1.486   1.200  1.00  0.00    -0.233 NA
ATOM     20  N   UNL     1       1.198   2.356  -0.108  1.00  0.00    -0.325 N 
ATOM     21  C   UNL     1      -0.390   2.850   1.325  1.00  0.00     0.090 A 
ATOM     22  C   UNL     1       0.596   3.418   0.526  1.00  0.00     0.068 A 
ATOM     23  C   UNL     1      -1.213   3.675   2.107  1.00  0.00     0.052 A 
ATOM     24  C   UNL     1       0.827   4.789   0.473  1.00  0.00     0.030 A 
ATOM     25  C   UNL     1       0.005   5.596   1.241  1.00  0.00     0.024 A 
BRANCH  20  26
ATOM     26  C   UNL     1       2.280   2.456  -1.070  1.00  0.00     0.089 C 
ATOM     27  C   UNL     1       1.968   3.325  -2.294  1.00  0.00     0.025 C 
ATOM     28  C   UNL     1       3.568   3.051  -0.491  1.00  0.00     0.025 C 
ATOM     29  C   UNL     1       3.333   3.702  -2.848  1.00  0.00     0.002 C 
ATOM     30  C   UNL     1       4.302   3.682  -1.669  1.00  0.00     0.002 C 
ENDBRANCH  20  26
ENDBRANCH  13  16
ENDBRANCH   8  13
ENDBRANCH   4   7
ENDBRANCH   2   3
ENDBRANCH   1   2
BRANCH   1  31
ATOM     31  C   UNL     1      -1.397  13.986   5.016  1.00  0.00     0.118 C 
BRANCH  31  32
ATOM     32  N   UNL     1      -2.472  14.817   4.519  1.00  0.00    -0.352 N 
ATOM     33  C   UNL     1      -3.624  15.313   5.054  1.00  0.00     0.251 C 
ATOM     34  H   UNL     1      -2.342  15.085   3.580  1.00  0.00     0.163 HD
ATOM     35  O   UNL     1      -4.250  16.099   4.338  1.00  0.00    -0.269 OA
BRANCH  33  36
ATOM     36  C   UNL     1      -4.203  14.910   6.363  1.00  0.00     0.039 A 
ATOM     37  C   UNL     1      -3.626  14.029   7.280  1.00  0.00     0.014 A 
ATOM     38  C   UNL     1      -5.499  15.395   6.615  1.00  0.00     0.014 A 
ATOM     39  C   UNL     1      -4.386  13.508   8.321  1.00  0.00     0.010 A 
ATOM     40  C   UNL     1      -6.249  14.907   7.671  1.00  0.00     0.010 A 
ATOM     41  C   UNL     1      -5.717  13.899   8.466  1.00  0.00    -0.014 A 
BRANCH  41  42
ATOM     42  C   UNL     1      -6.527  13.258   9.492  1.00  0.00     0.031 A 
ATOM     43  C   UNL     1      -6.082  13.505  10.895  1.00  0.00     0.074 A 
ATOM     44  C   UNL     1      -7.656  12.586   9.180  1.00  0.00     0.049 A 
ATOM     45  N   UNL     1      -5.754  12.641  11.797  1.00  0.00    -0.248 NA
ATOM     46  C   UNL     1      -5.866  14.903  11.307  1.00  0.00     0.031 C 
ATOM     47  C   UNL     1      -8.339  12.489   7.884  1.00  0.00     0.029 A 
ATOM     48  N   UNL     1      -8.505  11.925  10.008  1.00  0.00    -0.354 N 
ATOM     49  C   UNL     1      -5.432  13.367  12.944  1.00  0.00     0.074 A 
ATOM     50  C   UNL     1      -5.411  14.753  12.552  1.00  0.00     0.031 C 
ATOM     51  C   UNL     1      -9.605  12.047   8.074  1.00  0.00     0.029 A 
ATOM     52  C   UNL     1      -9.763  11.675   9.469  1.00  0.00     0.049 A 
ATOM     53  H   UNL     1      -8.251  11.645  10.917  1.00  0.00     0.167 HD
ATOM     54  C   UNL     1      -5.342  12.790  14.176  1.00  0.00     0.031 A 
ATOM     55  C   UNL     1     -10.863  11.249  10.144  1.00  0.00     0.031 A 
ATOM     56  C   UNL     1      -5.216  11.363  14.084  1.00  0.00     0.049 A 
ATOM     57  C   UNL     1     -10.371  10.634  11.404  1.00  0.00     0.074 A 
ATOM     58  C   UNL     1      -4.234  10.513  13.620  1.00  0.00     0.029 A 
ATOM     59  N   UNL     1      -6.365  10.614  14.159  1.00  0.00    -0.354 N 
ATOM     60  N   UNL     1      -9.636   9.557  11.437  1.00  0.00    -0.248 NA
ATOM     61  C   UNL     1     -10.292  11.488  12.580  1.00  0.00     0.031 C 
ATOM     62  C   UNL     1      -4.943   9.465  12.970  1.00  0.00     0.029 A 
ATOM     63  C   UNL     1      -6.311   9.690  13.147  1.00  0.00     0.049 A 
ATOM     64  H   UNL     1      -7.091  10.721  14.816  1.00  0.00     0.167 HD
ATOM     65  C   UNL     1      -8.695   9.802  12.427  1.00  0.00     0.074 A 
ATOM     66  C   UNL     1      -9.191  10.981  13.139  1.00  0.00     0.031 C 
ATOM     67  C   UNL     1      -7.465   9.210  12.412  1.00  0.00     0.031 A 
BRANCH  54  68
ATOM     68  C   UNL     1      -5.635  13.489  15.478  1.00  0.00    -0.014 A 
ATOM     69  C   UNL     1      -6.301  14.728  15.552  1.00  0.00     0.010 A 
ATOM     70  C   UNL     1      -5.465  12.784  16.689  1.00  0.00     0.010 A 
ATOM     71  C   UNL     1      -6.769  15.246  16.763  1.00  0.00     0.020 A 
ATOM     72  C   UNL     1      -5.965  13.275  17.904  1.00  0.00     0.020 A 
ATOM     73  C   UNL     1      -6.612  14.508  17.931  1.00  0.00     0.054 A 
BRANCH  73  74
ATOM     74  S   UNL     1      -7.330  15.161  19.459  1.00  0.00     0.124 S 
ATOM     75  O   UNL     1      -6.504  16.342  19.697  1.00  0.00    -0.237 OA
ATOM     76  O   UNL     1      -8.711  15.427  19.067  1.00  0.00    -0.237 OA
ATOM     77  O   UNL     1      -7.153  14.072  20.416  1.00  0.00    -0.744 OA
ENDBRANCH  73  74
ENDBRANCH  54  68
BRANCH  55  78
ATOM     78  C   UNL     1     -12.243  11.805  10.034  1.00  0.00    -0.014 A 
ATOM     79  C   UNL     1     -12.426  13.143   9.629  1.00  0.00     0.010 A 
ATOM     80  C   UNL     1     -13.337  11.150  10.636  1.00  0.00     0.010 A 
ATOM     81  C   UNL     1     -13.618  13.830   9.891  1.00  0.00     0.020 A 
ATOM     82  C   UNL     1     -14.540  11.833  10.899  1.00  0.00     0.020 A 
ATOM     83  C   UNL     1     -14.656  13.182  10.560  1.00  0.00     0.054 A 
BRANCH  83  84
ATOM     84  S   UNL     1     -16.102  14.165  11.060  1.00  0.00     0.124 S 
ATOM     85  O   UNL     1     -15.528  15.061  12.061  1.00  0.00    -0.237 OA
ATOM     86  O   UNL     1     -16.502  14.801   9.807  1.00  0.00    -0.237 OA
ATOM     87  O   UNL     1     -17.038  13.170  11.576  1.00  0.00    -0.744 OA
ENDBRANCH  83  84
ENDBRANCH  55  78
BRANCH  67  88
ATOM     88  C   UNL     1      -7.173   8.132  11.387  1.00  0.00    -0.014 A 
ATOM     89  C   UNL     1      -6.662   6.915  11.873  1.00  0.00     0.010 A 
ATOM     90  C   UNL     1      -7.124   8.375   9.998  1.00  0.00     0.010 A 
ATOM     91  C   UNL     1      -6.054   5.998  11.015  1.00  0.00     0.020 A 
ATOM     92  C   UNL     1      -6.536   7.442   9.126  1.00  0.00     0.020 A 
ATOM     93  C   UNL     1      -5.974   6.275   9.650  1.00  0.00     0.054 A 
BRANCH  93  94
ATOM     94  S   UNL     1      -5.073   5.103   8.600  1.00  0.00     0.124 S 
ATOM     95  O   UNL     1      -3.689   5.331   9.011  1.00  0.00    -0.237 OA
ATOM     96  O   UNL     1      -5.637   3.815   9.002  1.00  0.00    -0.237 OA
ATOM     97  O   UNL     1      -5.404   5.527   7.243  1.00  0.00    -0.744 OA
ENDBRANCH  93  94
ENDBRANCH  67  88
ENDBRANCH  41  42
ENDBRANCH  33  36
ENDBRANCH  31  32
ENDBRANCH   1  31
TORSDOF 16
