REMARK SMILES O=C(NCCCNC(=O)[C@@H]1[C@H](C(=O)Nc2ccccc2OC(F)F)[C@@H]2C=C[C@H]1C2)c1ccc(-c2c3nc(c(-c4ccc(S(=O)(=O)[O-])cc4)c4ccc([nH]4)c(-c4ccc(S(=O)(=O)[O-])cc4)c4nc(c(-c5ccc(S(=O)(=O)[O-])cc5)c5ccc2[nH]5)C=C4)C=C3)cc1
REMARK SMILES IDX 5 1 4 2 3 3 1 4 2 5 30 7 31 8 89 9 32 10 88 11 33 12 34 13
REMARK SMILES IDX 35 14 82 15 36 16 87 17 81 18 83 19 37 20 86 21 80 22 79 23
REMARK SMILES IDX 38 25 68 26 49 27 67 28 50 29 53 30 66 31 84 32 51 33 52 34
REMARK SMILES IDX 65 36 85 37 54 38 39 39 40 40 48 41 41 42 47 43 42 44 43 45
REMARK SMILES IDX 44 46 45 47 46 48 69 49 70 50 78 51 71 52 77 53 72 54 73 55
REMARK SMILES IDX 74 56 75 57 76 58 55 59 56 60 64 61 57 62 63 63 58 64 59 65
REMARK SMILES IDX 60 66 61 67 62 68 6 69 7 70 8 71 9 73 10 74 11 75 28 76
REMARK SMILES IDX 25 77 27 78 29 79 26 80 12 81 13 82 14 83 15 85 16 86 20 87
REMARK SMILES IDX 17 88 19 89 18 90 21 91 22 92 23 93 24 94
REMARK H PARENT 3 6 83 24 53 35 7 72 14 84
REMARK Flexibility Score: inf
ROOT
ATOM      1  C   UNL     1       5.955   1.796   0.466  1.00  0.00     0.042 C 
ENDROOT
BRANCH   1   2
ATOM      2  C   UNL     1       5.218   0.510   0.848  1.00  0.00     0.118 C 
BRANCH   2   3
ATOM      3  N   UNL     1       3.753   0.633   0.830  1.00  0.00    -0.352 N 
ATOM      4  O   UNL     1       1.658   0.495  -0.016  1.00  0.00    -0.269 OA
ATOM      5  C   UNL     1       2.814   0.082  -0.013  1.00  0.00     0.251 C 
ATOM      6  H   UNL     1       3.381   1.205   1.540  1.00  0.00     0.163 HD
BRANCH   5   7
ATOM      7  C   UNL     1       3.224  -1.032  -0.882  1.00  0.00     0.039 A 
ATOM      8  C   UNL     1       4.081  -1.990  -0.347  1.00  0.00     0.014 A 
ATOM      9  C   UNL     1       2.804  -1.116  -2.211  1.00  0.00     0.014 A 
ATOM     10  C   UNL     1       4.720  -2.872  -1.190  1.00  0.00     0.010 A 
ATOM     11  C   UNL     1       3.333  -2.119  -3.030  1.00  0.00     0.010 A 
ATOM     12  C   UNL     1       4.328  -2.975  -2.533  1.00  0.00    -0.014 A 
BRANCH  12  13
ATOM     13  C   UNL     1       4.936  -4.062  -3.334  1.00  0.00     0.031 A 
ATOM     14  C   UNL     1       5.776  -3.770  -4.543  1.00  0.00     0.074 A 
ATOM     15  C   UNL     1       4.785  -5.324  -2.880  1.00  0.00     0.049 A 
ATOM     16  N   UNL     1       6.412  -4.616  -5.311  1.00  0.00    -0.248 NA
ATOM     17  C   UNL     1       5.920  -2.364  -4.954  1.00  0.00     0.031 C 
ATOM     18  C   UNL     1       3.986  -5.706  -1.706  1.00  0.00     0.029 A 
ATOM     19  N   UNL     1       5.322  -6.507  -3.307  1.00  0.00    -0.354 N 
ATOM     20  C   UNL     1       6.995  -3.855  -6.317  1.00  0.00     0.074 A 
ATOM     21  C   UNL     1       6.643  -2.475  -6.063  1.00  0.00     0.031 C 
ATOM     22  C   UNL     1       4.152  -7.011  -1.463  1.00  0.00     0.029 A 
ATOM     23  C   UNL     1       4.973  -7.580  -2.521  1.00  0.00     0.049 A 
ATOM     24  H   UNL     1       5.902  -6.583  -4.099  1.00  0.00     0.167 HD
ATOM     25  C   UNL     1       7.746  -4.281  -7.360  1.00  0.00     0.031 A 
ATOM     26  C   UNL     1       5.241  -8.890  -2.657  1.00  0.00     0.031 A 
ATOM     27  C   UNL     1       8.107  -5.659  -7.576  1.00  0.00     0.049 A 
ATOM     28  C   UNL     1       6.054  -9.327  -3.836  1.00  0.00     0.074 A 
ATOM     29  C   UNL     1       8.912  -6.188  -8.570  1.00  0.00     0.029 A 
ATOM     30  N   UNL     1       7.682  -6.723  -6.796  1.00  0.00    -0.354 N 
ATOM     31  N   UNL     1       6.625  -8.586  -4.755  1.00  0.00    -0.248 NA
ATOM     32  C   UNL     1       6.240 -10.771  -4.012  1.00  0.00     0.031 C 
ATOM     33  C   UNL     1       8.924  -7.578  -8.427  1.00  0.00     0.029 A 
ATOM     34  C   UNL     1       8.171  -7.911  -7.312  1.00  0.00     0.049 A 
ATOM     35  H   UNL     1       7.117  -6.646  -5.994  1.00  0.00     0.167 HD
ATOM     36  C   UNL     1       7.228  -9.477  -5.630  1.00  0.00     0.074 A 
ATOM     37  C   UNL     1       6.989 -10.807  -5.105  1.00  0.00     0.031 C 
ATOM     38  C   UNL     1       7.903  -9.220  -6.776  1.00  0.00     0.031 A 
BRANCH  25  39
ATOM     39  C   UNL     1       8.201  -3.271  -8.378  1.00  0.00    -0.014 A 
ATOM     40  C   UNL     1       9.267  -2.393  -8.118  1.00  0.00     0.010 A 
ATOM     41  C   UNL     1       7.622  -3.285  -9.662  1.00  0.00     0.010 A 
ATOM     42  C   UNL     1       9.743  -1.544  -9.124  1.00  0.00     0.020 A 
ATOM     43  C   UNL     1       8.107  -2.452 -10.674  1.00  0.00     0.020 A 
ATOM     44  C   UNL     1       9.163  -1.583 -10.397  1.00  0.00     0.054 A 
BRANCH  44  45
ATOM     45  S   UNL     1       9.851  -0.525 -11.702  1.00  0.00     0.124 S 
ATOM     46  O   UNL     1       9.394   0.799 -11.287  1.00  0.00    -0.237 OA
ATOM     47  O   UNL     1      11.287  -0.759 -11.579  1.00  0.00    -0.237 OA
ATOM     48  O   UNL     1       9.240  -1.040 -12.925  1.00  0.00    -0.744 OA
ENDBRANCH  44  45
ENDBRANCH  25  39
BRANCH  26  49
ATOM     49  C   UNL     1       4.648  -9.870  -1.709  1.00  0.00    -0.014 A 
ATOM     50  C   UNL     1       5.452 -10.615  -0.833  1.00  0.00     0.010 A 
ATOM     51  C   UNL     1       3.250 -10.045  -1.673  1.00  0.00     0.010 A 
ATOM     52  C   UNL     1       4.871 -11.533   0.047  1.00  0.00     0.020 A 
ATOM     53  C   UNL     1       2.664 -10.933  -0.772  1.00  0.00     0.020 A 
ATOM     54  C   UNL     1       3.481 -11.687   0.070  1.00  0.00     0.054 A 
BRANCH  54  55
ATOM     55  S   UNL     1       2.740 -12.857   1.240  1.00  0.00     0.124 S 
ATOM     56  O   UNL     1       2.979 -14.135   0.578  1.00  0.00    -0.237 OA
ATOM     57  O   UNL     1       3.509 -12.620   2.459  1.00  0.00    -0.237 OA
ATOM     58  O   UNL     1       1.342 -12.434   1.304  1.00  0.00    -0.744 OA
ENDBRANCH  54  55
ENDBRANCH  26  49
BRANCH  38  59
ATOM     59  C   UNL     1       8.420 -10.408  -7.534  1.00  0.00    -0.014 A 
ATOM     60  C   UNL     1       7.542 -11.226  -8.267  1.00  0.00     0.010 A 
ATOM     61  C   UNL     1       9.798 -10.687  -7.545  1.00  0.00     0.010 A 
ATOM     62  C   UNL     1       8.032 -12.322  -8.977  1.00  0.00     0.020 A 
ATOM     63  C   UNL     1      10.294 -11.767  -8.276  1.00  0.00     0.020 A 
ATOM     64  C   UNL     1       9.405 -12.585  -8.977  1.00  0.00     0.054 A 
BRANCH  64  65
ATOM     65  S   UNL     1      10.022 -13.989  -9.945  1.00  0.00     0.124 S 
ATOM     66  O   UNL     1       9.621 -15.125  -9.120  1.00  0.00    -0.237 OA
ATOM     67  O   UNL     1       9.306 -13.846 -11.210  1.00  0.00    -0.237 OA
ATOM     68  O   UNL     1      11.461 -13.750 -10.020  1.00  0.00    -0.744 OA
ENDBRANCH  64  65
ENDBRANCH  38  59
ENDBRANCH  12  13
ENDBRANCH   5   7
ENDBRANCH   2   3
ENDBRANCH   1   2
BRANCH   1  69
ATOM     69  C   UNL     1       5.615   2.928   1.412  1.00  0.00     0.117 C 
BRANCH  69  70
ATOM     70  N   UNL     1       6.688   3.400   2.256  1.00  0.00    -0.356 N 
ATOM     71  C   UNL     1       6.534   4.508   3.055  1.00  0.00     0.224 C 
ATOM     72  H   UNL     1       7.547   2.919   2.259  1.00  0.00     0.163 HD
ATOM     73  O   UNL     1       6.744   4.366   4.263  1.00  0.00    -0.275 OA
BRANCH  71  74
ATOM     74  C   UNL     1       6.365   5.891   2.446  1.00  0.00     0.098 C 
ATOM     75  C   UNL     1       5.531   7.062   3.064  1.00  0.00     0.099 C 
ATOM     76  C   UNL     1       6.299   6.166   0.922  1.00  0.00     0.025 C 
ATOM     77  C   UNL     1       5.227   7.938   1.807  1.00  0.00     0.025 C 
ATOM     78  C   UNL     1       4.887   6.173   0.386  1.00  0.00    -0.027 C 
ATOM     79  C   UNL     1       6.486   7.700   0.951  1.00  0.00     0.017 C 
ATOM     80  C   UNL     1       4.256   7.236   0.900  1.00  0.00    -0.027 C 
BRANCH  75  81
ATOM     81  C   UNL     1       4.404   7.125   4.120  1.00  0.00     0.229 C 
ATOM     82  O   UNL     1       4.645   7.746   5.172  1.00  0.00    -0.274 OA
ATOM     83  N   UNL     1       3.086   6.824   3.941  1.00  0.00    -0.323 N 
ATOM     84  H   UNL     1       2.486   7.340   4.528  1.00  0.00     0.170 HD
BRANCH  83  85
ATOM     85  C   UNL     1       2.406   5.939   3.101  1.00  0.00     0.084 A 
ATOM     86  C   UNL     1       1.156   6.321   2.594  1.00  0.00     0.030 A 
ATOM     87  C   UNL     1       2.885   4.679   2.789  1.00  0.00     0.149 A 
ATOM     88  C   UNL     1       0.513   5.544   1.623  1.00  0.00     0.002 A 
ATOM     89  C   UNL     1       2.283   3.942   1.766  1.00  0.00     0.049 A 
ATOM     90  C   UNL     1       1.107   4.376   1.168  1.00  0.00     0.004 A 
BRANCH  87  91
ATOM     91  O   UNL     1       3.919   4.104   3.454  1.00  0.00    -0.433 OA
BRANCH  91  92
ATOM     92  C   UNL     1       3.703   3.838   4.845  1.00  0.00     0.542 C 
ATOM     93  F   UNL     1       4.188   4.856   5.588  1.00  0.00    -0.167 F 
ATOM     94  F   UNL     1       2.383   3.712   5.123  1.00  0.00    -0.167 F 
ENDBRANCH  91  92
ENDBRANCH  87  91
ENDBRANCH  83  85
ENDBRANCH  75  81
ENDBRANCH  71  74
ENDBRANCH  69  70
ENDBRANCH   1  69
TORSDOF 17
