REMARK SMILES Cc1cccc(C[N@@H+](C)C[C@]2(C(=O)NCCCNC(=O)c3ccc(-c4c5nc(c(-c6ccc(S(=O)(=O)[O-])cc6)c6ccc([nH]6)c(-c6ccc(S(=O)(=O)[O-])cc6)c6nc(c(-c7ccc(S(=O)(=O)[O-])cc7)c7ccc4[nH]7)C=C6)C=C5)cc3)CCC[C@H](C)C2)n1
REMARK SMILES IDX 15 1 14 2 12 3 13 4 11 6 81 7 86 8 82 9 84 10 83 11 85 12
REMARK SMILES IDX 10 13 8 14 9 15 7 17 6 18 1 19 2 20 3 21 87 22 4 23 5 24
REMARK SMILES IDX 16 25 17 26 18 27 19 28 20 30 21 31 22 32 80 33 23 34 79 35
REMARK SMILES IDX 24 36 25 37 26 38 73 39 27 40 78 41 72 42 74 43 28 44 77 45
REMARK SMILES IDX 71 46 70 47 29 49 59 50 40 51 58 52 41 53 44 54 57 55 75 56
REMARK SMILES IDX 42 57 43 58 56 60 76 61 45 62 30 63 31 64 39 65 32 66 38 67
REMARK SMILES IDX 33 68 34 69 35 70 36 71 37 72 60 73 61 74 69 75 62 76 68 77
REMARK SMILES IDX 63 78 64 79 65 80 66 81 67 82 46 83 47 84 55 85 48 86 54 87
REMARK SMILES IDX 49 88 50 89 51 90 52 91 53 92
REMARK H PARENT 14 5 8 16 18 29 74 48 44 59
REMARK Flexibility Score: inf
ROOT
ATOM      1  C   UNL     1       0.630   4.442   1.124  1.00  0.00     0.117 C 
ENDROOT
BRANCH   1   2
ATOM      2  N   UNL     1       1.194   3.529   2.096  1.00  0.00    -0.355 N 
ATOM      3  C   UNL     1       0.584   2.785   3.058  1.00  0.00     0.231 C 
ATOM      4  O   UNL     1       1.268   1.867   3.530  1.00  0.00    -0.274 OA
ATOM      5  H   UNL     1       2.172   3.432   2.054  1.00  0.00     0.163 HD
BRANCH   3   6
ATOM      6  C   UNL     1      -0.860   3.063   3.569  1.00  0.00     0.098 C 
ATOM      7  C   UNL     1      -1.073   2.221   4.878  1.00  0.00     0.023 C 
ATOM      8  C   UNL     1      -1.087   4.545   3.967  1.00  0.00     0.026 C 
ATOM      9  C   UNL     1      -0.243   2.686   6.079  1.00  0.00     0.002 C 
ATOM     10  C   UNL     1      -0.187   5.016   5.125  1.00  0.00    -0.013 C 
ATOM     11  C   UNL     1      -0.435   4.167   6.372  1.00  0.00     0.003 C 
ATOM     12  C   UNL     1      -0.429   6.495   5.429  1.00  0.00     0.007 C 
BRANCH   6  13
ATOM     13  C   UNL     1      -1.914   2.498   2.536  1.00  0.00     0.279 C 
BRANCH  13  14
ATOM     14  N   UNL     1      -1.983   3.138   1.217  1.00  0.00    -0.331 N 
ATOM     15  C   UNL     1      -2.957   4.227   1.140  1.00  0.00     0.333 C 
ATOM     16  H   UNL     1      -1.040   3.519   1.150  1.00  0.00     0.348 HD
BRANCH  14  17
ATOM     17  C   UNL     1      -2.129   2.254   0.043  1.00  0.00     0.319 C 
BRANCH  17  18
ATOM     18  C   UNL     1      -1.288   0.984   0.006  1.00  0.00     0.095 A 
ATOM     19  C   UNL     1       2.289   0.089  -0.005  1.00  0.00     0.067 C 
ATOM     20  C   UNL     1       0.796  -0.054  -0.016  1.00  0.00     0.038 A 
ATOM     21  C   UNL     1       0.210  -1.316   0.003  1.00  0.00     0.023 A 
ATOM     22  N   UNL     1       0.066   1.090  -0.029  1.00  0.00    -0.252 NA
ATOM     23  C   UNL     1      -1.175  -1.412   0.011  1.00  0.00     0.004 A 
ATOM     24  C   UNL     1      -1.936  -0.251   0.015  1.00  0.00     0.030 A 
ENDBRANCH  17  18
ENDBRANCH  14  17
ENDBRANCH  13  14
ENDBRANCH   6  13
ENDBRANCH   3   6
ENDBRANCH   1   2
BRANCH   1  25
ATOM     25  C   UNL     1       1.359   5.762   1.033  1.00  0.00     0.042 C 
BRANCH  25  26
ATOM     26  C   UNL     1       2.712   5.642   0.365  1.00  0.00     0.118 C 
BRANCH  26  27
ATOM     27  N   UNL     1       2.615   5.236  -1.035  1.00  0.00    -0.352 N 
ATOM     28  C   UNL     1       2.832   5.947  -2.191  1.00  0.00     0.251 C 
ATOM     29  H   UNL     1       2.352   4.297  -1.173  1.00  0.00     0.163 HD
ATOM     30  O   UNL     1       2.505   5.468  -3.275  1.00  0.00    -0.269 OA
BRANCH  28  31
ATOM     31  C   UNL     1       3.431   7.297  -2.130  1.00  0.00     0.039 A 
ATOM     32  C   UNL     1       2.961   8.298  -2.983  1.00  0.00     0.014 A 
ATOM     33  C   UNL     1       4.452   7.580  -1.223  1.00  0.00     0.014 A 
ATOM     34  C   UNL     1       3.459   9.598  -2.863  1.00  0.00     0.010 A 
ATOM     35  C   UNL     1       4.841   8.893  -1.010  1.00  0.00     0.010 A 
ATOM     36  C   UNL     1       4.370   9.915  -1.843  1.00  0.00    -0.014 A 
BRANCH  36  37
ATOM     37  C   UNL     1       4.885  11.294  -1.644  1.00  0.00     0.031 A 
ATOM     38  C   UNL     1       6.369  11.551  -1.715  1.00  0.00     0.074 A 
ATOM     39  C   UNL     1       4.036  12.290  -1.320  1.00  0.00     0.049 A 
ATOM     40  N   UNL     1       7.028  12.654  -1.471  1.00  0.00    -0.248 NA
ATOM     41  C   UNL     1       7.230  10.408  -2.067  1.00  0.00     0.031 C 
ATOM     42  C   UNL     1       2.584  12.157  -1.168  1.00  0.00     0.029 A 
ATOM     43  N   UNL     1       4.274  13.615  -1.053  1.00  0.00    -0.354 N 
ATOM     44  C   UNL     1       8.372  12.328  -1.609  1.00  0.00     0.074 A 
ATOM     45  C   UNL     1       8.440  10.913  -1.892  1.00  0.00     0.031 C 
ATOM     46  C   UNL     1       2.060  13.357  -0.872  1.00  0.00     0.029 A 
ATOM     47  C   UNL     1       3.138  14.334  -0.766  1.00  0.00     0.049 A 
ATOM     48  H   UNL     1       5.175  14.013  -1.065  1.00  0.00     0.167 HD
ATOM     49  C   UNL     1       9.455  13.138  -1.538  1.00  0.00     0.031 A 
ATOM     50  C   UNL     1       2.983  15.634  -0.449  1.00  0.00     0.031 A 
ATOM     51  C   UNL     1       9.379  14.551  -1.290  1.00  0.00     0.049 A 
ATOM     52  C   UNL     1       4.199  16.518  -0.386  1.00  0.00     0.074 A 
ATOM     53  C   UNL     1      10.407  15.476  -1.264  1.00  0.00     0.029 A 
ATOM     54  N   UNL     1       8.206  15.245  -1.032  1.00  0.00    -0.354 N 
ATOM     55  N   UNL     1       5.457  16.204  -0.585  1.00  0.00    -0.248 NA
ATOM     56  C   UNL     1       3.973  17.934  -0.068  1.00  0.00     0.031 C 
ATOM     57  C   UNL     1       9.861  16.722  -0.940  1.00  0.00     0.029 A 
ATOM     58  C   UNL     1       8.486  16.584  -0.825  1.00  0.00     0.049 A 
ATOM     59  H   UNL     1       7.307  14.844  -1.001  1.00  0.00     0.167 HD
ATOM     60  C   UNL     1       6.170  17.390  -0.446  1.00  0.00     0.074 A 
ATOM     61  C   UNL     1       5.200  18.428  -0.160  1.00  0.00     0.031 C 
ATOM     62  C   UNL     1       7.505  17.602  -0.546  1.00  0.00     0.031 A 
BRANCH  49  63
ATOM     63  C   UNL     1      10.810  12.509  -1.738  1.00  0.00    -0.014 A 
ATOM     64  C   UNL     1      11.198  11.999  -2.990  1.00  0.00     0.010 A 
ATOM     65  C   UNL     1      11.719  12.451  -0.666  1.00  0.00     0.010 A 
ATOM     66  C   UNL     1      12.450  11.402  -3.155  1.00  0.00     0.020 A 
ATOM     67  C   UNL     1      12.985  11.884  -0.835  1.00  0.00     0.020 A 
ATOM     68  C   UNL     1      13.336  11.346  -2.075  1.00  0.00     0.054 A 
BRANCH  68  69
ATOM     69  S   UNL     1      14.963  10.587  -2.326  1.00  0.00     0.124 S 
ATOM     70  O   UNL     1      14.623   9.170  -2.419  1.00  0.00    -0.237 OA
ATOM     71  O   UNL     1      15.417  11.207  -3.568  1.00  0.00    -0.237 OA
ATOM     72  O   UNL     1      15.713  10.971  -1.132  1.00  0.00    -0.744 OA
ENDBRANCH  68  69
ENDBRANCH  49  63
BRANCH  50  73
ATOM     73  C   UNL     1       1.622  16.182  -0.191  1.00  0.00    -0.014 A 
ATOM     74  C   UNL     1       1.025  17.069  -1.104  1.00  0.00     0.010 A 
ATOM     75  C   UNL     1       0.908  15.809   0.964  1.00  0.00     0.010 A 
ATOM     76  C   UNL     1      -0.249  17.589  -0.859  1.00  0.00     0.020 A 
ATOM     77  C   UNL     1      -0.378  16.305   1.198  1.00  0.00     0.020 A 
ATOM     78  C   UNL     1      -0.944  17.202   0.290  1.00  0.00     0.054 A 
BRANCH  78  79
ATOM     79  S   UNL     1      -2.615  17.854   0.563  1.00  0.00     0.124 S 
ATOM     80  O   UNL     1      -2.345  19.240   0.929  1.00  0.00    -0.237 OA
ATOM     81  O   UNL     1      -3.248  17.653  -0.739  1.00  0.00    -0.237 OA
ATOM     82  O   UNL     1      -3.139  17.012   1.637  1.00  0.00    -0.744 OA
ENDBRANCH  78  79
ENDBRANCH  50  73
BRANCH  62  83
ATOM     83  C   UNL     1       7.997  19.015  -0.386  1.00  0.00    -0.014 A 
ATOM     84  C   UNL     1       8.004  19.649   0.868  1.00  0.00     0.010 A 
ATOM     85  C   UNL     1       8.518  19.694  -1.503  1.00  0.00     0.010 A 
ATOM     86  C   UNL     1       8.495  20.951   0.997  1.00  0.00     0.020 A 
ATOM     87  C   UNL     1       9.039  20.983  -1.372  1.00  0.00     0.020 A 
ATOM     88  C   UNL     1       9.011  21.609  -0.125  1.00  0.00     0.054 A 
BRANCH  88  89
ATOM     89  S   UNL     1       9.686  23.280   0.079  1.00  0.00     0.124 S 
ATOM     90  O   UNL     1       8.475  24.077   0.254  1.00  0.00    -0.237 OA
ATOM     91  O   UNL     1      10.526  23.143   1.266  1.00  0.00    -0.237 OA
ATOM     92  O   UNL     1      10.412  23.515  -1.167  1.00  0.00    -0.744 OA
ENDBRANCH  88  89
ENDBRANCH  62  83
ENDBRANCH  36  37
ENDBRANCH  28  31
ENDBRANCH  26  27
ENDBRANCH  25  26
ENDBRANCH   1  25
TORSDOF 17
