REMARK SMILES O=C(NCCCNC(=O)[C@@H]1C[NH2+]C[C@H]1c1ccncc1)c1ccc(-c2c3nc(c(-c4ccc(S(=O)(=O)[O-])cc4)c4ccc([nH]4)c(-c4ccc(S(=O)(=O)[O-])cc4)c4nc(c(-c5ccc(S(=O)(=O)[O-])cc5)c5ccc2[nH]5)C=C4)C=C3)cc1
REMARK SMILES IDX 4 1 3 2 1 3 2 4 21 6 22 7 80 8 23 9 79 10 24 11 25 12 26 13
REMARK SMILES IDX 73 14 27 15 78 16 72 17 74 18 28 19 77 20 71 21 70 22 29 24
REMARK SMILES IDX 59 25 40 26 58 27 41 28 44 29 57 30 75 31 42 32 43 33 56 35
REMARK SMILES IDX 76 36 45 37 30 38 31 39 39 40 32 41 38 42 33 43 34 44 35 45
REMARK SMILES IDX 36 46 37 47 60 48 61 49 69 50 62 51 68 52 63 53 64 54 65 55
REMARK SMILES IDX 66 56 67 57 46 58 47 59 55 60 48 61 54 62 49 63 50 64 51 65
REMARK SMILES IDX 52 66 53 67 5 68 6 69 7 70 8 71 9 73 10 74 11 75 14 76 12 77
REMARK SMILES IDX 13 78 15 81 16 82 20 83 17 84 19 85 18 86
REMARK H PARENT 3 5 74 23 44 34 7 72 12 79 12 80
REMARK Flexibility Score: inf
ROOT
ATOM      1  C   UNL     1       4.379  -0.958   0.861  1.00  0.00     0.118 C 
ENDROOT
BRANCH   1   2
ATOM      2  N   UNL     1       2.988  -1.013   0.439  1.00  0.00    -0.352 N 
ATOM      3  O   UNL     1       1.038  -0.206  -0.321  1.00  0.00    -0.269 OA
ATOM      4  C   UNL     1       2.263  -0.125  -0.313  1.00  0.00     0.251 C 
ATOM      5  H   UNL     1       2.492  -1.809   0.739  1.00  0.00     0.163 HD
BRANCH   4   6
ATOM      6  C   UNL     1       2.941   0.920  -1.112  1.00  0.00     0.039 A 
ATOM      7  C   UNL     1       4.071   0.623  -1.881  1.00  0.00     0.014 A 
ATOM      8  C   UNL     1       2.381   2.200  -1.157  1.00  0.00     0.014 A 
ATOM      9  C   UNL     1       4.692   1.626  -2.624  1.00  0.00     0.010 A 
ATOM     10  C   UNL     1       2.970   3.189  -1.948  1.00  0.00     0.010 A 
ATOM     11  C   UNL     1       4.139   2.914  -2.676  1.00  0.00    -0.014 A 
BRANCH  11  12
ATOM     12  C   UNL     1       4.743   3.961  -3.537  1.00  0.00     0.031 A 
ATOM     13  C   UNL     1       5.359   5.189  -2.930  1.00  0.00     0.074 A 
ATOM     14  C   UNL     1       4.691   3.823  -4.876  1.00  0.00     0.049 A 
ATOM     15  N   UNL     1       5.852   6.245  -3.525  1.00  0.00    -0.248 NA
ATOM     16  C   UNL     1       5.420   5.240  -1.461  1.00  0.00     0.031 C 
ATOM     17  C   UNL     1       4.116   2.676  -5.583  1.00  0.00     0.029 A 
ATOM     18  N   UNL     1       5.112   4.657  -5.880  1.00  0.00    -0.354 N 
ATOM     19  C   UNL     1       6.257   7.099  -2.507  1.00  0.00     0.074 A 
ATOM     20  C   UNL     1       5.935   6.445  -1.256  1.00  0.00     0.031 C 
ATOM     21  C   UNL     1       4.224   2.877  -6.905  1.00  0.00     0.029 A 
ATOM     22  C   UNL     1       4.822   4.188  -7.139  1.00  0.00     0.049 A 
ATOM     23  H   UNL     1       5.577   5.509  -5.716  1.00  0.00     0.167 HD
ATOM     24  C   UNL     1       6.840   8.319  -2.607  1.00  0.00     0.031 A 
ATOM     25  C   UNL     1       4.984   4.757  -8.349  1.00  0.00     0.031 A 
ATOM     26  C   UNL     1       7.143   8.967  -3.856  1.00  0.00     0.049 A 
ATOM     27  C   UNL     1       5.602   6.122  -8.440  1.00  0.00     0.074 A 
ATOM     28  C   UNL     1       7.761  10.188  -4.065  1.00  0.00     0.029 A 
ATOM     29  N   UNL     1       6.838   8.454  -5.109  1.00  0.00    -0.354 N 
ATOM     30  N   UNL     1       6.014   6.901  -7.468  1.00  0.00    -0.248 NA
ATOM     31  C   UNL     1       5.783   6.684  -9.784  1.00  0.00     0.031 C 
ATOM     32  C   UNL     1       7.783  10.435  -5.442  1.00  0.00     0.029 A 
ATOM     33  C   UNL     1       7.234   9.343  -6.094  1.00  0.00     0.049 A 
ATOM     34  H   UNL     1       6.405   7.585  -5.273  1.00  0.00     0.167 HD
ATOM     35  C   UNL     1       6.527   8.036  -8.084  1.00  0.00     0.074 A 
ATOM     36  C   UNL     1       6.375   7.841  -9.512  1.00  0.00     0.031 C 
ATOM     37  C   UNL     1       7.080   9.134  -7.514  1.00  0.00     0.031 A 
BRANCH  24  38
ATOM     38  C   UNL     1       7.140   9.047  -1.323  1.00  0.00    -0.014 A 
ATOM     39  C   UNL     1       8.154   8.610  -0.451  1.00  0.00     0.010 A 
ATOM     40  C   UNL     1       6.393  10.189  -0.982  1.00  0.00     0.010 A 
ATOM     41  C   UNL     1       8.368   9.260   0.768  1.00  0.00     0.020 A 
ATOM     42  C   UNL     1       6.623  10.860   0.223  1.00  0.00     0.020 A 
ATOM     43  C   UNL     1       7.591  10.373   1.103  1.00  0.00     0.054 A 
BRANCH  43  44
ATOM     44  S   UNL     1       7.863  11.178   2.706  1.00  0.00     0.124 S 
ATOM     45  O   UNL     1       7.228  10.235   3.625  1.00  0.00    -0.237 OA
ATOM     46  O   UNL     1       9.320  11.248   2.789  1.00  0.00    -0.237 OA
ATOM     47  O   UNL     1       7.187  12.464   2.567  1.00  0.00    -0.744 OA
ENDBRANCH  43  44
ENDBRANCH  24  38
BRANCH  25  48
ATOM     48  C   UNL     1       4.534   4.019  -9.559  1.00  0.00    -0.014 A 
ATOM     49  C   UNL     1       5.467   3.411 -10.415  1.00  0.00     0.010 A 
ATOM     50  C   UNL     1       3.159   3.840  -9.804  1.00  0.00     0.010 A 
ATOM     51  C   UNL     1       5.034   2.627 -11.488  1.00  0.00     0.020 A 
ATOM     52  C   UNL     1       2.723   3.037 -10.861  1.00  0.00     0.020 A 
ATOM     53  C   UNL     1       3.664   2.435 -11.697  1.00  0.00     0.054 A 
BRANCH  53  54
ATOM     54  S   UNL     1       3.129   1.323 -13.028  1.00  0.00     0.124 S 
ATOM     55  O   UNL     1       3.379   2.130 -14.217  1.00  0.00    -0.237 OA
ATOM     56  O   UNL     1       4.009   0.170 -12.848  1.00  0.00    -0.237 OA
ATOM     57  O   UNL     1       1.722   1.075 -12.721  1.00  0.00    -0.744 OA
ENDBRANCH  53  54
ENDBRANCH  25  48
BRANCH  37  58
ATOM     58  C   UNL     1       7.607  10.206  -8.428  1.00  0.00    -0.014 A 
ATOM     59  C   UNL     1       6.741  11.097  -9.084  1.00  0.00     0.010 A 
ATOM     60  C   UNL     1       8.998  10.384  -8.548  1.00  0.00     0.010 A 
ATOM     61  C   UNL     1       7.258  12.147  -9.848  1.00  0.00     0.020 A 
ATOM     62  C   UNL     1       9.518  11.445  -9.292  1.00  0.00     0.020 A 
ATOM     63  C   UNL     1       8.644  12.319  -9.942  1.00  0.00     0.054 A 
BRANCH  63  64
ATOM     64  S   UNL     1       9.290  13.741 -10.864  1.00  0.00     0.124 S 
ATOM     65  O   UNL     1       9.068  13.333 -12.248  1.00  0.00    -0.237 OA
ATOM     66  O   UNL     1       8.450  14.839 -10.390  1.00  0.00    -0.237 OA
ATOM     67  O   UNL     1      10.690  13.814 -10.451  1.00  0.00    -0.744 OA
ENDBRANCH  63  64
ENDBRANCH  37  58
ENDBRANCH  11  12
ENDBRANCH   4   6
ENDBRANCH   1   2
BRANCH   1  68
ATOM     68  C   UNL     1       4.506  -0.738   2.371  1.00  0.00     0.042 C 
BRANCH  68  69
ATOM     69  C   UNL     1       4.008  -1.922   3.202  1.00  0.00     0.117 C 
BRANCH  69  70
ATOM     70  N   UNL     1       4.858  -3.079   3.002  1.00  0.00    -0.356 N 
ATOM     71  C   UNL     1       5.963  -3.524   3.651  1.00  0.00     0.229 C 
ATOM     72  H   UNL     1       4.580  -3.652   2.252  1.00  0.00     0.163 HD
ATOM     73  O   UNL     1       6.621  -4.366   3.032  1.00  0.00    -0.275 OA
BRANCH  71  74
ATOM     74  C   UNL     1       6.300  -3.134   5.091  1.00  0.00     0.146 C 
ATOM     75  C   UNL     1       6.354  -1.640   5.373  1.00  0.00     0.274 C 
ATOM     76  C   UNL     1       7.728  -3.610   5.494  1.00  0.00     0.092 C 
ATOM     77  N   UNL     1       7.221  -1.506   6.549  1.00  0.00    -0.345 N 
ATOM     78  C   UNL     1       8.331  -2.419   6.266  1.00  0.00     0.269 C 
ATOM     79  H   UNL     1       6.729  -1.783   7.398  1.00  0.00     0.346 HD
ATOM     80  H   UNL     1       7.529  -0.546   6.706  1.00  0.00     0.346 HD
BRANCH  76  81
ATOM     81  C   UNL     1       7.758  -4.965   6.188  1.00  0.00    -0.035 A 
ATOM     82  C   UNL     1       7.668  -6.129   5.409  1.00  0.00     0.024 A 
ATOM     83  C   UNL     1       7.919  -5.137   7.566  1.00  0.00     0.024 A 
ATOM     84  C   UNL     1       7.753  -7.373   6.016  1.00  0.00     0.111 A 
ATOM     85  C   UNL     1       8.014  -6.426   8.081  1.00  0.00     0.111 A 
ATOM     86  N   UNL     1       7.931  -7.549   7.339  1.00  0.00    -0.265 NA
ENDBRANCH  76  81
ENDBRANCH  71  74
ENDBRANCH  69  70
ENDBRANCH  68  69
ENDBRANCH   1  68
TORSDOF 14
