REMARK SMILES Cc1cc(CC(=O)C(=O)NCCCNC(=O)c2ccc(-c3c4nc(c(-c5ccc(S(=O)(=O)[O-])cc5)c5ccc([nH]5)c(-c5ccc(S(=O)(=O)[O-])cc5)c5nc(c(-c6ccc(S(=O)(=O)[O-])cc6)c6ccc3[nH]6)C=C5)C=C4)cc2)cc2cn[nH]c12
REMARK SMILES IDX 12 1 11 2 10 3 8 4 9 5 6 7 7 8 5 9 4 10 1 11 2 12 3 13 82 14
REMARK SMILES IDX 78 15 81 16 77 17 79 18 80 19 13 21 14 22 15 23 16 25 17 26
REMARK SMILES IDX 18 27 76 28 19 29 75 30 20 31 21 32 22 33 69 34 23 35 74 36
REMARK SMILES IDX 68 37 70 38 24 39 73 40 67 41 66 42 25 44 55 45 36 46 54 47
REMARK SMILES IDX 37 48 40 49 53 50 71 51 38 52 39 53 52 55 72 56 41 57 26 58
REMARK SMILES IDX 27 59 35 60 28 61 34 62 29 63 30 64 31 65 32 66 33 67 56 68
REMARK SMILES IDX 57 69 65 70 58 71 64 72 59 73 60 74 61 75 62 76 63 77 42 78
REMARK SMILES IDX 43 79 51 80 44 81 50 82 45 83 46 84 47 85 48 86 49 87
REMARK H PARENT 10 6 81 20 14 24 70 43 40 54
REMARK Flexibility Score: inf
ROOT
ATOM      1  C   UNL     1       4.018   6.011  -6.435  1.00  0.00     0.042 C 
ENDROOT
BRANCH   1   2
ATOM      2  C   UNL     1       3.261   4.690  -6.257  1.00  0.00     0.118 C 
BRANCH   2   3
ATOM      3  N   UNL     1       3.635   4.000  -5.031  1.00  0.00    -0.349 N 
ATOM      4  C   UNL     1       3.018   4.020  -3.802  1.00  0.00     0.287 C 
ATOM      5  O   UNL     1       3.516   3.443  -2.843  1.00  0.00    -0.266 OA
ATOM      6  H   UNL     1       4.443   3.440  -5.090  1.00  0.00     0.163 HD
BRANCH   4   7
ATOM      7  C   UNL     1       1.691   4.764  -3.620  1.00  0.00     0.224 C 
ATOM      8  O   UNL     1       1.422   5.752  -4.298  1.00  0.00    -0.288 OA
BRANCH   7   9
ATOM      9  C   UNL     1       0.803   4.296  -2.493  1.00  0.00     0.122 C 
BRANCH   9  10
ATOM     10  C   UNL     1       0.493   2.817  -2.481  1.00  0.00    -0.039 A 
ATOM     11  C   UNL     1       0.996  -0.092  -0.049  1.00  0.00     0.047 C 
ATOM     12  C   UNL     1       0.569   0.668  -1.270  1.00  0.00    -0.025 A 
ATOM     13  C   UNL     1       0.845   2.046  -1.362  1.00  0.00     0.009 A 
ATOM     14  C   UNL     1      -0.079   0.102  -2.378  1.00  0.00     0.068 A 
ATOM     15  C   UNL     1      -0.446   0.830  -3.504  1.00  0.00     0.020 A 
ATOM     16  N   UNL     1      -0.480  -1.184  -2.641  1.00  0.00    -0.278 N 
ATOM     17  C   UNL     1      -0.166   2.208  -3.563  1.00  0.00     0.016 A 
ATOM     18  C   UNL     1      -1.056  -0.118  -4.357  1.00  0.00     0.143 A 
ATOM     19  N   UNL     1      -1.093  -1.343  -3.828  1.00  0.00    -0.183 NA
ATOM     20  H   UNL     1      -0.332  -1.927  -2.013  1.00  0.00     0.190 HD
ENDBRANCH   9  10
ENDBRANCH   7   9
ENDBRANCH   4   7
ENDBRANCH   2   3
ENDBRANCH   1   2
BRANCH   1  21
ATOM     21  C   UNL     1       5.468   5.778  -6.829  1.00  0.00     0.118 C 
BRANCH  21  22
ATOM     22  N   UNL     1       5.614   5.223  -8.178  1.00  0.00    -0.352 N 
ATOM     23  C   UNL     1       6.771   5.006  -8.909  1.00  0.00     0.251 C 
ATOM     24  H   UNL     1       4.775   4.968  -8.626  1.00  0.00     0.163 HD
ATOM     25  O   UNL     1       6.717   4.821 -10.113  1.00  0.00    -0.269 OA
BRANCH  23  26
ATOM     26  C   UNL     1       8.064   4.986  -8.198  1.00  0.00     0.039 A 
ATOM     27  C   UNL     1       9.246   5.453  -8.783  1.00  0.00     0.014 A 
ATOM     28  C   UNL     1       8.078   4.458  -6.911  1.00  0.00     0.014 A 
ATOM     29  C   UNL     1      10.424   5.402  -8.040  1.00  0.00     0.010 A 
ATOM     30  C   UNL     1       9.170   4.615  -6.112  1.00  0.00     0.010 A 
ATOM     31  C   UNL     1      10.367   4.970  -6.707  1.00  0.00    -0.014 A 
BRANCH  31  32
ATOM     32  C   UNL     1      11.539   4.874  -5.860  1.00  0.00     0.031 A 
ATOM     33  C   UNL     1      12.179   6.171  -5.552  1.00  0.00     0.074 A 
ATOM     34  C   UNL     1      11.854   3.734  -5.206  1.00  0.00     0.049 A 
ATOM     35  N   UNL     1      13.281   6.629  -6.039  1.00  0.00    -0.248 NA
ATOM     36  C   UNL     1      11.434   7.138  -4.728  1.00  0.00     0.031 C 
ATOM     37  C   UNL     1      11.111   2.465  -5.147  1.00  0.00     0.029 A 
ATOM     38  N   UNL     1      12.880   3.511  -4.349  1.00  0.00    -0.354 N 
ATOM     39  C   UNL     1      13.485   7.852  -5.417  1.00  0.00     0.074 A 
ATOM     40  C   UNL     1      12.239   8.202  -4.780  1.00  0.00     0.031 C 
ATOM     41  C   UNL     1      11.592   1.699  -4.140  1.00  0.00     0.029 A 
ATOM     42  C   UNL     1      12.785   2.335  -3.613  1.00  0.00     0.049 A 
ATOM     43  H   UNL     1      13.636   4.134  -4.255  1.00  0.00     0.167 HD
ATOM     44  C   UNL     1      14.733   8.369  -5.248  1.00  0.00     0.031 A 
ATOM     45  C   UNL     1      13.640   1.934  -2.639  1.00  0.00     0.031 A 
ATOM     46  C   UNL     1      15.727   7.615  -5.964  1.00  0.00     0.049 A 
ATOM     47  C   UNL     1      14.908   2.665  -2.882  1.00  0.00     0.074 A 
ATOM     48  C   UNL     1      15.999   7.369  -7.293  1.00  0.00     0.029 A 
ATOM     49  N   UNL     1      16.346   6.616  -5.248  1.00  0.00    -0.354 N 
ATOM     50  N   UNL     1      15.635   2.508  -3.954  1.00  0.00    -0.248 NA
ATOM     51  C   UNL     1      15.153   3.889  -2.138  1.00  0.00     0.031 C 
ATOM     52  C   UNL     1      16.409   6.002  -7.344  1.00  0.00     0.029 A 
ATOM     53  C   UNL     1      16.432   5.498  -6.041  1.00  0.00     0.049 A 
ATOM     54  H   UNL     1      16.674   6.690  -4.323  1.00  0.00     0.167 HD
ATOM     55  C   UNL     1      16.108   3.777  -4.252  1.00  0.00     0.074 A 
ATOM     56  C   UNL     1      15.878   4.558  -3.039  1.00  0.00     0.031 C 
ATOM     57  C   UNL     1      16.391   4.137  -5.538  1.00  0.00     0.031 A 
BRANCH  44  58
ATOM     58  C   UNL     1      15.089   9.288  -4.115  1.00  0.00    -0.014 A 
ATOM     59  C   UNL     1      16.269  10.049  -4.177  1.00  0.00     0.010 A 
ATOM     60  C   UNL     1      14.409   9.240  -2.879  1.00  0.00     0.010 A 
ATOM     61  C   UNL     1      16.745  10.731  -3.048  1.00  0.00     0.020 A 
ATOM     62  C   UNL     1      14.851   9.947  -1.762  1.00  0.00     0.020 A 
ATOM     63  C   UNL     1      16.029  10.677  -1.849  1.00  0.00     0.054 A 
BRANCH  63  64
ATOM     64  S   UNL     1      16.695  11.500  -0.380  1.00  0.00     0.124 S 
ATOM     65  O   UNL     1      18.012  10.884  -0.252  1.00  0.00    -0.237 OA
ATOM     66  O   UNL     1      16.687  12.902  -0.787  1.00  0.00    -0.237 OA
ATOM     67  O   UNL     1      15.739  11.155   0.670  1.00  0.00    -0.744 OA
ENDBRANCH  63  64
ENDBRANCH  44  58
BRANCH  45  68
ATOM     68  C   UNL     1      13.345   1.288  -1.335  1.00  0.00    -0.014 A 
ATOM     69  C   UNL     1      14.400   0.798  -0.537  1.00  0.00     0.010 A 
ATOM     70  C   UNL     1      12.088   1.463  -0.722  1.00  0.00     0.010 A 
ATOM     71  C   UNL     1      14.232   0.592   0.842  1.00  0.00     0.020 A 
ATOM     72  C   UNL     1      11.912   1.253   0.654  1.00  0.00     0.020 A 
ATOM     73  C   UNL     1      12.997   0.857   1.436  1.00  0.00     0.054 A 
BRANCH  73  74
ATOM     74  S   UNL     1      12.852   0.783   3.248  1.00  0.00     0.124 S 
ATOM     75  O   UNL     1      13.234  -0.595   3.540  1.00  0.00    -0.237 OA
ATOM     76  O   UNL     1      13.803   1.806   3.675  1.00  0.00    -0.237 OA
ATOM     77  O   UNL     1      11.447   1.102   3.495  1.00  0.00    -0.744 OA
ENDBRANCH  73  74
ENDBRANCH  45  68
BRANCH  57  78
ATOM     78  C   UNL     1      16.511   3.031  -6.564  1.00  0.00    -0.014 A 
ATOM     79  C   UNL     1      15.437   2.235  -7.012  1.00  0.00     0.010 A 
ATOM     80  C   UNL     1      17.764   2.873  -7.178  1.00  0.00     0.010 A 
ATOM     81  C   UNL     1      15.626   1.289  -8.036  1.00  0.00     0.020 A 
ATOM     82  C   UNL     1      17.955   1.947  -8.205  1.00  0.00     0.020 A 
ATOM     83  C   UNL     1      16.887   1.155  -8.628  1.00  0.00     0.054 A 
BRANCH  83  84
ATOM     84  S   UNL     1      17.137  -0.062  -9.954  1.00  0.00     0.124 S 
ATOM     85  O   UNL     1      16.713  -1.313  -9.330  1.00  0.00    -0.237 OA
ATOM     86  O   UNL     1      16.266   0.439 -11.014  1.00  0.00    -0.237 OA
ATOM     87  O   UNL     1      18.568   0.026 -10.243  1.00  0.00    -0.744 OA
ENDBRANCH  83  84
ENDBRANCH  57  78
ENDBRANCH  31  32
ENDBRANCH  23  26
ENDBRANCH  21  22
ENDBRANCH   1  21
TORSDOF 15
