REMARK SMILES O=C(NCCCNC(=O)c1ccccc1Nc1nc(Cl)nc(Nc2ccc(N3CCOCC3=O)cc2)n1)c1ccc(-c2c3nc(c(-c4ccc(S(=O)(=O)[O-])cc4)c4ccc([nH]4)c(-c4ccc(S(=O)(=O)[O-])cc4)c4nc(c(-c5ccc(S(=O)(=O)[O-])cc5)c5ccc2[nH]5)C=C4)C=C3)cc1
REMARK SMILES IDX 6 1 5 2 4 3 3 4 1 5 2 6 38 8 39 9 97 10 40 11 96 12 41 13
REMARK SMILES IDX 42 14 43 15 90 16 44 17 95 18 89 19 91 20 45 21 94 22 88 23
REMARK SMILES IDX 87 24 46 26 76 27 57 28 75 29 58 30 61 31 74 32 92 33 59 34
REMARK SMILES IDX 60 35 73 37 93 38 62 39 47 40 48 41 56 42 49 43 55 44 50 45
REMARK SMILES IDX 51 46 52 47 53 48 54 49 77 50 78 51 86 52 79 53 85 54 80 55
REMARK SMILES IDX 81 56 82 57 83 58 84 59 63 60 64 61 72 62 65 63 71 64 66 65
REMARK SMILES IDX 67 66 68 67 69 68 70 69 7 70 8 71 9 73 10 74 11 75 15 76
REMARK SMILES IDX 12 77 14 78 13 79 16 80 17 82 18 83 37 84 19 85 22 86 20 87
REMARK SMILES IDX 21 88 23 89 24 91 25 92 36 93 26 94 35 95 27 96 28 97 29 98
REMARK SMILES IDX 33 99 30 100 32 101 34 102 31 103
REMARK H PARENT 3 7 91 25 61 36 7 72 16 81 23 90
REMARK Flexibility Score: inf
ROOT
ATOM      1  C   UNL     1       4.598  -3.074  -2.110  1.00  0.00     0.118 C 
ENDROOT
BRANCH   1   2
ATOM      2  C   UNL     1       5.108  -2.115  -1.045  1.00  0.00     0.042 C 
BRANCH   2   3
ATOM      3  C   UNL     1       4.677  -0.667  -1.229  1.00  0.00     0.118 C 
BRANCH   3   4
ATOM      4  N   UNL     1       3.239  -0.462  -1.101  1.00  0.00    -0.352 N 
ATOM      5  O   UNL     1       1.272   0.100  -0.168  1.00  0.00    -0.269 OA
ATOM      6  C   UNL     1       2.499   0.160  -0.122  1.00  0.00     0.251 C 
ATOM      7  H   UNL     1       2.707  -0.832  -1.842  1.00  0.00     0.163 HD
BRANCH   6   8
ATOM      8  C   UNL     1       3.161   0.863   1.001  1.00  0.00     0.039 A 
ATOM      9  C   UNL     1       4.288   1.654   0.793  1.00  0.00     0.014 A 
ATOM     10  C   UNL     1       2.639   0.734   2.293  1.00  0.00     0.014 A 
ATOM     11  C   UNL     1       5.013   2.126   1.881  1.00  0.00     0.010 A 
ATOM     12  C   UNL     1       3.306   1.314   3.380  1.00  0.00     0.010 A 
ATOM     13  C   UNL     1       4.532   1.967   3.191  1.00  0.00    -0.014 A 
BRANCH  13  14
ATOM     14  C   UNL     1       5.328   2.516   4.323  1.00  0.00     0.031 A 
ATOM     15  C   UNL     1       5.889   1.616   5.395  1.00  0.00     0.074 A 
ATOM     16  C   UNL     1       5.606   3.836   4.344  1.00  0.00     0.049 A 
ATOM     17  N   UNL     1       6.672   1.925   6.399  1.00  0.00    -0.248 NA
ATOM     18  C   UNL     1       5.520   0.192   5.345  1.00  0.00     0.031 C 
ATOM     19  C   UNL     1       5.115   4.816   3.370  1.00  0.00     0.029 A 
ATOM     20  N   UNL     1       6.399   4.575   5.183  1.00  0.00    -0.354 N 
ATOM     21  C   UNL     1       6.860   0.748   7.117  1.00  0.00     0.074 A 
ATOM     22  C   UNL     1       6.096  -0.279   6.443  1.00  0.00     0.031 C 
ATOM     23  C   UNL     1       5.684   6.005   3.616  1.00  0.00     0.029 A 
ATOM     24  C   UNL     1       6.522   5.892   4.804  1.00  0.00     0.049 A 
ATOM     25  H   UNL     1       6.838   4.200   5.981  1.00  0.00     0.167 HD
ATOM     26  C   UNL     1       7.602   0.540   8.232  1.00  0.00     0.031 A 
ATOM     27  C   UNL     1       7.227   6.902   5.346  1.00  0.00     0.031 A 
ATOM     28  C   UNL     1       8.380   1.557   8.890  1.00  0.00     0.049 A 
ATOM     29  C   UNL     1       8.048   6.642   6.575  1.00  0.00     0.074 A 
ATOM     30  C   UNL     1       9.196   1.433  10.002  1.00  0.00     0.029 A 
ATOM     31  N   UNL     1       8.443   2.885   8.497  1.00  0.00    -0.354 N 
ATOM     32  N   UNL     1       8.229   5.515   7.219  1.00  0.00    -0.248 NA
ATOM     33  C   UNL     1       8.758   7.792   7.149  1.00  0.00     0.031 C 
ATOM     34  C   UNL     1       9.717   2.695  10.307  1.00  0.00     0.029 A 
ATOM     35  C   UNL     1       9.266   3.595   9.356  1.00  0.00     0.049 A 
ATOM     36  H   UNL     1       7.971   3.268   7.722  1.00  0.00     0.167 HD
ATOM     37  C   UNL     1       9.086   5.817   8.271  1.00  0.00     0.074 A 
ATOM     38  C   UNL     1       9.402   7.227   8.161  1.00  0.00     0.031 C 
ATOM     39  C   UNL     1       9.565   5.000   9.240  1.00  0.00     0.031 A 
BRANCH  26  40
ATOM     40  C   UNL     1       7.582  -0.841   8.836  1.00  0.00    -0.014 A 
ATOM     41  C   UNL     1       8.255  -1.917   8.230  1.00  0.00     0.010 A 
ATOM     42  C   UNL     1       6.910  -1.054  10.054  1.00  0.00     0.010 A 
ATOM     43  C   UNL     1       8.220  -3.190   8.809  1.00  0.00     0.020 A 
ATOM     44  C   UNL     1       6.893  -2.320  10.649  1.00  0.00     0.020 A 
ATOM     45  C   UNL     1       7.533  -3.384  10.012  1.00  0.00     0.054 A 
BRANCH  45  46
ATOM     46  S   UNL     1       7.512  -5.042  10.750  1.00  0.00     0.124 S 
ATOM     47  O   UNL     1       6.548  -5.737   9.899  1.00  0.00    -0.237 OA
ATOM     48  O   UNL     1       8.899  -5.476  10.608  1.00  0.00    -0.237 OA
ATOM     49  O   UNL     1       7.074  -4.805  12.123  1.00  0.00    -0.744 OA
ENDBRANCH  45  46
ENDBRANCH  26  40
BRANCH  27  50
ATOM     50  C   UNL     1       7.186   8.249   4.719  1.00  0.00    -0.014 A 
ATOM     51  C   UNL     1       8.309   8.757   4.043  1.00  0.00     0.010 A 
ATOM     52  C   UNL     1       6.008   9.017   4.764  1.00  0.00     0.010 A 
ATOM     53  C   UNL     1       8.257  10.012   3.430  1.00  0.00     0.020 A 
ATOM     54  C   UNL     1       5.943  10.259   4.130  1.00  0.00     0.020 A 
ATOM     55  C   UNL     1       7.073  10.754   3.475  1.00  0.00     0.054 A 
BRANCH  55  56
ATOM     56  S   UNL     1       7.002  12.351   2.617  1.00  0.00     0.124 S 
ATOM     57  O   UNL     1       7.719  13.223   3.541  1.00  0.00    -0.237 OA
ATOM     58  O   UNL     1       7.684  12.066   1.357  1.00  0.00    -0.237 OA
ATOM     59  O   UNL     1       5.569  12.608   2.495  1.00  0.00    -0.744 OA
ENDBRANCH  55  56
ENDBRANCH  27  50
BRANCH  39  60
ATOM     60  C   UNL     1      10.503   5.610  10.244  1.00  0.00    -0.014 A 
ATOM     61  C   UNL     1      10.032   6.477  11.246  1.00  0.00     0.010 A 
ATOM     62  C   UNL     1      11.873   5.294  10.195  1.00  0.00     0.010 A 
ATOM     63  C   UNL     1      10.922   7.050  12.158  1.00  0.00     0.020 A 
ATOM     64  C   UNL     1      12.762   5.847  11.120  1.00  0.00     0.020 A 
ATOM     65  C   UNL     1      12.283   6.736  12.084  1.00  0.00     0.054 A 
BRANCH  65  66
ATOM     66  S   UNL     1      13.420   7.474  13.290  1.00  0.00     0.124 S 
ATOM     67  O   UNL     1      13.581   8.827  12.765  1.00  0.00    -0.237 OA
ATOM     68  O   UNL     1      12.676   7.370  14.543  1.00  0.00    -0.237 OA
ATOM     69  O   UNL     1      14.608   6.627  13.207  1.00  0.00    -0.744 OA
ENDBRANCH  65  66
ENDBRANCH  39  60
ENDBRANCH  13  14
ENDBRANCH   6   8
ENDBRANCH   3   4
ENDBRANCH   2   3
ENDBRANCH   1   2
BRANCH   1  70
ATOM     70  N   UNL     1       4.988  -2.690  -3.461  1.00  0.00    -0.352 N 
ATOM     71  C   UNL     1       5.710  -3.384  -4.399  1.00  0.00     0.253 C 
ATOM     72  H   UNL     1       4.687  -1.796  -3.744  1.00  0.00     0.163 HD
ATOM     73  O   UNL     1       5.997  -2.848  -5.467  1.00  0.00    -0.269 OA
BRANCH  71  74
ATOM     74  C   UNL     1       6.162  -4.766  -4.140  1.00  0.00     0.063 A 
ATOM     75  C   UNL     1       7.540  -5.007  -4.264  1.00  0.00     0.016 A 
ATOM     76  C   UNL     1       5.271  -5.808  -3.822  1.00  0.00     0.054 A 
ATOM     77  C   UNL     1       8.053  -6.277  -4.011  1.00  0.00     0.001 A 
ATOM     78  C   UNL     1       5.822  -7.064  -3.520  1.00  0.00     0.027 A 
ATOM     79  C   UNL     1       7.196  -7.301  -3.623  1.00  0.00     0.002 A 
BRANCH  76  80
ATOM     80  N   UNL     1       3.883  -5.608  -3.777  1.00  0.00    -0.323 N 
ATOM     81  H   UNL     1       3.538  -4.948  -4.422  1.00  0.00     0.170 HD
BRANCH  80  82
ATOM     82  C   UNL     1       2.918  -6.194  -2.967  1.00  0.00     0.233 A 
ATOM     83  N   UNL     1       3.260  -6.684  -1.787  1.00  0.00    -0.182 NA
ATOM     84  N   UNL     1       1.677  -6.197  -3.441  1.00  0.00    -0.176 NA
ATOM     85  C   UNL     1       2.244  -7.165  -1.094  1.00  0.00     0.228 A 
ATOM     86  C   UNL     1       0.751  -6.779  -2.685  1.00  0.00     0.233 A 
ATOM     87  Cl  UNL     1       2.617  -7.805   0.444  1.00  0.00    -0.041 Cl
ATOM     88  N   UNL     1       0.983  -7.258  -1.474  1.00  0.00    -0.182 NA
BRANCH  86  89
ATOM     89  N   UNL     1      -0.481  -6.987  -3.300  1.00  0.00    -0.324 N 
ATOM     90  H   UNL     1      -0.588  -6.583  -4.192  1.00  0.00     0.170 HD
BRANCH  89  91
ATOM     91  C   UNL     1      -1.585  -7.692  -2.816  1.00  0.00     0.041 A 
ATOM     92  C   UNL     1      -2.096  -8.765  -3.554  1.00  0.00     0.028 A 
ATOM     93  C   UNL     1      -2.128  -7.432  -1.557  1.00  0.00     0.028 A 
ATOM     94  C   UNL     1      -3.111  -9.575  -3.032  1.00  0.00     0.028 A 
ATOM     95  C   UNL     1      -3.183  -8.201  -1.058  1.00  0.00     0.028 A 
ATOM     96  C   UNL     1      -3.669  -9.295  -1.780  1.00  0.00     0.044 A 
BRANCH  96  97
ATOM     97  N   UNL     1      -4.668 -10.146  -1.224  1.00  0.00    -0.308 N 
ATOM     98  C   UNL     1      -4.346 -11.575  -1.140  1.00  0.00     0.154 C 
ATOM     99  C   UNL     1      -5.737  -9.616  -0.491  1.00  0.00     0.253 C 
ATOM    100  C   UNL     1      -5.551 -12.443  -0.802  1.00  0.00     0.183 C 
ATOM    101  C   UNL     1      -6.655 -10.648   0.185  1.00  0.00     0.260 C 
ATOM    102  O   UNL     1      -6.031  -8.419  -0.449  1.00  0.00    -0.272 OA
ATOM    103  O   UNL     1      -6.161 -11.961   0.391  1.00  0.00    -0.370 OA
ENDBRANCH  96  97
ENDBRANCH  89  91
ENDBRANCH  86  89
ENDBRANCH  80  82
ENDBRANCH  76  80
ENDBRANCH  71  74
ENDBRANCH   1  70
TORSDOF 18
