REMARK SMILES Cc1[nH]c2ccccc2c1[C@H]([NH3+])CC(=O)NCCCNC(=O)c1ccc(-c2c3nc(c(-c4ccc(S(=O)(=O)[O-])cc4)c4ccc([nH]4)c(-c4ccc(S(=O)(=O)[O-])cc4)c4nc(c(-c5ccc(S(=O)(=O)[O-])cc5)c5ccc2[nH]5)C=C4)C=C3)cc1
REMARK SMILES IDX 18 1 17 2 16 3 14 4 15 5 13 7 11 8 10 9 1 10 2 11 3 12 4 13
REMARK SMILES IDX 9 15 5 16 8 17 6 18 7 19 12 20 19 24 20 25 21 26 22 28 23 29
REMARK SMILES IDX 24 30 82 31 25 32 81 33 26 34 27 35 28 36 75 37 29 38 80 39
REMARK SMILES IDX 74 40 76 41 30 42 79 43 73 44 72 45 31 47 61 48 42 49 60 50
REMARK SMILES IDX 43 51 46 52 59 53 77 54 44 55 45 56 58 58 78 59 47 60 32 61
REMARK SMILES IDX 33 62 41 63 34 64 40 65 35 66 36 67 37 68 38 69 39 70 62 71
REMARK SMILES IDX 63 72 71 73 64 74 70 75 65 76 66 77 67 78 68 79 69 80 48 81
REMARK SMILES IDX 49 82 57 83 50 84 56 85 51 86 52 87 53 88 54 89 55 90
REMARK H PARENT 16 6 3 14 12 21 12 22 12 23 20 27 76 46 46 57
REMARK Flexibility Score: inf
ROOT
ATOM      1  C   UNL     1      -0.974   0.923   1.609  1.00  0.00     0.042 C 
ENDROOT
BRANCH   1   2
ATOM      2  C   UNL     1      -0.245  -0.269   2.219  1.00  0.00     0.117 C 
BRANCH   2   3
ATOM      3  N   UNL     1      -1.157  -1.228   2.821  1.00  0.00    -0.356 N 
ATOM      4  C   UNL     1      -1.575  -2.441   2.356  1.00  0.00     0.226 C 
ATOM      5  O   UNL     1      -2.405  -3.071   3.016  1.00  0.00    -0.275 OA
ATOM      6  H   UNL     1      -1.528  -0.963   3.693  1.00  0.00     0.163 HD
BRANCH   4   7
ATOM      7  C   UNL     1      -0.989  -3.012   1.087  1.00  0.00     0.170 C 
BRANCH   7   8
ATOM      8  C   UNL     1      -1.937  -2.885  -0.109  1.00  0.00     0.223 C 
BRANCH   8   9
ATOM      9  C   UNL     1      -1.355  -3.581  -1.326  1.00  0.00     0.038 A 
ATOM     10  C   UNL     1      -0.038  -1.765  -2.763  1.00  0.00     0.065 C 
ATOM     11  C   UNL     1      -0.586  -3.098  -2.386  1.00  0.00     0.022 A 
ATOM     12  N   UNL     1      -0.341  -4.157  -3.231  1.00  0.00    -0.358 N 
ATOM     13  C   UNL     1      -0.858  -5.322  -2.730  1.00  0.00     0.046 A 
ATOM     14  H   UNL     1       0.143  -4.086  -4.086  1.00  0.00     0.166 HD
ATOM     15  C   UNL     1      -1.498  -5.000  -1.540  1.00  0.00     0.009 A 
ATOM     16  C   UNL     1      -0.807  -6.624  -3.241  1.00  0.00     0.027 A 
ATOM     17  C   UNL     1      -2.115  -6.040  -0.810  1.00  0.00     0.011 A 
ATOM     18  C   UNL     1      -1.425  -7.635  -2.499  1.00  0.00     0.002 A 
ATOM     19  C   UNL     1      -2.069  -7.350  -1.298  1.00  0.00     0.001 A 
ENDBRANCH   8   9
BRANCH   8  20
ATOM     20  N   UNL     1      -2.286  -1.510  -0.450  1.00  0.00    -0.351 N 
ATOM     21  H   UNL     1      -1.447  -1.010  -0.747  1.00  0.00     0.345 HD
ATOM     22  H   UNL     1      -2.686  -1.048   0.366  1.00  0.00     0.345 HD
ATOM     23  H   UNL     1      -2.967  -1.510  -1.209  1.00  0.00     0.345 HD
ENDBRANCH   8  20
ENDBRANCH   7   8
ENDBRANCH   4   7
ENDBRANCH   2   3
ENDBRANCH   1   2
BRANCH   1  24
ATOM     24  C   UNL     1      -1.613   1.844   2.639  1.00  0.00     0.118 C 
BRANCH  24  25
ATOM     25  N   UNL     1      -0.624   2.633   3.359  1.00  0.00    -0.352 N 
ATOM     26  C   UNL     1      -0.327   3.973   3.278  1.00  0.00     0.251 C 
ATOM     27  H   UNL     1      -0.082   2.127   4.006  1.00  0.00     0.163 HD
ATOM     28  O   UNL     1       0.699   4.390   3.807  1.00  0.00    -0.269 OA
BRANCH  26  29
ATOM     29  C   UNL     1      -1.213   4.908   2.545  1.00  0.00     0.039 A 
ATOM     30  C   UNL     1      -0.633   5.916   1.769  1.00  0.00     0.014 A 
ATOM     31  C   UNL     1      -2.604   4.825   2.641  1.00  0.00     0.014 A 
ATOM     32  C   UNL     1      -1.444   6.789   1.037  1.00  0.00     0.010 A 
ATOM     33  C   UNL     1      -3.410   5.639   1.848  1.00  0.00     0.010 A 
ATOM     34  C   UNL     1      -2.840   6.632   1.038  1.00  0.00    -0.014 A 
BRANCH  34  35
ATOM     35  C   UNL     1      -3.715   7.482   0.189  1.00  0.00     0.031 A 
ATOM     36  C   UNL     1      -4.727   8.402   0.816  1.00  0.00     0.074 A 
ATOM     37  C   UNL     1      -3.644   7.377  -1.153  1.00  0.00     0.049 A 
ATOM     38  N   UNL     1      -5.610   9.174   0.235  1.00  0.00    -0.248 NA
ATOM     39  C   UNL     1      -4.768   8.443   2.286  1.00  0.00     0.031 C 
ATOM     40  C   UNL     1      -2.730   6.498  -1.886  1.00  0.00     0.029 A 
ATOM     41  N   UNL     1      -4.357   8.011  -2.140  1.00  0.00    -0.354 N 
ATOM     42  C   UNL     1      -6.321   9.779   1.265  1.00  0.00     0.074 A 
ATOM     43  C   UNL     1      -5.797   9.248   2.505  1.00  0.00     0.031 C 
ATOM     44  C   UNL     1      -2.916   6.672  -3.204  1.00  0.00     0.029 A 
ATOM     45  C   UNL     1      -3.990   7.638  -3.411  1.00  0.00     0.049 A 
ATOM     46  H   UNL     1      -5.065   8.670  -1.954  1.00  0.00     0.167 HD
ATOM     47  C   UNL     1      -7.308  10.705   1.189  1.00  0.00     0.031 A 
ATOM     48  C   UNL     1      -4.468   8.021  -4.611  1.00  0.00     0.031 A 
ATOM     49  C   UNL     1      -7.828  11.233  -0.044  1.00  0.00     0.049 A 
ATOM     50  C   UNL     1      -5.586   9.022  -4.673  1.00  0.00     0.074 A 
ATOM     51  C   UNL     1      -8.784  12.217  -0.225  1.00  0.00     0.029 A 
ATOM     52  N   UNL     1      -7.444  10.812  -1.309  1.00  0.00    -0.354 N 
ATOM     53  N   UNL     1      -6.199   9.632  -3.688  1.00  0.00    -0.248 NA
ATOM     54  C   UNL     1      -6.076   9.386  -6.010  1.00  0.00     0.031 C 
ATOM     55  C   UNL     1      -9.016  12.354  -1.599  1.00  0.00     0.029 A 
ATOM     56  C   UNL     1      -8.168  11.491  -2.275  1.00  0.00     0.049 A 
ATOM     57  H   UNL     1      -6.758  10.131  -1.493  1.00  0.00     0.167 HD
ATOM     58  C   UNL     1      -7.140  10.462  -4.285  1.00  0.00     0.074 A 
ATOM     59  C   UNL     1      -7.003  10.289  -5.717  1.00  0.00     0.031 C 
ATOM     60  C   UNL     1      -8.036  11.295  -3.697  1.00  0.00     0.031 A 
BRANCH  47  61
ATOM     61  C   UNL     1      -7.898  11.189   2.488  1.00  0.00    -0.014 A 
ATOM     62  C   UNL     1      -7.154  11.995   3.370  1.00  0.00     0.010 A 
ATOM     63  C   UNL     1      -9.216  10.836   2.833  1.00  0.00     0.010 A 
ATOM     64  C   UNL     1      -7.692  12.385   4.599  1.00  0.00     0.020 A 
ATOM     65  C   UNL     1      -9.769  11.249   4.049  1.00  0.00     0.020 A 
ATOM     66  C   UNL     1      -8.993  12.000   4.936  1.00  0.00     0.054 A 
BRANCH  66  67
ATOM     67  S   UNL     1      -9.663  12.504   6.544  1.00  0.00     0.124 S 
ATOM     68  O   UNL     1      -8.970  11.596   7.455  1.00  0.00    -0.237 OA
ATOM     69  O   UNL     1      -9.264  13.907   6.634  1.00  0.00    -0.237 OA
ATOM     70  O   UNL     1     -11.099  12.275   6.409  1.00  0.00    -0.744 OA
ENDBRANCH  66  67
ENDBRANCH  47  61
BRANCH  48  71
ATOM     71  C   UNL     1      -3.866   7.461  -5.851  1.00  0.00    -0.014 A 
ATOM     72  C   UNL     1      -3.025   8.255  -6.649  1.00  0.00     0.010 A 
ATOM     73  C   UNL     1      -4.087   6.119  -6.210  1.00  0.00     0.010 A 
ATOM     74  C   UNL     1      -2.408   7.715  -7.782  1.00  0.00     0.020 A 
ATOM     75  C   UNL     1      -3.454   5.569  -7.329  1.00  0.00     0.020 A 
ATOM     76  C   UNL     1      -2.620   6.373  -8.110  1.00  0.00     0.054 A 
BRANCH  76  77
ATOM     77  S   UNL     1      -1.735   5.669  -9.529  1.00  0.00     0.124 S 
ATOM     78  O   UNL     1      -2.463   6.240 -10.657  1.00  0.00    -0.237 OA
ATOM     79  O   UNL     1      -0.376   6.168  -9.333  1.00  0.00    -0.237 OA
ATOM     80  O   UNL     1      -1.889   4.227  -9.346  1.00  0.00    -0.744 OA
ENDBRANCH  76  77
ENDBRANCH  48  71
BRANCH  60  81
ATOM     81  C   UNL     1      -8.939  12.086  -4.603  1.00  0.00    -0.014 A 
ATOM     82  C   UNL     1     -10.012  11.470  -5.272  1.00  0.00     0.010 A 
ATOM     83  C   UNL     1      -8.750  13.473  -4.741  1.00  0.00     0.010 A 
ATOM     84  C   UNL     1     -10.866  12.224  -6.081  1.00  0.00     0.020 A 
ATOM     85  C   UNL     1      -9.617  14.235  -5.529  1.00  0.00     0.020 A 
ATOM     86  C   UNL     1     -10.664  13.603  -6.203  1.00  0.00     0.054 A 
BRANCH  86  87
ATOM     87  S   UNL     1     -11.820  14.568  -7.215  1.00  0.00     0.124 S 
ATOM     88  O   UNL     1     -11.415  14.204  -8.570  1.00  0.00    -0.237 OA
ATOM     89  O   UNL     1     -13.121  14.060  -6.789  1.00  0.00    -0.237 OA
ATOM     90  O   UNL     1     -11.543  15.951  -6.832  1.00  0.00    -0.744 OA
ENDBRANCH  86  87
ENDBRANCH  60  81
ENDBRANCH  34  35
ENDBRANCH  26  29
ENDBRANCH  24  25
ENDBRANCH   1  24
TORSDOF 16
