REMARK SMILES C[N@H+]1CCO[C@H](c2noc(-c3ccccc3C(=O)NCCCNC(=O)c3ccc(-c4c5nc(c(-c6ccc(S(=O)(=O)[O-])cc6)c6ccc([nH]6)c(-c6ccc(S(=O)(=O)[O-])cc6)c6nc(c(-c7ccc(S(=O)(=O)[O-])cc7)c7ccc4[nH]7)C=C6)C=C5)cc3)n2)C1
REMARK SMILES IDX 21 1 20 2 19 3 17 4 18 5 16 7 11 8 12 9 13 10 15 11 14 12
REMARK SMILES IDX 10 13 7 14 8 15 86 16 9 17 6 18 1 19 2 20 3 21 87 22 4 24
REMARK SMILES IDX 5 25 22 26 23 27 24 28 25 30 26 31 27 32 85 33 28 34 84 35
REMARK SMILES IDX 29 36 30 37 31 38 78 39 32 40 83 41 77 42 79 43 33 44 82 45
REMARK SMILES IDX 76 46 75 47 34 49 64 50 45 51 63 52 46 53 49 54 62 55 80 56
REMARK SMILES IDX 47 57 48 58 61 60 81 61 50 62 35 63 36 64 44 65 37 66 43 67
REMARK SMILES IDX 38 68 39 69 40 70 41 71 42 72 65 73 66 74 74 75 67 76 73 77
REMARK SMILES IDX 68 78 69 79 70 80 71 81 72 82 51 83 52 84 60 85 53 86 59 87
REMARK SMILES IDX 54 88 55 89 56 90 57 91 58 92
REMARK H PARENT 19 6 2 23 23 29 79 48 49 59
REMARK Flexibility Score: inf
ROOT
ATOM      1  C   UNL     1      -4.100   3.344   2.005  1.00  0.00     0.042 C 
ENDROOT
BRANCH   1   2
ATOM      2  C   UNL     1      -4.156   1.826   2.120  1.00  0.00     0.118 C 
BRANCH   2   3
ATOM      3  N   UNL     1      -4.414   1.289   3.444  1.00  0.00    -0.352 N 
ATOM      4  C   UNL     1      -5.115   0.187   3.868  1.00  0.00     0.252 C 
ATOM      5  O   UNL     1      -4.948  -0.172   5.037  1.00  0.00    -0.269 OA
ATOM      6  H   UNL     1      -4.011   1.813   4.174  1.00  0.00     0.163 HD
BRANCH   4   7
ATOM      7  C   UNL     1      -6.169  -0.512   3.078  1.00  0.00     0.052 A 
ATOM      8  C   UNL     1      -6.072  -1.030   1.775  1.00  0.00     0.053 A 
ATOM      9  C   UNL     1      -7.203  -1.667   1.213  1.00  0.00     0.015 A 
ATOM     10  C   UNL     1      -8.384  -1.840   1.936  1.00  0.00     0.001 A 
ATOM     11  C   UNL     1      -7.366  -0.721   3.803  1.00  0.00     0.014 A 
ATOM     12  C   UNL     1      -8.460  -1.380   3.241  1.00  0.00     0.001 A 
BRANCH   8  13
ATOM     13  C   UNL     1      -4.859  -0.991   0.978  1.00  0.00     0.258 A 
ATOM     14  C   UNL     1      -2.947  -0.796   0.142  1.00  0.00     0.206 A 
ATOM     15  N   UNL     1      -3.757  -0.614  -0.911  1.00  0.00    -0.059 NA
ATOM     16  N   UNL     1      -3.597  -1.077   1.325  1.00  0.00    -0.189 NA
ATOM     17  O   UNL     1      -5.030  -0.741  -0.357  1.00  0.00    -0.334 OA
BRANCH  14  18
ATOM     18  C   UNL     1      -1.467  -0.582   0.063  1.00  0.00     0.245 C 
ATOM     19  C   UNL     1       1.432  -1.775  -0.270  1.00  0.00     0.332 C 
ATOM     20  N   UNL     1       0.753  -1.474   0.988  1.00  0.00    -0.333 N 
ATOM     21  C   UNL     1       1.002  -0.081   1.416  1.00  0.00     0.290 C 
ATOM     22  C   UNL     1      -0.715  -1.664   0.884  1.00  0.00     0.303 C 
ATOM     23  H   UNL     1       1.134  -2.125   1.675  1.00  0.00     0.348 HD
ATOM     24  C   UNL     1       0.284   0.950   0.536  1.00  0.00     0.222 C 
ATOM     25  O   UNL     1      -1.130   0.742   0.534  1.00  0.00    -0.358 OA
ENDBRANCH  14  18
ENDBRANCH   8  13
ENDBRANCH   4   7
ENDBRANCH   2   3
ENDBRANCH   1   2
BRANCH   1  26
ATOM     26  C   UNL     1      -3.118   4.052   2.928  1.00  0.00     0.118 C 
BRANCH  26  27
ATOM     27  N   UNL     1      -1.716   3.731   2.723  1.00  0.00    -0.352 N 
ATOM     28  C   UNL     1      -0.760   4.269   1.901  1.00  0.00     0.251 C 
ATOM     29  H   UNL     1      -1.391   2.986   3.280  1.00  0.00     0.163 HD
ATOM     30  O   UNL     1       0.411   3.915   2.026  1.00  0.00    -0.269 OA
BRANCH  28  31
ATOM     31  C   UNL     1      -1.077   5.265   0.860  1.00  0.00     0.039 A 
ATOM     32  C   UNL     1      -0.538   5.089  -0.427  1.00  0.00     0.014 A 
ATOM     33  C   UNL     1      -1.725   6.452   1.186  1.00  0.00     0.014 A 
ATOM     34  C   UNL     1      -0.631   6.109  -1.379  1.00  0.00     0.010 A 
ATOM     35  C   UNL     1      -1.865   7.446   0.224  1.00  0.00     0.010 A 
ATOM     36  C   UNL     1      -1.278   7.302  -1.045  1.00  0.00    -0.014 A 
BRANCH  36  37
ATOM     37  C   UNL     1      -1.252   8.511  -1.900  1.00  0.00     0.031 A 
ATOM     38  C   UNL     1      -0.484   9.701  -1.392  1.00  0.00     0.074 A 
ATOM     39  C   UNL     1      -2.042   8.595  -2.983  1.00  0.00     0.049 A 
ATOM     40  N   UNL     1      -0.623  10.966  -1.680  1.00  0.00    -0.248 NA
ATOM     41  C   UNL     1       0.538   9.422  -0.367  1.00  0.00     0.031 C 
ATOM     42  C   UNL     1      -2.807   7.492  -3.563  1.00  0.00     0.029 A 
ATOM     43  N   UNL     1      -2.380   9.681  -3.748  1.00  0.00    -0.354 N 
ATOM     44  C   UNL     1       0.237  11.642  -0.818  1.00  0.00     0.074 A 
ATOM     45  C   UNL     1       0.892  10.645  -0.001  1.00  0.00     0.031 C 
ATOM     46  C   UNL     1      -3.561   7.965  -4.569  1.00  0.00     0.029 A 
ATOM     47  C   UNL     1      -3.372   9.410  -4.662  1.00  0.00     0.049 A 
ATOM     48  H   UNL     1      -1.957  10.565  -3.653  1.00  0.00     0.167 HD
ATOM     49  C   UNL     1       0.440  12.978  -0.714  1.00  0.00     0.031 A 
ATOM     50  C   UNL     1      -4.082  10.245  -5.444  1.00  0.00     0.031 A 
ATOM     51  C   UNL     1      -0.213  13.935  -1.568  1.00  0.00     0.049 A 
ATOM     52  C   UNL     1      -3.805  11.720  -5.353  1.00  0.00     0.074 A 
ATOM     53  C   UNL     1      -0.066  15.309  -1.605  1.00  0.00     0.029 A 
ATOM     54  N   UNL     1      -1.132  13.603  -2.556  1.00  0.00    -0.354 N 
ATOM     55  N   UNL     1      -3.005  12.357  -4.528  1.00  0.00    -0.248 NA
ATOM     56  C   UNL     1      -4.514  12.588  -6.301  1.00  0.00     0.031 C 
ATOM     57  C   UNL     1      -0.913  15.810  -2.600  1.00  0.00     0.029 A 
ATOM     58  C   UNL     1      -1.555  14.743  -3.212  1.00  0.00     0.049 A 
ATOM     59  H   UNL     1      -1.437  12.689  -2.758  1.00  0.00     0.167 HD
ATOM     60  C   UNL     1      -3.097  13.700  -4.871  1.00  0.00     0.074 A 
ATOM     61  C   UNL     1      -4.023  13.779  -5.986  1.00  0.00     0.031 C 
ATOM     62  C   UNL     1      -2.477  14.773  -4.320  1.00  0.00     0.031 A 
BRANCH  49  63
ATOM     63  C   UNL     1       1.372  13.469   0.366  1.00  0.00    -0.014 A 
ATOM     64  C   UNL     1       2.755  13.215   0.316  1.00  0.00     0.010 A 
ATOM     65  C   UNL     1       0.859  14.209   1.448  1.00  0.00     0.010 A 
ATOM     66  C   UNL     1       3.596  13.646   1.348  1.00  0.00     0.020 A 
ATOM     67  C   UNL     1       1.700  14.668   2.467  1.00  0.00     0.020 A 
ATOM     68  C   UNL     1       3.062  14.366   2.421  1.00  0.00     0.054 A 
BRANCH  68  69
ATOM     69  S   UNL     1       4.178  14.926   3.739  1.00  0.00     0.124 S 
ATOM     70  O   UNL     1       4.417  13.689   4.477  1.00  0.00    -0.237 OA
ATOM     71  O   UNL     1       5.322  15.444   2.994  1.00  0.00    -0.237 OA
ATOM     72  O   UNL     1       3.394  15.934   4.450  1.00  0.00    -0.744 OA
ENDBRANCH  68  69
ENDBRANCH  49  63
BRANCH  50  73
ATOM     73  C   UNL     1      -5.109   9.693  -6.367  1.00  0.00    -0.014 A 
ATOM     74  C   UNL     1      -4.843   9.608  -7.745  1.00  0.00     0.010 A 
ATOM     75  C   UNL     1      -6.323   9.180  -5.873  1.00  0.00     0.010 A 
ATOM     76  C   UNL     1      -5.766   9.014  -8.611  1.00  0.00     0.020 A 
ATOM     77  C   UNL     1      -7.240   8.565  -6.734  1.00  0.00     0.020 A 
ATOM     78  C   UNL     1      -6.955   8.487  -8.099  1.00  0.00     0.054 A 
BRANCH  78  79
ATOM     79  S   UNL     1      -8.088   7.628  -9.228  1.00  0.00     0.124 S 
ATOM     80  O   UNL     1      -8.707   8.739  -9.943  1.00  0.00    -0.237 OA
ATOM     81  O   UNL     1      -7.181   6.796 -10.014  1.00  0.00    -0.237 OA
ATOM     82  O   UNL     1      -8.973   6.890  -8.328  1.00  0.00    -0.744 OA
ENDBRANCH  78  79
ENDBRANCH  50  73
BRANCH  62  83
ATOM     83  C   UNL     1      -2.751  16.109  -4.950  1.00  0.00    -0.014 A 
ATOM     84  C   UNL     1      -3.958  16.788  -4.714  1.00  0.00     0.010 A 
ATOM     85  C   UNL     1      -1.763  16.707  -5.752  1.00  0.00     0.010 A 
ATOM     86  C   UNL     1      -4.187  18.034  -5.300  1.00  0.00     0.020 A 
ATOM     87  C   UNL     1      -1.980  17.962  -6.322  1.00  0.00     0.020 A 
ATOM     88  C   UNL     1      -3.198  18.611  -6.104  1.00  0.00     0.054 A 
BRANCH  88  89
ATOM     89  S   UNL     1      -3.503  20.244  -6.830  1.00  0.00     0.124 S 
ATOM     90  O   UNL     1      -4.397  19.920  -7.938  1.00  0.00    -0.237 OA
ATOM     91  O   UNL     1      -4.113  20.980  -5.725  1.00  0.00    -0.237 OA
ATOM     92  O   UNL     1      -2.171  20.704  -7.216  1.00  0.00    -0.744 OA
ENDBRANCH  88  89
ENDBRANCH  62  83
ENDBRANCH  36  37
ENDBRANCH  28  31
ENDBRANCH  26  27
ENDBRANCH   1  26
TORSDOF 15
