REMARK SMILES O=C(NCCCNC(=O)c1cc(F)c(F)cc1NS(=O)(=O)c1ccc2c(c1)CCC2)c1ccc(-c2c3nc(c(-c4ccc(S(=O)(=O)[O-])cc4)c4ccc([nH]4)c(-c4ccc(S(=O)(=O)[O-])cc4)c4nc(c(-c5ccc(S(=O)(=O)[O-])cc5)c5ccc2[nH]5)C=C4)C=C3)cc1
REMARK SMILES IDX 5 1 4 2 3 3 1 4 2 5 31 7 32 8 90 9 33 10 89 11 34 12 35 13
REMARK SMILES IDX 36 14 83 15 37 16 88 17 82 18 84 19 38 20 87 21 81 22 80 23
REMARK SMILES IDX 39 25 69 26 50 27 68 28 51 29 54 30 67 31 85 32 52 33 53 34
REMARK SMILES IDX 66 36 86 37 55 38 40 39 41 40 49 41 42 42 48 43 43 44 44 45
REMARK SMILES IDX 45 46 46 47 47 48 70 49 71 50 79 51 72 52 78 53 73 54 74 55
REMARK SMILES IDX 75 56 76 57 77 58 56 59 57 60 65 61 58 62 64 63 59 64 60 65
REMARK SMILES IDX 61 66 62 67 63 68 6 69 7 70 8 71 9 73 10 74 11 75 17 76
REMARK SMILES IDX 12 77 16 78 13 79 14 80 15 81 18 82 19 84 20 85 21 86 22 87
REMARK SMILES IDX 23 88 27 89 24 90 26 91 25 92 28 93 30 94 29 95
REMARK H PARENT 3 6 84 24 54 35 7 72 18 83
REMARK Flexibility Score: inf
ROOT
ATOM      1  C   UNL     1       4.979   2.483  -0.863  1.00  0.00     0.042 C 
ENDROOT
BRANCH   1   2
ATOM      2  C   UNL     1       4.665   1.366   0.125  1.00  0.00     0.118 C 
BRANCH   2   3
ATOM      3  N   UNL     1       3.237   1.110   0.247  1.00  0.00    -0.352 N 
ATOM      4  O   UNL     1       1.294   0.020  -0.056  1.00  0.00    -0.269 OA
ATOM      5  C   UNL     1       2.521  -0.025  -0.048  1.00  0.00     0.251 C 
ATOM      6  H   UNL     1       2.705   1.862   0.594  1.00  0.00     0.163 HD
BRANCH   5   7
ATOM      7  C   UNL     1       3.222  -1.288  -0.373  1.00  0.00     0.039 A 
ATOM      8  C   UNL     1       4.329  -1.705   0.369  1.00  0.00     0.014 A 
ATOM      9  C   UNL     1       2.743  -2.084  -1.419  1.00  0.00     0.014 A 
ATOM     10  C   UNL     1       5.035  -2.839  -0.016  1.00  0.00     0.010 A 
ATOM     11  C   UNL     1       3.405  -3.270  -1.752  1.00  0.00     0.010 A 
ATOM     12  C   UNL     1       4.572  -3.644  -1.070  1.00  0.00    -0.014 A 
BRANCH  12  13
ATOM     13  C   UNL     1       5.284  -4.909  -1.379  1.00  0.00     0.031 A 
ATOM     14  C   UNL     1       6.000  -5.104  -2.687  1.00  0.00     0.074 A 
ATOM     15  C   UNL     1       5.307  -5.878  -0.443  1.00  0.00     0.049 A 
ATOM     16  N   UNL     1       6.700  -6.135  -3.091  1.00  0.00    -0.248 NA
ATOM     17  C   UNL     1       5.917  -4.014  -3.673  1.00  0.00     0.031 C 
ATOM     18  C   UNL     1       4.633  -5.810   0.858  1.00  0.00     0.029 A 
ATOM     19  N   UNL     1       5.938  -7.095  -0.424  1.00  0.00    -0.354 N 
ATOM     20  C   UNL     1       7.120  -5.831  -4.380  1.00  0.00     0.074 A 
ATOM     21  C   UNL     1       6.588  -4.523  -4.699  1.00  0.00     0.031 C 
ATOM     22  C   UNL     1       4.929  -6.910   1.565  1.00  0.00     0.029 A 
ATOM     23  C   UNL     1       5.766  -7.783   0.753  1.00  0.00     0.049 A 
ATOM     24  H   UNL     1       6.462  -7.442  -1.182  1.00  0.00     0.167 HD
ATOM     25  C   UNL     1       7.881  -6.575  -5.218  1.00  0.00     0.031 A 
ATOM     26  C   UNL     1       6.223  -8.989   1.137  1.00  0.00     0.031 A 
ATOM     27  C   UNL     1       8.424  -7.868  -4.892  1.00  0.00     0.049 A 
ATOM     28  C   UNL     1       7.071  -9.785   0.191  1.00  0.00     0.074 A 
ATOM     29  C   UNL     1       9.239  -8.678  -5.665  1.00  0.00     0.029 A 
ATOM     30  N   UNL     1       8.210  -8.539  -3.699  1.00  0.00    -0.354 N 
ATOM     31  N   UNL     1       7.480  -9.463  -1.012  1.00  0.00    -0.248 NA
ATOM     32  C   UNL     1       7.515 -11.106   0.652  1.00  0.00     0.031 C 
ATOM     33  C   UNL     1       9.489  -9.856  -4.951  1.00  0.00     0.029 A 
ATOM     34  C   UNL     1       8.860  -9.762  -3.720  1.00  0.00     0.049 A 
ATOM     35  H   UNL     1       7.675  -8.197  -2.946  1.00  0.00     0.167 HD
ATOM     36  C   UNL     1       8.231 -10.544  -1.454  1.00  0.00     0.074 A 
ATOM     37  C   UNL     1       8.242 -11.516  -0.379  1.00  0.00     0.031 C 
ATOM     38  C   UNL     1       8.849 -10.720  -2.646  1.00  0.00     0.031 A 
BRANCH  25  39
ATOM     39  C   UNL     1       8.165  -6.019  -6.587  1.00  0.00    -0.014 A 
ATOM     40  C   UNL     1       9.130  -5.015  -6.776  1.00  0.00     0.010 A 
ATOM     41  C   UNL     1       7.509  -6.561  -7.707  1.00  0.00     0.010 A 
ATOM     42  C   UNL     1       9.420  -4.548  -8.062  1.00  0.00     0.020 A 
ATOM     43  C   UNL     1       7.808  -6.108  -8.996  1.00  0.00     0.020 A 
ATOM     44  C   UNL     1       8.754  -5.095  -9.163  1.00  0.00     0.054 A 
BRANCH  44  45
ATOM     45  S   UNL     1       9.175  -4.499 -10.825  1.00  0.00     0.124 S 
ATOM     46  O   UNL     1       8.477  -3.216 -10.869  1.00  0.00    -0.237 OA
ATOM     47  O   UNL     1      10.633  -4.418 -10.780  1.00  0.00    -0.237 OA
ATOM     48  O   UNL     1       8.639  -5.531 -11.709  1.00  0.00    -0.744 OA
ENDBRANCH  44  45
ENDBRANCH  25  39
BRANCH  26  49
ATOM     49  C   UNL     1       5.864  -9.518   2.478  1.00  0.00    -0.014 A 
ATOM     50  C   UNL     1       6.822  -9.575   3.505  1.00  0.00     0.010 A 
ATOM     51  C   UNL     1       4.548  -9.941   2.740  1.00  0.00     0.010 A 
ATOM     52  C   UNL     1       6.473 -10.059   4.769  1.00  0.00     0.020 A 
ATOM     53  C   UNL     1       4.191 -10.402   4.008  1.00  0.00     0.020 A 
ATOM     54  C   UNL     1       5.159 -10.470   5.012  1.00  0.00     0.054 A 
BRANCH  54  55
ATOM     55  S   UNL     1       4.701 -11.038   6.673  1.00  0.00     0.124 S 
ATOM     56  O   UNL     1       5.125 -12.434   6.642  1.00  0.00    -0.237 OA
ATOM     57  O   UNL     1       5.479 -10.158   7.542  1.00  0.00    -0.237 OA
ATOM     58  O   UNL     1       3.256 -10.820   6.716  1.00  0.00    -0.744 OA
ENDBRANCH  54  55
ENDBRANCH  26  49
BRANCH  38  59
ATOM     59  C   UNL     1       9.589 -12.011  -2.843  1.00  0.00    -0.014 A 
ATOM     60  C   UNL     1       8.894 -13.203  -3.111  1.00  0.00     0.010 A 
ATOM     61  C   UNL     1      10.994 -12.028  -2.786  1.00  0.00     0.010 A 
ATOM     62  C   UNL     1       9.591 -14.400  -3.288  1.00  0.00     0.020 A 
ATOM     63  C   UNL     1      11.695 -13.220  -2.982  1.00  0.00     0.020 A 
ATOM     64  C   UNL     1      10.987 -14.402  -3.216  1.00  0.00     0.054 A 
BRANCH  64  65
ATOM     65  S   UNL     1      11.878 -15.960  -3.479  1.00  0.00     0.124 S 
ATOM     66  O   UNL     1      11.746 -16.607  -2.176  1.00  0.00    -0.237 OA
ATOM     67  O   UNL     1      11.130 -16.583  -4.568  1.00  0.00    -0.237 OA
ATOM     68  O   UNL     1      13.229 -15.528  -3.828  1.00  0.00    -0.744 OA
ENDBRANCH  64  65
ENDBRANCH  38  59
ENDBRANCH  12  13
ENDBRANCH   5   7
ENDBRANCH   2   3
ENDBRANCH   1   2
BRANCH   1  69
ATOM     69  C   UNL     1       4.458   3.853  -0.447  1.00  0.00     0.118 C 
BRANCH  69  70
ATOM     70  N   UNL     1       5.052   4.288   0.808  1.00  0.00    -0.352 N 
ATOM     71  C   UNL     1       5.932   5.307   1.047  1.00  0.00     0.253 C 
ATOM     72  H   UNL     1       4.780   3.773   1.602  1.00  0.00     0.163 HD
ATOM     73  O   UNL     1       6.634   5.275   2.054  1.00  0.00    -0.269 OA
BRANCH  71  74
ATOM     74  C   UNL     1       6.050   6.453   0.121  1.00  0.00     0.067 A 
ATOM     75  C   UNL     1       4.875   7.008  -0.418  1.00  0.00     0.058 A 
ATOM     76  C   UNL     1       7.310   7.047  -0.120  1.00  0.00     0.065 A 
ATOM     77  C   UNL     1       4.956   8.105  -1.259  1.00  0.00     0.159 A 
ATOM     78  C   UNL     1       7.347   8.168  -0.957  1.00  0.00     0.070 A 
ATOM     79  F   UNL     1       3.842   8.595  -1.818  1.00  0.00    -0.204 F 
ATOM     80  C   UNL     1       6.184   8.685  -1.523  1.00  0.00     0.160 A 
ATOM     81  F   UNL     1       6.270   9.740  -2.345  1.00  0.00    -0.204 F 
BRANCH  76  82
ATOM     82  N   UNL     1       8.521   6.371   0.296  1.00  0.00    -0.279 N 
ATOM     83  H   UNL     1       8.590   5.398   0.167  1.00  0.00     0.180 HD
BRANCH  82  84
ATOM     84  S   UNL     1       9.825   7.198   0.997  1.00  0.00     0.261 S 
ATOM     85  O   UNL     1       9.283   8.134   1.958  1.00  0.00    -0.201 OA
ATOM     86  O   UNL     1      10.802   6.201   1.377  1.00  0.00    -0.201 OA
BRANCH  84  87
ATOM     87  C   UNL     1      10.540   8.128  -0.338  1.00  0.00     0.088 A 
ATOM     88  C   UNL     1      10.642   7.548  -1.618  1.00  0.00     0.022 A 
ATOM     89  C   UNL     1      10.743   9.499  -0.134  1.00  0.00     0.026 A 
ATOM     90  C   UNL     1      10.831   8.367  -2.735  1.00  0.00     0.005 A 
ATOM     91  C   UNL     1      10.909  10.292  -1.251  1.00  0.00    -0.043 A 
ATOM     92  C   UNL     1      10.912   9.739  -2.538  1.00  0.00    -0.045 A 
ATOM     93  C   UNL     1      11.037  11.781  -1.306  1.00  0.00     0.036 C 
ATOM     94  C   UNL     1      10.973  10.822  -3.571  1.00  0.00     0.036 C 
ATOM     95  C   UNL     1      10.559  12.048  -2.739  1.00  0.00     0.010 C 
ENDBRANCH  84  87
ENDBRANCH  82  84
ENDBRANCH  76  82
ENDBRANCH  71  74
ENDBRANCH  69  70
ENDBRANCH   1  69
TORSDOF 16
