REMARK SMILES CCCc1cc(OC(F)(F)F)cc2c1O[C@H](C(F)(F)F)C(C(=O)NCCCNC(=O)c1ccc(-c3c4nc(c(-c5ccc(S(=O)(=O)[O-])cc5)c5ccc([nH]5)c(-c5ccc(S(=O)(=O)[O-])cc5)c5nc(c(-c6ccc(S(=O)(=O)[O-])cc6)c6ccc3[nH]6)C=C5)C=C4)cc1)=C2
REMARK SMILES IDX 26 1 25 2 24 3 22 4 23 5 21 7 4 8 5 9 14 10 6 11 13 12 15 13
REMARK SMILES IDX 12 14 91 15 16 16 3 17 2 18 1 19 7 20 8 21 9 22 10 23 11 24
REMARK SMILES IDX 17 25 18 26 19 27 20 28 27 29 28 30 29 31 30 33 31 34 32 35
REMARK SMILES IDX 90 36 33 37 89 38 34 39 35 40 36 41 83 42 37 43 88 44 82 45
REMARK SMILES IDX 84 46 38 47 87 48 81 49 80 50 39 52 69 53 50 54 68 55 51 56
REMARK SMILES IDX 54 57 67 58 85 59 52 60 53 61 66 63 86 64 55 65 40 66 41 67
REMARK SMILES IDX 49 68 42 69 48 70 43 71 44 72 45 73 46 74 47 75 70 76 71 77
REMARK SMILES IDX 79 78 72 79 78 80 73 81 74 82 75 83 76 84 77 85 56 86 57 87
REMARK SMILES IDX 65 88 58 89 64 90 59 91 60 92 61 93 62 94 63 95
REMARK H PARENT 24 6 28 32 84 51 54 62
REMARK Flexibility Score: inf
ROOT
ATOM      1  C   UNL     1      -2.433   4.387  -5.619  1.00  0.00     0.042 C 
ENDROOT
BRANCH   1   2
ATOM      2  C   UNL     1      -3.275   3.604  -4.613  1.00  0.00     0.118 C 
BRANCH   2   3
ATOM      3  N   UNL     1      -2.969   2.189  -4.671  1.00  0.00    -0.352 N 
ATOM      4  C   UNL     1      -2.095   1.408  -3.995  1.00  0.00     0.251 C 
ATOM      5  O   UNL     1      -2.108   0.203  -4.251  1.00  0.00    -0.270 OA
ATOM      6  H   UNL     1      -3.505   1.698  -5.335  1.00  0.00     0.163 HD
BRANCH   4   7
ATOM      7  C   UNL     1      -1.215   1.908  -2.899  1.00  0.00     0.067 C 
ATOM      8  C   UNL     1       0.728   2.739   0.753  1.00  0.00    -0.002 A 
ATOM      9  C   UNL     1       1.132   4.076   0.991  1.00  0.00     0.054 A 
ATOM     10  C   UNL     1       0.087   2.449  -0.462  1.00  0.00     0.131 A 
ATOM     11  C   UNL     1       0.917   5.087   0.053  1.00  0.00     0.130 A 
ATOM     12  C   UNL     1      -0.117   3.458  -1.416  1.00  0.00     0.021 A 
ATOM     13  O   UNL     1      -0.401   1.188  -0.672  1.00  0.00    -0.475 OA
ATOM     14  C   UNL     1       0.300   4.766  -1.154  1.00  0.00     0.058 A 
ATOM     15  C   UNL     1      -0.866   3.174  -2.638  1.00  0.00     0.025 C 
ATOM     16  C   UNL     1      -0.646   0.791  -2.047  1.00  0.00     0.314 C 
BRANCH   8  17
ATOM     17  C   UNL     1       1.010   1.760   1.883  1.00  0.00     0.039 C 
BRANCH  17  18
ATOM     18  C   UNL     1       0.733   0.261   1.729  1.00  0.00     0.001 C 
ATOM     19  C   UNL     1       1.725  -0.444   0.816  1.00  0.00     0.004 C 
ENDBRANCH  17  18
ENDBRANCH   8  17
BRANCH  11  20
ATOM     20  O   UNL     1       1.235   6.408   0.186  1.00  0.00    -0.406 OA
BRANCH  20  21
ATOM     21  C   UNL     1       1.829   6.833   1.400  1.00  0.00     0.573 C 
ATOM     22  F   UNL     1       1.016   6.588   2.451  1.00  0.00    -0.132 F 
ATOM     23  F   UNL     1       3.016   6.224   1.601  1.00  0.00    -0.132 F 
ATOM     24  F   UNL     1       2.040   8.166   1.340  1.00  0.00    -0.132 F 
ENDBRANCH  20  21
ENDBRANCH  11  20
BRANCH  16  25
ATOM     25  C   UNL     1       0.616   0.164  -2.677  1.00  0.00     0.429 C 
ATOM     26  F   UNL     1       0.504  -0.054  -4.006  1.00  0.00    -0.167 F 
ATOM     27  F   UNL     1       1.710   0.947  -2.507  1.00  0.00    -0.167 F 
ATOM     28  F   UNL     1       0.894  -1.035  -2.107  1.00  0.00    -0.167 F 
ENDBRANCH  16  25
ENDBRANCH   4   7
ENDBRANCH   2   3
ENDBRANCH   1   2
BRANCH   1  29
ATOM     29  C   UNL     1      -2.910   4.197  -7.056  1.00  0.00     0.118 C 
BRANCH  29  30
ATOM     30  N   UNL     1      -4.229   4.781  -7.260  1.00  0.00    -0.352 N 
ATOM     31  C   UNL     1      -4.610   5.812  -8.081  1.00  0.00     0.251 C 
ATOM     32  H   UNL     1      -4.953   4.377  -6.731  1.00  0.00     0.163 HD
ATOM     33  O   UNL     1      -5.696   6.355  -7.905  1.00  0.00    -0.269 OA
BRANCH  31  34
ATOM     34  C   UNL     1      -3.719   6.258  -9.171  1.00  0.00     0.039 A 
ATOM     35  C   UNL     1      -3.595   7.625  -9.431  1.00  0.00     0.014 A 
ATOM     36  C   UNL     1      -3.040   5.326  -9.960  1.00  0.00     0.014 A 
ATOM     37  C   UNL     1      -2.751   8.059 -10.455  1.00  0.00     0.010 A 
ATOM     38  C   UNL     1      -2.146   5.762 -10.931  1.00  0.00     0.010 A 
ATOM     39  C   UNL     1      -1.999   7.132 -11.195  1.00  0.00    -0.014 A 
BRANCH  39  40
ATOM     40  C   UNL     1      -1.058   7.566 -12.256  1.00  0.00     0.031 A 
ATOM     41  C   UNL     1      -1.298   7.158 -13.685  1.00  0.00     0.074 A 
ATOM     42  C   UNL     1       0.051   8.254 -11.919  1.00  0.00     0.049 A 
ATOM     43  N   UNL     1      -0.540   7.347 -14.733  1.00  0.00    -0.248 NA
ATOM     44  C   UNL     1      -2.539   6.415 -13.968  1.00  0.00     0.031 C 
ATOM     45  C   UNL     1       0.412   8.668 -10.560  1.00  0.00     0.029 A 
ATOM     46  N   UNL     1       1.090   8.710 -12.690  1.00  0.00    -0.354 N 
ATOM     47  C   UNL     1      -1.194   6.725 -15.791  1.00  0.00     0.074 A 
ATOM     48  C   UNL     1      -2.392   6.121 -15.252  1.00  0.00     0.031 C 
ATOM     49  C   UNL     1       1.582   9.326 -10.597  1.00  0.00     0.029 A 
ATOM     50  C   UNL     1       2.076   9.343 -11.970  1.00  0.00     0.049 A 
ATOM     51  H   UNL     1       1.127   8.595 -13.667  1.00  0.00     0.167 HD
ATOM     52  C   UNL     1      -0.834   6.675 -17.095  1.00  0.00     0.031 A 
ATOM     53  C   UNL     1       3.255   9.861 -12.366  1.00  0.00     0.031 A 
ATOM     54  C   UNL     1       0.346   7.302 -17.626  1.00  0.00     0.049 A 
ATOM     55  C   UNL     1       3.625   9.799 -13.823  1.00  0.00     0.074 A 
ATOM     56  C   UNL     1       0.761   7.373 -18.944  1.00  0.00     0.029 A 
ATOM     57  N   UNL     1       1.300   7.965 -16.869  1.00  0.00    -0.354 N 
ATOM     58  N   UNL     1       2.955   9.273 -14.821  1.00  0.00    -0.248 NA
ATOM     59  C   UNL     1       4.904  10.410 -14.211  1.00  0.00     0.031 C 
ATOM     60  C   UNL     1       1.993   8.033 -18.978  1.00  0.00     0.029 A 
ATOM     61  C   UNL     1       2.314   8.427 -17.689  1.00  0.00     0.049 A 
ATOM     62  H   UNL     1       1.261   8.090 -15.893  1.00  0.00     0.167 HD
ATOM     63  C   UNL     1       3.717   9.516 -15.958  1.00  0.00     0.074 A 
ATOM     64  C   UNL     1       4.890  10.249 -15.527  1.00  0.00     0.031 C 
ATOM     65  C   UNL     1       3.469   9.165 -17.243  1.00  0.00     0.031 A 
BRANCH  52  66
ATOM     66  C   UNL     1      -1.722   5.915 -18.045  1.00  0.00    -0.014 A 
ATOM     67  C   UNL     1      -2.987   6.409 -18.412  1.00  0.00     0.010 A 
ATOM     68  C   UNL     1      -1.252   4.729 -18.639  1.00  0.00     0.010 A 
ATOM     69  C   UNL     1      -3.776   5.717 -19.335  1.00  0.00     0.020 A 
ATOM     70  C   UNL     1      -2.026   4.049 -19.583  1.00  0.00     0.020 A 
ATOM     71  C   UNL     1      -3.289   4.543 -19.917  1.00  0.00     0.054 A 
BRANCH  71  72
ATOM     72  S   UNL     1      -4.313   3.697 -21.152  1.00  0.00     0.124 S 
ATOM     73  O   UNL     1      -5.375   3.130 -20.326  1.00  0.00    -0.237 OA
ATOM     74  O   UNL     1      -4.719   4.789 -22.033  1.00  0.00    -0.237 OA
ATOM     75  O   UNL     1      -3.403   2.723 -21.751  1.00  0.00    -0.744 OA
ENDBRANCH  71  72
ENDBRANCH  52  66
BRANCH  53  76
ATOM     76  C   UNL     1       4.173  10.478 -11.370  1.00  0.00    -0.014 A 
ATOM     77  C   UNL     1       4.407  11.864 -11.372  1.00  0.00     0.010 A 
ATOM     78  C   UNL     1       4.827   9.677 -10.416  1.00  0.00     0.010 A 
ATOM     79  C   UNL     1       5.302  12.434 -10.460  1.00  0.00     0.020 A 
ATOM     80  C   UNL     1       5.699  10.246  -9.483  1.00  0.00     0.020 A 
ATOM     81  C   UNL     1       5.944  11.620  -9.523  1.00  0.00     0.054 A 
BRANCH  81  82
ATOM     82  S   UNL     1       7.081  12.382  -8.333  1.00  0.00     0.124 S 
ATOM     83  O   UNL     1       8.244  12.669  -9.166  1.00  0.00    -0.237 OA
ATOM     84  O   UNL     1       6.326  13.546  -7.876  1.00  0.00    -0.237 OA
ATOM     85  O   UNL     1       7.271  11.339  -7.327  1.00  0.00    -0.744 OA
ENDBRANCH  81  82
ENDBRANCH  53  76
BRANCH  65  86
ATOM     86  C   UNL     1       4.458   9.604 -18.288  1.00  0.00    -0.014 A 
ATOM     87  C   UNL     1       5.722   9.000 -18.397  1.00  0.00     0.010 A 
ATOM     88  C   UNL     1       4.084  10.590 -19.221  1.00  0.00     0.010 A 
ATOM     89  C   UNL     1       6.605   9.392 -19.407  1.00  0.00     0.020 A 
ATOM     90  C   UNL     1       4.953  10.963 -20.248  1.00  0.00     0.020 A 
ATOM     91  C   UNL     1       6.213  10.369 -20.327  1.00  0.00     0.054 A 
BRANCH  91  92
ATOM     92  S   UNL     1       7.356  10.818 -21.662  1.00  0.00     0.124 S 
ATOM     93  O   UNL     1       8.363  11.599 -20.950  1.00  0.00    -0.237 OA
ATOM     94  O   UNL     1       7.801   9.516 -22.154  1.00  0.00    -0.237 OA
ATOM     95  O   UNL     1       6.522  11.576 -22.592  1.00  0.00    -0.744 OA
ENDBRANCH  91  92
ENDBRANCH  65  86
ENDBRANCH  39  40
ENDBRANCH  31  34
ENDBRANCH  29  30
ENDBRANCH   1  29
TORSDOF 18
