REMARK SMILES Cc1nc(C[NH2+][C@@H](C(=O)NCCCNC(=O)c2ccc(-c3c4nc(c(-c5ccc(S(=O)(=O)[O-])cc5)c5ccc([nH]5)c(-c5ccc(S(=O)(=O)[O-])cc5)c5nc(c(-c6ccc(S(=O)(=O)[O-])cc6)c6ccc3[nH]6)C=C5)C=C4)cc2)c2ccccc2)sc1C
REMARK SMILES IDX 12 1 11 2 10 3 8 4 9 5 7 7 6 8 5 11 4 12 1 13 2 14 3 15
REMARK SMILES IDX 84 16 83 17 85 18 77 19 78 20 82 21 79 22 81 23 80 24 13 25
REMARK SMILES IDX 14 26 15 27 16 29 17 30 18 31 76 32 19 33 75 34 20 35 21 36
REMARK SMILES IDX 22 37 69 38 23 39 74 40 68 41 70 42 24 43 73 44 67 45 66 46
REMARK SMILES IDX 25 48 55 49 36 50 54 51 37 52 40 53 53 54 71 55 38 56 39 57
REMARK SMILES IDX 52 59 72 60 41 61 26 62 27 63 35 64 28 65 34 66 29 67 30 68
REMARK SMILES IDX 31 69 32 70 33 71 56 72 57 73 65 74 58 75 64 76 59 77 60 78
REMARK SMILES IDX 61 79 62 80 63 81 42 82 43 83 51 84 44 85 50 86 45 87 46 88
REMARK SMILES IDX 47 89 48 90 49 91
REMARK H PARENT 10 6 6 9 6 10 14 28 70 47 40 58
REMARK Flexibility Score: inf
ROOT
ATOM      1  C   UNL     1      -3.970   1.862  -1.653  1.00  0.00     0.042 C 
ENDROOT
BRANCH   1   2
ATOM      2  C   UNL     1      -4.104   3.285  -1.081  1.00  0.00     0.118 C 
BRANCH   2   3
ATOM      3  N   UNL     1      -4.518   3.293   0.317  1.00  0.00    -0.351 N 
ATOM      4  C   UNL     1      -3.886   3.613   1.487  1.00  0.00     0.283 C 
ATOM      5  O   UNL     1      -4.496   3.288   2.512  1.00  0.00    -0.268 OA
ATOM      6  H   UNL     1      -5.451   3.007   0.446  1.00  0.00     0.163 HD
BRANCH   4   7
ATOM      7  C   UNL     1      -2.480   4.312   1.530  1.00  0.00     0.304 C 
BRANCH   7   8
ATOM      8  N   UNL     1      -1.376   3.328   1.709  1.00  0.00    -0.326 N 
ATOM      9  H   UNL     1      -0.503   3.832   1.865  1.00  0.00     0.347 HD
ATOM     10  H   UNL     1      -1.597   2.736   2.509  1.00  0.00     0.347 HD
BRANCH   8  11
ATOM     11  C   UNL     1      -1.232   2.480   0.532  1.00  0.00     0.330 C 
BRANCH  11  12
ATOM     12  C   UNL     1      -0.248   1.349   0.624  1.00  0.00     0.148 A 
ATOM     13  C   UNL     1       3.046   0.074  -0.046  1.00  0.00     0.068 C 
ATOM     14  C   UNL     1       1.596   0.172   0.263  1.00  0.00     0.052 A 
ATOM     15  N   UNL     1       1.045   1.441   0.399  1.00  0.00    -0.240 NA
ATOM     16  C   UNL     1       0.693  -0.872   0.384  1.00  0.00     0.025 A 
ATOM     17  S   UNL     1      -0.846  -0.257   0.803  1.00  0.00    -0.118 S 
ATOM     18  C   UNL     1       0.897  -2.335   0.199  1.00  0.00     0.058 C 
ENDBRANCH  11  12
ENDBRANCH   8  11
ENDBRANCH   7   8
BRANCH   7  19
ATOM     19  C   UNL     1      -2.411   5.337   2.671  1.00  0.00     0.019 A 
ATOM     20  C   UNL     1      -2.545   4.939   4.015  1.00  0.00     0.010 A 
ATOM     21  C   UNL     1      -2.192   6.698   2.405  1.00  0.00     0.010 A 
ATOM     22  C   UNL     1      -2.478   5.867   5.056  1.00  0.00     0.001 A 
ATOM     23  C   UNL     1      -2.122   7.627   3.450  1.00  0.00     0.001 A 
ATOM     24  C   UNL     1      -2.267   7.212   4.773  1.00  0.00     0.000 A 
ENDBRANCH   7  19
ENDBRANCH   4   7
ENDBRANCH   2   3
ENDBRANCH   1   2
BRANCH   1  25
ATOM     25  C   UNL     1      -5.242   1.017  -1.610  1.00  0.00     0.118 C 
BRANCH  25  26
ATOM     26  N   UNL     1      -5.993   1.103  -2.846  1.00  0.00    -0.352 N 
ATOM     27  C   UNL     1      -6.213   0.153  -3.817  1.00  0.00     0.251 C 
ATOM     28  H   UNL     1      -6.412   1.978  -3.018  1.00  0.00     0.163 HD
ATOM     29  O   UNL     1      -6.684   0.513  -4.894  1.00  0.00    -0.269 OA
BRANCH  27  30
ATOM     30  C   UNL     1      -5.881  -1.281  -3.603  1.00  0.00     0.039 A 
ATOM     31  C   UNL     1      -5.372  -2.013  -4.682  1.00  0.00     0.014 A 
ATOM     32  C   UNL     1      -6.133  -1.935  -2.394  1.00  0.00     0.014 A 
ATOM     33  C   UNL     1      -5.083  -3.375  -4.539  1.00  0.00     0.010 A 
ATOM     34  C   UNL     1      -5.777  -3.279  -2.230  1.00  0.00     0.010 A 
ATOM     35  C   UNL     1      -5.261  -4.019  -3.304  1.00  0.00    -0.014 A 
BRANCH  35  36
ATOM     36  C   UNL     1      -4.933  -5.463  -3.138  1.00  0.00     0.031 A 
ATOM     37  C   UNL     1      -6.016  -6.466  -2.826  1.00  0.00     0.074 A 
ATOM     38  C   UNL     1      -3.653  -5.878  -3.234  1.00  0.00     0.049 A 
ATOM     39  N   UNL     1      -5.913  -7.757  -2.628  1.00  0.00    -0.248 NA
ATOM     40  C   UNL     1      -7.388  -5.950  -2.700  1.00  0.00     0.031 C 
ATOM     41  C   UNL     1      -2.500  -5.014  -3.495  1.00  0.00     0.029 A 
ATOM     42  N   UNL     1      -3.107  -7.134  -3.124  1.00  0.00    -0.354 N 
ATOM     43  C   UNL     1      -7.198  -8.202  -2.336  1.00  0.00     0.074 A 
ATOM     44  C   UNL     1      -8.056  -7.037  -2.342  1.00  0.00     0.031 C 
ATOM     45  C   UNL     1      -1.390  -5.768  -3.552  1.00  0.00     0.029 A 
ATOM     46  C   UNL     1      -1.744  -7.162  -3.300  1.00  0.00     0.049 A 
ATOM     47  H   UNL     1      -3.642  -7.939  -2.936  1.00  0.00     0.167 HD
ATOM     48  C   UNL     1      -7.632  -9.465  -2.101  1.00  0.00     0.031 A 
ATOM     49  C   UNL     1      -0.872  -8.189  -3.262  1.00  0.00     0.031 A 
ATOM     50  C   UNL     1      -6.788 -10.631  -2.115  1.00  0.00     0.049 A 
ATOM     51  C   UNL     1      -1.376  -9.583  -3.012  1.00  0.00     0.074 A 
ATOM     52  C   UNL     1      -7.150 -11.957  -1.945  1.00  0.00     0.029 A 
ATOM     53  N   UNL     1      -5.416 -10.614  -2.310  1.00  0.00    -0.354 N 
ATOM     54  N   UNL     1      -2.605  -9.987  -2.797  1.00  0.00    -0.248 NA
ATOM     55  C   UNL     1      -0.377 -10.662  -3.011  1.00  0.00     0.031 C 
ATOM     56  C   UNL     1      -5.990 -12.738  -1.998  1.00  0.00     0.029 A 
ATOM     57  C   UNL     1      -4.913 -11.902  -2.248  1.00  0.00     0.049 A 
ATOM     58  H   UNL     1      -4.878  -9.804  -2.469  1.00  0.00     0.167 HD
ATOM     59  C   UNL     1      -2.530 -11.368  -2.657  1.00  0.00     0.074 A 
ATOM     60  C   UNL     1      -1.138 -11.733  -2.825  1.00  0.00     0.031 C 
ATOM     61  C   UNL     1      -3.526 -12.255  -2.414  1.00  0.00     0.031 A 
BRANCH  48  62
ATOM     62  C   UNL     1      -9.097  -9.652  -1.804  1.00  0.00    -0.014 A 
ATOM     63  C   UNL     1     -10.066  -9.506  -2.814  1.00  0.00     0.010 A 
ATOM     64  C   UNL     1      -9.508 -10.015  -0.509  1.00  0.00     0.010 A 
ATOM     65  C   UNL     1     -11.422  -9.674  -2.523  1.00  0.00     0.020 A 
ATOM     66  C   UNL     1     -10.862 -10.210  -0.220  1.00  0.00     0.020 A 
ATOM     67  C   UNL     1     -11.812 -10.019  -1.225  1.00  0.00     0.054 A 
BRANCH  67  68
ATOM     68  S   UNL     1     -13.579 -10.242  -0.877  1.00  0.00     0.124 S 
ATOM     69  O   UNL     1     -14.052  -8.861  -0.831  1.00  0.00    -0.237 OA
ATOM     70  O   UNL     1     -14.037 -11.025  -2.022  1.00  0.00    -0.237 OA
ATOM     71  O   UNL     1     -13.592 -10.949   0.402  1.00  0.00    -0.744 OA
ENDBRANCH  67  68
ENDBRANCH  48  62
BRANCH  49  72
ATOM     72  C   UNL     1       0.577  -7.935  -3.489  1.00  0.00    -0.014 A 
ATOM     73  C   UNL     1       1.188  -8.322  -4.694  1.00  0.00     0.010 A 
ATOM     74  C   UNL     1       1.346  -7.286  -2.506  1.00  0.00     0.010 A 
ATOM     75  C   UNL     1       2.547  -8.072  -4.909  1.00  0.00     0.020 A 
ATOM     76  C   UNL     1       2.698  -7.014  -2.728  1.00  0.00     0.020 A 
ATOM     77  C   UNL     1       3.292  -7.417  -3.925  1.00  0.00     0.054 A 
BRANCH  77  78
ATOM     78  S   UNL     1       5.038  -7.040  -4.250  1.00  0.00     0.124 S 
ATOM     79  O   UNL     1       5.673  -8.336  -4.035  1.00  0.00    -0.237 OA
ATOM     80  O   UNL     1       5.009  -6.569  -5.633  1.00  0.00    -0.237 OA
ATOM     81  O   UNL     1       5.351  -6.013  -3.258  1.00  0.00    -0.744 OA
ENDBRANCH  77  78
ENDBRANCH  49  72
BRANCH  61  82
ATOM     82  C   UNL     1      -3.157 -13.711  -2.340  1.00  0.00    -0.014 A 
ATOM     83  C   UNL     1      -2.488 -14.236  -1.221  1.00  0.00     0.010 A 
ATOM     84  C   UNL     1      -3.536 -14.578  -3.382  1.00  0.00     0.010 A 
ATOM     85  C   UNL     1      -2.181 -15.598  -1.156  1.00  0.00     0.020 A 
ATOM     86  C   UNL     1      -3.250 -15.944  -3.311  1.00  0.00     0.020 A 
ATOM     87  C   UNL     1      -2.562 -16.443  -2.203  1.00  0.00     0.054 A 
BRANCH  87  88
ATOM     88  S   UNL     1      -2.194 -18.215  -2.077  1.00  0.00     0.124 S 
ATOM     89  O   UNL     1      -0.765 -18.250  -2.378  1.00  0.00    -0.237 OA
ATOM     90  O   UNL     1      -2.552 -18.521  -0.694  1.00  0.00    -0.237 OA
ATOM     91  O   UNL     1      -3.059 -18.821  -3.086  1.00  0.00    -0.744 OA
ENDBRANCH  87  88
ENDBRANCH  61  82
ENDBRANCH  35  36
ENDBRANCH  27  30
ENDBRANCH  25  26
ENDBRANCH   1  25
TORSDOF 17
