REMARK SMILES COc1ccc([C@H]2C[NH2+]C[C@@H]2C(=O)NCCCNC(=O)c2ccc(-c3c4nc(c(-c5ccc(S(=O)(=O)[O-])cc5)c5ccc([nH]5)c(-c5ccc(S(=O)(=O)[O-])cc5)c5nc(c(-c6ccc(S(=O)(=O)[O-])cc6)c6ccc3[nH]6)C=C5)C=C4)cc2)cc1OC
REMARK SMILES IDX 16 1 15 2 14 3 12 4 13 5 11 7 7 8 8 9 9 10 10 11 6 14 3 15
REMARK SMILES IDX 4 16 82 17 5 18 81 19 2 20 1 21 83 22 84 23 17 24 18 25
REMARK SMILES IDX 19 26 20 28 21 29 22 30 80 31 23 32 79 33 24 34 25 35 26 36
REMARK SMILES IDX 73 37 27 38 78 39 72 40 74 41 28 42 77 43 71 44 70 45 29 47
REMARK SMILES IDX 59 48 40 49 58 50 41 51 44 52 57 53 75 54 42 55 43 56 56 58
REMARK SMILES IDX 76 59 45 60 30 61 31 62 39 63 32 64 38 65 33 66 34 67 35 68
REMARK SMILES IDX 36 69 37 70 60 71 61 72 69 73 62 74 68 75 63 76 64 77 65 78
REMARK SMILES IDX 66 79 67 80 46 81 47 82 55 83 48 84 54 85 49 86 50 87 51 88
REMARK SMILES IDX 52 89 53 90
REMARK H PARENT 14 6 9 12 9 13 18 27 74 46 44 57
REMARK Flexibility Score: inf
ROOT
ATOM      1  C   UNL     1       3.602  -0.501   8.544  1.00  0.00     0.042 C 
ENDROOT
BRANCH   1   2
ATOM      2  C   UNL     1       4.222   0.784   8.016  1.00  0.00     0.117 C 
BRANCH   2   3
ATOM      3  N   UNL     1       4.213   0.865   6.562  1.00  0.00    -0.356 N 
ATOM      4  C   UNL     1       3.613   1.801   5.759  1.00  0.00     0.229 C 
ATOM      5  O   UNL     1       3.740   1.712   4.540  1.00  0.00    -0.275 OA
ATOM      6  H   UNL     1       4.704   0.152   6.092  1.00  0.00     0.163 HD
BRANCH   4   7
ATOM      7  C   UNL     1       2.791   2.885   6.439  1.00  0.00     0.146 C 
ATOM      8  C   UNL     1       1.970   3.761   5.475  1.00  0.00     0.092 C 
ATOM      9  C   UNL     1       2.998   4.863   5.175  1.00  0.00     0.269 C 
ATOM     10  N   UNL     1       3.606   5.173   6.479  1.00  0.00    -0.345 N 
ATOM     11  C   UNL     1       3.707   3.874   7.165  1.00  0.00     0.274 C 
ATOM     12  H   UNL     1       3.015   5.814   7.008  1.00  0.00     0.346 HD
ATOM     13  H   UNL     1       4.513   5.629   6.382  1.00  0.00     0.346 HD
BRANCH   8  14
ATOM     14  C   UNL     1       0.644   4.297   6.043  1.00  0.00    -0.034 A 
ATOM     15  C   UNL     1      -1.919   5.128   6.964  1.00  0.00     0.160 A 
ATOM     16  C   UNL     1      -1.329   5.724   5.842  1.00  0.00     0.051 A 
ATOM     17  C   UNL     1      -1.238   4.119   7.639  1.00  0.00     0.161 A 
ATOM     18  C   UNL     1      -0.066   5.310   5.384  1.00  0.00     0.008 A 
ATOM     19  C   UNL     1       0.026   3.729   7.170  1.00  0.00     0.054 A 
BRANCH  15  20
ATOM     20  O   UNL     1      -3.223   5.438   7.235  1.00  0.00    -0.493 OA
ATOM     21  C   UNL     1      -3.349   6.584   8.074  1.00  0.00     0.278 C 
ENDBRANCH  15  20
BRANCH  17  22
ATOM     22  O   UNL     1      -1.632   3.353   8.699  1.00  0.00    -0.493 OA
ATOM     23  C   UNL     1      -2.726   3.770   9.491  1.00  0.00     0.278 C 
ENDBRANCH  17  22
ENDBRANCH   8  14
ENDBRANCH   4   7
ENDBRANCH   2   3
ENDBRANCH   1   2
BRANCH   1  24
ATOM     24  C   UNL     1       4.380  -1.759   8.182  1.00  0.00     0.118 C 
BRANCH  24  25
ATOM     25  N   UNL     1       5.742  -1.750   8.701  1.00  0.00    -0.352 N 
ATOM     26  C   UNL     1       6.370  -2.615   9.563  1.00  0.00     0.251 C 
ATOM     27  H   UNL     1       6.301  -1.005   8.383  1.00  0.00     0.163 HD
ATOM     28  O   UNL     1       7.477  -2.321  10.011  1.00  0.00    -0.269 OA
BRANCH  26  29
ATOM     29  C   UNL     1       5.716  -3.876   9.972  1.00  0.00     0.039 A 
ATOM     30  C   UNL     1       5.803  -4.280  11.306  1.00  0.00     0.014 A 
ATOM     31  C   UNL     1       5.023  -4.662   9.048  1.00  0.00     0.014 A 
ATOM     32  C   UNL     1       5.130  -5.429  11.727  1.00  0.00     0.010 A 
ATOM     33  C   UNL     1       4.280  -5.754   9.486  1.00  0.00     0.010 A 
ATOM     34  C   UNL     1       4.324  -6.150  10.831  1.00  0.00    -0.014 A 
BRANCH  34  35
ATOM     35  C   UNL     1       3.506  -7.304  11.283  1.00  0.00     0.031 A 
ATOM     36  C   UNL     1       3.738  -8.676  10.709  1.00  0.00     0.074 A 
ATOM     37  C   UNL     1       2.496  -7.101  12.152  1.00  0.00     0.049 A 
ATOM     38  N   UNL     1       3.083  -9.785  10.935  1.00  0.00    -0.248 NA
ATOM     39  C   UNL     1       4.831  -8.813   9.732  1.00  0.00     0.031 C 
ATOM     40  C   UNL     1       2.133  -5.809  12.741  1.00  0.00     0.029 A 
ATOM     41  N   UNL     1       1.579  -7.974  12.683  1.00  0.00    -0.354 N 
ATOM     42  C   UNL     1       3.665 -10.744  10.114  1.00  0.00     0.074 A 
ATOM     43  C   UNL     1       4.696 -10.075   9.351  1.00  0.00     0.031 C 
ATOM     44  C   UNL     1       1.088  -5.978  13.565  1.00  0.00     0.029 A 
ATOM     45  C   UNL     1       0.673  -7.377  13.528  1.00  0.00     0.049 A 
ATOM     46  H   UNL     1       1.571  -8.937  12.478  1.00  0.00     0.167 HD
ATOM     47  C   UNL     1       3.377 -12.064  10.013  1.00  0.00     0.031 A 
ATOM     48  C   UNL     1      -0.384  -7.888  14.189  1.00  0.00     0.031 A 
ATOM     49  C   UNL     1       2.352 -12.724  10.779  1.00  0.00     0.049 A 
ATOM     50  C   UNL     1      -0.688  -9.355  14.062  1.00  0.00     0.074 A 
ATOM     51  C   UNL     1       2.034 -14.071  10.806  1.00  0.00     0.029 A 
ATOM     52  N   UNL     1       1.469 -12.087  11.638  1.00  0.00    -0.354 N 
ATOM     53  N   UNL     1      -0.066 -10.265  13.350  1.00  0.00    -0.248 NA
ATOM     54  C   UNL     1      -1.826  -9.867  14.836  1.00  0.00     0.031 C 
ATOM     55  C   UNL     1       0.914 -14.238  11.627  1.00  0.00     0.029 A 
ATOM     56  C   UNL     1       0.580 -13.007  12.170  1.00  0.00     0.049 A 
ATOM     57  H   UNL     1       1.473 -11.124  11.841  1.00  0.00     0.167 HD
ATOM     58  C   UNL     1      -0.726 -11.462  13.605  1.00  0.00     0.074 A 
ATOM     59  C   UNL     1      -1.782 -11.162  14.551  1.00  0.00     0.031 C 
ATOM     60  C   UNL     1      -0.477 -12.696  13.102  1.00  0.00     0.031 A 
BRANCH  47  61
ATOM     61  C   UNL     1       4.167 -12.877   9.018  1.00  0.00    -0.014 A 
ATOM     62  C   UNL     1       5.540 -13.127   9.198  1.00  0.00     0.010 A 
ATOM     63  C   UNL     1       3.516 -13.424   7.897  1.00  0.00     0.010 A 
ATOM     64  C   UNL     1       6.257 -13.860   8.249  1.00  0.00     0.020 A 
ATOM     65  C   UNL     1       4.222 -14.187   6.963  1.00  0.00     0.020 A 
ATOM     66  C   UNL     1       5.594 -14.382   7.134  1.00  0.00     0.054 A 
BRANCH  66  67
ATOM     67  S   UNL     1       6.549 -15.333   5.921  1.00  0.00     0.124 S 
ATOM     68  O   UNL     1       7.343 -14.289   5.278  1.00  0.00    -0.237 OA
ATOM     69  O   UNL     1       7.299 -16.262   6.762  1.00  0.00    -0.237 OA
ATOM     70  O   UNL     1       5.527 -15.946   5.076  1.00  0.00    -0.744 OA
ENDBRANCH  66  67
ENDBRANCH  47  61
BRANCH  48  71
ATOM     71  C   UNL     1      -1.227  -6.993  15.028  1.00  0.00    -0.014 A 
ATOM     72  C   UNL     1      -1.194  -7.080  16.431  1.00  0.00     0.010 A 
ATOM     73  C   UNL     1      -2.036  -6.012  14.424  1.00  0.00     0.010 A 
ATOM     74  C   UNL     1      -1.955  -6.205  17.212  1.00  0.00     0.020 A 
ATOM     75  C   UNL     1      -2.774  -5.116  15.202  1.00  0.00     0.020 A 
ATOM     76  C   UNL     1      -2.733  -5.223  16.593  1.00  0.00     0.054 A 
BRANCH  76  77
ATOM     77  S   UNL     1      -3.645  -4.045  17.630  1.00  0.00     0.124 S 
ATOM     78  O   UNL     1      -4.710  -4.881  18.175  1.00  0.00    -0.237 OA
ATOM     79  O   UNL     1      -2.627  -3.613  18.584  1.00  0.00    -0.237 OA
ATOM     80  O   UNL     1      -4.076  -3.018  16.684  1.00  0.00    -0.744 OA
ENDBRANCH  76  77
ENDBRANCH  48  71
BRANCH  60  81
ATOM     81  C   UNL     1      -1.347 -13.831  13.578  1.00  0.00    -0.014 A 
ATOM     82  C   UNL     1      -2.692 -13.937  13.183  1.00  0.00     0.010 A 
ATOM     83  C   UNL     1      -0.789 -14.841  14.384  1.00  0.00     0.010 A 
ATOM     84  C   UNL     1      -3.470 -15.018  13.606  1.00  0.00     0.020 A 
ATOM     85  C   UNL     1      -1.554 -15.939  14.783  1.00  0.00     0.020 A 
ATOM     86  C   UNL     1      -2.895 -16.014  14.402  1.00  0.00     0.054 A 
BRANCH  86  87
ATOM     87  S   UNL     1      -3.913 -17.432  14.895  1.00  0.00     0.124 S 
ATOM     88  O   UNL     1      -4.817 -16.832  15.873  1.00  0.00    -0.237 OA
ATOM     89  O   UNL     1      -4.529 -17.837  13.634  1.00  0.00    -0.237 OA
ATOM     90  O   UNL     1      -2.945 -18.381  15.443  1.00  0.00    -0.744 OA
ENDBRANCH  86  87
ENDBRANCH  60  81
ENDBRANCH  34  35
ENDBRANCH  26  29
ENDBRANCH  24  25
ENDBRANCH   1  24
TORSDOF 16
