REMARK SMILES [NH3+][C@H](CCc1c[nH]nc1C(F)(F)F)C(=O)NCCCNC(=O)c1ccc(-c2c3nc(c(-c4ccc(S(=O)(=O)[O-])cc4)c4ccc([nH]4)c(-c4ccc(S(=O)(=O)[O-])cc4)c4nc(c(-c5ccc(S(=O)(=O)[O-])cc5)c5ccc2[nH]5)C=C4)C=C3)cc1
REMARK SMILES IDX 17 1 16 2 14 3 15 4 2 6 1 7 3 11 4 12 5 13 6 14 9 15 7 16
REMARK SMILES IDX 8 17 10 19 11 20 12 21 13 22 18 23 19 24 20 25 21 26 22 28
REMARK SMILES IDX 23 29 24 30 82 31 25 32 81 33 26 34 27 35 28 36 75 37 29 38
REMARK SMILES IDX 80 39 74 40 76 41 30 42 79 43 73 44 72 45 31 47 61 48 42 49
REMARK SMILES IDX 60 50 43 51 46 52 59 53 77 54 44 55 45 56 58 58 78 59 47 60
REMARK SMILES IDX 32 61 33 62 41 63 34 64 40 65 35 66 36 67 37 68 38 69 39 70
REMARK SMILES IDX 62 71 63 72 71 73 64 74 70 75 65 76 66 77 67 78 68 79 69 80
REMARK SMILES IDX 48 81 49 82 57 83 50 84 56 85 51 86 52 87 53 88 54 89 55 90
REMARK H PARENT 16 5 1 8 1 9 1 10 7 18 20 27 76 46 46 57
REMARK Flexibility Score: inf
ROOT
ATOM      1  C   UNL     1      -1.333  -1.098   1.885  1.00  0.00     0.118 C 
ENDROOT
BRANCH   1   2
ATOM      2  N   UNL     1      -1.827  -1.069   0.529  1.00  0.00    -0.351 N 
ATOM      3  C   UNL     1      -1.153  -1.083  -0.654  1.00  0.00     0.278 C 
ATOM      4  O   UNL     1      -1.818  -0.931  -1.683  1.00  0.00    -0.268 OA
ATOM      5  H   UNL     1      -2.807  -1.033   0.446  1.00  0.00     0.163 HD
BRANCH   3   6
ATOM      6  C   UNL     1       0.376  -1.328  -0.721  1.00  0.00     0.271 C 
BRANCH   6   7
ATOM      7  N   UNL     1       0.658  -2.729  -0.394  1.00  0.00    -0.347 N 
ATOM      8  H   UNL     1      -0.012  -3.331  -0.872  1.00  0.00     0.345 HD
ATOM      9  H   UNL     1       0.579  -2.865   0.614  1.00  0.00     0.345 HD
ATOM     10  H   UNL     1       1.603  -2.965  -0.696  1.00  0.00     0.345 HD
ENDBRANCH   6   7
BRANCH   6  11
ATOM     11  C   UNL     1       1.258  -0.209  -0.116  1.00  0.00     0.080 C 
BRANCH  11  12
ATOM     12  C   UNL     1       2.088  -0.422   1.163  1.00  0.00     0.046 C 
BRANCH  12  13
ATOM     13  C   UNL     1       3.066  -1.550   1.119  1.00  0.00     0.003 A 
ATOM     14  C   UNL     1       4.195  -1.619   0.329  1.00  0.00     0.109 A 
ATOM     15  C   UNL     1       3.069  -2.787   1.857  1.00  0.00     0.169 A 
ATOM     16  N   UNL     1       4.769  -2.826   0.573  1.00  0.00    -0.285 N 
ATOM     17  N   UNL     1       4.105  -3.562   1.471  1.00  0.00    -0.171 NA
ATOM     18  H   UNL     1       5.595  -3.130   0.130  1.00  0.00     0.189 HD
BRANCH  15  19
ATOM     19  C   UNL     1       2.061  -3.282   2.872  1.00  0.00     0.435 C 
ATOM     20  F   UNL     1       1.161  -4.134   2.304  1.00  0.00    -0.164 F 
ATOM     21  F   UNL     1       2.627  -3.941   3.916  1.00  0.00    -0.164 F 
ATOM     22  F   UNL     1       1.321  -2.275   3.412  1.00  0.00    -0.164 F 
ENDBRANCH  15  19
ENDBRANCH  12  13
ENDBRANCH  11  12
ENDBRANCH   6  11
ENDBRANCH   3   6
ENDBRANCH   1   2
BRANCH   1  23
ATOM     23  C   UNL     1      -1.417   0.280   2.534  1.00  0.00     0.042 C 
BRANCH  23  24
ATOM     24  C   UNL     1      -2.846   0.685   2.881  1.00  0.00     0.118 C 
BRANCH  24  25
ATOM     25  N   UNL     1      -3.422  -0.167   3.913  1.00  0.00    -0.352 N 
ATOM     26  C   UNL     1      -4.040   0.175   5.089  1.00  0.00     0.251 C 
ATOM     27  H   UNL     1      -3.358  -1.134   3.741  1.00  0.00     0.163 HD
ATOM     28  O   UNL     1      -4.284  -0.700   5.919  1.00  0.00    -0.269 OA
BRANCH  26  29
ATOM     29  C   UNL     1      -4.390   1.582   5.366  1.00  0.00     0.039 A 
ATOM     30  C   UNL     1      -4.182   2.086   6.652  1.00  0.00     0.014 A 
ATOM     31  C   UNL     1      -4.928   2.402   4.370  1.00  0.00     0.014 A 
ATOM     32  C   UNL     1      -4.457   3.428   6.921  1.00  0.00     0.010 A 
ATOM     33  C   UNL     1      -5.119   3.758   4.616  1.00  0.00     0.010 A 
ATOM     34  C   UNL     1      -4.890   4.285   5.895  1.00  0.00    -0.014 A 
BRANCH  34  35
ATOM     35  C   UNL     1      -5.090   5.735   6.144  1.00  0.00     0.031 A 
ATOM     36  C   UNL     1      -6.452   6.355   5.983  1.00  0.00     0.074 A 
ATOM     37  C   UNL     1      -4.030   6.502   6.466  1.00  0.00     0.049 A 
ATOM     38  N   UNL     1      -6.810   7.604   6.136  1.00  0.00    -0.248 NA
ATOM     39  C   UNL     1      -7.550   5.464   5.574  1.00  0.00     0.031 C 
ATOM     40  C   UNL     1      -2.650   6.026   6.604  1.00  0.00     0.029 A 
ATOM     41  N   UNL     1      -3.943   7.845   6.736  1.00  0.00    -0.354 N 
ATOM     42  C   UNL     1      -8.166   7.651   5.832  1.00  0.00     0.074 A 
ATOM     43  C   UNL     1      -8.554   6.317   5.430  1.00  0.00     0.031 C 
ATOM     44  C   UNL     1      -1.865   7.050   6.970  1.00  0.00     0.029 A 
ATOM     45  C   UNL     1      -2.671   8.264   7.047  1.00  0.00     0.049 A 
ATOM     46  H   UNL     1      -4.719   8.450   6.710  1.00  0.00     0.167 HD
ATOM     47  C   UNL     1      -9.016   8.703   5.900  1.00  0.00     0.031 A 
ATOM     48  C   UNL     1      -2.202   9.489   7.356  1.00  0.00     0.031 A 
ATOM     49  C   UNL     1      -8.623  10.028   6.304  1.00  0.00     0.049 A 
ATOM     50  C   UNL     1      -3.163  10.644   7.413  1.00  0.00     0.074 A 
ATOM     51  C   UNL     1      -9.418  11.151   6.458  1.00  0.00     0.029 A 
ATOM     52  N   UNL     1      -7.326  10.412   6.611  1.00  0.00    -0.354 N 
ATOM     53  N   UNL     1      -4.456  10.652   7.191  1.00  0.00    -0.248 NA
ATOM     54  C   UNL     1      -2.604  11.952   7.776  1.00  0.00     0.031 C 
ATOM     55  C   UNL     1      -8.592  12.227   6.798  1.00  0.00     0.029 A 
ATOM     56  C   UNL     1      -7.293  11.760   6.926  1.00  0.00     0.049 A 
ATOM     57  H   UNL     1      -6.544   9.814   6.606  1.00  0.00     0.167 HD
ATOM     58  C   UNL     1      -4.870  11.960   7.416  1.00  0.00     0.074 A 
ATOM     59  C   UNL     1      -3.693  12.708   7.810  1.00  0.00     0.031 C 
ATOM     60  C   UNL     1      -6.112  12.493   7.309  1.00  0.00     0.031 A 
BRANCH  47  61
ATOM     61  C   UNL     1     -10.456   8.465   5.522  1.00  0.00    -0.014 A 
ATOM     62  C   UNL     1     -11.296   7.666   6.319  1.00  0.00     0.010 A 
ATOM     63  C   UNL     1     -10.990   9.085   4.378  1.00  0.00     0.010 A 
ATOM     64  C   UNL     1     -12.630   7.457   5.957  1.00  0.00     0.020 A 
ATOM     65  C   UNL     1     -12.332   8.906   4.030  1.00  0.00     0.020 A 
ATOM     66  C   UNL     1     -13.139   8.079   4.814  1.00  0.00     0.054 A 
BRANCH  66  67
ATOM     67  S   UNL     1     -14.881   7.812   4.384  1.00  0.00     0.124 S 
ATOM     68  O   UNL     1     -14.873   6.420   3.943  1.00  0.00    -0.237 OA
ATOM     69  O   UNL     1     -15.564   8.066   5.650  1.00  0.00    -0.237 OA
ATOM     70  O   UNL     1     -15.136   8.796   3.335  1.00  0.00    -0.744 OA
ENDBRANCH  66  67
ENDBRANCH  47  61
BRANCH  48  71
ATOM     71  C   UNL     1      -0.754   9.679   7.648  1.00  0.00    -0.014 A 
ATOM     72  C   UNL     1      -0.320   9.991   8.948  1.00  0.00     0.010 A 
ATOM     73  C   UNL     1       0.202   9.534   6.626  1.00  0.00     0.010 A 
ATOM     74  C   UNL     1       1.040  10.176   9.216  1.00  0.00     0.020 A 
ATOM     75  C   UNL     1       1.565   9.686   6.896  1.00  0.00     0.020 A 
ATOM     76  C   UNL     1       1.974  10.019   8.189  1.00  0.00     0.054 A 
BRANCH  76  77
ATOM     77  S   UNL     1       3.737  10.214   8.571  1.00  0.00     0.124 S 
ATOM     78  O   UNL     1       3.847  11.655   8.770  1.00  0.00    -0.237 OA
ATOM     79  O   UNL     1       3.892   9.394   9.770  1.00  0.00    -0.237 OA
ATOM     80  O   UNL     1       4.404   9.693   7.379  1.00  0.00    -0.744 OA
ENDBRANCH  76  77
ENDBRANCH  48  71
BRANCH  60  81
ATOM     81  C   UNL     1      -6.270  13.951   7.656  1.00  0.00    -0.014 A 
ATOM     82  C   UNL     1      -5.738  14.962   6.837  1.00  0.00     0.010 A 
ATOM     83  C   UNL     1      -7.000  14.313   8.804  1.00  0.00     0.010 A 
ATOM     84  C   UNL     1      -5.895  16.307   7.183  1.00  0.00     0.020 A 
ATOM     85  C   UNL     1      -7.189  15.657   9.134  1.00  0.00     0.020 A 
ATOM     86  C   UNL     1      -6.619  16.646   8.330  1.00  0.00     0.054 A 
BRANCH  86  87
ATOM     87  S   UNL     1      -6.833  18.399   8.741  1.00  0.00     0.124 S 
ATOM     88  O   UNL     1      -5.495  18.771   9.192  1.00  0.00    -0.237 OA
ATOM     89  O   UNL     1      -7.250  18.977   7.466  1.00  0.00    -0.237 OA
ATOM     90  O   UNL     1      -7.860  18.390   9.780  1.00  0.00    -0.744 OA
ENDBRANCH  86  87
ENDBRANCH  60  81
ENDBRANCH  34  35
ENDBRANCH  26  29
ENDBRANCH  24  25
ENDBRANCH  23  24
ENDBRANCH   1  23
TORSDOF 18
