REMARK SMILES O=C(NCCCNC(=O)[C@@H]1CCCCN1c1ccccc1[N+](=O)[O-])c1ccc(-c2c3nc(c(-c4ccc(S(=O)(=O)[O-])cc4)c4ccc([nH]4)c(-c4ccc(S(=O)(=O)[O-])cc4)c4nc(c(-c5ccc(S(=O)(=O)[O-])cc5)c5ccc2[nH]5)C=C4)C=C3)cc1
REMARK SMILES IDX 4 1 3 2 1 3 2 4 25 6 26 7 84 8 27 9 83 10 28 11 29 12 30 13
REMARK SMILES IDX 77 14 31 15 82 16 76 17 78 18 32 19 81 20 75 21 74 22 33 24
REMARK SMILES IDX 63 25 44 26 62 27 45 28 48 29 61 30 79 31 46 32 47 33 60 35
REMARK SMILES IDX 80 36 49 37 34 38 35 39 43 40 36 41 42 42 37 43 38 44 39 45
REMARK SMILES IDX 40 46 41 47 64 48 65 49 73 50 66 51 72 52 67 53 68 54 69 55
REMARK SMILES IDX 70 56 71 57 50 58 51 59 59 60 52 61 58 62 53 63 54 64 55 65
REMARK SMILES IDX 56 66 57 67 5 68 6 69 7 70 8 71 9 73 10 74 11 75 15 76 12 77
REMARK SMILES IDX 14 78 13 79 16 80 17 81 21 82 18 83 20 84 19 85 22 86 23 87
REMARK SMILES IDX 24 88
REMARK H PARENT 3 5 78 23 48 34 7 72
REMARK Flexibility Score: inf
ROOT
ATOM      1  C   UNL     1       4.846   0.207  -1.789  1.00  0.00     0.118 C 
ENDROOT
BRANCH   1   2
ATOM      2  N   UNL     1       3.472  -0.048  -1.368  1.00  0.00    -0.352 N 
ATOM      3  O   UNL     1       1.575  -0.160  -0.193  1.00  0.00    -0.269 OA
ATOM      4  C   UNL     1       2.740   0.242  -0.240  1.00  0.00     0.251 C 
ATOM      5  H   UNL     1       2.951  -0.538  -2.045  1.00  0.00     0.163 HD
BRANCH   4   6
ATOM      6  C   UNL     1       3.307   0.947   0.938  1.00  0.00     0.039 A 
ATOM      7  C   UNL     1       4.345   1.862   0.838  1.00  0.00     0.014 A 
ATOM      8  C   UNL     1       2.764   0.695   2.208  1.00  0.00     0.014 A 
ATOM      9  C   UNL     1       4.988   2.325   1.979  1.00  0.00     0.010 A 
ATOM     10  C   UNL     1       3.319   1.284   3.356  1.00  0.00     0.010 A 
ATOM     11  C   UNL     1       4.482   2.057   3.259  1.00  0.00    -0.014 A 
BRANCH  11  12
ATOM     12  C   UNL     1       5.204   2.623   4.434  1.00  0.00     0.031 A 
ATOM     13  C   UNL     1       5.785   1.729   5.500  1.00  0.00     0.074 A 
ATOM     14  C   UNL     1       5.442   3.952   4.472  1.00  0.00     0.049 A 
ATOM     15  N   UNL     1       6.568   2.050   6.501  1.00  0.00    -0.248 NA
ATOM     16  C   UNL     1       5.439   0.300   5.454  1.00  0.00     0.031 C 
ATOM     17  C   UNL     1       4.920   4.930   3.510  1.00  0.00     0.029 A 
ATOM     18  N   UNL     1       6.239   4.704   5.299  1.00  0.00    -0.354 N 
ATOM     19  C   UNL     1       6.769   0.878   7.223  1.00  0.00     0.074 A 
ATOM     20  C   UNL     1       6.017  -0.160   6.554  1.00  0.00     0.031 C 
ATOM     21  C   UNL     1       5.506   6.116   3.723  1.00  0.00     0.029 A 
ATOM     22  C   UNL     1       6.377   6.010   4.887  1.00  0.00     0.049 A 
ATOM     23  H   UNL     1       6.669   4.344   6.108  1.00  0.00     0.167 HD
ATOM     24  C   UNL     1       7.514   0.683   8.338  1.00  0.00     0.031 A 
ATOM     25  C   UNL     1       7.125   7.016   5.379  1.00  0.00     0.031 A 
ATOM     26  C   UNL     1       8.291   1.709   8.983  1.00  0.00     0.049 A 
ATOM     27  C   UNL     1       7.971   6.765   6.592  1.00  0.00     0.074 A 
ATOM     28  C   UNL     1       9.103   1.601  10.099  1.00  0.00     0.029 A 
ATOM     29  N   UNL     1       8.360   3.030   8.566  1.00  0.00    -0.354 N 
ATOM     30  N   UNL     1       8.152   5.645   7.249  1.00  0.00    -0.248 NA
ATOM     31  C   UNL     1       8.703   7.915   7.137  1.00  0.00     0.031 C 
ATOM     32  C   UNL     1       9.631   2.866  10.381  1.00  0.00     0.029 A 
ATOM     33  C   UNL     1       9.187   3.751   9.412  1.00  0.00     0.049 A 
ATOM     34  H   UNL     1       7.891   3.401   7.784  1.00  0.00     0.167 HD
ATOM     35  C   UNL     1       9.022   5.954   8.287  1.00  0.00     0.074 A 
ATOM     36  C   UNL     1       9.354   7.359   8.150  1.00  0.00     0.031 C 
ATOM     37  C   UNL     1       9.497   5.150   9.269  1.00  0.00     0.031 A 
BRANCH  24  38
ATOM     38  C   UNL     1       7.492  -0.690   8.960  1.00  0.00    -0.014 A 
ATOM     39  C   UNL     1       8.159  -1.778   8.369  1.00  0.00     0.010 A 
ATOM     40  C   UNL     1       6.817  -0.883  10.180  1.00  0.00     0.010 A 
ATOM     41  C   UNL     1       8.116  -3.043   8.965  1.00  0.00     0.020 A 
ATOM     42  C   UNL     1       6.793  -2.140  10.791  1.00  0.00     0.020 A 
ATOM     43  C   UNL     1       7.427  -3.217  10.170  1.00  0.00     0.054 A 
BRANCH  43  44
ATOM     44  S   UNL     1       7.399  -4.863  10.935  1.00  0.00     0.124 S 
ATOM     45  O   UNL     1       6.427  -5.565  10.100  1.00  0.00    -0.237 OA
ATOM     46  O   UNL     1       8.783  -5.308  10.796  1.00  0.00    -0.237 OA
ATOM     47  O   UNL     1       6.967  -4.600  12.306  1.00  0.00    -0.744 OA
ENDBRANCH  43  44
ENDBRANCH  24  38
BRANCH  25  48
ATOM     48  C   UNL     1       7.101   8.350   4.719  1.00  0.00    -0.014 A 
ATOM     49  C   UNL     1       8.226   8.828   4.024  1.00  0.00     0.010 A 
ATOM     50  C   UNL     1       5.935   9.137   4.755  1.00  0.00     0.010 A 
ATOM     51  C   UNL     1       8.185  10.069   3.380  1.00  0.00     0.020 A 
ATOM     52  C   UNL     1       5.881  10.363   4.088  1.00  0.00     0.020 A 
ATOM     53  C   UNL     1       7.011  10.826   3.413  1.00  0.00     0.054 A 
BRANCH  53  54
ATOM     54  S   UNL     1       6.949  12.399   2.510  1.00  0.00     0.124 S 
ATOM     55  O   UNL     1       7.668  13.294   3.412  1.00  0.00    -0.237 OA
ATOM     56  O   UNL     1       7.633  12.077   1.260  1.00  0.00    -0.237 OA
ATOM     57  O   UNL     1       5.517  12.658   2.378  1.00  0.00    -0.744 OA
ENDBRANCH  53  54
ENDBRANCH  25  48
BRANCH  37  58
ATOM     58  C   UNL     1      10.440   5.772  10.261  1.00  0.00    -0.014 A 
ATOM     59  C   UNL     1       9.972   6.657  11.248  1.00  0.00     0.010 A 
ATOM     60  C   UNL     1      11.807   5.449  10.216  1.00  0.00     0.010 A 
ATOM     61  C   UNL     1      10.865   7.243  12.149  1.00  0.00     0.020 A 
ATOM     62  C   UNL     1      12.699   6.015  11.130  1.00  0.00     0.020 A 
ATOM     63  C   UNL     1      12.224   6.923  12.079  1.00  0.00     0.054 A 
BRANCH  63  64
ATOM     64  S   UNL     1      13.365   7.681  13.268  1.00  0.00     0.124 S 
ATOM     65  O   UNL     1      13.528   9.023  12.718  1.00  0.00    -0.237 OA
ATOM     66  O   UNL     1      12.623   7.601  14.524  1.00  0.00    -0.237 OA
ATOM     67  O   UNL     1      14.551   6.830  13.198  1.00  0.00    -0.744 OA
ENDBRANCH  63  64
ENDBRANCH  37  58
ENDBRANCH  11  12
ENDBRANCH   4   6
ENDBRANCH   1   2
BRANCH   1  68
ATOM     68  C   UNL     1       5.869  -0.832  -1.331  1.00  0.00     0.042 C 
BRANCH  68  69
ATOM     69  C   UNL     1       5.631  -2.215  -1.919  1.00  0.00     0.117 C 
BRANCH  69  70
ATOM     70  N   UNL     1       5.550  -2.262  -3.362  1.00  0.00    -0.354 N 
ATOM     71  C   UNL     1       5.388  -3.358  -4.158  1.00  0.00     0.242 C 
ATOM     72  H   UNL     1       5.619  -1.397  -3.826  1.00  0.00     0.163 HD
ATOM     73  O   UNL     1       4.987  -3.124  -5.306  1.00  0.00    -0.273 OA
BRANCH  71  74
ATOM     74  C   UNL     1       5.811  -4.783  -3.712  1.00  0.00     0.171 C 
ATOM     75  C   UNL     1       5.713  -5.719  -4.939  1.00  0.00     0.035 C 
ATOM     76  N   UNL     1       5.101  -5.436  -2.573  1.00  0.00    -0.354 N 
ATOM     77  C   UNL     1       6.177  -7.139  -4.633  1.00  0.00     0.004 C 
ATOM     78  C   UNL     1       5.590  -6.774  -2.216  1.00  0.00     0.117 C 
ATOM     79  C   UNL     1       5.444  -7.702  -3.420  1.00  0.00     0.022 C 
BRANCH  76  80
ATOM     80  C   UNL     1       3.998  -4.933  -1.911  1.00  0.00     0.116 A 
ATOM     81  C   UNL     1       2.885  -4.523  -2.668  1.00  0.00     0.033 A 
ATOM     82  C   UNL     1       3.903  -4.749  -0.505  1.00  0.00     0.292 A 
ATOM     83  C   UNL     1       1.769  -3.913  -2.082  1.00  0.00     0.003 A 
ATOM     84  C   UNL     1       2.782  -4.130   0.086  1.00  0.00     0.088 A 
ATOM     85  C   UNL     1       1.724  -3.703  -0.709  1.00  0.00     0.007 A 
BRANCH  82  86
ATOM     86  N   UNL     1       5.014  -5.048   0.406  1.00  0.00     0.064 N 
ATOM     87  O   UNL     1       4.717  -5.457   1.538  1.00  0.00    -0.258 OA
ATOM     88  O   UNL     1       6.175  -4.842   0.025  1.00  0.00    -0.258 OA
ENDBRANCH  82  86
ENDBRANCH  76  80
ENDBRANCH  71  74
ENDBRANCH  69  70
ENDBRANCH  68  69
ENDBRANCH   1  68
TORSDOF 15
