REMARK SMILES CCc1ccc(S(=O)(=O)Cc2noc(C(=O)NCCCNC(=O)c3ccc(-c4c5nc(c(-c6ccc(S(=O)(=O)[O-])cc6)c6ccc([nH]6)c(-c6ccc(S(=O)(=O)[O-])cc6)c6nc(c(-c7ccc(S(=O)(=O)[O-])cc7)c7ccc4[nH]7)C=C6)C=C5)cc3)n2)cc1
REMARK SMILES IDX 18 1 17 2 15 3 16 4 14 6 11 7 12 8 84 9 13 10 10 11 7 12
REMARK SMILES IDX 8 13 9 14 6 15 3 16 4 17 86 18 5 19 85 20 2 21 1 22 19 23
REMARK SMILES IDX 20 24 21 25 22 26 23 28 24 29 25 30 83 31 26 32 82 33 27 34
REMARK SMILES IDX 28 35 29 36 76 37 30 38 81 39 75 40 77 41 31 42 80 43 74 44
REMARK SMILES IDX 73 45 32 47 62 48 43 49 61 50 44 51 47 52 60 53 78 54 45 55
REMARK SMILES IDX 46 56 59 58 79 59 48 60 33 61 34 62 42 63 35 64 41 65 36 66
REMARK SMILES IDX 37 67 38 68 39 69 40 70 63 71 64 72 72 73 65 74 71 75 66 76
REMARK SMILES IDX 67 77 68 78 69 79 70 80 49 81 50 82 58 83 51 84 57 85 52 86
REMARK SMILES IDX 53 87 54 88 55 89 56 90
REMARK H PARENT 17 5 21 27 77 46 47 57
REMARK Flexibility Score: inf
ROOT
ATOM      1  C   UNL     1      -1.135   3.269  -2.152  1.00  0.00     0.118 C 
ENDROOT
BRANCH   1   2
ATOM      2  N   UNL     1      -2.366   3.881  -2.618  1.00  0.00    -0.348 N 
ATOM      3  C   UNL     1      -2.781   5.199  -2.601  1.00  0.00     0.309 C 
ATOM      4  O   UNL     1      -3.892   5.411  -3.092  1.00  0.00    -0.264 OA
ATOM      5  H   UNL     1      -3.013   3.252  -3.012  1.00  0.00     0.163 HD
BRANCH   3   6
ATOM      6  C   UNL     1      -1.950   6.260  -2.053  1.00  0.00     0.315 A 
ATOM      7  C   UNL     1      -0.477   7.521  -1.235  1.00  0.00     0.187 A 
ATOM      8  N   UNL     1      -1.419   8.378  -1.654  1.00  0.00    -0.061 NA
ATOM      9  N   UNL     1      -0.798   6.198  -1.415  1.00  0.00    -0.186 NA
ATOM     10  O   UNL     1      -2.392   7.547  -2.207  1.00  0.00    -0.329 OA
BRANCH   7  11
ATOM     11  C   UNL     1       0.735   8.009  -0.551  1.00  0.00     0.223 C 
BRANCH  11  12
ATOM     12  S   UNL     1       2.191   7.058  -0.847  1.00  0.00     0.185 S 
ATOM     13  O   UNL     1       3.275   7.707  -0.132  1.00  0.00    -0.223 OA
ATOM     14  O   UNL     1       2.307   6.835  -2.280  1.00  0.00    -0.223 OA
BRANCH  12  15
ATOM     15  C   UNL     1       2.011   5.465  -0.084  1.00  0.00     0.067 A 
ATOM     16  C   UNL     1       1.775   2.880   0.982  1.00  0.00    -0.048 A 
ATOM     17  C   UNL     1       2.732   3.161  -0.002  1.00  0.00     0.005 A 
ATOM     18  C   UNL     1       0.972   3.930   1.458  1.00  0.00     0.005 A 
ATOM     19  C   UNL     1       2.845   4.442  -0.540  1.00  0.00     0.020 A 
ATOM     20  C   UNL     1       1.084   5.219   0.929  1.00  0.00     0.020 A 
BRANCH  16  21
ATOM     21  C   UNL     1       1.569   1.492   1.548  1.00  0.00     0.032 C 
ATOM     22  C   UNL     1       2.077   0.355   0.672  1.00  0.00     0.009 C 
ENDBRANCH  16  21
ENDBRANCH  12  15
ENDBRANCH  11  12
ENDBRANCH   7  11
ENDBRANCH   3   6
ENDBRANCH   1   2
BRANCH   1  23
ATOM     23  C   UNL     1      -1.349   2.483  -0.865  1.00  0.00     0.042 C 
BRANCH  23  24
ATOM     24  C   UNL     1      -2.064   1.145  -1.030  1.00  0.00     0.118 C 
BRANCH  24  25
ATOM     25  N   UNL     1      -1.274   0.163  -1.761  1.00  0.00    -0.352 N 
ATOM     26  C   UNL     1      -0.719  -1.044  -1.412  1.00  0.00     0.251 C 
ATOM     27  H   UNL     1      -1.104   0.416  -2.697  1.00  0.00     0.163 HD
ATOM     28  O   UNL     1       0.018  -1.589  -2.236  1.00  0.00    -0.269 OA
BRANCH  26  29
ATOM     29  C   UNL     1      -0.929  -1.692  -0.090  1.00  0.00     0.039 A 
ATOM     30  C   UNL     1       0.089  -2.522   0.405  1.00  0.00     0.014 A 
ATOM     31  C   UNL     1      -2.105  -1.563   0.648  1.00  0.00     0.014 A 
ATOM     32  C   UNL     1      -0.038  -3.152   1.647  1.00  0.00     0.010 A 
ATOM     33  C   UNL     1      -2.209  -2.132   1.920  1.00  0.00     0.010 A 
ATOM     34  C   UNL     1      -1.187  -2.953   2.420  1.00  0.00    -0.014 A 
BRANCH  34  35
ATOM     35  C   UNL     1      -1.400  -3.714   3.676  1.00  0.00     0.031 A 
ATOM     36  C   UNL     1      -2.433  -4.810   3.692  1.00  0.00     0.074 A 
ATOM     37  C   UNL     1      -0.696  -3.427   4.788  1.00  0.00     0.049 A 
ATOM     38  N   UNL     1      -2.792  -5.595   4.675  1.00  0.00    -0.248 NA
ATOM     39  C   UNL     1      -3.175  -5.040   2.440  1.00  0.00     0.031 C 
ATOM     40  C   UNL     1       0.319  -2.378   4.906  1.00  0.00     0.029 A 
ATOM     41  N   UNL     1      -0.735  -3.993   6.039  1.00  0.00    -0.354 N 
ATOM     42  C   UNL     1      -3.805  -6.398   4.163  1.00  0.00     0.074 A 
ATOM     43  C   UNL     1      -4.043  -5.971   2.803  1.00  0.00     0.031 C 
ATOM     44  C   UNL     1       0.812  -2.384   6.157  1.00  0.00     0.029 A 
ATOM     45  C   UNL     1       0.135  -3.418   6.936  1.00  0.00     0.049 A 
ATOM     46  H   UNL     1      -1.329  -4.742   6.272  1.00  0.00     0.167 HD
ATOM     47  C   UNL     1      -4.466  -7.416   4.762  1.00  0.00     0.031 A 
ATOM     48  C   UNL     1       0.357  -3.694   8.238  1.00  0.00     0.031 A 
ATOM     49  C   UNL     1      -4.222  -7.847   6.112  1.00  0.00     0.049 A 
ATOM     50  C   UNL     1      -0.401  -4.826   8.885  1.00  0.00     0.074 A 
ATOM     51  C   UNL     1      -4.803  -8.899   6.796  1.00  0.00     0.029 A 
ATOM     52  N   UNL     1      -3.327  -7.246   6.983  1.00  0.00    -0.354 N 
ATOM     53  N   UNL     1      -1.306  -5.621   8.363  1.00  0.00    -0.248 NA
ATOM     54  C   UNL     1      -0.088  -5.114  10.292  1.00  0.00     0.031 C 
ATOM     55  C   UNL     1      -4.304  -8.897   8.102  1.00  0.00     0.029 A 
ATOM     56  C   UNL     1      -3.360  -7.888   8.209  1.00  0.00     0.049 A 
ATOM     57  H   UNL     1      -2.754  -6.476   6.763  1.00  0.00     0.167 HD
ATOM     58  C   UNL     1      -1.644  -6.523   9.369  1.00  0.00     0.074 A 
ATOM     59  C   UNL     1      -0.831  -6.188  10.519  1.00  0.00     0.031 C 
ATOM     60  C   UNL     1      -2.545  -7.538   9.345  1.00  0.00     0.031 A 
BRANCH  47  61
ATOM     61  C   UNL     1      -5.526  -8.125   3.962  1.00  0.00    -0.014 A 
ATOM     62  C   UNL     1      -5.191  -8.943   2.867  1.00  0.00     0.010 A 
ATOM     63  C   UNL     1      -6.877  -8.001   4.335  1.00  0.00     0.010 A 
ATOM     64  C   UNL     1      -6.189  -9.596   2.140  1.00  0.00     0.020 A 
ATOM     65  C   UNL     1      -7.875  -8.678   3.630  1.00  0.00     0.020 A 
ATOM     66  C   UNL     1      -7.526  -9.461   2.528  1.00  0.00     0.054 A 
BRANCH  66  67
ATOM     67  S   UNL     1      -8.796 -10.355   1.593  1.00  0.00     0.124 S 
ATOM     68  O   UNL     1      -8.819  -9.615   0.334  1.00  0.00    -0.237 OA
ATOM     69  O   UNL     1      -8.244 -11.706   1.517  1.00  0.00    -0.237 OA
ATOM     70  O   UNL     1      -9.994 -10.220   2.417  1.00  0.00    -0.744 OA
ENDBRANCH  66  67
ENDBRANCH  47  61
BRANCH  48  71
ATOM     71  C   UNL     1       1.341  -2.894   9.023  1.00  0.00    -0.014 A 
ATOM     72  C   UNL     1       2.533  -3.474   9.494  1.00  0.00     0.010 A 
ATOM     73  C   UNL     1       1.072  -1.548   9.332  1.00  0.00     0.010 A 
ATOM     74  C   UNL     1       3.419  -2.735  10.286  1.00  0.00     0.020 A 
ATOM     75  C   UNL     1       1.971  -0.796  10.096  1.00  0.00     0.020 A 
ATOM     76  C   UNL     1       3.131  -1.400  10.583  1.00  0.00     0.054 A 
BRANCH  76  77
ATOM     77  S   UNL     1       4.307  -0.451  11.588  1.00  0.00     0.124 S 
ATOM     78  O   UNL     1       4.110  -1.029  12.913  1.00  0.00    -0.237 OA
ATOM     79  O   UNL     1       5.585  -0.755  10.947  1.00  0.00    -0.237 OA
ATOM     80  O   UNL     1       3.854   0.929  11.431  1.00  0.00    -0.744 OA
ENDBRANCH  76  77
ENDBRANCH  48  71
BRANCH  60  81
ATOM     81  C   UNL     1      -2.666  -8.387  10.585  1.00  0.00    -0.014 A 
ATOM     82  C   UNL     1      -3.214  -7.877  11.775  1.00  0.00     0.010 A 
ATOM     83  C   UNL     1      -2.246  -9.730  10.545  1.00  0.00     0.010 A 
ATOM     84  C   UNL     1      -3.285  -8.677  12.919  1.00  0.00     0.020 A 
ATOM     85  C   UNL     1      -2.349 -10.543  11.676  1.00  0.00     0.020 A 
ATOM     86  C   UNL     1      -2.846 -10.003  12.863  1.00  0.00     0.054 A 
BRANCH  86  87
ATOM     87  S   UNL     1      -2.950 -11.022  14.360  1.00  0.00     0.124 S 
ATOM     88  O   UNL     1      -1.867 -10.477  15.173  1.00  0.00    -0.237 OA
ATOM     89  O   UNL     1      -4.301 -10.744  14.844  1.00  0.00    -0.237 OA
ATOM     90  O   UNL     1      -2.739 -12.382  13.869  1.00  0.00    -0.744 OA
ENDBRANCH  86  87
ENDBRANCH  60  81
ENDBRANCH  34  35
ENDBRANCH  26  29
ENDBRANCH  24  25
ENDBRANCH  23  24
ENDBRANCH   1  23
TORSDOF 17
