REMARK SMILES Cc1ccc2c(c1)C=C(C(=O)NCCCNC(=O)c1ccc(-c3c4nc(c(-c5ccc(S(=O)(=O)[O-])cc5)c5ccc([nH]5)c(-c5ccc(S(=O)(=O)[O-])cc5)c5nc(c(-c6ccc(S(=O)(=O)[O-])cc6)c6ccc3[nH]6)C=C5)C=C4)cc1)[C@@H](C(F)(F)F)O2
REMARK SMILES IDX 15 1 14 2 13 3 12 4 10 5 11 6 9 8 1 9 2 10 3 11 7 12 4 13
REMARK SMILES IDX 6 14 5 15 8 16 84 17 79 18 80 19 81 20 82 21 83 22 16 23
REMARK SMILES IDX 17 24 18 26 19 27 20 28 78 29 21 30 77 31 22 32 23 33 24 34
REMARK SMILES IDX 71 35 25 36 76 37 70 38 72 39 26 40 75 41 69 42 68 43 27 45
REMARK SMILES IDX 57 46 38 47 56 48 39 49 42 50 55 51 73 52 40 53 41 54 54 56
REMARK SMILES IDX 74 57 43 58 28 59 29 60 37 61 30 62 36 63 31 64 32 65 33 66
REMARK SMILES IDX 34 67 35 68 58 69 59 70 67 71 60 72 66 73 61 74 62 75 63 76
REMARK SMILES IDX 64 77 65 78 44 79 45 80 53 81 46 82 52 83 47 84 48 85 49 86
REMARK SMILES IDX 50 87 51 88
REMARK H PARENT 12 7 16 25 72 44 42 55
REMARK Flexibility Score: inf
ROOT
ATOM      1  C   UNL     1      -5.861  -8.632   1.493  1.00  0.00     0.118 C 
ENDROOT
BRANCH   1   2
ATOM      2  C   UNL     1      -4.461  -8.152   1.133  1.00  0.00     0.042 C 
BRANCH   2   3
ATOM      3  C   UNL     1      -4.437  -7.326  -0.144  1.00  0.00     0.118 C 
BRANCH   3   4
ATOM      4  N   UNL     1      -4.893  -5.962   0.077  1.00  0.00    -0.352 N 
ATOM      5  C   UNL     1      -4.337  -4.732   0.167  1.00  0.00     0.251 C 
ATOM      6  O   UNL     1      -5.138  -3.811   0.356  1.00  0.00    -0.270 OA
ATOM      7  H   UNL     1      -5.869  -5.924   0.193  1.00  0.00     0.163 HD
BRANCH   5   8
ATOM      8  C   UNL     1      -2.881  -4.430   0.049  1.00  0.00     0.067 C 
ATOM      9  C   UNL     1       1.023   0.360  -0.062  1.00  0.00     0.044 C 
ATOM     10  C   UNL     1       0.617  -1.083  -0.012  1.00  0.00    -0.050 A 
ATOM     11  C   UNL     1       1.577  -2.101  -0.056  1.00  0.00     0.007 A 
ATOM     12  C   UNL     1      -0.741  -1.424   0.079  1.00  0.00     0.015 A 
ATOM     13  C   UNL     1       1.188  -3.439  -0.009  1.00  0.00     0.047 A 
ATOM     14  C   UNL     1      -1.135  -2.766   0.116  1.00  0.00     0.017 A 
ATOM     15  C   UNL     1      -0.163  -3.765   0.064  1.00  0.00     0.128 A 
ATOM     16  C   UNL     1      -2.536  -3.143   0.242  1.00  0.00     0.025 C 
ATOM     17  O   UNL     1      -0.476  -5.094   0.121  1.00  0.00    -0.475 OA
ATOM     18  C   UNL     1      -1.825  -5.444  -0.296  1.00  0.00     0.314 C 
BRANCH  18  19
ATOM     19  C   UNL     1      -1.814  -5.796  -1.797  1.00  0.00     0.429 C 
ATOM     20  F   UNL     1      -1.145  -6.957  -2.009  1.00  0.00    -0.167 F 
ATOM     21  F   UNL     1      -3.060  -5.977  -2.300  1.00  0.00    -0.167 F 
ATOM     22  F   UNL     1      -1.225  -4.846  -2.558  1.00  0.00    -0.167 F 
ENDBRANCH  18  19
ENDBRANCH   5   8
ENDBRANCH   3   4
ENDBRANCH   2   3
ENDBRANCH   1   2
BRANCH   1  23
ATOM     23  N   UNL     1      -6.376  -9.611   0.536  1.00  0.00    -0.352 N 
ATOM     24  C   UNL     1      -6.669 -10.945   0.695  1.00  0.00     0.251 C 
ATOM     25  H   UNL     1      -6.540  -9.257  -0.368  1.00  0.00     0.163 HD
ATOM     26  O   UNL     1      -6.894 -11.639  -0.293  1.00  0.00    -0.269 OA
BRANCH  24  27
ATOM     27  C   UNL     1      -6.691 -11.544   2.046  1.00  0.00     0.039 A 
ATOM     28  C   UNL     1      -7.243 -10.842   3.115  1.00  0.00     0.014 A 
ATOM     29  C   UNL     1      -6.149 -12.817   2.251  1.00  0.00     0.014 A 
ATOM     30  C   UNL     1      -7.063 -11.311   4.408  1.00  0.00     0.010 A 
ATOM     31  C   UNL     1      -6.076 -13.341   3.546  1.00  0.00     0.010 A 
ATOM     32  C   UNL     1      -6.482 -12.568   4.643  1.00  0.00    -0.014 A 
BRANCH  32  33
ATOM     33  C   UNL     1      -6.328 -13.029   6.049  1.00  0.00     0.031 A 
ATOM     34  C   UNL     1      -4.965 -13.268   6.643  1.00  0.00     0.074 A 
ATOM     35  C   UNL     1      -7.429 -13.126   6.822  1.00  0.00     0.049 A 
ATOM     36  N   UNL     1      -4.654 -13.570   7.878  1.00  0.00    -0.248 NA
ATOM     37  C   UNL     1      -3.802 -13.160   5.747  1.00  0.00     0.031 C 
ATOM     38  C   UNL     1      -8.801 -12.902   6.355  1.00  0.00     0.029 A 
ATOM     39  N   UNL     1      -7.573 -13.371   8.164  1.00  0.00    -0.354 N 
ATOM     40  C   UNL     1      -3.271 -13.704   7.903  1.00  0.00     0.074 A 
ATOM     41  C   UNL     1      -2.800 -13.481   6.555  1.00  0.00     0.031 C 
ATOM     42  C   UNL     1      -9.631 -12.918   7.407  1.00  0.00     0.029 A 
ATOM     43  C   UNL     1      -8.868 -13.235   8.610  1.00  0.00     0.049 A 
ATOM     44  H   UNL     1      -6.823 -13.621   8.751  1.00  0.00     0.167 HD
ATOM     45  C   UNL     1      -2.466 -13.975   8.959  1.00  0.00     0.031 A 
ATOM     46  C   UNL     1      -9.393 -13.347   9.846  1.00  0.00     0.031 A 
ATOM     47  C   UNL     1      -2.942 -14.176  10.303  1.00  0.00     0.049 A 
ATOM     48  C   UNL     1      -8.483 -13.669  10.994  1.00  0.00     0.074 A 
ATOM     49  C   UNL     1      -2.202 -14.451  11.440  1.00  0.00     0.029 A 
ATOM     50  N   UNL     1      -4.270 -14.114  10.696  1.00  0.00    -0.354 N 
ATOM     51  N   UNL     1      -7.179 -13.806  10.991  1.00  0.00    -0.248 NA
ATOM     52  C   UNL     1      -9.111 -13.864  12.307  1.00  0.00     0.031 C 
ATOM     53  C   UNL     1      -3.087 -14.610  12.509  1.00  0.00     0.029 A 
ATOM     54  C   UNL     1      -4.373 -14.368  12.054  1.00  0.00     0.049 A 
ATOM     55  H   UNL     1      -5.028 -13.918  10.099  1.00  0.00     0.167 HD
ATOM     56  C   UNL     1      -6.828 -14.108  12.300  1.00  0.00     0.074 A 
ATOM     57  C   UNL     1      -8.053 -14.101  13.074  1.00  0.00     0.031 C 
ATOM     58  C   UNL     1      -5.601 -14.376  12.809  1.00  0.00     0.031 A 
BRANCH  45  59
ATOM     59  C   UNL     1      -0.982 -14.077   8.720  1.00  0.00    -0.014 A 
ATOM     60  C   UNL     1      -0.337 -15.321   8.854  1.00  0.00     0.010 A 
ATOM     61  C   UNL     1      -0.206 -12.929   8.477  1.00  0.00     0.010 A 
ATOM     62  C   UNL     1       1.055 -15.413   8.777  1.00  0.00     0.020 A 
ATOM     63  C   UNL     1       1.186 -13.021   8.374  1.00  0.00     0.020 A 
ATOM     64  C   UNL     1       1.809 -14.259   8.548  1.00  0.00     0.054 A 
BRANCH  64  65
ATOM     65  S   UNL     1       3.617 -14.393   8.471  1.00  0.00     0.124 S 
ATOM     66  O   UNL     1       3.978 -14.512   9.880  1.00  0.00    -0.237 OA
ATOM     67  O   UNL     1       3.816 -15.594   7.663  1.00  0.00    -0.237 OA
ATOM     68  O   UNL     1       4.023 -13.146   7.824  1.00  0.00    -0.744 OA
ENDBRANCH  64  65
ENDBRANCH  45  59
BRANCH  46  69
ATOM     69  C   UNL     1     -10.853 -13.127  10.034  1.00  0.00    -0.014 A 
ATOM     70  C   UNL     1     -11.783 -14.018   9.466  1.00  0.00     0.010 A 
ATOM     71  C   UNL     1     -11.323 -11.975  10.687  1.00  0.00     0.010 A 
ATOM     72  C   UNL     1     -13.149 -13.727   9.483  1.00  0.00     0.020 A 
ATOM     73  C   UNL     1     -12.693 -11.696  10.736  1.00  0.00     0.020 A 
ATOM     74  C   UNL     1     -13.593 -12.557  10.103  1.00  0.00     0.054 A 
BRANCH  74  75
ATOM     75  S   UNL     1     -15.364 -12.164  10.057  1.00  0.00     0.124 S 
ATOM     76  O   UNL     1     -15.517 -11.639   8.702  1.00  0.00    -0.237 OA
ATOM     77  O   UNL     1     -15.988 -13.461  10.303  1.00  0.00    -0.237 OA
ATOM     78  O   UNL     1     -15.523 -11.186  11.129  1.00  0.00    -0.744 OA
ENDBRANCH  74  75
ENDBRANCH  46  69
BRANCH  58  79
ATOM     79  C   UNL     1      -5.506 -14.707  14.274  1.00  0.00    -0.014 A 
ATOM     80  C   UNL     1      -4.872 -13.813  15.155  1.00  0.00     0.010 A 
ATOM     81  C   UNL     1      -5.943 -15.954  14.756  1.00  0.00     0.010 A 
ATOM     82  C   UNL     1      -4.649 -14.169  16.487  1.00  0.00     0.020 A 
ATOM     83  C   UNL     1      -5.746 -16.303  16.095  1.00  0.00     0.020 A 
ATOM     84  C   UNL     1      -5.080 -15.417  16.946  1.00  0.00     0.054 A 
BRANCH  84  85
ATOM     85  S   UNL     1      -4.767 -15.872  18.673  1.00  0.00     0.124 S 
ATOM     86  O   UNL     1      -3.360 -16.259  18.639  1.00  0.00    -0.237 OA
ATOM     87  O   UNL     1      -5.062 -14.635  19.392  1.00  0.00    -0.237 OA
ATOM     88  O   UNL     1      -5.710 -16.962  18.915  1.00  0.00    -0.744 OA
ENDBRANCH  84  85
ENDBRANCH  58  79
ENDBRANCH  32  33
ENDBRANCH  24  27
ENDBRANCH   1  23
TORSDOF 14
