REMARK SMILES Cc1ccc(S(=O)(=O)n2cc(C(=O)C(=O)NCC(=O)N[C@H](Cc3c[nH]c4ccccc34)C(=O)NCCCNC(=O)c3ccc(-c4c5nc(c(-c6ccc(S(=O)(=O)[O-])cc6)c6ccc([nH]6)c(-c6ccc(S(=O)(=O)[O-])cc6)c6nc(c(-c7ccc(S(=O)(=O)[O-])cc7)c7ccc4[nH]7)C=C6)C=C5)cc3)c3ccccc32)cc1
REMARK SMILES IDX 32 1 33 2 34 3 21 5 20 6 18 7 19 8 17 10 16 11 14 12 15 13
REMARK SMILES IDX 12 15 13 16 11 17 9 18 10 19 106 20 101 21 105 22 102 23
REMARK SMILES IDX 104 24 103 25 6 26 7 27 8 28 5 29 1 30 2 31 3 32 108 33 4 34
REMARK SMILES IDX 107 35 22 36 23 37 24 38 31 39 25 40 26 41 30 42 27 44 29 45
REMARK SMILES IDX 28 46 35 47 36 48 37 49 38 50 39 51 40 53 41 54 42 55 100 56
REMARK SMILES IDX 43 57 99 58 44 59 45 60 46 61 93 62 47 63 98 64 92 65 94 66
REMARK SMILES IDX 48 67 97 68 91 69 90 70 49 72 79 73 60 74 78 75 61 76 64 77
REMARK SMILES IDX 77 78 95 79 62 80 63 81 76 83 96 84 65 85 50 86 51 87 59 88
REMARK SMILES IDX 52 89 58 90 53 91 54 92 55 93 56 94 57 95 80 96 81 97 89 98
REMARK SMILES IDX 82 99 88 100 83 101 84 102 85 103 86 104 87 105 66 106
REMARK SMILES IDX 67 107 75 108 68 109 74 110 69 111 70 112 71 113 72 114
REMARK SMILES IDX 73 115
REMARK H PARENT 34 4 20 9 16 14 25 43 38 52 94 71 64 82
REMARK Flexibility Score: inf
ROOT
ATOM      1  C   UNL     1      -9.312   0.444   3.852  1.00  0.00     0.242 C 
ATOM      2  O   UNL     1      -8.836  -0.657   3.546  1.00  0.00    -0.273 OA
ATOM      3  N   UNL     1      -9.371   0.719   5.182  1.00  0.00    -0.354 N 
ATOM      4  H   UNL     1      -9.017  -0.011   5.739  1.00  0.00     0.163 HD
ENDROOT
BRANCH   1   5
ATOM      5  C   UNL     1      -9.854   1.353   2.736  1.00  0.00     0.175 C 
BRANCH   5   6
ATOM      6  N   UNL     1      -9.398   2.724   2.987  1.00  0.00    -0.342 N 
ATOM      7  C   UNL     1      -8.137   3.233   2.854  1.00  0.00     0.240 C 
ATOM      8  O   UNL     1      -7.966   4.405   3.205  1.00  0.00    -0.273 OA
ATOM      9  H   UNL     1     -10.088   3.357   3.291  1.00  0.00     0.164 HD
BRANCH   7  10
ATOM     10  C   UNL     1      -7.021   2.467   2.100  1.00  0.00     0.216 C 
BRANCH  10  11
ATOM     11  N   UNL     1      -6.779   1.063   2.432  1.00  0.00    -0.340 N 
ATOM     12  C   UNL     1      -6.469   0.005   1.586  1.00  0.00     0.292 C 
ATOM     13  O   UNL     1      -6.168  -1.104   2.011  1.00  0.00    -0.265 OA
ATOM     14  H   UNL     1      -6.845   0.836   3.387  1.00  0.00     0.164 HD
BRANCH  12  15
ATOM     15  C   UNL     1      -6.443   0.239   0.079  1.00  0.00     0.252 C 
ATOM     16  O   UNL     1      -5.670   1.117  -0.308  1.00  0.00    -0.283 OA
BRANCH  15  17
ATOM     17  C   UNL     1      -7.396  -0.410  -0.839  1.00  0.00     0.054 A 
ATOM     18  N   UNL     1      -8.770  -1.806  -1.991  1.00  0.00    -0.240 N 
ATOM     19  C   UNL     1      -7.813  -1.743  -0.971  1.00  0.00     0.117 A 
ATOM     20  C   UNL     1      -9.111  -0.474  -2.309  1.00  0.00     0.065 A 
ATOM     21  C   UNL     1      -8.024   0.295  -1.909  1.00  0.00     0.012 A 
ATOM     22  C   UNL     1     -10.088   0.038  -3.187  1.00  0.00     0.028 A 
ATOM     23  C   UNL     1      -7.795   1.530  -2.553  1.00  0.00     0.011 A 
ATOM     24  C   UNL     1      -9.786   1.208  -3.882  1.00  0.00     0.002 A 
ATOM     25  C   UNL     1      -8.633   1.926  -3.598  1.00  0.00     0.001 A 
BRANCH  18  26
ATOM     26  S   UNL     1      -8.666  -2.763  -3.461  1.00  0.00     0.268 S 
ATOM     27  O   UNL     1      -7.485  -2.221  -4.117  1.00  0.00    -0.201 OA
ATOM     28  O   UNL     1      -9.992  -2.559  -4.037  1.00  0.00    -0.201 OA
BRANCH  26  29
ATOM     29  C   UNL     1      -8.519  -4.502  -3.647  1.00  0.00     0.088 A 
ATOM     30  C   UNL     1      -8.759  -8.577  -5.084  1.00  0.00     0.044 C 
ATOM     31  C   UNL     1      -8.611  -7.177  -4.558  1.00  0.00    -0.051 A 
ATOM     32  C   UNL     1      -8.752  -6.143  -5.470  1.00  0.00     0.005 A 
ATOM     33  C   UNL     1      -8.398  -6.861  -3.196  1.00  0.00     0.005 A 
ATOM     34  C   UNL     1      -8.690  -4.839  -5.018  1.00  0.00     0.022 A 
ATOM     35  C   UNL     1      -8.356  -5.519  -2.725  1.00  0.00     0.022 A 
ENDBRANCH  26  29
ENDBRANCH  18  26
ENDBRANCH  15  17
ENDBRANCH  12  15
ENDBRANCH  10  11
ENDBRANCH   7  10
ENDBRANCH   5   6
BRANCH   5  36
ATOM     36  C   UNL     1     -11.366   1.268   2.390  1.00  0.00     0.072 C 
BRANCH  36  37
ATOM     37  C   UNL     1     -12.243   0.163   2.934  1.00  0.00    -0.020 A 
ATOM     38  C   UNL     1     -11.928  -0.852   3.814  1.00  0.00     0.087 A 
ATOM     39  C   UNL     1     -13.650  -0.031   2.635  1.00  0.00     0.003 A 
ATOM     40  N   UNL     1     -13.066  -1.500   4.188  1.00  0.00    -0.361 N 
ATOM     41  C   UNL     1     -14.139  -1.002   3.511  1.00  0.00     0.046 A 
ATOM     42  C   UNL     1     -14.568   0.535   1.724  1.00  0.00     0.010 A 
ATOM     43  H   UNL     1     -13.107  -2.226   4.851  1.00  0.00     0.166 HD
ATOM     44  C   UNL     1     -15.483  -1.365   3.608  1.00  0.00     0.026 A 
ATOM     45  C   UNL     1     -15.913   0.124   1.751  1.00  0.00     0.001 A 
ATOM     46  C   UNL     1     -16.366  -0.789   2.700  1.00  0.00     0.002 A 
ENDBRANCH  36  37
ENDBRANCH   5  36
ENDBRANCH   1   5
BRANCH   3  47
ATOM     47  C   UNL     1      -9.841   1.854   5.967  1.00  0.00     0.117 C 
BRANCH  47  48
ATOM     48  C   UNL     1     -11.338   1.853   6.251  1.00  0.00     0.042 C 
BRANCH  48  49
ATOM     49  C   UNL     1     -11.808   0.671   7.101  1.00  0.00     0.118 C 
BRANCH  49  50
ATOM     50  N   UNL     1     -12.527   1.114   8.290  1.00  0.00    -0.352 N 
ATOM     51  C   UNL     1     -13.505   0.446   9.005  1.00  0.00     0.251 C 
ATOM     52  H   UNL     1     -12.286   2.007   8.628  1.00  0.00     0.163 HD
ATOM     53  O   UNL     1     -14.304   0.993   9.739  1.00  0.00    -0.269 OA
BRANCH  51  54
ATOM     54  C   UNL     1     -13.441  -1.024   8.948  1.00  0.00     0.039 A 
ATOM     55  C   UNL     1     -12.835  -1.673  10.031  1.00  0.00     0.014 A 
ATOM     56  C   UNL     1     -13.704  -1.680   7.751  1.00  0.00     0.014 A 
ATOM     57  C   UNL     1     -12.309  -2.943   9.848  1.00  0.00     0.010 A 
ATOM     58  C   UNL     1     -13.127  -2.915   7.554  1.00  0.00     0.010 A 
ATOM     59  C   UNL     1     -12.377  -3.508   8.578  1.00  0.00    -0.014 A 
BRANCH  59  60
ATOM     60  C   UNL     1     -11.639  -4.698   8.195  1.00  0.00     0.031 A 
ATOM     61  C   UNL     1     -12.334  -5.995   8.183  1.00  0.00     0.074 A 
ATOM     62  C   UNL     1     -10.356  -4.577   7.794  1.00  0.00     0.049 A 
ATOM     63  N   UNL     1     -11.745  -7.133   8.295  1.00  0.00    -0.248 NA
ATOM     64  C   UNL     1     -13.788  -6.100   8.097  1.00  0.00     0.031 C 
ATOM     65  C   UNL     1      -9.521  -5.575   7.136  1.00  0.00     0.029 A 
ATOM     66  N   UNL     1      -9.475  -3.547   8.105  1.00  0.00    -0.354 N 
ATOM     67  C   UNL     1     -12.677  -8.105   8.011  1.00  0.00     0.074 A 
ATOM     68  C   UNL     1     -13.948  -7.421   7.984  1.00  0.00     0.031 C 
ATOM     69  C   UNL     1      -8.230  -5.232   7.293  1.00  0.00     0.029 A 
ATOM     70  C   UNL     1      -8.188  -4.089   8.195  1.00  0.00     0.049 A 
ATOM     71  H   UNL     1      -9.715  -2.602   8.239  1.00  0.00     0.167 HD
ATOM     72  C   UNL     1     -12.251  -9.354   7.677  1.00  0.00     0.031 A 
ATOM     73  C   UNL     1      -7.523  -4.081   9.389  1.00  0.00     0.031 A 
ATOM     74  C   UNL     1     -10.798  -9.459   7.789  1.00  0.00     0.049 A 
ATOM     75  C   UNL     1      -7.293  -5.470   9.950  1.00  0.00     0.074 A 
ATOM     76  C   UNL     1      -9.781  -9.352   6.855  1.00  0.00     0.029 A 
ATOM     77  N   UNL     1     -10.203  -9.338   9.039  1.00  0.00    -0.354 N 
ATOM     78  N   UNL     1      -7.973  -6.529   9.601  1.00  0.00    -0.248 NA
ATOM     79  C   UNL     1      -6.264  -5.773  10.940  1.00  0.00     0.031 C 
ATOM     80  C   UNL     1      -8.577  -9.072   7.554  1.00  0.00     0.029 A 
ATOM     81  C   UNL     1      -8.857  -9.050   8.909  1.00  0.00     0.049 A 
ATOM     82  H   UNL     1     -10.675  -9.443   9.897  1.00  0.00     0.167 HD
ATOM     83  C   UNL     1      -7.497  -7.628  10.272  1.00  0.00     0.074 A 
ATOM     84  C   UNL     1      -6.422  -7.100  11.094  1.00  0.00     0.031 C 
ATOM     85  C   UNL     1      -8.019  -8.879  10.091  1.00  0.00     0.031 A 
BRANCH  72  86
ATOM     86  C   UNL     1     -13.118 -10.354   6.948  1.00  0.00    -0.014 A 
ATOM     87  C   UNL     1     -12.516 -11.265   6.056  1.00  0.00     0.010 A 
ATOM     88  C   UNL     1     -14.522 -10.414   7.045  1.00  0.00     0.010 A 
ATOM     89  C   UNL     1     -13.271 -12.120   5.241  1.00  0.00     0.020 A 
ATOM     90  C   UNL     1     -15.294 -11.238   6.210  1.00  0.00     0.020 A 
ATOM     91  C   UNL     1     -14.661 -12.084   5.305  1.00  0.00     0.054 A 
BRANCH  91  92
ATOM     92  S   UNL     1     -15.619 -13.155   4.203  1.00  0.00     0.124 S 
ATOM     93  O   UNL     1     -15.143 -12.755   2.881  1.00  0.00    -0.237 OA
ATOM     94  O   UNL     1     -15.220 -14.490   4.640  1.00  0.00    -0.237 OA
ATOM     95  O   UNL     1     -17.007 -12.797   4.491  1.00  0.00    -0.744 OA
ENDBRANCH  91  92
ENDBRANCH  72  86
BRANCH  73  96
ATOM     96  C   UNL     1      -7.764  -2.850  10.203  1.00  0.00    -0.014 A 
ATOM     97  C   UNL     1      -7.210  -1.636   9.740  1.00  0.00     0.010 A 
ATOM     98  C   UNL     1      -8.812  -2.796  11.137  1.00  0.00     0.010 A 
ATOM     99  C   UNL     1      -7.782  -0.406  10.086  1.00  0.00     0.020 A 
ATOM    100  C   UNL     1      -9.386  -1.562  11.489  1.00  0.00     0.020 A 
ATOM    101  C   UNL     1      -8.901  -0.382  10.918  1.00  0.00     0.054 A 
BRANCH 101 102
ATOM    102  S   UNL     1      -9.815   1.183  11.085  1.00  0.00     0.124 S 
ATOM    103  O   UNL     1      -8.900   1.994  11.879  1.00  0.00    -0.237 OA
ATOM    104  O   UNL     1      -9.983   1.605   9.692  1.00  0.00    -0.237 OA
ATOM    105  O   UNL     1     -11.051   0.786  11.751  1.00  0.00    -0.744 OA
ENDBRANCH 101 102
ENDBRANCH  73  96
BRANCH  85 106
ATOM    106  C   UNL     1      -7.738 -10.104  10.938  1.00  0.00    -0.014 A 
ATOM    107  C   UNL     1      -7.146 -10.076  12.209  1.00  0.00     0.010 A 
ATOM    108  C   UNL     1      -8.203 -11.367  10.487  1.00  0.00     0.010 A 
ATOM    109  C   UNL     1      -6.968 -11.249  12.960  1.00  0.00     0.020 A 
ATOM    110  C   UNL     1      -8.083 -12.532  11.249  1.00  0.00     0.020 A 
ATOM    111  C   UNL     1      -7.437 -12.469  12.474  1.00  0.00     0.054 A 
BRANCH 111 112
ATOM    112  S   UNL     1      -7.251 -13.959  13.483  1.00  0.00     0.124 S 
ATOM    113  O   UNL     1      -5.870 -14.341  13.201  1.00  0.00    -0.237 OA
ATOM    114  O   UNL     1      -7.501 -13.466  14.836  1.00  0.00    -0.237 OA
ATOM    115  O   UNL     1      -8.272 -14.861  12.958  1.00  0.00    -0.744 OA
ENDBRANCH 111 112
ENDBRANCH  85 106
ENDBRANCH  59  60
ENDBRANCH  51  54
ENDBRANCH  49  50
ENDBRANCH  48  49
ENDBRANCH  47  48
ENDBRANCH   3  47
TORSDOF 22
