REMARK SMILES C[NH2+]CCCC(=O)NC[C@@H]1CC[C@H](C(=O)NCCCNC(=O)c2ccc(-c3c4nc(c(-c5ccc(S(=O)(=O)[O-])cc5)c5ccc([nH]5)c(-c5ccc(S(=O)(=O)[O-])cc5)c5nc(c(-c6ccc(S(=O)(=O)[O-])cc6)c6ccc3[nH]6)C=C5)C=C4)cc2)O1
REMARK SMILES IDX 14 1 15 2 16 3 13 5 10 6 11 7 83 8 12 9 9 10 8 11 6 12 7 13
REMARK SMILES IDX 5 15 4 16 3 17 2 18 1 19 17 22 18 23 19 24 20 25 21 26 22 28
REMARK SMILES IDX 23 29 24 30 82 31 25 32 81 33 26 34 27 35 28 36 75 37 29 38
REMARK SMILES IDX 80 39 74 40 76 41 30 42 79 43 73 44 72 45 31 47 61 48 42 49
REMARK SMILES IDX 60 50 43 51 46 52 59 53 77 54 44 55 45 56 58 58 78 59 47 60
REMARK SMILES IDX 32 61 33 62 41 63 34 64 40 65 35 66 36 67 37 68 38 69 39 70
REMARK SMILES IDX 62 71 63 72 71 73 64 74 70 75 65 76 66 77 67 78 68 79 69 80
REMARK SMILES IDX 48 81 49 82 57 83 50 84 56 85 51 86 52 87 53 88 54 89 55 90
REMARK H PARENT 16 4 8 14 2 20 2 21 20 27 76 46 46 57
REMARK Flexibility Score: inf
ROOT
ATOM      1  C   UNL     1       1.089   4.523  -4.158  1.00  0.00     0.249 C 
ATOM      2  O   UNL     1       1.342   5.121  -5.209  1.00  0.00    -0.272 OA
ATOM      3  N   UNL     1       2.148   4.027  -3.454  1.00  0.00    -0.354 N 
ATOM      4  H   UNL     1       3.029   4.184  -3.864  1.00  0.00     0.163 HD
ENDROOT
BRANCH   1   5
ATOM      5  C   UNL     1      -0.373   4.338  -3.693  1.00  0.00     0.207 C 
ATOM      6  C   UNL     1      -1.356   3.804  -1.628  1.00  0.00     0.138 C 
ATOM      7  C   UNL     1      -1.202   2.498  -2.398  1.00  0.00     0.037 C 
ATOM      8  O   UNL     1      -0.620   4.799  -2.364  1.00  0.00    -0.363 OA
ATOM      9  C   UNL     1      -0.894   2.918  -3.814  1.00  0.00     0.045 C 
BRANCH   6  10
ATOM     10  C   UNL     1      -0.817   3.792  -0.178  1.00  0.00     0.147 C 
BRANCH  10  11
ATOM     11  N   UNL     1      -1.860   3.892   0.827  1.00  0.00    -0.353 N 
ATOM     12  C   UNL     1      -2.011   3.240   2.010  1.00  0.00     0.220 C 
ATOM     13  O   UNL     1      -2.908   3.618   2.766  1.00  0.00    -0.275 OA
ATOM     14  H   UNL     1      -2.574   4.537   0.618  1.00  0.00     0.163 HD
BRANCH  12  15
ATOM     15  C   UNL     1      -1.105   2.088   2.399  1.00  0.00     0.106 C 
BRANCH  15  16
ATOM     16  C   UNL     1      -1.572   0.724   1.877  1.00  0.00     0.071 C 
BRANCH  16  17
ATOM     17  C   UNL     1      -1.145   0.373   0.452  1.00  0.00     0.260 C 
BRANCH  17  18
ATOM     18  N   UNL     1       0.302   0.400   0.224  1.00  0.00    -0.349 N 
ATOM     19  C   UNL     1       0.909  -0.919   0.354  1.00  0.00     0.330 C 
ATOM     20  H   UNL     1       0.478   0.750  -0.718  1.00  0.00     0.346 HD
ATOM     21  H   UNL     1       0.717   1.005   0.931  1.00  0.00     0.346 HD
ENDBRANCH  17  18
ENDBRANCH  16  17
ENDBRANCH  15  16
ENDBRANCH  12  15
ENDBRANCH  10  11
ENDBRANCH   6  10
ENDBRANCH   1   5
BRANCH   3  22
ATOM     22  C   UNL     1       2.177   3.308  -2.200  1.00  0.00     0.117 C 
BRANCH  22  23
ATOM     23  C   UNL     1       2.566   1.847  -2.376  1.00  0.00     0.042 C 
BRANCH  23  24
ATOM     24  C   UNL     1       4.072   1.626  -2.418  1.00  0.00     0.118 C 
BRANCH  24  25
ATOM     25  N   UNL     1       4.716   1.975  -1.155  1.00  0.00    -0.352 N 
ATOM     26  C   UNL     1       5.443   1.216  -0.271  1.00  0.00     0.251 C 
ATOM     27  H   UNL     1       4.612   2.918  -0.892  1.00  0.00     0.163 HD
ATOM     28  O   UNL     1       5.696   1.678   0.838  1.00  0.00    -0.269 OA
BRANCH  26  29
ATOM     29  C   UNL     1       5.902  -0.145  -0.628  1.00  0.00     0.039 A 
ATOM     30  C   UNL     1       5.931  -1.127   0.368  1.00  0.00     0.014 A 
ATOM     31  C   UNL     1       6.328  -0.456  -1.920  1.00  0.00     0.014 A 
ATOM     32  C   UNL     1       6.305  -2.434   0.045  1.00  0.00     0.010 A 
ATOM     33  C   UNL     1       6.612  -1.776  -2.261  1.00  0.00     0.010 A 
ATOM     34  C   UNL     1       6.597  -2.780  -1.284  1.00  0.00    -0.014 A 
BRANCH  34  35
ATOM     35  C   UNL     1       6.847  -4.189  -1.679  1.00  0.00     0.031 A 
ATOM     36  C   UNL     1       8.166  -4.593  -2.280  1.00  0.00     0.074 A 
ATOM     37  C   UNL     1       5.847  -5.088  -1.572  1.00  0.00     0.049 A 
ATOM     38  N   UNL     1       8.531  -5.755  -2.757  1.00  0.00    -0.248 NA
ATOM     39  C   UNL     1       9.201  -3.551  -2.381  1.00  0.00     0.031 C 
ATOM     40  C   UNL     1       4.508  -4.807  -1.047  1.00  0.00     0.029 A 
ATOM     41  N   UNL     1       5.796  -6.418  -1.909  1.00  0.00    -0.354 N 
ATOM     42  C   UNL     1       9.827  -5.582  -3.228  1.00  0.00     0.074 A 
ATOM     43  C   UNL     1      10.168  -4.190  -3.023  1.00  0.00     0.031 C 
ATOM     44  C   UNL     1       3.779  -5.934  -1.072  1.00  0.00     0.029 A 
ATOM     45  C   UNL     1       4.576  -7.003  -1.662  1.00  0.00     0.049 A 
ATOM     46  H   UNL     1       6.561  -6.906  -2.291  1.00  0.00     0.167 HD
ATOM     47  C   UNL     1      10.664  -6.501  -3.767  1.00  0.00     0.031 A 
ATOM     48  C   UNL     1       4.139  -8.255  -1.898  1.00  0.00     0.031 A 
ATOM     49  C   UNL     1      10.318  -7.885  -3.965  1.00  0.00     0.049 A 
ATOM     50  C   UNL     1       5.077  -9.249  -2.523  1.00  0.00     0.074 A 
ATOM     51  C   UNL     1      11.115  -8.909  -4.447  1.00  0.00     0.029 A 
ATOM     52  N   UNL     1       9.074  -8.437  -3.703  1.00  0.00    -0.354 N 
ATOM     53  N   UNL     1       6.326  -9.084  -2.890  1.00  0.00    -0.248 NA
ATOM     54  C   UNL     1       4.550 -10.600  -2.761  1.00  0.00     0.031 C 
ATOM     55  C   UNL     1      10.334 -10.065  -4.536  1.00  0.00     0.029 A 
ATOM     56  C   UNL     1       9.069  -9.779  -4.048  1.00  0.00     0.049 A 
ATOM     57  H   UNL     1       8.306  -7.948  -3.327  1.00  0.00     0.167 HD
ATOM     58  C   UNL     1       6.739 -10.315  -3.388  1.00  0.00     0.074 A 
ATOM     59  C   UNL     1       5.615 -11.219  -3.251  1.00  0.00     0.031 C 
ATOM     60  C   UNL     1       7.938 -10.663  -3.916  1.00  0.00     0.031 A 
BRANCH  47  61
ATOM     61  C   UNL     1      12.034  -6.038  -4.193  1.00  0.00    -0.014 A 
ATOM     62  C   UNL     1      13.001  -5.658  -3.244  1.00  0.00     0.010 A 
ATOM     63  C   UNL     1      12.377  -6.030  -5.557  1.00  0.00     0.010 A 
ATOM     64  C   UNL     1      14.271  -5.242  -3.654  1.00  0.00     0.020 A 
ATOM     65  C   UNL     1      13.656  -5.643  -5.970  1.00  0.00     0.020 A 
ATOM     66  C   UNL     1      14.589  -5.236  -5.015  1.00  0.00     0.054 A 
BRANCH  66  67
ATOM     67  S   UNL     1      16.254  -4.717  -5.514  1.00  0.00     0.124 S 
ATOM     68  O   UNL     1      16.212  -3.280  -5.253  1.00  0.00    -0.237 OA
ATOM     69  O   UNL     1      17.111  -5.492  -4.621  1.00  0.00    -0.237 OA
ATOM     70  O   UNL     1      16.328  -5.091  -6.924  1.00  0.00    -0.744 OA
ENDBRANCH  66  67
ENDBRANCH  47  61
BRANCH  48  71
ATOM     71  C   UNL     1       2.743  -8.633  -1.545  1.00  0.00    -0.014 A 
ATOM     72  C   UNL     1       2.490  -9.529  -0.491  1.00  0.00     0.010 A 
ATOM     73  C   UNL     1       1.657  -8.085  -2.252  1.00  0.00     0.010 A 
ATOM     74  C   UNL     1       1.177  -9.881  -0.161  1.00  0.00     0.020 A 
ATOM     75  C   UNL     1       0.343  -8.410  -1.905  1.00  0.00     0.020 A 
ATOM     76  C   UNL     1       0.112  -9.315  -0.868  1.00  0.00     0.054 A 
BRANCH  76  77
ATOM     77  S   UNL     1      -1.583  -9.743  -0.383  1.00  0.00     0.124 S 
ATOM     78  O   UNL     1      -1.699 -11.116  -0.864  1.00  0.00    -0.237 OA
ATOM     79  O   UNL     1      -1.546  -9.579   1.068  1.00  0.00    -0.237 OA
ATOM     80  O   UNL     1      -2.399  -8.759  -1.092  1.00  0.00    -0.744 OA
ENDBRANCH  76  77
ENDBRANCH  48  71
BRANCH  60  81
ATOM     81  C   UNL     1       8.103 -12.088  -4.375  1.00  0.00    -0.014 A 
ATOM     82  C   UNL     1       7.451 -12.558  -5.529  1.00  0.00     0.010 A 
ATOM     83  C   UNL     1       8.963 -12.952  -3.674  1.00  0.00     0.010 A 
ATOM     84  C   UNL     1       7.633 -13.876  -5.956  1.00  0.00     0.020 A 
ATOM     85  C   UNL     1       9.173 -14.261  -4.115  1.00  0.00     0.020 A 
ATOM     86  C   UNL     1       8.495 -14.718  -5.247  1.00  0.00     0.054 A 
BRANCH  86  87
ATOM     87  S   UNL     1       8.751 -16.409  -5.851  1.00  0.00     0.124 S 
ATOM     88  O   UNL     1       7.477 -17.044  -5.525  1.00  0.00    -0.237 OA
ATOM     89  O   UNL     1       9.005 -16.204  -7.275  1.00  0.00    -0.237 OA
ATOM     90  O   UNL     1       9.899 -16.883  -5.081  1.00  0.00    -0.744 OA
ENDBRANCH  86  87
ENDBRANCH  60  81
ENDBRANCH  34  35
ENDBRANCH  26  29
ENDBRANCH  24  25
ENDBRANCH  23  24
ENDBRANCH  22  23
ENDBRANCH   3  22
TORSDOF 19
