REMARK SMILES Cc1ccc(NC(=O)C[C@@H]2C[NH2+]CCO2)c(C(=O)NCCCNC(=O)c2ccc(-c3c4nc(c(-c5ccc(S(=O)(=O)[O-])cc5)c5ccc([nH]5)c(-c5ccc(S(=O)(=O)[O-])cc5)c5nc(c(-c6ccc(S(=O)(=O)[O-])cc6)c6ccc3[nH]6)C=C5)C=C4)cc2)c1
REMARK SMILES IDX 21 1 20 2 19 3 17 4 18 5 16 7 1 8 2 9 3 10 86 11 4 12 5 13
REMARK SMILES IDX 6 14 7 15 8 17 9 18 10 19 11 20 15 21 12 22 14 23 13 24
REMARK SMILES IDX 22 27 23 28 24 29 25 31 26 32 27 33 85 34 28 35 84 36 29 37
REMARK SMILES IDX 30 38 31 39 78 40 32 41 83 42 77 43 79 44 33 45 82 46 76 47
REMARK SMILES IDX 75 48 34 50 64 51 45 52 63 53 46 54 49 55 62 56 80 57 47 58
REMARK SMILES IDX 48 59 61 61 81 62 50 63 35 64 36 65 44 66 37 67 43 68 38 69
REMARK SMILES IDX 39 70 40 71 41 72 42 73 65 74 66 75 74 76 67 77 73 78 68 79
REMARK SMILES IDX 69 80 70 81 71 82 72 83 51 84 52 85 60 86 53 87 59 88 54 89
REMARK SMILES IDX 55 90 56 91 57 92 58 93
REMARK H PARENT 19 6 6 16 12 25 12 26 23 30 79 49 49 60
REMARK Flexibility Score: inf
ROOT
ATOM      1  C   UNL     1       1.264   4.175  -0.490  1.00  0.00     0.042 C 
ENDROOT
BRANCH   1   2
ATOM      2  C   UNL     1       0.256   3.972   0.642  1.00  0.00     0.118 C 
BRANCH   2   3
ATOM      3  N   UNL     1      -1.046   3.541   0.143  1.00  0.00    -0.352 N 
ATOM      4  C   UNL     1      -1.624   2.298   0.006  1.00  0.00     0.253 C 
ATOM      5  O   UNL     1      -2.817   2.265  -0.301  1.00  0.00    -0.269 OA
ATOM      6  H   UNL     1      -1.622   4.282  -0.153  1.00  0.00     0.163 HD
BRANCH   4   7
ATOM      7  C   UNL     1      -0.901   1.009   0.275  1.00  0.00     0.063 A 
ATOM      8  C   UNL     1       2.673  -0.329   0.132  1.00  0.00     0.044 C 
ATOM      9  C   UNL     1       1.203  -0.254   0.414  1.00  0.00    -0.050 A 
ATOM     10  C   UNL     1       0.510  -1.339   0.932  1.00  0.00     0.005 A 
ATOM     11  C   UNL     1       0.487   0.905   0.099  1.00  0.00     0.019 A 
ATOM     12  C   UNL     1      -0.881  -1.290   1.036  1.00  0.00     0.027 A 
ATOM     13  C   UNL     1      -1.609  -0.170   0.610  1.00  0.00     0.054 A 
BRANCH  13  14
ATOM     14  N   UNL     1      -3.014  -0.218   0.434  1.00  0.00    -0.325 N 
ATOM     15  C   UNL     1      -3.853  -1.223   0.036  1.00  0.00     0.227 C 
ATOM     16  H   UNL     1      -3.472   0.629   0.635  1.00  0.00     0.169 HD
ATOM     17  O   UNL     1      -5.063  -0.980  -0.064  1.00  0.00    -0.275 OA
BRANCH  15  18
ATOM     18  C   UNL     1      -3.375  -2.623  -0.296  1.00  0.00     0.138 C 
BRANCH  18  19
ATOM     19  C   UNL     1      -2.566  -2.791  -1.594  1.00  0.00     0.182 C 
ATOM     20  C   UNL     1      -1.728  -4.094  -1.494  1.00  0.00     0.293 C 
ATOM     21  O   UNL     1      -1.716  -1.667  -1.835  1.00  0.00    -0.366 OA
ATOM     22  N   UNL     1      -0.810  -4.306  -2.630  1.00  0.00    -0.342 N 
ATOM     23  C   UNL     1      -0.856  -1.846  -2.959  1.00  0.00     0.222 C 
ATOM     24  C   UNL     1       0.016  -3.092  -2.780  1.00  0.00     0.289 C 
ATOM     25  H   UNL     1      -1.345  -4.468  -3.482  1.00  0.00     0.346 HD
ATOM     26  H   UNL     1      -0.218  -5.119  -2.460  1.00  0.00     0.346 HD
ENDBRANCH  18  19
ENDBRANCH  15  18
ENDBRANCH  13  14
ENDBRANCH   4   7
ENDBRANCH   2   3
ENDBRANCH   1   2
BRANCH   1  27
ATOM     27  C   UNL     1       1.241   5.576  -1.076  1.00  0.00     0.118 C 
BRANCH  27  28
ATOM     28  N   UNL     1       2.558   6.202  -1.050  1.00  0.00    -0.352 N 
ATOM     29  C   UNL     1       2.976   7.294  -1.796  1.00  0.00     0.251 C 
ATOM     30  H   UNL     1       3.221   5.806  -0.439  1.00  0.00     0.163 HD
ATOM     31  O   UNL     1       4.137   7.582  -1.974  1.00  0.00    -0.269 OA
BRANCH  29  32
ATOM     32  C   UNL     1       1.890   8.196  -2.228  1.00  0.00     0.039 A 
ATOM     33  C   UNL     1       1.661   9.320  -1.424  1.00  0.00     0.014 A 
ATOM     34  C   UNL     1       0.941   7.735  -3.133  1.00  0.00     0.014 A 
ATOM     35  C   UNL     1       0.394   9.889  -1.401  1.00  0.00     0.010 A 
ATOM     36  C   UNL     1      -0.338   8.243  -3.039  1.00  0.00     0.010 A 
ATOM     37  C   UNL     1      -0.621   9.284  -2.139  1.00  0.00    -0.014 A 
BRANCH  37  38
ATOM     38  C   UNL     1      -2.024   9.662  -2.041  1.00  0.00     0.031 A 
ATOM     39  C   UNL     1      -2.607  10.481  -3.134  1.00  0.00     0.074 A 
ATOM     40  C   UNL     1      -2.797   9.186  -1.037  1.00  0.00     0.049 A 
ATOM     41  N   UNL     1      -3.723  11.125  -3.064  1.00  0.00    -0.248 NA
ATOM     42  C   UNL     1      -1.915  10.683  -4.406  1.00  0.00     0.031 C 
ATOM     43  C   UNL     1      -4.258   9.210  -0.986  1.00  0.00     0.029 A 
ATOM     44  N   UNL     1      -2.438   8.750   0.244  1.00  0.00    -0.354 N 
ATOM     45  C   UNL     1      -4.041  11.544  -4.339  1.00  0.00     0.074 A 
ATOM     46  C   UNL     1      -2.844  11.329  -5.114  1.00  0.00     0.031 C 
ATOM     47  C   UNL     1      -4.645   9.129   0.297  1.00  0.00     0.029 A 
ATOM     48  C   UNL     1      -3.439   9.243   1.101  1.00  0.00     0.049 A 
ATOM     49  H   UNL     1      -1.651   8.213   0.493  1.00  0.00     0.167 HD
ATOM     50  C   UNL     1      -5.329  11.885  -4.631  1.00  0.00     0.031 A 
ATOM     51  C   UNL     1      -3.242  10.203   2.056  1.00  0.00     0.031 A 
ATOM     52  C   UNL     1      -6.152  11.930  -3.424  1.00  0.00     0.049 A 
ATOM     53  C   UNL     1      -4.150  11.412   1.886  1.00  0.00     0.074 A 
ATOM     54  C   UNL     1      -7.047  11.040  -2.854  1.00  0.00     0.029 A 
ATOM     55  N   UNL     1      -5.865  12.879  -2.449  1.00  0.00    -0.354 N 
ATOM     56  N   UNL     1      -4.753  11.716   0.767  1.00  0.00    -0.248 NA
ATOM     57  C   UNL     1      -4.438  12.380   2.943  1.00  0.00     0.031 C 
ATOM     58  C   UNL     1      -7.214  11.404  -1.490  1.00  0.00     0.029 A 
ATOM     59  C   UNL     1      -6.452  12.534  -1.247  1.00  0.00     0.049 A 
ATOM     60  H   UNL     1      -5.320  13.686  -2.596  1.00  0.00     0.167 HD
ATOM     61  C   UNL     1      -5.508  12.847   0.935  1.00  0.00     0.074 A 
ATOM     62  C   UNL     1      -5.277  13.227   2.318  1.00  0.00     0.031 C 
ATOM     63  C   UNL     1      -6.264  13.377  -0.073  1.00  0.00     0.031 A 
BRANCH  50  64
ATOM     64  C   UNL     1      -5.892  11.884  -6.039  1.00  0.00    -0.014 A 
ATOM     65  C   UNL     1      -7.266  11.638  -6.241  1.00  0.00     0.010 A 
ATOM     66  C   UNL     1      -5.119  12.034  -7.207  1.00  0.00     0.010 A 
ATOM     67  C   UNL     1      -7.812  11.449  -7.523  1.00  0.00     0.020 A 
ATOM     68  C   UNL     1      -5.639  11.812  -8.491  1.00  0.00     0.020 A 
ATOM     69  C   UNL     1      -6.986  11.508  -8.642  1.00  0.00     0.054 A 
BRANCH  69  70
ATOM     70  S   UNL     1      -7.678  11.179 -10.284  1.00  0.00     0.124 S 
ATOM     71  O   UNL     1      -8.252   9.845 -10.124  1.00  0.00    -0.237 OA
ATOM     72  O   UNL     1      -8.639  12.265 -10.442  1.00  0.00    -0.237 OA
ATOM     73  O   UNL     1      -6.516  11.245 -11.170  1.00  0.00    -0.744 OA
ENDBRANCH  69  70
ENDBRANCH  50  64
BRANCH  51  74
ATOM     74  C   UNL     1      -1.867  10.237   2.627  1.00  0.00    -0.014 A 
ATOM     75  C   UNL     1      -1.465   9.137   3.414  1.00  0.00     0.010 A 
ATOM     76  C   UNL     1      -0.879  11.065   2.066  1.00  0.00     0.010 A 
ATOM     77  C   UNL     1      -0.123   8.752   3.466  1.00  0.00     0.020 A 
ATOM     78  C   UNL     1       0.472  10.689   2.130  1.00  0.00     0.020 A 
ATOM     79  C   UNL     1       0.826   9.492   2.761  1.00  0.00     0.054 A 
BRANCH  79  80
ATOM     80  S   UNL     1       2.468   8.749   2.510  1.00  0.00     0.124 S 
ATOM     81  O   UNL     1       2.942   8.562   3.877  1.00  0.00    -0.237 OA
ATOM     82  O   UNL     1       2.140   7.518   1.787  1.00  0.00    -0.237 OA
ATOM     83  O   UNL     1       3.178   9.755   1.728  1.00  0.00    -0.744 OA
ENDBRANCH  79  80
ENDBRANCH  51  74
BRANCH  63  84
ATOM     84  C   UNL     1      -6.967  14.716  -0.049  1.00  0.00    -0.014 A 
ATOM     85  C   UNL     1      -6.574  15.797   0.754  1.00  0.00     0.010 A 
ATOM     86  C   UNL     1      -7.997  14.960  -0.992  1.00  0.00     0.010 A 
ATOM     87  C   UNL     1      -7.211  17.044   0.660  1.00  0.00     0.020 A 
ATOM     88  C   UNL     1      -8.607  16.210  -1.126  1.00  0.00     0.020 A 
ATOM     89  C   UNL     1      -8.224  17.243  -0.279  1.00  0.00     0.054 A 
BRANCH  89  90
ATOM     90  S   UNL     1      -8.982  18.878  -0.452  1.00  0.00     0.124 S 
ATOM     91  O   UNL     1     -10.073  18.808   0.517  1.00  0.00    -0.237 OA
ATOM     92  O   UNL     1      -7.892  19.786  -0.101  1.00  0.00    -0.237 OA
ATOM     93  O   UNL     1      -9.389  18.919  -1.854  1.00  0.00    -0.744 OA
ENDBRANCH  89  90
ENDBRANCH  63  84
ENDBRANCH  37  38
ENDBRANCH  29  32
ENDBRANCH  27  28
ENDBRANCH   1  27
TORSDOF 16
