REMARK SMILES Cc1cccc(-c2cccnc2C(=O)NCCCNC(=O)c2ccc(-c3c4nc(c(-c5ccc(S(=O)(=O)[O-])cc5)c5ccc([nH]5)c(-c5ccc(S(=O)(=O)[O-])cc5)c5nc(c(-c6ccc(S(=O)(=O)[O-])cc6)c6ccc3[nH]6)C=C5)C=C4)cc2)c1
REMARK SMILES IDX 18 1 17 2 16 3 15 4 13 5 14 6 12 8 7 9 8 10 9 11 11 12 10 13
REMARK SMILES IDX 6 14 1 15 2 16 3 17 82 18 4 19 5 20 19 21 20 22 21 24 22 25
REMARK SMILES IDX 23 26 81 27 24 28 80 29 25 30 26 31 27 32 74 33 28 34 79 35
REMARK SMILES IDX 73 36 75 37 29 38 78 39 72 40 71 41 30 43 60 44 41 45 59 46
REMARK SMILES IDX 42 47 45 48 58 49 76 50 43 51 44 52 57 54 77 55 46 56 31 57
REMARK SMILES IDX 32 58 40 59 33 60 39 61 34 62 35 63 36 64 37 65 38 66 61 67
REMARK SMILES IDX 62 68 70 69 63 70 69 71 64 72 65 73 66 74 67 75 68 76 47 77
REMARK SMILES IDX 48 78 56 79 49 80 55 81 50 82 51 83 52 84 53 85 54 86
REMARK H PARENT 15 7 19 23 75 42 45 53
REMARK Flexibility Score: inf
ROOT
ATOM      1  C   UNL     1       0.603  -0.839   2.797  1.00  0.00     0.118 C 
ENDROOT
BRANCH   1   2
ATOM      2  C   UNL     1      -0.279   0.373   2.510  1.00  0.00     0.042 C 
BRANCH   2   3
ATOM      3  C   UNL     1      -1.604  -0.049   1.910  1.00  0.00     0.118 C 
BRANCH   3   4
ATOM      4  N   UNL     1      -2.692   0.873   2.166  1.00  0.00    -0.351 N 
ATOM      5  C   UNL     1      -3.274   1.980   1.620  1.00  0.00     0.270 C 
ATOM      6  O   UNL     1      -4.339   2.285   2.183  1.00  0.00    -0.267 OA
ATOM      7  H   UNL     1      -3.158   0.621   2.996  1.00  0.00     0.163 HD
BRANCH   5   8
ATOM      8  C   UNL     1      -2.802   2.896   0.509  1.00  0.00     0.135 A 
ATOM      9  C   UNL     1      -2.021   2.641  -0.624  1.00  0.00     0.013 A 
ATOM     10  C   UNL     1      -1.867   3.710  -1.547  1.00  0.00     0.013 A 
ATOM     11  C   UNL     1      -2.441   4.956  -1.340  1.00  0.00     0.021 A 
ATOM     12  N   UNL     1      -3.349   4.148   0.709  1.00  0.00    -0.250 NA
ATOM     13  C   UNL     1      -3.168   5.127  -0.192  1.00  0.00     0.112 A 
BRANCH   9  14
ATOM     14  C   UNL     1      -1.317   1.412  -0.984  1.00  0.00    -0.016 A 
ATOM     15  C   UNL     1       2.325   0.261  -1.144  1.00  0.00     0.044 C 
ATOM     16  C   UNL     1       0.830   0.264  -1.292  1.00  0.00    -0.051 A 
ATOM     17  C   UNL     1       0.139  -0.886  -1.684  1.00  0.00     0.003 A 
ATOM     18  C   UNL     1       0.093   1.397  -0.934  1.00  0.00     0.012 A 
ATOM     19  C   UNL     1      -1.256  -0.878  -1.780  1.00  0.00     0.001 A 
ATOM     20  C   UNL     1      -1.982   0.275  -1.460  1.00  0.00     0.009 A 
ENDBRANCH   9  14
ENDBRANCH   5   8
ENDBRANCH   3   4
ENDBRANCH   2   3
ENDBRANCH   1   2
BRANCH   1  21
ATOM     21  N   UNL     1       1.272  -1.426   1.641  1.00  0.00    -0.352 N 
ATOM     22  C   UNL     1       2.194  -2.471   1.603  1.00  0.00     0.251 C 
ATOM     23  H   UNL     1       1.040  -1.031   0.769  1.00  0.00     0.163 HD
ATOM     24  O   UNL     1       2.776  -2.788   0.587  1.00  0.00    -0.269 OA
BRANCH  22  25
ATOM     25  C   UNL     1       2.386  -3.219   2.866  1.00  0.00     0.039 A 
ATOM     26  C   UNL     1       1.750  -4.460   2.969  1.00  0.00     0.014 A 
ATOM     27  C   UNL     1       2.727  -2.482   3.990  1.00  0.00     0.014 A 
ATOM     28  C   UNL     1       1.201  -4.834   4.192  1.00  0.00     0.010 A 
ATOM     29  C   UNL     1       2.057  -2.783   5.157  1.00  0.00     0.010 A 
ATOM     30  C   UNL     1       1.233  -3.922   5.244  1.00  0.00    -0.014 A 
BRANCH  30  31
ATOM     31  C   UNL     1       0.337  -3.960   6.404  1.00  0.00     0.031 A 
ATOM     32  C   UNL     1       0.917  -3.943   7.774  1.00  0.00     0.074 A 
ATOM     33  C   UNL     1      -1.001  -3.795   6.248  1.00  0.00     0.049 A 
ATOM     34  N   UNL     1       0.237  -4.088   8.861  1.00  0.00    -0.248 NA
ATOM     35  C   UNL     1       2.355  -3.823   8.028  1.00  0.00     0.031 C 
ATOM     36  C   UNL     1      -1.943  -3.322   7.265  1.00  0.00     0.029 A 
ATOM     37  N   UNL     1      -1.838  -4.214   5.208  1.00  0.00    -0.354 N 
ATOM     38  C   UNL     1       1.052  -3.726   9.909  1.00  0.00     0.074 A 
ATOM     39  C   UNL     1       2.381  -3.695   9.356  1.00  0.00     0.031 C 
ATOM     40  C   UNL     1      -3.174  -3.752   6.952  1.00  0.00     0.029 A 
ATOM     41  C   UNL     1      -3.034  -4.641   5.815  1.00  0.00     0.049 A 
ATOM     42  H   UNL     1      -1.631  -4.210   4.245  1.00  0.00     0.167 HD
ATOM     43  C   UNL     1       0.486  -3.345  11.087  1.00  0.00     0.031 A 
ATOM     44  C   UNL     1      -3.521  -5.916   5.761  1.00  0.00     0.031 A 
ATOM     45  C   UNL     1      -0.917  -3.751  11.157  1.00  0.00     0.049 A 
ATOM     46  C   UNL     1      -3.720  -6.549   7.125  1.00  0.00     0.074 A 
ATOM     47  C   UNL     1      -2.126  -3.079  11.110  1.00  0.00     0.029 A 
ATOM     48  N   UNL     1      -1.216  -5.104  11.030  1.00  0.00    -0.354 N 
ATOM     49  N   UNL     1      -3.284  -6.033   8.241  1.00  0.00    -0.248 NA
ATOM     50  C   UNL     1      -4.371  -7.840   7.335  1.00  0.00     0.031 C 
ATOM     51  C   UNL     1      -3.145  -4.038  10.843  1.00  0.00     0.029 A 
ATOM     52  C   UNL     1      -2.559  -5.290  10.772  1.00  0.00     0.049 A 
ATOM     53  H   UNL     1      -0.558  -5.832  11.113  1.00  0.00     0.167 HD
ATOM     54  C   UNL     1      -3.519  -6.896   9.279  1.00  0.00     0.074 A 
ATOM     55  C   UNL     1      -4.235  -7.999   8.665  1.00  0.00     0.031 C 
ATOM     56  C   UNL     1      -3.069  -6.639  10.543  1.00  0.00     0.031 A 
BRANCH  43  57
ATOM     57  C   UNL     1       1.150  -2.411  12.083  1.00  0.00    -0.014 A 
ATOM     58  C   UNL     1       0.404  -1.896  13.164  1.00  0.00     0.010 A 
ATOM     59  C   UNL     1       2.458  -1.900  11.948  1.00  0.00     0.010 A 
ATOM     60  C   UNL     1       0.918  -0.910  14.027  1.00  0.00     0.020 A 
ATOM     61  C   UNL     1       2.993  -0.934  12.812  1.00  0.00     0.020 A 
ATOM     62  C   UNL     1       2.212  -0.429  13.839  1.00  0.00     0.054 A 
BRANCH  62  63
ATOM     63  S   UNL     1       2.858   0.877  14.916  1.00  0.00     0.124 S 
ATOM     64  O   UNL     1       1.969   1.996  14.617  1.00  0.00    -0.237 OA
ATOM     65  O   UNL     1       2.714   0.292  16.246  1.00  0.00    -0.237 OA
ATOM     66  O   UNL     1       4.238   1.049  14.464  1.00  0.00    -0.744 OA
ENDBRANCH  62  63
ENDBRANCH  43  57
BRANCH  44  67
ATOM     67  C   UNL     1      -3.171  -6.656   4.518  1.00  0.00    -0.014 A 
ATOM     68  C   UNL     1      -3.826  -6.259   3.334  1.00  0.00     0.010 A 
ATOM     69  C   UNL     1      -1.948  -7.344   4.428  1.00  0.00     0.010 A 
ATOM     70  C   UNL     1      -3.175  -6.355   2.103  1.00  0.00     0.020 A 
ATOM     71  C   UNL     1      -1.297  -7.448   3.191  1.00  0.00     0.020 A 
ATOM     72  C   UNL     1      -1.883  -6.878   2.056  1.00  0.00     0.054 A 
BRANCH  72  73
ATOM     73  S   UNL     1      -0.892  -6.548   0.567  1.00  0.00     0.124 S 
ATOM     74  O   UNL     1      -1.659  -7.216  -0.478  1.00  0.00    -0.237 OA
ATOM     75  O   UNL     1      -0.903  -5.087   0.527  1.00  0.00    -0.237 OA
ATOM     76  O   UNL     1       0.402  -7.146   0.884  1.00  0.00    -0.744 OA
ENDBRANCH  72  73
ENDBRANCH  44  67
BRANCH  56  77
ATOM     77  C   UNL     1      -3.077  -7.607  11.709  1.00  0.00    -0.014 A 
ATOM     78  C   UNL     1      -3.164  -9.002  11.586  1.00  0.00     0.010 A 
ATOM     79  C   UNL     1      -2.860  -7.098  13.014  1.00  0.00     0.010 A 
ATOM     80  C   UNL     1      -3.103  -9.842  12.710  1.00  0.00     0.020 A 
ATOM     81  C   UNL     1      -2.749  -7.927  14.134  1.00  0.00     0.020 A 
ATOM     82  C   UNL     1      -2.900  -9.298  13.979  1.00  0.00     0.054 A 
BRANCH  82  83
ATOM     83  S   UNL     1      -2.762 -10.390  15.417  1.00  0.00     0.124 S 
ATOM     84  O   UNL     1      -4.155 -10.508  15.840  1.00  0.00    -0.237 OA
ATOM     85  O   UNL     1      -2.173 -11.604  14.855  1.00  0.00    -0.237 OA
ATOM     86  O   UNL     1      -1.890  -9.648  16.325  1.00  0.00    -0.744 OA
ENDBRANCH  82  83
ENDBRANCH  56  77
ENDBRANCH  30  31
ENDBRANCH  22  25
ENDBRANCH   1  21
TORSDOF 14
