REMARK SMILES COc1ccc([C@@H](CC(=O)NCCCNC(=O)c2ccc(-c3c4nc(c(-c5ccc(S(=O)(=O)[O-])cc5)c5ccc([nH]5)c(-c5ccc(S(=O)(=O)[O-])cc5)c5nc(c(-c6ccc(S(=O)(=O)[O-])cc6)c6ccc3[nH]6)C=C5)C=C4)cc2)NC(=O)c2ccc(Cl)c([N+](=O)[O-])c2)cc1
REMARK SMILES IDX 12 1 11 2 9 3 10 4 8 6 7 7 6 8 3 9 4 10 92 11 5 12 91 13
REMARK SMILES IDX 2 14 1 15 78 16 79 17 80 19 81 20 82 21 90 22 83 23 86 24
REMARK SMILES IDX 84 25 85 26 87 27 88 28 89 29 13 30 14 31 15 32 16 33 17 35
REMARK SMILES IDX 18 36 19 37 77 38 20 39 76 40 21 41 22 42 23 43 70 44 24 45
REMARK SMILES IDX 75 46 69 47 71 48 25 49 74 50 68 51 67 52 26 54 56 55 37 56
REMARK SMILES IDX 55 57 38 58 41 59 54 60 72 61 39 62 40 63 53 65 73 66 42 67
REMARK SMILES IDX 27 68 28 69 36 70 29 71 35 72 30 73 31 74 32 75 33 76 34 77
REMARK SMILES IDX 57 78 58 79 66 80 59 81 65 82 60 83 61 84 62 85 63 86 64 87
REMARK SMILES IDX 43 88 44 89 52 90 45 91 51 92 46 93 47 94 48 95 49 96 50 97
REMARK H PARENT 11 5 78 18 15 34 71 53 41 64
REMARK Flexibility Score: inf
ROOT
ATOM      1  C   UNL     1       0.115  -4.589   3.663  1.00  0.00     0.117 C 
ENDROOT
BRANCH   1   2
ATOM      2  N   UNL     1      -0.194  -5.981   3.365  1.00  0.00    -0.356 N 
ATOM      3  C   UNL     1       0.477  -6.878   2.591  1.00  0.00     0.222 C 
ATOM      4  O   UNL     1      -0.123  -7.898   2.242  1.00  0.00    -0.275 OA
ATOM      5  H   UNL     1      -1.014  -6.326   3.789  1.00  0.00     0.163 HD
BRANCH   3   6
ATOM      6  C   UNL     1       1.932  -6.677   2.224  1.00  0.00     0.129 C 
BRANCH   6   7
ATOM      7  C   UNL     1       2.200  -6.388   0.734  1.00  0.00     0.122 C 
BRANCH   7   8
ATOM      8  C   UNL     1       1.905  -4.947   0.344  1.00  0.00    -0.025 A 
ATOM      9  C   UNL     1       1.262  -2.235  -0.030  1.00  0.00     0.118 A 
ATOM     10  C   UNL     1       0.487  -3.225  -0.628  1.00  0.00     0.047 A 
ATOM     11  C   UNL     1       2.401  -2.579   0.693  1.00  0.00     0.047 A 
ATOM     12  C   UNL     1       0.814  -4.577  -0.457  1.00  0.00     0.010 A 
ATOM     13  C   UNL     1       2.726  -3.927   0.865  1.00  0.00     0.010 A 
BRANCH   9  14
ATOM     14  O   UNL     1       0.757  -0.965  -0.008  1.00  0.00    -0.497 OA
ATOM     15  C   UNL     1       1.599  -0.021  -0.663  1.00  0.00     0.278 C 
ENDBRANCH   9  14
ENDBRANCH   7   8
BRANCH   7  16
ATOM     16  N   UNL     1       1.577  -7.378  -0.147  1.00  0.00    -0.345 N 
ATOM     17  C   UNL     1       2.103  -8.050  -1.219  1.00  0.00     0.252 C 
ATOM     18  H   UNL     1       0.640  -7.593   0.063  1.00  0.00     0.164 HD
ATOM     19  O   UNL     1       1.395  -8.680  -1.994  1.00  0.00    -0.269 OA
BRANCH  17  20
ATOM     20  C   UNL     1       3.563  -8.041  -1.429  1.00  0.00     0.046 A 
ATOM     21  C   UNL     1       4.083  -7.613  -2.652  1.00  0.00     0.016 A 
ATOM     22  C   UNL     1       4.413  -8.477  -0.412  1.00  0.00     0.101 A 
ATOM     23  C   UNL     1       5.470  -7.549  -2.832  1.00  0.00     0.028 A 
ATOM     24  C   UNL     1       5.797  -8.385  -0.598  1.00  0.00     0.288 A 
ATOM     25  C   UNL     1       6.340  -7.914  -1.796  1.00  0.00     0.118 A 
ATOM     26  Cl  UNL     1       8.030  -7.695  -2.064  1.00  0.00    -0.077 Cl
BRANCH  24  27
ATOM     27  N   UNL     1       6.637  -8.737   0.530  1.00  0.00     0.064 N 
ATOM     28  O   UNL     1       7.542  -9.559   0.348  1.00  0.00    -0.258 OA
ATOM     29  O   UNL     1       6.339  -8.228   1.622  1.00  0.00    -0.258 OA
ENDBRANCH  24  27
ENDBRANCH  17  20
ENDBRANCH   7  16
ENDBRANCH   6   7
ENDBRANCH   3   6
ENDBRANCH   1   2
BRANCH   1  30
ATOM     30  C   UNL     1      -0.573  -3.665   2.664  1.00  0.00     0.042 C 
BRANCH  30  31
ATOM     31  C   UNL     1      -2.048  -3.403   2.939  1.00  0.00     0.118 C 
BRANCH  31  32
ATOM     32  N   UNL     1      -2.245  -2.209   3.741  1.00  0.00    -0.352 N 
ATOM     33  C   UNL     1      -2.467  -0.898   3.390  1.00  0.00     0.251 C 
ATOM     34  H   UNL     1      -2.215  -2.367   4.712  1.00  0.00     0.163 HD
ATOM     35  O   UNL     1      -2.340  -0.047   4.271  1.00  0.00    -0.269 OA
BRANCH  33  36
ATOM     36  C   UNL     1      -2.842  -0.463   2.014  1.00  0.00     0.039 A 
ATOM     37  C   UNL     1      -2.437   0.814   1.598  1.00  0.00     0.014 A 
ATOM     38  C   UNL     1      -3.677  -1.202   1.173  1.00  0.00     0.014 A 
ATOM     39  C   UNL     1      -2.830   1.323   0.352  1.00  0.00     0.010 A 
ATOM     40  C   UNL     1      -4.008  -0.725  -0.104  1.00  0.00     0.010 A 
ATOM     41  C   UNL     1      -3.600   0.549  -0.527  1.00  0.00    -0.014 A 
BRANCH  41  42
ATOM     42  C   UNL     1      -3.989   1.057  -1.875  1.00  0.00     0.031 A 
ATOM     43  C   UNL     1      -5.439   1.268  -2.235  1.00  0.00     0.074 A 
ATOM     44  C   UNL     1      -3.042   1.289  -2.808  1.00  0.00     0.049 A 
ATOM     45  N   UNL     1      -5.963   1.618  -3.384  1.00  0.00    -0.248 NA
ATOM     46  C   UNL     1      -6.430   1.044  -1.170  1.00  0.00     0.031 C 
ATOM     47  C   UNL     1      -1.603   1.117  -2.610  1.00  0.00     0.029 A 
ATOM     48  N   UNL     1      -3.148   1.708  -4.113  1.00  0.00    -0.354 N 
ATOM     49  C   UNL     1      -7.340   1.633  -3.189  1.00  0.00     0.074 A 
ATOM     50  C   UNL     1      -7.572   1.229  -1.818  1.00  0.00     0.031 C 
ATOM     51  C   UNL     1      -0.960   1.444  -3.742  1.00  0.00     0.029 A 
ATOM     52  C   UNL     1      -1.940   1.798  -4.764  1.00  0.00     0.049 A 
ATOM     53  H   UNL     1      -4.008   1.923  -4.541  1.00  0.00     0.167 HD
ATOM     54  C   UNL     1      -8.323   1.964  -4.063  1.00  0.00     0.031 A 
ATOM     55  C   UNL     1      -1.647   2.107  -6.043  1.00  0.00     0.031 A 
ATOM     56  C   UNL     1      -8.101   2.382  -5.422  1.00  0.00     0.049 A 
ATOM     57  C   UNL     1      -2.755   2.432  -7.006  1.00  0.00     0.074 A 
ATOM     58  C   UNL     1      -9.036   2.788  -6.360  1.00  0.00     0.029 A 
ATOM     59  N   UNL     1      -6.863   2.446  -6.042  1.00  0.00    -0.354 N 
ATOM     60  N   UNL     1      -4.046   2.482  -6.786  1.00  0.00    -0.248 NA
ATOM     61  C   UNL     1      -2.366   2.741  -8.390  1.00  0.00     0.031 C 
ATOM     62  C   UNL     1      -8.369   3.049  -7.562  1.00  0.00     0.029 A 
ATOM     63  C   UNL     1      -7.013   2.856  -7.358  1.00  0.00     0.049 A 
ATOM     64  H   UNL     1      -6.004   2.232  -5.612  1.00  0.00     0.167 HD
ATOM     65  C   UNL     1      -4.622   2.845  -7.998  1.00  0.00     0.074 A 
ATOM     66  C   UNL     1      -3.540   3.016  -8.945  1.00  0.00     0.031 C 
ATOM     67  C   UNL     1      -5.933   3.020  -8.297  1.00  0.00     0.031 A 
BRANCH  54  68
ATOM     68  C   UNL     1      -9.747   1.872  -3.578  1.00  0.00    -0.014 A 
ATOM     69  C   UNL     1     -10.266   2.809  -2.667  1.00  0.00     0.010 A 
ATOM     70  C   UNL     1     -10.592   0.867  -4.082  1.00  0.00     0.010 A 
ATOM     71  C   UNL     1     -11.592   2.715  -2.235  1.00  0.00     0.020 A 
ATOM     72  C   UNL     1     -11.926   0.785  -3.672  1.00  0.00     0.020 A 
ATOM     73  C   UNL     1     -12.412   1.700  -2.736  1.00  0.00     0.054 A 
BRANCH  73  74
ATOM     74  S   UNL     1     -14.134   1.610  -2.170  1.00  0.00     0.124 S 
ATOM     75  O   UNL     1     -13.977   1.077  -0.819  1.00  0.00    -0.237 OA
ATOM     76  O   UNL     1     -14.571   3.002  -2.248  1.00  0.00    -0.237 OA
ATOM     77  O   UNL     1     -14.768   0.707  -3.127  1.00  0.00    -0.744 OA
ENDBRANCH  73  74
ENDBRANCH  54  68
BRANCH  55  78
ATOM     78  C   UNL     1      -0.229   2.105  -6.494  1.00  0.00    -0.014 A 
ATOM     79  C   UNL     1       0.433   3.313  -6.773  1.00  0.00     0.010 A 
ATOM     80  C   UNL     1       0.472   0.893  -6.628  1.00  0.00     0.010 A 
ATOM     81  C   UNL     1       1.770   3.309  -7.183  1.00  0.00     0.020 A 
ATOM     82  C   UNL     1       1.816   0.886  -7.012  1.00  0.00     0.020 A 
ATOM     83  C   UNL     1       2.454   2.095  -7.295  1.00  0.00     0.054 A 
BRANCH  83  84
ATOM     84  S   UNL     1       4.209   2.116  -7.756  1.00  0.00     0.124 S 
ATOM     85  O   UNL     1       4.143   2.376  -9.190  1.00  0.00    -0.237 OA
ATOM     86  O   UNL     1       4.738   3.204  -6.938  1.00  0.00    -0.237 OA
ATOM     87  O   UNL     1       4.674   0.783  -7.379  1.00  0.00    -0.744 OA
ENDBRANCH  83  84
ENDBRANCH  55  78
BRANCH  67  88
ATOM     88  C   UNL     1      -6.279   3.439  -9.701  1.00  0.00    -0.014 A 
ATOM     89  C   UNL     1      -6.221   2.524 -10.766  1.00  0.00     0.010 A 
ATOM     90  C   UNL     1      -6.735   4.748  -9.945  1.00  0.00     0.010 A 
ATOM     91  C   UNL     1      -6.596   2.914 -12.055  1.00  0.00     0.020 A 
ATOM     92  C   UNL     1      -7.132   5.136 -11.228  1.00  0.00     0.020 A 
ATOM     93  C   UNL     1      -7.051   4.218 -12.277  1.00  0.00     0.054 A 
BRANCH  93  94
ATOM     94  S   UNL     1      -7.591   4.683 -13.946  1.00  0.00     0.124 S 
ATOM     95  O   UNL     1      -6.319   4.821 -14.650  1.00  0.00    -0.237 OA
ATOM     96  O   UNL     1      -8.411   3.542 -14.348  1.00  0.00    -0.237 OA
ATOM     97  O   UNL     1      -8.327   5.928 -13.738  1.00  0.00    -0.744 OA
ENDBRANCH  93  94
ENDBRANCH  67  88
ENDBRANCH  41  42
ENDBRANCH  33  36
ENDBRANCH  31  32
ENDBRANCH  30  31
ENDBRANCH   1  30
TORSDOF 19
