REMARK SMILES O=C(NCCCNC(=O)[C@@H](Cc1ccccc1)N1C(=O)/C(=C/c2ccncc2)SC1=S)c1ccc(-c2c3nc(c(-c4ccc(S(=O)(=O)[O-])cc4)c4ccc([nH]4)c(-c4ccc(S(=O)(=O)[O-])cc4)c4nc(c(-c5ccc(S(=O)(=O)[O-])cc5)c5ccc2[nH]5)C=C4)C=C3)cc1
REMARK SMILES IDX 4 1 3 2 1 3 2 4 32 6 33 7 91 8 34 9 90 10 35 11 36 12 37 13
REMARK SMILES IDX 84 14 38 15 89 16 83 17 85 18 39 19 88 20 82 21 81 22 40 24
REMARK SMILES IDX 70 25 51 26 69 27 52 28 55 29 68 30 86 31 53 32 54 33 67 35
REMARK SMILES IDX 87 36 56 37 41 38 42 39 50 40 43 41 49 42 44 43 45 44 46 45
REMARK SMILES IDX 47 46 48 47 71 48 72 49 80 50 73 51 79 52 74 53 75 54 76 55
REMARK SMILES IDX 77 56 78 57 57 58 58 59 66 60 59 61 65 62 60 63 61 64 62 65
REMARK SMILES IDX 63 66 64 67 5 68 6 69 7 70 8 71 9 73 10 74 11 75 12 76 13 77
REMARK SMILES IDX 17 78 14 79 16 80 15 81 18 82 19 83 30 84 20 85 21 86 29 87
REMARK SMILES IDX 31 88 22 89 23 90 24 91 28 92 25 93 27 94 26 95
REMARK H PARENT 3 5 85 23 55 34 7 72
REMARK Flexibility Score: inf
ROOT
ATOM      1  C   UNL     1       4.102   1.989  -0.425  1.00  0.00     0.118 C 
ENDROOT
BRANCH   1   2
ATOM      2  N   UNL     1       2.802   1.335  -0.422  1.00  0.00    -0.352 N 
ATOM      3  O   UNL     1       1.171  -0.158  -0.193  1.00  0.00    -0.269 OA
ATOM      4  C   UNL     1       2.336   0.141   0.080  1.00  0.00     0.251 C 
ATOM      5  H   UNL     1       2.105   1.861  -0.878  1.00  0.00     0.163 HD
BRANCH   4   6
ATOM      6  C   UNL     1       3.151  -0.806   0.895  1.00  0.00     0.039 A 
ATOM      7  C   UNL     1       4.247  -0.419   1.657  1.00  0.00     0.014 A 
ATOM      8  C   UNL     1       2.750  -2.152   0.963  1.00  0.00     0.014 A 
ATOM      9  C   UNL     1       5.034  -1.366   2.309  1.00  0.00     0.010 A 
ATOM     10  C   UNL     1       3.459  -3.085   1.741  1.00  0.00     0.010 A 
ATOM     11  C   UNL     1       4.633  -2.707   2.400  1.00  0.00    -0.014 A 
BRANCH  11  12
ATOM     12  C   UNL     1       5.431  -3.625   3.265  1.00  0.00     0.031 A 
ATOM     13  C   UNL     1       6.114  -4.849   2.713  1.00  0.00     0.074 A 
ATOM     14  C   UNL     1       5.618  -3.285   4.559  1.00  0.00     0.049 A 
ATOM     15  N   UNL     1       6.954  -5.657   3.314  1.00  0.00    -0.248 NA
ATOM     16  C   UNL     1       5.814  -5.228   1.325  1.00  0.00     0.031 C 
ATOM     17  C   UNL     1       4.977  -2.150   5.234  1.00  0.00     0.029 A 
ATOM     18  N   UNL     1       6.443  -3.812   5.522  1.00  0.00    -0.354 N 
ATOM     19  C   UNL     1       7.264  -6.647   2.389  1.00  0.00     0.074 A 
ATOM     20  C   UNL     1       6.506  -6.352   1.192  1.00  0.00     0.031 C 
ATOM     21  C   UNL     1       5.511  -2.001   6.454  1.00  0.00     0.029 A 
ATOM     22  C   UNL     1       6.479  -3.068   6.679  1.00  0.00     0.049 A 
ATOM     23  H   UNL     1       6.958  -4.642   5.397  1.00  0.00     0.167 HD
ATOM     24  C   UNL     1       8.107  -7.701   2.520  1.00  0.00     0.031 A 
ATOM     25  C   UNL     1       7.212  -3.212   7.800  1.00  0.00     0.031 A 
ATOM     26  C   UNL     1       8.871  -7.992   3.707  1.00  0.00     0.049 A 
ATOM     27  C   UNL     1       8.177  -4.355   7.898  1.00  0.00     0.074 A 
ATOM     28  C   UNL     1       9.747  -9.041   3.933  1.00  0.00     0.029 A 
ATOM     29  N   UNL     1       8.862  -7.227   4.863  1.00  0.00    -0.354 N 
ATOM     30  N   UNL     1       8.454  -5.273   7.004  1.00  0.00    -0.248 NA
ATOM     31  C   UNL     1       8.924  -4.484   9.156  1.00  0.00     0.031 C 
ATOM     32  C   UNL     1      10.247  -8.925   5.235  1.00  0.00     0.029 A 
ATOM     33  C   UNL     1       9.712  -7.782   5.806  1.00  0.00     0.049 A 
ATOM     34  H   UNL     1       8.329  -6.409   4.994  1.00  0.00     0.167 HD
ATOM     35  C   UNL     1       9.396  -6.102   7.599  1.00  0.00     0.074 A 
ATOM     36  C   UNL     1       9.675  -5.548   8.909  1.00  0.00     0.031 C 
ATOM     37  C   UNL     1       9.963  -7.231   7.112  1.00  0.00     0.031 A 
BRANCH  24  38
ATOM     38  C   UNL     1       8.241  -8.635   1.347  1.00  0.00    -0.014 A 
ATOM     39  C   UNL     1       8.984  -8.267   0.211  1.00  0.00     0.010 A 
ATOM     40  C   UNL     1       7.664  -9.917   1.402  1.00  0.00     0.010 A 
ATOM     41  C   UNL     1       9.122  -9.152  -0.861  1.00  0.00     0.020 A 
ATOM     42  C   UNL     1       7.817 -10.813   0.340  1.00  0.00     0.020 A 
ATOM     43  C   UNL     1       8.533 -10.419  -0.792  1.00  0.00     0.054 A 
BRANCH  43  44
ATOM     44  S   UNL     1       8.749 -11.560  -2.187  1.00  0.00     0.124 S 
ATOM     45  O   UNL     1       7.814 -11.014  -3.167  1.00  0.00    -0.237 OA
ATOM     46  O   UNL     1      10.164 -11.405  -2.515  1.00  0.00    -0.237 OA
ATOM     47  O   UNL     1       8.381 -12.860  -1.630  1.00  0.00    -0.744 OA
ENDBRANCH  43  44
ENDBRANCH  24  38
BRANCH  25  48
ATOM     48  C   UNL     1       7.045  -2.248   8.921  1.00  0.00    -0.014 A 
ATOM     49  C   UNL     1       8.053  -1.317   9.226  1.00  0.00     0.010 A 
ATOM     50  C   UNL     1       5.855  -2.242   9.672  1.00  0.00     0.010 A 
ATOM     51  C   UNL     1       7.877  -0.403  10.270  1.00  0.00     0.020 A 
ATOM     52  C   UNL     1       5.665  -1.312  10.696  1.00  0.00     0.020 A 
ATOM     53  C   UNL     1       6.683  -0.406  10.997  1.00  0.00     0.054 A 
BRANCH  53  54
ATOM     54  S   UNL     1       6.435   0.830  12.302  1.00  0.00     0.124 S 
ATOM     55  O   UNL     1       7.119   0.215  13.434  1.00  0.00    -0.237 OA
ATOM     56  O   UNL     1       7.075   2.020  11.745  1.00  0.00    -0.237 OA
ATOM     57  O   UNL     1       4.980   0.913  12.413  1.00  0.00    -0.744 OA
ENDBRANCH  53  54
ENDBRANCH  25  48
BRANCH  37  58
ATOM     58  C   UNL     1      10.932  -7.942   8.014  1.00  0.00    -0.014 A 
ATOM     59  C   UNL     1      10.473  -8.683   9.117  1.00  0.00     0.010 A 
ATOM     60  C   UNL     1      12.312  -7.871   7.757  1.00  0.00     0.010 A 
ATOM     61  C   UNL     1      11.381  -9.304   9.977  1.00  0.00     0.020 A 
ATOM     62  C   UNL     1      13.223  -8.508   8.603  1.00  0.00     0.020 A 
ATOM     63  C   UNL     1      12.752  -9.204   9.720  1.00  0.00     0.054 A 
BRANCH  63  64
ATOM     64  S   UNL     1      13.917 -10.022  10.844  1.00  0.00     0.124 S 
ATOM     65  O   UNL     1      13.979  -9.077  11.955  1.00  0.00    -0.237 OA
ATOM     66  O   UNL     1      13.254 -11.291  11.134  1.00  0.00    -0.237 OA
ATOM     67  O   UNL     1      15.139 -10.133  10.050  1.00  0.00    -0.744 OA
ENDBRANCH  63  64
ENDBRANCH  37  58
ENDBRANCH  11  12
ENDBRANCH   4   6
ENDBRANCH   1   2
BRANCH   1  68
ATOM     68  C   UNL     1       4.795   1.955  -1.776  1.00  0.00     0.042 C 
BRANCH  68  69
ATOM     69  C   UNL     1       4.213   2.922  -2.803  1.00  0.00     0.117 C 
BRANCH  69  70
ATOM     70  N   UNL     1       5.266   3.776  -3.312  1.00  0.00    -0.354 N 
ATOM     71  C   UNL     1       6.132   3.646  -4.346  1.00  0.00     0.243 C 
ATOM     72  H   UNL     1       5.373   4.616  -2.809  1.00  0.00     0.163 HD
ATOM     73  O   UNL     1       7.149   4.350  -4.281  1.00  0.00    -0.273 OA
BRANCH  71  74
ATOM     74  C   UNL     1       5.990   2.636  -5.513  1.00  0.00     0.185 C 
BRANCH  74  75
ATOM     75  C   UNL     1       6.738   1.320  -5.104  1.00  0.00     0.071 C 
BRANCH  75  76
ATOM     76  C   UNL     1       6.094   0.048  -4.570  1.00  0.00    -0.045 A 
ATOM     77  C   UNL     1       4.724  -0.182  -4.402  1.00  0.00     0.004 A 
ATOM     78  C   UNL     1       6.964  -1.018  -4.265  1.00  0.00     0.004 A 
ATOM     79  C   UNL     1       4.241  -1.404  -3.916  1.00  0.00     0.000 A 
ATOM     80  C   UNL     1       6.486  -2.246  -3.797  1.00  0.00     0.000 A 
ATOM     81  C   UNL     1       5.122  -2.436  -3.614  1.00  0.00     0.000 A 
ENDBRANCH  75  76
ENDBRANCH  74  75
BRANCH  74  82
ATOM     82  N   UNL     1       4.686   2.517  -6.198  1.00  0.00    -0.280 N 
ATOM     83  C   UNL     1       4.495   1.446  -7.061  1.00  0.00     0.266 C 
ATOM     84  C   UNL     1       3.846   3.572  -6.503  1.00  0.00     0.149 C 
ATOM     85  O   UNL     1       5.346   0.669  -7.468  1.00  0.00    -0.268 OA
ATOM     86  C   UNL     1       3.112   1.443  -7.590  1.00  0.00     0.081 C 
ATOM     87  S   UNL     1       2.404   2.974  -7.332  1.00  0.00    -0.054 SA
ATOM     88  S   UNL     1       4.029   5.209  -6.228  1.00  0.00    -0.052 S 
ATOM     89  C   UNL     1       2.590   0.357  -8.170  1.00  0.00     0.029 C 
BRANCH  89  90
ATOM     90  C   UNL     1       1.256   0.282  -8.765  1.00  0.00    -0.021 A 
ATOM     91  C   UNL     1       1.012   0.861 -10.010  1.00  0.00     0.028 A 
ATOM     92  C   UNL     1       0.224  -0.383  -8.107  1.00  0.00     0.028 A 
ATOM     93  C   UNL     1      -0.260   0.754 -10.543  1.00  0.00     0.111 A 
ATOM     94  C   UNL     1      -1.015  -0.434  -8.725  1.00  0.00     0.111 A 
ATOM     95  N   UNL     1      -1.281   0.119  -9.928  1.00  0.00    -0.265 NA
ENDBRANCH  89  90
ENDBRANCH  74  82
ENDBRANCH  71  74
ENDBRANCH  69  70
ENDBRANCH  68  69
ENDBRANCH   1  68
TORSDOF 17
