REMARK SMILES Cc1ccc(N2C(=O)[NH+]=C(NCCCNC(=O)c3ccc(-c4c5nc(c(-c6ccc(S(=O)(=O)[O-])cc6)c6ccc([nH]6)c(-c6ccc(S(=O)(=O)[O-])cc6)c6nc(c(-c7ccc(S(=O)(=O)[O-])cc7)c7ccc4[nH]7)C=C6)C=C5)cc3)/C(=C\c3ccccc3OCc3cccc(C(=O)[O-])c3)C2=O)cc1
REMARK SMILES IDX 12 1 11 2 6 3 7 4 97 5 8 6 9 7 78 8 98 9 10 10 79 12 5 14
REMARK SMILES IDX 1 15 2 16 3 17 100 18 4 19 99 20 80 21 81 22 85 23 82 24
REMARK SMILES IDX 84 25 83 26 86 27 87 28 88 29 89 30 96 31 90 32 92 33 91 34
REMARK SMILES IDX 93 35 94 36 95 37 13 38 14 39 15 40 16 41 17 43 18 44 19 45
REMARK SMILES IDX 77 46 20 47 76 48 21 49 22 50 23 51 70 52 24 53 75 54 69 55
REMARK SMILES IDX 71 56 25 57 74 58 68 59 67 60 26 62 56 63 37 64 55 65 38 66
REMARK SMILES IDX 41 67 54 68 72 69 39 70 40 71 53 73 73 74 42 75 27 76 28 77
REMARK SMILES IDX 36 78 29 79 35 80 30 81 31 82 32 83 33 84 34 85 57 86 58 87
REMARK SMILES IDX 66 88 59 89 65 90 60 91 61 92 62 93 63 94 64 95 43 96 44 97
REMARK SMILES IDX 52 98 45 99 51 100 46 101 47 102 48 103 49 104 50 105
REMARK H PARENT 9 11 11 13 15 42 71 61 41 72
REMARK Flexibility Score: inf
ROOT
ATOM      1  C   UNL     1      -7.832  -0.269   1.619  1.00  0.00     0.195 C 
ENDROOT
BRANCH   1   2
ATOM      2  N   UNL     1      -7.115   0.861   1.006  1.00  0.00    -0.305 N 
ATOM      3  N   UNL     1      -2.968   0.731   0.531  1.00  0.00    -0.155 N 
ATOM      4  C   UNL     1      -3.669   0.031   1.526  1.00  0.00     0.448 C 
ATOM      5  C   UNL     1      -3.597   1.592  -0.356  1.00  0.00     0.328 C 
ATOM      6  O   UNL     1      -3.099  -0.710   2.327  1.00  0.00    -0.212 OA
ATOM      7  N   UNL     1      -5.018   0.205   1.664  1.00  0.00    -0.209 N 
ATOM      8  C   UNL     1      -5.063   1.413  -0.409  1.00  0.00     0.129 C 
ATOM      9  O   UNL     1      -3.042   2.346  -1.157  1.00  0.00    -0.249 OA
ATOM     10  C   UNL     1      -5.745   0.818   0.781  1.00  0.00     0.236 C 
ATOM     11  H   UNL     1      -5.457  -0.151   2.469  1.00  0.00     0.270 HD
ATOM     12  C   UNL     1      -5.562   1.571  -1.650  1.00  0.00     0.034 C 
ATOM     13  H   UNL     1      -7.620   1.667   0.748  1.00  0.00     0.256 HD
BRANCH   3  14
ATOM     14  C   UNL     1      -1.553   0.534   0.397  1.00  0.00     0.111 A 
ATOM     15  C   UNL     1       2.697  -0.091  -0.071  1.00  0.00     0.044 C 
ATOM     16  C   UNL     1       1.224   0.129   0.080  1.00  0.00    -0.051 A 
ATOM     17  C   UNL     1       0.372  -0.955   0.312  1.00  0.00     0.007 A 
ATOM     18  C   UNL     1       0.680   1.410  -0.018  1.00  0.00     0.007 A 
ATOM     19  C   UNL     1      -0.999  -0.752   0.479  1.00  0.00     0.044 A 
ATOM     20  C   UNL     1      -0.693   1.609   0.134  1.00  0.00     0.044 A 
ENDBRANCH   3  14
BRANCH  12  21
ATOM     21  C   UNL     1      -6.920   1.247  -2.044  1.00  0.00     0.018 A 
ATOM     22  C   UNL     1      -7.672   2.364  -2.398  1.00  0.00     0.012 A 
ATOM     23  C   UNL     1      -7.532  -0.007  -1.882  1.00  0.00     0.127 A 
ATOM     24  C   UNL     1      -9.045   2.267  -2.389  1.00  0.00     0.001 A 
ATOM     25  C   UNL     1      -8.918  -0.094  -1.923  1.00  0.00     0.047 A 
ATOM     26  C   UNL     1      -9.665   1.050  -2.121  1.00  0.00     0.004 A 
BRANCH  23  27
ATOM     27  O   UNL     1      -6.953  -1.153  -1.436  1.00  0.00    -0.488 OA
BRANCH  27  28
ATOM     28  C   UNL     1      -5.669  -1.522  -1.904  1.00  0.00     0.265 C 
BRANCH  28  29
ATOM     29  C   UNL     1      -5.296  -2.813  -1.215  1.00  0.00    -0.010 A 
ATOM     30  C   UNL     1      -3.949  -3.131  -1.004  1.00  0.00     0.007 A 
ATOM     31  C   UNL     1      -6.284  -3.724  -0.807  1.00  0.00     0.017 A 
ATOM     32  C   UNL     1      -3.595  -4.336  -0.398  1.00  0.00     0.001 A 
ATOM     33  C   UNL     1      -5.934  -4.943  -0.220  1.00  0.00    -0.002 A 
ATOM     34  C   UNL     1      -4.583  -5.246  -0.017  1.00  0.00     0.010 A 
BRANCH  33  35
ATOM     35  C   UNL     1      -6.965  -5.941   0.139  1.00  0.00     0.071 C 
ATOM     36  O   UNL     1      -6.750  -7.110   0.442  1.00  0.00    -0.545 OA
ATOM     37  O   UNL     1      -8.206  -5.437   0.084  1.00  0.00    -0.545 OA
ENDBRANCH  33  35
ENDBRANCH  28  29
ENDBRANCH  27  28
ENDBRANCH  23  27
ENDBRANCH  12  21
ENDBRANCH   1   2
BRANCH   1  38
ATOM     38  C   UNL     1      -8.973   0.163   2.534  1.00  0.00     0.059 C 
BRANCH  38  39
ATOM     39  C   UNL     1     -10.159   0.783   1.812  1.00  0.00     0.119 C 
BRANCH  39  40
ATOM     40  N   UNL     1     -11.350  -0.049   1.704  1.00  0.00    -0.352 N 
ATOM     41  C   UNL     1     -12.654   0.435   1.615  1.00  0.00     0.251 C 
ATOM     42  H   UNL     1     -11.224  -1.025   1.693  1.00  0.00     0.163 HD
ATOM     43  O   UNL     1     -13.581  -0.058   2.247  1.00  0.00    -0.269 OA
BRANCH  41  44
ATOM     44  C   UNL     1     -12.916   1.462   0.576  1.00  0.00     0.039 A 
ATOM     45  C   UNL     1     -13.910   1.233  -0.388  1.00  0.00     0.014 A 
ATOM     46  C   UNL     1     -12.057   2.541   0.438  1.00  0.00     0.014 A 
ATOM     47  C   UNL     1     -13.898   1.945  -1.589  1.00  0.00     0.010 A 
ATOM     48  C   UNL     1     -11.974   3.168  -0.774  1.00  0.00     0.010 A 
ATOM     49  C   UNL     1     -12.863   2.840  -1.806  1.00  0.00    -0.014 A 
BRANCH  49  50
ATOM     50  C   UNL     1     -12.604   3.592  -3.021  1.00  0.00     0.031 A 
ATOM     51  C   UNL     1     -12.869   5.041  -2.959  1.00  0.00     0.074 A 
ATOM     52  C   UNL     1     -11.783   3.055  -3.953  1.00  0.00     0.049 A 
ATOM     53  N   UNL     1     -12.705   5.834  -3.950  1.00  0.00    -0.248 NA
ATOM     54  C   UNL     1     -13.341   5.730  -1.754  1.00  0.00     0.031 C 
ATOM     55  C   UNL     1     -10.870   3.745  -4.868  1.00  0.00     0.029 A 
ATOM     56  N   UNL     1     -11.588   1.722  -4.285  1.00  0.00    -0.354 N 
ATOM     57  C   UNL     1     -12.722   7.118  -3.460  1.00  0.00     0.074 A 
ATOM     58  C   UNL     1     -13.212   7.012  -2.110  1.00  0.00     0.031 C 
ATOM     59  C   UNL     1     -10.428   2.873  -5.795  1.00  0.00     0.029 A 
ATOM     60  C   UNL     1     -11.209   1.657  -5.629  1.00  0.00     0.049 A 
ATOM     61  H   UNL     1     -11.699   0.954  -3.679  1.00  0.00     0.167 HD
ATOM     62  C   UNL     1     -12.188   8.099  -4.232  1.00  0.00     0.031 A 
ATOM     63  C   UNL     1     -12.050   1.114  -6.564  1.00  0.00     0.031 A 
ATOM     64  C   UNL     1     -11.726   7.552  -5.510  1.00  0.00     0.049 A 
ATOM     65  C   UNL     1     -12.589   2.191  -7.497  1.00  0.00     0.074 A 
ATOM     66  C   UNL     1     -10.487   7.204  -6.020  1.00  0.00     0.029 A 
ATOM     67  N   UNL     1     -12.662   6.949  -6.331  1.00  0.00    -0.354 N 
ATOM     68  N   UNL     1     -12.376   3.467  -7.320  1.00  0.00    -0.248 NA
ATOM     69  C   UNL     1     -13.439   1.945  -8.658  1.00  0.00     0.031 C 
ATOM     70  C   UNL     1     -10.703   6.369  -7.158  1.00  0.00     0.029 A 
ATOM     71  C   UNL     1     -12.068   6.234  -7.348  1.00  0.00     0.049 A 
ATOM     72  H   UNL     1     -13.635   7.022  -6.203  1.00  0.00     0.167 HD
ATOM     73  C   UNL     1     -13.010   4.201  -8.273  1.00  0.00     0.074 A 
ATOM     74  C   UNL     1     -13.701   3.201  -9.072  1.00  0.00     0.031 C 
ATOM     75  C   UNL     1     -12.925   5.564  -8.315  1.00  0.00     0.031 A 
BRANCH  62  76
ATOM     76  C   UNL     1     -11.911   9.514  -3.804  1.00  0.00    -0.014 A 
ATOM     77  C   UNL     1     -11.004  10.270  -4.576  1.00  0.00     0.010 A 
ATOM     78  C   UNL     1     -12.492  10.169  -2.701  1.00  0.00     0.010 A 
ATOM     79  C   UNL     1     -10.668  11.587  -4.258  1.00  0.00     0.020 A 
ATOM     80  C   UNL     1     -12.153  11.492  -2.361  1.00  0.00     0.020 A 
ATOM     81  C   UNL     1     -11.242  12.192  -3.147  1.00  0.00     0.054 A 
BRANCH  81  82
ATOM     82  S   UNL     1     -10.792  13.906  -2.778  1.00  0.00     0.124 S 
ATOM     83  O   UNL     1      -9.347  13.812  -2.581  1.00  0.00    -0.237 OA
ATOM     84  O   UNL     1     -11.219  14.608  -3.985  1.00  0.00    -0.237 OA
ATOM     85  O   UNL     1     -11.560  14.215  -1.574  1.00  0.00    -0.744 OA
ENDBRANCH  81  82
ENDBRANCH  62  76
BRANCH  63  86
ATOM     86  C   UNL     1     -12.819  -0.053  -6.006  1.00  0.00    -0.014 A 
ATOM     87  C   UNL     1     -12.050  -1.192  -5.661  1.00  0.00     0.010 A 
ATOM     88  C   UNL     1     -14.021   0.183  -5.309  1.00  0.00     0.010 A 
ATOM     89  C   UNL     1     -12.330  -1.913  -4.494  1.00  0.00     0.020 A 
ATOM     90  C   UNL     1     -14.311  -0.554  -4.147  1.00  0.00     0.020 A 
ATOM     91  C   UNL     1     -13.415  -1.534  -3.704  1.00  0.00     0.054 A 
BRANCH  91  92
ATOM     92  S   UNL     1     -13.501  -2.186  -2.004  1.00  0.00     0.124 S 
ATOM     93  O   UNL     1     -13.430  -3.628  -2.213  1.00  0.00    -0.237 OA
ATOM     94  O   UNL     1     -12.319  -1.581  -1.388  1.00  0.00    -0.237 OA
ATOM     95  O   UNL     1     -14.784  -1.684  -1.524  1.00  0.00    -0.744 OA
ENDBRANCH  91  92
ENDBRANCH  63  86
BRANCH  75  96
ATOM     96  C   UNL     1     -13.694   6.410  -9.285  1.00  0.00    -0.014 A 
ATOM     97  C   UNL     1     -13.867   6.046 -10.624  1.00  0.00     0.010 A 
ATOM     98  C   UNL     1     -14.209   7.663  -8.877  1.00  0.00     0.010 A 
ATOM     99  C   UNL     1     -14.632   6.839 -11.484  1.00  0.00     0.020 A 
ATOM    100  C   UNL     1     -14.944   8.477  -9.733  1.00  0.00     0.020 A 
ATOM    101  C   UNL     1     -15.184   8.037 -11.024  1.00  0.00     0.054 A 
BRANCH 101 102
ATOM    102  S   UNL     1     -16.206   9.021 -12.138  1.00  0.00     0.124 S 
ATOM    103  O   UNL     1     -15.415   9.032 -13.366  1.00  0.00    -0.237 OA
ATOM    104  O   UNL     1     -17.435   8.232 -12.188  1.00  0.00    -0.237 OA
ATOM    105  O   UNL     1     -16.320  10.311 -11.461  1.00  0.00    -0.744 OA
ENDBRANCH 101 102
ENDBRANCH  75  96
ENDBRANCH  49  50
ENDBRANCH  41  44
ENDBRANCH  39  40
ENDBRANCH  38  39
ENDBRANCH   1  38
TORSDOF 18
