REMARK SMILES O=C(NCCCNC(=O)[C@@H]1[C@@H](C(=O)N2CCN(c3cccc(Cl)c3)CC2)[C@H]2CC[C@@H]1O2)c1ccc(-c2c3nc(c(-c4ccc(S(=O)(=O)[O-])cc4)c4ccc([nH]4)c(-c4ccc(S(=O)(=O)[O-])cc4)c4nc(c(-c5ccc(S(=O)(=O)[O-])cc5)c5ccc2[nH]5)C=C4)C=C3)cc1
REMARK SMILES IDX 4 1 3 2 1 3 2 4 32 6 33 7 91 8 34 9 90 10 35 11 36 12 37 13
REMARK SMILES IDX 84 14 38 15 89 16 83 17 85 18 39 19 88 20 82 21 81 22 40 24
REMARK SMILES IDX 70 25 51 26 69 27 52 28 55 29 68 30 86 31 53 32 54 33 67 35
REMARK SMILES IDX 87 36 56 37 41 38 42 39 50 40 43 41 49 42 44 43 45 44 46 45
REMARK SMILES IDX 47 46 48 47 71 48 72 49 80 50 73 51 79 52 74 53 75 54 76 55
REMARK SMILES IDX 77 56 78 57 57 58 58 59 66 60 59 61 65 62 60 63 61 64 62 65
REMARK SMILES IDX 63 66 64 67 5 68 6 69 7 70 8 71 9 73 10 74 11 75 30 76 27 77
REMARK SMILES IDX 29 78 31 79 28 80 12 81 13 82 14 83 15 84 26 85 16 86 25 87
REMARK SMILES IDX 17 88 18 89 19 90 24 91 20 92 22 93 21 94 23 95
REMARK H PARENT 3 5 85 23 55 34 7 72
REMARK Flexibility Score: inf
ROOT
ATOM      1  C   UNL     1       4.430  -1.036  -1.087  1.00  0.00     0.118 C 
ENDROOT
BRANCH   1   2
ATOM      2  N   UNL     1       3.022  -0.672  -1.001  1.00  0.00    -0.352 N 
ATOM      3  O   UNL     1       1.108   0.048  -0.069  1.00  0.00    -0.269 OA
ATOM      4  C   UNL     1       2.334  -0.017  -0.008  1.00  0.00     0.251 C 
ATOM      5  H   UNL     1       2.477  -0.938  -1.776  1.00  0.00     0.163 HD
BRANCH   4   6
ATOM      6  C   UNL     1       3.051   0.582   1.141  1.00  0.00     0.039 A 
ATOM      7  C   UNL     1       4.235   1.297   0.958  1.00  0.00     0.014 A 
ATOM      8  C   UNL     1       2.515   0.442   2.425  1.00  0.00     0.014 A 
ATOM      9  C   UNL     1       4.964   1.724   2.064  1.00  0.00     0.010 A 
ATOM     10  C   UNL     1       3.204   0.952   3.530  1.00  0.00     0.010 A 
ATOM     11  C   UNL     1       4.458   1.559   3.364  1.00  0.00    -0.014 A 
BRANCH  11  12
ATOM     12  C   UNL     1       5.249   2.057   4.521  1.00  0.00     0.031 A 
ATOM     13  C   UNL     1       5.801   1.109   5.554  1.00  0.00     0.074 A 
ATOM     14  C   UNL     1       5.511   3.376   4.614  1.00  0.00     0.049 A 
ATOM     15  N   UNL     1       6.578   1.369   6.575  1.00  0.00    -0.248 NA
ATOM     16  C   UNL     1       5.431  -0.310   5.431  1.00  0.00     0.031 C 
ATOM     17  C   UNL     1       5.024   4.399   3.683  1.00  0.00     0.029 A 
ATOM     18  N   UNL     1       6.274   4.080   5.510  1.00  0.00    -0.354 N 
ATOM     19  C   UNL     1       6.770   0.157   7.230  1.00  0.00     0.074 A 
ATOM     20  C   UNL     1       6.009  -0.836   6.503  1.00  0.00     0.031 C 
ATOM     21  C   UNL     1       5.552   5.585   4.019  1.00  0.00     0.029 A 
ATOM     22  C   UNL     1       6.367   5.420   5.218  1.00  0.00     0.049 A 
ATOM     23  H   UNL     1       6.712   3.666   6.288  1.00  0.00     0.167 HD
ATOM     24  C   UNL     1       7.513  -0.106   8.333  1.00  0.00     0.031 A 
ATOM     25  C   UNL     1       7.032   6.411   5.841  1.00  0.00     0.031 A 
ATOM     26  C   UNL     1       8.277   0.881   9.051  1.00  0.00     0.049 A 
ATOM     27  C   UNL     1       7.841   6.094   7.065  1.00  0.00     0.074 A 
ATOM     28  C   UNL     1       9.097   0.701  10.152  1.00  0.00     0.029 A 
ATOM     29  N   UNL     1       8.310   2.234   8.747  1.00  0.00    -0.354 N 
ATOM     30  N   UNL     1       8.044   4.932   7.639  1.00  0.00    -0.248 NA
ATOM     31  C   UNL     1       8.514   7.222   7.722  1.00  0.00     0.031 C 
ATOM     32  C   UNL     1       9.588   1.952  10.543  1.00  0.00     0.029 A 
ATOM     33  C   UNL     1       9.117   2.904   9.653  1.00  0.00     0.049 A 
ATOM     34  H   UNL     1       7.832   2.656   7.997  1.00  0.00     0.167 HD
ATOM     35  C   UNL     1       8.885   5.187   8.716  1.00  0.00     0.074 A 
ATOM     36  C   UNL     1       9.165   6.609   8.701  1.00  0.00     0.031 C 
ATOM     37  C   UNL     1       9.381   4.320   9.633  1.00  0.00     0.031 A 
BRANCH  24  38
ATOM     38  C   UNL     1       7.513  -1.521   8.852  1.00  0.00    -0.014 A 
ATOM     39  C   UNL     1       8.187  -2.551   8.172  1.00  0.00     0.010 A 
ATOM     40  C   UNL     1       6.857  -1.816  10.062  1.00  0.00     0.010 A 
ATOM     41  C   UNL     1       8.166  -3.858   8.668  1.00  0.00     0.020 A 
ATOM     42  C   UNL     1       6.855  -3.117  10.574  1.00  0.00     0.020 A 
ATOM     43  C   UNL     1       7.493  -4.134   9.863  1.00  0.00     0.054 A 
BRANCH  43  44
ATOM     44  S   UNL     1       7.485  -5.838  10.487  1.00  0.00     0.124 S 
ATOM     45  O   UNL     1       6.530  -6.481   9.587  1.00  0.00    -0.237 OA
ATOM     46  O   UNL     1       8.877  -6.248  10.321  1.00  0.00    -0.237 OA
ATOM     47  O   UNL     1       7.040  -5.698  11.871  1.00  0.00    -0.744 OA
ENDBRANCH  43  44
ENDBRANCH  24  38
BRANCH  25  48
ATOM     48  C   UNL     1       6.966   7.796   5.303  1.00  0.00    -0.014 A 
ATOM     49  C   UNL     1       8.089   8.376   4.688  1.00  0.00     0.010 A 
ATOM     50  C   UNL     1       5.768   8.530   5.376  1.00  0.00     0.010 A 
ATOM     51  C   UNL     1       8.018   9.670   4.165  1.00  0.00     0.020 A 
ATOM     52  C   UNL     1       5.686   9.813   4.830  1.00  0.00     0.020 A 
ATOM     53  C   UNL     1       6.816  10.379   4.237  1.00  0.00     0.054 A 
BRANCH  53  54
ATOM     54  S   UNL     1       6.727  12.033   3.496  1.00  0.00     0.124 S 
ATOM     55  O   UNL     1       7.435  12.844   4.481  1.00  0.00    -0.237 OA
ATOM     56  O   UNL     1       7.412  11.844   2.219  1.00  0.00    -0.237 OA
ATOM     57  O   UNL     1       5.291  12.282   3.392  1.00  0.00    -0.744 OA
ENDBRANCH  53  54
ENDBRANCH  25  48
BRANCH  37  58
ATOM     58  C   UNL     1      10.303   4.884  10.680  1.00  0.00    -0.014 A 
ATOM     59  C   UNL     1       9.814   5.685  11.727  1.00  0.00     0.010 A 
ATOM     60  C   UNL     1      11.676   4.586  10.626  1.00  0.00     0.010 A 
ATOM     61  C   UNL     1      10.690   6.212  12.680  1.00  0.00     0.020 A 
ATOM     62  C   UNL     1      12.551   5.089  11.592  1.00  0.00     0.020 A 
ATOM     63  C   UNL     1      12.054   5.914  12.603  1.00  0.00     0.054 A 
BRANCH  63  64
ATOM     64  S   UNL     1      13.171   6.588  13.864  1.00  0.00     0.124 S 
ATOM     65  O   UNL     1      13.306   7.978  13.437  1.00  0.00    -0.237 OA
ATOM     66  O   UNL     1      12.423   6.380  15.102  1.00  0.00    -0.237 OA
ATOM     67  O   UNL     1      14.376   5.774  13.728  1.00  0.00    -0.744 OA
ENDBRANCH  63  64
ENDBRANCH  37  58
ENDBRANCH  11  12
ENDBRANCH   4   6
ENDBRANCH   1   2
BRANCH   1  68
ATOM     68  C   UNL     1       4.654  -2.543  -1.194  1.00  0.00     0.042 C 
BRANCH  68  69
ATOM     69  C   UNL     1       4.104  -3.164  -2.472  1.00  0.00     0.117 C 
BRANCH  69  70
ATOM     70  N   UNL     1       4.713  -2.573  -3.649  1.00  0.00    -0.356 N 
ATOM     71  C   UNL     1       5.802  -2.983  -4.359  1.00  0.00     0.226 C 
ATOM     72  H   UNL     1       4.277  -1.757  -3.984  1.00  0.00     0.163 HD
ATOM     73  O   UNL     1       6.296  -2.181  -5.151  1.00  0.00    -0.275 OA
BRANCH  71  74
ATOM     74  C   UNL     1       6.354  -4.384  -4.130  1.00  0.00     0.122 C 
ATOM     75  C   UNL     1       7.634  -4.652  -4.938  1.00  0.00     0.122 C 
ATOM     76  C   UNL     1       5.377  -5.386  -4.767  1.00  0.00     0.132 C 
ATOM     77  C   UNL     1       7.202  -5.809  -5.860  1.00  0.00     0.132 C 
ATOM     78  C   UNL     1       5.696  -6.812  -4.320  1.00  0.00     0.035 C 
ATOM     79  O   UNL     1       5.834  -5.410  -6.145  1.00  0.00    -0.373 OA
ATOM     80  C   UNL     1       6.904  -7.149  -5.189  1.00  0.00     0.035 C 
BRANCH  75  81
ATOM     81  C   UNL     1       8.869  -4.978  -4.117  1.00  0.00     0.229 C 
ATOM     82  O   UNL     1       9.079  -6.093  -3.648  1.00  0.00    -0.274 OA
ATOM     83  N   UNL     1       9.822  -3.987  -4.040  1.00  0.00    -0.339 N 
ATOM     84  C   UNL     1      11.238  -4.358  -4.048  1.00  0.00     0.141 C 
ATOM     85  C   UNL     1       9.553  -2.583  -3.705  1.00  0.00     0.141 C 
ATOM     86  C   UNL     1      12.014  -3.447  -5.017  1.00  0.00     0.138 C 
ATOM     87  C   UNL     1      10.382  -1.598  -4.549  1.00  0.00     0.138 C 
ATOM     88  N   UNL     1      11.778  -2.045  -4.659  1.00  0.00    -0.368 N 
BRANCH  88  89
ATOM     89  C   UNL     1      12.839  -1.202  -4.429  1.00  0.00     0.038 A 
ATOM     90  C   UNL     1      12.988  -0.550  -3.199  1.00  0.00     0.026 A 
ATOM     91  C   UNL     1      13.826  -1.005  -5.403  1.00  0.00     0.046 A 
ATOM     92  C   UNL     1      14.099   0.257  -2.936  1.00  0.00     0.004 A 
ATOM     93  C   UNL     1      14.924  -0.182  -5.151  1.00  0.00     0.043 A 
ATOM     94  C   UNL     1      15.070   0.444  -3.917  1.00  0.00     0.020 A 
ATOM     95  Cl  UNL     1      16.110   0.056  -6.376  1.00  0.00    -0.084 Cl
ENDBRANCH  88  89
ENDBRANCH  75  81
ENDBRANCH  71  74
ENDBRANCH  69  70
ENDBRANCH  68  69
ENDBRANCH   1  68
TORSDOF 15
