REMARK SMILES Nc1ccc(Cl)c(SC[C@H]2CC[C@H](C(=O)NCCCNC(=O)c3ccc(-c4c5nc(c(-c6ccc(S(=O)(=O)[O-])cc6)c6ccc([nH]6)c(-c6ccc(S(=O)(=O)[O-])cc6)c6nc(c(-c7ccc(S(=O)(=O)[O-])cc7)c7ccc4[nH]7)C=C6)C=C5)cc3)O2)c1
REMARK SMILES IDX 17 1 16 2 14 3 15 4 13 6 10 7 11 8 83 9 12 10 9 11 8 12 7 13
REMARK SMILES IDX 2 14 3 15 84 16 4 17 5 18 6 19 1 20 18 23 19 24 20 25 21 26
REMARK SMILES IDX 22 28 23 29 24 30 82 31 25 32 81 33 26 34 27 35 28 36 75 37
REMARK SMILES IDX 29 38 80 39 74 40 76 41 30 42 79 43 73 44 72 45 31 47 61 48
REMARK SMILES IDX 42 49 60 50 43 51 46 52 59 53 77 54 44 55 45 56 58 58 78 59
REMARK SMILES IDX 47 60 32 61 33 62 41 63 34 64 40 65 35 66 36 67 37 68 38 69
REMARK SMILES IDX 39 70 62 71 63 72 71 73 64 74 70 75 65 76 66 77 67 78 68 79
REMARK SMILES IDX 69 80 48 81 49 82 57 83 50 84 56 85 51 86 52 87 53 88 54 89
REMARK SMILES IDX 55 90
REMARK H PARENT 16 5 1 21 1 22 20 27 76 46 46 57
REMARK Flexibility Score: inf
ROOT
ATOM      1  C   UNL     1      -2.670  -3.948  -1.545  1.00  0.00     0.117 C 
ENDROOT
BRANCH   1   2
ATOM      2  N   UNL     1      -3.729  -3.193  -0.909  1.00  0.00    -0.354 N 
ATOM      3  C   UNL     1      -3.882  -2.818   0.393  1.00  0.00     0.249 C 
ATOM      4  O   UNL     1      -4.901  -2.182   0.683  1.00  0.00    -0.272 OA
ATOM      5  H   UNL     1      -4.453  -2.906  -1.511  1.00  0.00     0.163 HD
BRANCH   3   6
ATOM      6  C   UNL     1      -2.866  -3.217   1.482  1.00  0.00     0.207 C 
ATOM      7  C   UNL     1      -0.857  -4.420   1.531  1.00  0.00     0.129 C 
ATOM      8  C   UNL     1      -1.955  -5.406   1.883  1.00  0.00     0.036 C 
ATOM      9  O   UNL     1      -1.496  -3.220   1.085  1.00  0.00    -0.364 OA
ATOM     10  C   UNL     1      -3.186  -4.565   2.107  1.00  0.00     0.045 C 
BRANCH   7  11
ATOM     11  C   UNL     1       0.197  -4.159   2.620  1.00  0.00     0.107 C 
BRANCH  11  12
ATOM     12  S   UNL     1      -0.262  -3.013   3.972  1.00  0.00    -0.122 SA
BRANCH  12  13
ATOM     13  C   UNL     1      -0.129  -1.350   3.265  1.00  0.00     0.028 A 
ATOM     14  C   UNL     1       0.369   0.175   1.397  1.00  0.00     0.033 A 
ATOM     15  C   UNL     1       0.003   1.261   2.184  1.00  0.00     0.027 A 
ATOM     16  C   UNL     1       0.353  -1.107   1.965  1.00  0.00     0.042 A 
ATOM     17  C   UNL     1      -0.451   1.062   3.487  1.00  0.00     0.024 A 
ATOM     18  C   UNL     1      -0.528  -0.230   4.022  1.00  0.00     0.054 A 
ATOM     19  Cl  UNL     1      -1.123  -0.352   5.647  1.00  0.00    -0.083 Cl
BRANCH  14  20
ATOM     20  N   UNL     1       0.872   0.370   0.118  1.00  0.00    -0.399 N 
ATOM     21  H   UNL     1       0.881   1.273  -0.275  1.00  0.00     0.156 HD
ATOM     22  H   UNL     1       1.221  -0.394  -0.396  1.00  0.00     0.156 HD
ENDBRANCH  14  20
ENDBRANCH  12  13
ENDBRANCH  11  12
ENDBRANCH   7  11
ENDBRANCH   3   6
ENDBRANCH   1   2
BRANCH   1  23
ATOM     23  C   UNL     1      -3.069  -5.399  -1.777  1.00  0.00     0.042 C 
BRANCH  23  24
ATOM     24  C   UNL     1      -3.928  -5.574  -3.022  1.00  0.00     0.118 C 
BRANCH  24  25
ATOM     25  N   UNL     1      -3.181  -5.278  -4.239  1.00  0.00    -0.352 N 
ATOM     26  C   UNL     1      -2.902  -6.074  -5.318  1.00  0.00     0.251 C 
ATOM     27  H   UNL     1      -2.821  -4.363  -4.294  1.00  0.00     0.163 HD
ATOM     28  O   UNL     1      -2.051  -5.711  -6.131  1.00  0.00    -0.269 OA
BRANCH  26  29
ATOM     29  C   UNL     1      -3.607  -7.358  -5.506  1.00  0.00     0.039 A 
ATOM     30  C   UNL     1      -2.898  -8.456  -5.999  1.00  0.00     0.014 A 
ATOM     31  C   UNL     1      -4.973  -7.473  -5.231  1.00  0.00     0.014 A 
ATOM     32  C   UNL     1      -3.546  -9.681  -6.167  1.00  0.00     0.010 A 
ATOM     33  C   UNL     1      -5.597  -8.712  -5.319  1.00  0.00     0.010 A 
ATOM     34  C   UNL     1      -4.894  -9.825  -5.801  1.00  0.00    -0.014 A 
BRANCH  34  35
ATOM     35  C   UNL     1      -5.598 -11.124  -5.937  1.00  0.00     0.031 A 
ATOM     36  C   UNL     1      -6.766 -11.248  -6.878  1.00  0.00     0.074 A 
ATOM     37  C   UNL     1      -5.226 -12.168  -5.171  1.00  0.00     0.049 A 
ATOM     38  N   UNL     1      -7.562 -12.267  -7.075  1.00  0.00    -0.248 NA
ATOM     39  C   UNL     1      -7.101 -10.062  -7.686  1.00  0.00     0.031 C 
ATOM     40  C   UNL     1      -4.130 -12.160  -4.198  1.00  0.00     0.029 A 
ATOM     41  N   UNL     1      -5.733 -13.440  -5.086  1.00  0.00    -0.354 N 
ATOM     42  C   UNL     1      -8.496 -11.842  -8.013  1.00  0.00     0.074 A 
ATOM     43  C   UNL     1      -8.203 -10.457  -8.307  1.00  0.00     0.031 C 
ATOM     44  C   UNL     1      -4.031 -13.375  -3.635  1.00  0.00     0.029 A 
ATOM     45  C   UNL     1      -5.080 -14.235  -4.173  1.00  0.00     0.049 A 
ATOM     46  H   UNL     1      -6.493 -13.754  -5.627  1.00  0.00     0.167 HD
ATOM     47  C   UNL     1      -9.494 -12.549  -8.596  1.00  0.00     0.031 A 
ATOM     48  C   UNL     1      -5.307 -15.511  -3.806  1.00  0.00     0.031 A 
ATOM     49  C   UNL     1      -9.770 -13.931  -8.313  1.00  0.00     0.049 A 
ATOM     50  C   UNL     1      -6.431 -16.268  -4.458  1.00  0.00     0.074 A 
ATOM     51  C   UNL     1     -10.732 -14.750  -8.879  1.00  0.00     0.029 A 
ATOM     52  N   UNL     1      -9.078 -14.703  -7.392  1.00  0.00    -0.354 N 
ATOM     53  N   UNL     1      -7.275 -15.862  -5.377  1.00  0.00    -0.248 NA
ATOM     54  C   UNL     1      -6.627 -17.661  -4.032  1.00  0.00     0.031 C 
ATOM     55  C   UNL     1     -10.649 -16.006  -8.269  1.00  0.00     0.029 A 
ATOM     56  C   UNL     1      -9.600 -15.984  -7.363  1.00  0.00     0.049 A 
ATOM     57  H   UNL     1      -8.326 -14.386  -6.840  1.00  0.00     0.167 HD
ATOM     58  C   UNL     1      -8.081 -16.958  -5.661  1.00  0.00     0.074 A 
ATOM     59  C   UNL     1      -7.615 -18.048  -4.827  1.00  0.00     0.031 C 
ATOM     60  C   UNL     1      -9.115 -17.056  -6.533  1.00  0.00     0.031 A 
BRANCH  47  61
ATOM     61  C   UNL     1     -10.355 -11.838  -9.606  1.00  0.00    -0.014 A 
ATOM     62  C   UNL     1      -9.844 -11.479 -10.866  1.00  0.00     0.010 A 
ATOM     63  C   UNL     1     -11.705 -11.569  -9.314  1.00  0.00     0.010 A 
ATOM     64  C   UNL     1     -10.655 -10.835 -11.803  1.00  0.00     0.020 A 
ATOM     65  C   UNL     1     -12.528 -10.950 -10.259  1.00  0.00     0.020 A 
ATOM     66  C   UNL     1     -11.993 -10.574 -11.493  1.00  0.00     0.054 A 
BRANCH  66  67
ATOM     67  S   UNL     1     -13.032  -9.771 -12.745  1.00  0.00     0.124 S 
ATOM     68  O   UNL     1     -12.525  -8.401 -12.721  1.00  0.00    -0.237 OA
ATOM     69  O   UNL     1     -12.726 -10.533 -13.953  1.00  0.00    -0.237 OA
ATOM     70  O   UNL     1     -14.389  -9.942 -12.231  1.00  0.00    -0.744 OA
ENDBRANCH  66  67
ENDBRANCH  47  61
BRANCH  48  71
ATOM     71  C   UNL     1      -4.447 -16.160  -2.779  1.00  0.00    -0.014 A 
ATOM     72  C   UNL     1      -3.560 -17.189  -3.139  1.00  0.00     0.010 A 
ATOM     73  C   UNL     1      -4.519 -15.761  -1.432  1.00  0.00     0.010 A 
ATOM     74  C   UNL     1      -2.784 -17.829  -2.168  1.00  0.00     0.020 A 
ATOM     75  C   UNL     1      -3.724 -16.378  -0.462  1.00  0.00     0.020 A 
ATOM     76  C   UNL     1      -2.874 -17.421  -0.835  1.00  0.00     0.054 A 
BRANCH  76  77
ATOM     77  S   UNL     1      -1.839 -18.247   0.406  1.00  0.00     0.124 S 
ATOM     78  O   UNL     1      -2.524 -19.526   0.567  1.00  0.00    -0.237 OA
ATOM     79  O   UNL     1      -0.537 -18.304  -0.255  1.00  0.00    -0.237 OA
ATOM     80  O   UNL     1      -1.906 -17.349   1.557  1.00  0.00    -0.744 OA
ENDBRANCH  76  77
ENDBRANCH  48  71
BRANCH  60  81
ATOM     81  C   UNL     1      -9.783 -18.398  -6.664  1.00  0.00    -0.014 A 
ATOM     82  C   UNL     1     -10.622 -18.896  -5.652  1.00  0.00     0.010 A 
ATOM     83  C   UNL     1      -9.610 -19.144  -7.844  1.00  0.00     0.010 A 
ATOM     84  C   UNL     1     -11.252 -20.134  -5.806  1.00  0.00     0.020 A 
ATOM     85  C   UNL     1     -10.260 -20.368  -8.013  1.00  0.00     0.020 A 
ATOM     86  C   UNL     1     -11.066 -20.862  -6.986  1.00  0.00     0.054 A 
BRANCH  86  87
ATOM     87  S   UNL     1     -11.931 -22.444  -7.180  1.00  0.00     0.124 S 
ATOM     88  O   UNL     1     -11.162 -23.320  -6.300  1.00  0.00    -0.237 OA
ATOM     89  O   UNL     1     -13.284 -22.128  -6.729  1.00  0.00    -0.237 OA
ATOM     90  O   UNL     1     -11.809 -22.733  -8.608  1.00  0.00    -0.744 OA
ENDBRANCH  86  87
ENDBRANCH  60  81
ENDBRANCH  34  35
ENDBRANCH  26  29
ENDBRANCH  24  25
ENDBRANCH  23  24
ENDBRANCH   1  23
TORSDOF 17
