REMARK SMILES CC[C@@H]([NH3+])C(=O)NCCOCC(=O)NCCCNC(=O)c1ccc(-c2c3nc(c(-c4ccc(S(=O)(=O)[O-])cc4)c4ccc([nH]4)c(-c4ccc(S(=O)(=O)[O-])cc4)c4nc(c(-c5ccc(S(=O)(=O)[O-])cc5)c5ccc2[nH]5)C=C4)C=C3)cc1
REMARK SMILES IDX 12 1 13 2 14 3 11 5 10 6 9 7 8 8 7 9 5 10 6 11 3 13 2 14
REMARK SMILES IDX 1 15 4 16 15 20 16 21 17 22 18 23 19 24 20 26 21 27 22 28
REMARK SMILES IDX 80 29 23 30 79 31 24 32 25 33 26 34 73 35 27 36 78 37 72 38
REMARK SMILES IDX 74 39 28 40 77 41 71 42 70 43 29 45 59 46 40 47 58 48 41 49
REMARK SMILES IDX 44 50 57 51 75 52 42 53 43 54 56 56 76 57 45 58 30 59 31 60
REMARK SMILES IDX 39 61 32 62 38 63 33 64 34 65 35 66 36 67 37 68 60 69 61 70
REMARK SMILES IDX 69 71 62 72 68 73 63 74 64 75 65 76 66 77 67 78 46 79 47 80
REMARK SMILES IDX 55 81 48 82 54 83 49 84 50 85 51 86 52 87 53 88
REMARK H PARENT 14 4 7 12 4 17 4 18 4 19 18 25 74 44 44 55
REMARK Flexibility Score: inf
ROOT
ATOM      1  C   UNL     1      -1.899   5.214   2.304  1.00  0.00     0.245 C 
ATOM      2  O   UNL     1      -0.669   5.204   2.259  1.00  0.00    -0.272 OA
ATOM      3  N   UNL     1      -2.518   5.063   3.510  1.00  0.00    -0.354 N 
ATOM      4  H   UNL     1      -1.925   4.973   4.291  1.00  0.00     0.163 HD
ENDROOT
BRANCH   1   5
ATOM      5  C   UNL     1      -2.755   5.385   1.046  1.00  0.00     0.260 C 
BRANCH   5   6
ATOM      6  O   UNL     1      -3.466   4.245   0.595  1.00  0.00    -0.370 OA
BRANCH   6   7
ATOM      7  C   UNL     1      -2.659   3.090   0.330  1.00  0.00     0.182 C 
BRANCH   7   8
ATOM      8  C   UNL     1      -1.888   3.161  -0.998  1.00  0.00     0.144 C 
BRANCH   8   9
ATOM      9  N   UNL     1      -0.678   3.968  -0.919  1.00  0.00    -0.349 N 
ATOM     10  C   UNL     1       0.634   3.613  -0.855  1.00  0.00     0.278 C 
ATOM     11  O   UNL     1       1.470   4.523  -0.833  1.00  0.00    -0.268 OA
ATOM     12  H   UNL     1      -0.837   4.939  -0.910  1.00  0.00     0.163 HD
BRANCH  10  13
ATOM     13  C   UNL     1       1.091   2.141  -0.912  1.00  0.00     0.270 C 
BRANCH  13  14
ATOM     14  C   UNL     1       0.634   1.308   0.289  1.00  0.00     0.072 C 
ATOM     15  C   UNL     1       1.181  -0.115   0.273  1.00  0.00     0.011 C 
ENDBRANCH  13  14
BRANCH  13  16
ATOM     16  N   UNL     1       0.700   1.560  -2.214  1.00  0.00    -0.347 N 
ATOM     17  H   UNL     1      -0.317   1.572  -2.301  1.00  0.00     0.345 HD
ATOM     18  H   UNL     1       1.034   0.598  -2.271  1.00  0.00     0.345 HD
ATOM     19  H   UNL     1       1.112   2.108  -2.969  1.00  0.00     0.345 HD
ENDBRANCH  13  16
ENDBRANCH  10  13
ENDBRANCH   8   9
ENDBRANCH   7   8
ENDBRANCH   6   7
ENDBRANCH   5   6
ENDBRANCH   1   5
BRANCH   3  20
ATOM     20  C   UNL     1      -3.941   5.019   3.786  1.00  0.00     0.117 C 
BRANCH  20  21
ATOM     21  C   UNL     1      -4.404   3.633   4.215  1.00  0.00     0.042 C 
BRANCH  21  22
ATOM     22  C   UNL     1      -3.751   3.123   5.496  1.00  0.00     0.118 C 
BRANCH  22  23
ATOM     23  N   UNL     1      -3.974   4.006   6.633  1.00  0.00    -0.352 N 
ATOM     24  C   UNL     1      -4.613   3.778   7.826  1.00  0.00     0.251 C 
ATOM     25  H   UNL     1      -3.607   4.913   6.529  1.00  0.00     0.163 HD
ATOM     26  O   UNL     1      -4.859   4.726   8.566  1.00  0.00    -0.269 OA
BRANCH  24  27
ATOM     27  C   UNL     1      -5.014   2.409   8.219  1.00  0.00     0.039 A 
ATOM     28  C   UNL     1      -6.246   2.223   8.853  1.00  0.00     0.014 A 
ATOM     29  C   UNL     1      -4.168   1.318   8.006  1.00  0.00     0.014 A 
ATOM     30  C   UNL     1      -6.652   0.938   9.220  1.00  0.00     0.010 A 
ATOM     31  C   UNL     1      -4.608   0.030   8.297  1.00  0.00     0.010 A 
ATOM     32  C   UNL     1      -5.848  -0.174   8.919  1.00  0.00    -0.014 A 
BRANCH  32  33
ATOM     33  C   UNL     1      -6.273  -1.554   9.269  1.00  0.00     0.031 A 
ATOM     34  C   UNL     1      -5.467  -2.365  10.248  1.00  0.00     0.074 A 
ATOM     35  C   UNL     1      -7.346  -2.098   8.661  1.00  0.00     0.049 A 
ATOM     36  N   UNL     1      -5.635  -3.606  10.628  1.00  0.00    -0.248 NA
ATOM     37  C   UNL     1      -4.302  -1.705  10.861  1.00  0.00     0.031 C 
ATOM     38  C   UNL     1      -8.188  -1.431   7.665  1.00  0.00     0.029 A 
ATOM     39  N   UNL     1      -7.908  -3.344   8.788  1.00  0.00    -0.354 N 
ATOM     40  C   UNL     1      -4.590  -3.880  11.502  1.00  0.00     0.074 A 
ATOM     41  C   UNL     1      -3.764  -2.694  11.558  1.00  0.00     0.031 C 
ATOM     42  C   UNL     1      -9.173  -2.263   7.293  1.00  0.00     0.029 A 
ATOM     43  C   UNL     1      -9.011  -3.535   7.990  1.00  0.00     0.049 A 
ATOM     44  H   UNL     1      -7.555  -4.035   9.393  1.00  0.00     0.167 HD
ATOM     45  C   UNL     1      -4.348  -5.009  12.211  1.00  0.00     0.031 A 
ATOM     46  C   UNL     1      -9.803  -4.614   7.833  1.00  0.00     0.031 A 
ATOM     47  C   UNL     1      -5.181  -6.181  12.168  1.00  0.00     0.049 A 
ATOM     48  C   UNL     1      -9.519  -5.854   8.636  1.00  0.00     0.074 A 
ATOM     49  C   UNL     1      -5.051  -7.357  12.886  1.00  0.00     0.029 A 
ATOM     50  N   UNL     1      -6.302  -6.325  11.364  1.00  0.00    -0.354 N 
ATOM     51  N   UNL     1      -8.555  -6.075   9.498  1.00  0.00    -0.248 NA
ATOM     52  C   UNL     1     -10.440  -6.984   8.457  1.00  0.00     0.031 C 
ATOM     53  C   UNL     1      -6.068  -8.229  12.484  1.00  0.00     0.029 A 
ATOM     54  C   UNL     1      -6.865  -7.575  11.558  1.00  0.00     0.049 A 
ATOM     55  H   UNL     1      -6.646  -5.640  10.747  1.00  0.00     0.167 HD
ATOM     56  C   UNL     1      -8.774  -7.357   9.989  1.00  0.00     0.074 A 
ATOM     57  C   UNL     1      -9.967  -7.857   9.336  1.00  0.00     0.031 C 
ATOM     58  C   UNL     1      -8.055  -8.057  10.902  1.00  0.00     0.031 A 
BRANCH  45  59
ATOM     59  C   UNL     1      -3.126  -5.027  13.093  1.00  0.00    -0.014 A 
ATOM     60  C   UNL     1      -3.055  -4.235  14.254  1.00  0.00     0.010 A 
ATOM     61  C   UNL     1      -2.046  -5.870  12.775  1.00  0.00     0.010 A 
ATOM     62  C   UNL     1      -1.909  -4.249  15.053  1.00  0.00     0.020 A 
ATOM     63  C   UNL     1      -0.909  -5.910  13.588  1.00  0.00     0.020 A 
ATOM     64  C   UNL     1      -0.841  -5.084  14.712  1.00  0.00     0.054 A 
BRANCH  64  65
ATOM     65  S   UNL     1       0.628  -5.094  15.775  1.00  0.00     0.124 S 
ATOM     66  O   UNL     1       1.248  -3.814  15.443  1.00  0.00    -0.237 OA
ATOM     67  O   UNL     1       0.054  -5.184  17.115  1.00  0.00    -0.237 OA
ATOM     68  O   UNL     1       1.367  -6.276  15.336  1.00  0.00    -0.744 OA
ENDBRANCH  64  65
ENDBRANCH  45  59
BRANCH  46  69
ATOM     69  C   UNL     1     -10.955  -4.560   6.892  1.00  0.00    -0.014 A 
ATOM     70  C   UNL     1     -12.273  -4.532   7.381  1.00  0.00     0.010 A 
ATOM     71  C   UNL     1     -10.741  -4.525   5.502  1.00  0.00     0.010 A 
ATOM     72  C   UNL     1     -13.356  -4.489   6.498  1.00  0.00     0.020 A 
ATOM     73  C   UNL     1     -11.820  -4.454   4.617  1.00  0.00     0.020 A 
ATOM     74  C   UNL     1     -13.122  -4.449   5.121  1.00  0.00     0.054 A 
BRANCH  74  75
ATOM     75  S   UNL     1     -14.541  -4.344   3.995  1.00  0.00     0.124 S 
ATOM     76  O   UNL     1     -15.080  -5.698   4.058  1.00  0.00    -0.237 OA
ATOM     77  O   UNL     1     -15.360  -3.305   4.615  1.00  0.00    -0.237 OA
ATOM     78  O   UNL     1     -13.936  -3.968   2.718  1.00  0.00    -0.744 OA
ENDBRANCH  74  75
ENDBRANCH  46  69
BRANCH  58  79
ATOM     79  C   UNL     1      -8.564  -9.421  11.285  1.00  0.00    -0.014 A 
ATOM     80  C   UNL     1      -8.482 -10.510  10.400  1.00  0.00     0.010 A 
ATOM     81  C   UNL     1      -9.095  -9.621  12.573  1.00  0.00     0.010 A 
ATOM     82  C   UNL     1      -8.961 -11.766  10.782  1.00  0.00     0.020 A 
ATOM     83  C   UNL     1      -9.547 -10.882  12.969  1.00  0.00     0.020 A 
ATOM     84  C   UNL     1      -9.493 -11.943  12.063  1.00  0.00     0.054 A 
BRANCH  84  85
ATOM     85  S   UNL     1     -10.080 -13.590  12.547  1.00  0.00     0.124 S 
ATOM     86  O   UNL     1     -11.339 -13.691  11.813  1.00  0.00    -0.237 OA
ATOM     87  O   UNL     1      -9.008 -14.464  12.078  1.00  0.00    -0.237 OA
ATOM     88  O   UNL     1     -10.211 -13.498  13.999  1.00  0.00    -0.744 OA
ENDBRANCH  84  85
ENDBRANCH  58  79
ENDBRANCH  32  33
ENDBRANCH  24  27
ENDBRANCH  22  23
ENDBRANCH  21  22
ENDBRANCH  20  21
ENDBRANCH   3  20
TORSDOF 20
