REMARK SMILES C[C@H]1CCC[C@](Cc2cn3ccccc3n2)(C(=O)NCCCNC(=O)c2ccc(-c3c4nc(c(-c5ccc(S(=O)(=O)[O-])cc5)c5ccc([nH]5)c(-c5ccc(S(=O)(=O)[O-])cc5)c5nc(c(-c6ccc(S(=O)(=O)[O-])cc6)c6ccc3[nH]6)C=C5)C=C4)cc2)C1
REMARK SMILES IDX 21 1 20 2 19 3 17 4 18 5 6 7 1 8 2 9 3 10 86 11 4 12 5 13
REMARK SMILES IDX 7 14 8 15 9 16 16 17 10 18 15 19 11 20 14 21 12 22 13 23
REMARK SMILES IDX 22 24 23 25 24 26 25 28 26 29 27 30 85 31 28 32 84 33 29 34
REMARK SMILES IDX 30 35 31 36 78 37 32 38 83 39 77 40 79 41 33 42 82 43 76 44
REMARK SMILES IDX 75 45 34 47 64 48 45 49 63 50 46 51 49 52 62 53 80 54 47 55
REMARK SMILES IDX 48 56 61 58 81 59 50 60 35 61 36 62 44 63 37 64 43 65 38 66
REMARK SMILES IDX 39 67 40 68 41 69 42 70 65 71 66 72 74 73 67 74 73 75 68 76
REMARK SMILES IDX 69 77 70 78 71 79 72 80 51 81 52 82 60 83 53 84 59 85 54 86
REMARK SMILES IDX 55 87 56 88 57 89 58 90
REMARK H PARENT 19 6 23 27 79 46 49 57
REMARK Flexibility Score: inf
ROOT
ATOM      1  C   UNL     1      -1.141   2.110   2.877  1.00  0.00     0.042 C 
ENDROOT
BRANCH   1   2
ATOM      2  C   UNL     1      -0.369   0.854   2.525  1.00  0.00     0.117 C 
BRANCH   2   3
ATOM      3  N   UNL     1      -1.147  -0.356   2.555  1.00  0.00    -0.356 N 
ATOM      4  C   UNL     1      -1.346  -1.328   1.627  1.00  0.00     0.226 C 
ATOM      5  O   UNL     1      -1.855  -2.357   2.094  1.00  0.00    -0.274 OA
ATOM      6  H   UNL     1      -1.624  -0.507   3.404  1.00  0.00     0.163 HD
BRANCH   4   7
ATOM      7  C   UNL     1      -0.960  -1.225   0.106  1.00  0.00     0.055 C 
ATOM      8  C   UNL     1       2.741  -0.174  -0.818  1.00  0.00     0.007 C 
ATOM      9  C   UNL     1       1.340   0.055  -0.241  1.00  0.00    -0.013 C 
ATOM     10  C   UNL     1       0.586   1.085  -1.088  1.00  0.00     0.003 C 
ATOM     11  C   UNL     1       0.585  -1.270  -0.066  1.00  0.00     0.020 C 
ATOM     12  C   UNL     1      -0.893   1.263  -0.765  1.00  0.00     0.001 C 
ATOM     13  C   UNL     1      -1.673  -0.032  -0.579  1.00  0.00     0.017 C 
BRANCH   7  14
ATOM     14  C   UNL     1      -1.559  -2.566  -0.501  1.00  0.00     0.074 C 
BRANCH  14  15
ATOM     15  C   UNL     1      -1.615  -2.729  -1.996  1.00  0.00     0.061 A 
ATOM     16  C   UNL     1      -0.692  -2.447  -2.984  1.00  0.00     0.116 A 
ATOM     17  N   UNL     1      -2.758  -3.262  -2.565  1.00  0.00    -0.234 NA
ATOM     18  N   UNL     1      -1.293  -2.774  -4.173  1.00  0.00    -0.307 N 
ATOM     19  C   UNL     1      -2.549  -3.275  -3.864  1.00  0.00     0.136 A 
ATOM     20  C   UNL     1      -0.807  -2.652  -5.472  1.00  0.00     0.093 A 
ATOM     21  C   UNL     1      -3.366  -3.691  -4.953  1.00  0.00     0.048 A 
ATOM     22  C   UNL     1      -1.583  -3.039  -6.499  1.00  0.00     0.018 A 
ATOM     23  C   UNL     1      -2.905  -3.579  -6.215  1.00  0.00     0.005 A 
ENDBRANCH  14  15
ENDBRANCH   7  14
ENDBRANCH   4   7
ENDBRANCH   2   3
ENDBRANCH   1   2
BRANCH   1  24
ATOM     24  C   UNL     1      -1.056   2.459   4.351  1.00  0.00     0.118 C 
BRANCH  24  25
ATOM     25  N   UNL     1       0.296   2.838   4.760  1.00  0.00    -0.352 N 
ATOM     26  C   UNL     1       0.831   4.057   5.119  1.00  0.00     0.251 C 
ATOM     27  H   UNL     1       0.938   2.092   4.784  1.00  0.00     0.163 HD
ATOM     28  O   UNL     1       2.043   4.169   5.239  1.00  0.00    -0.269 OA
BRANCH  26  29
ATOM     29  C   UNL     1      -0.049   5.229   5.327  1.00  0.00     0.039 A 
ATOM     30  C   UNL     1       0.379   6.491   4.904  1.00  0.00     0.014 A 
ATOM     31  C   UNL     1      -1.296   5.089   5.934  1.00  0.00     0.014 A 
ATOM     32  C   UNL     1      -0.489   7.584   4.995  1.00  0.00     0.010 A 
ATOM     33  C   UNL     1      -2.200   6.142   5.907  1.00  0.00     0.010 A 
ATOM     34  C   UNL     1      -1.808   7.404   5.440  1.00  0.00    -0.014 A 
BRANCH  34  35
ATOM     35  C   UNL     1      -2.804   8.507   5.427  1.00  0.00     0.031 A 
ATOM     36  C   UNL     1      -3.488   8.916   6.707  1.00  0.00     0.074 A 
ATOM     37  C   UNL     1      -3.171   9.060   4.252  1.00  0.00     0.049 A 
ATOM     38  N   UNL     1      -4.470   9.762   6.881  1.00  0.00    -0.248 NA
ATOM     39  C   UNL     1      -3.038   8.261   7.949  1.00  0.00     0.031 C 
ATOM     40  C   UNL     1      -2.629   8.703   2.937  1.00  0.00     0.029 A 
ATOM     41  N   UNL     1      -4.103  10.027   3.969  1.00  0.00    -0.354 N 
ATOM     42  C   UNL     1      -4.779   9.709   8.236  1.00  0.00     0.074 A 
ATOM     43  C   UNL     1      -3.911   8.720   8.833  1.00  0.00     0.031 C 
ATOM     44  C   UNL     1      -3.221   9.454   1.995  1.00  0.00     0.029 A 
ATOM     45  C   UNL     1      -4.220  10.309   2.626  1.00  0.00     0.049 A 
ATOM     46  H   UNL     1      -4.639  10.478   4.661  1.00  0.00     0.167 HD
ATOM     47  C   UNL     1      -5.693  10.433   8.923  1.00  0.00     0.031 A 
ATOM     48  C   UNL     1      -5.052  11.144   1.973  1.00  0.00     0.031 A 
ATOM     49  C   UNL     1      -6.519  11.448   8.330  1.00  0.00     0.049 A 
ATOM     50  C   UNL     1      -6.044  11.950   2.767  1.00  0.00     0.074 A 
ATOM     51  C   UNL     1      -7.395  12.315   8.959  1.00  0.00     0.029 A 
ATOM     52  N   UNL     1      -6.577  11.730   6.974  1.00  0.00    -0.354 N 
ATOM     53  N   UNL     1      -6.241  11.966   4.064  1.00  0.00    -0.248 NA
ATOM     54  C   UNL     1      -6.924  12.854   2.012  1.00  0.00     0.031 C 
ATOM     55  C   UNL     1      -8.031  13.077   7.976  1.00  0.00     0.029 A 
ATOM     56  C   UNL     1      -7.506  12.729   6.742  1.00  0.00     0.049 A 
ATOM     57  H   UNL     1      -6.037  11.287   6.281  1.00  0.00     0.167 HD
ATOM     58  C   UNL     1      -7.254  12.893   4.281  1.00  0.00     0.074 A 
ATOM     59  C   UNL     1      -7.611  13.435   2.986  1.00  0.00     0.031 C 
ATOM     60  C   UNL     1      -7.843  13.258   5.446  1.00  0.00     0.031 A 
BRANCH  47  61
ATOM     61  C   UNL     1      -5.854  10.161  10.395  1.00  0.00    -0.014 A 
ATOM     62  C   UNL     1      -4.862  10.532  11.320  1.00  0.00     0.010 A 
ATOM     63  C   UNL     1      -7.055   9.601  10.868  1.00  0.00     0.010 A 
ATOM     64  C   UNL     1      -5.059  10.327  12.688  1.00  0.00     0.020 A 
ATOM     65  C   UNL     1      -7.267   9.419  12.238  1.00  0.00     0.020 A 
ATOM     66  C   UNL     1      -6.263   9.776  13.139  1.00  0.00     0.054 A 
BRANCH  66  67
ATOM     67  S   UNL     1      -6.514   9.582  14.925  1.00  0.00     0.124 S 
ATOM     68  O   UNL     1      -5.604   8.482  15.239  1.00  0.00    -0.237 OA
ATOM     69  O   UNL     1      -6.121  10.889  15.445  1.00  0.00    -0.237 OA
ATOM     70  O   UNL     1      -7.935   9.267  15.044  1.00  0.00    -0.744 OA
ENDBRANCH  66  67
ENDBRANCH  47  61
BRANCH  48  71
ATOM     71  C   UNL     1      -5.000  11.249   0.487  1.00  0.00    -0.014 A 
ATOM     72  C   UNL     1      -4.560  12.431  -0.134  1.00  0.00     0.010 A 
ATOM     73  C   UNL     1      -5.408  10.169  -0.317  1.00  0.00     0.010 A 
ATOM     74  C   UNL     1      -4.562  12.543  -1.529  1.00  0.00     0.020 A 
ATOM     75  C   UNL     1      -5.381  10.265  -1.711  1.00  0.00     0.020 A 
ATOM     76  C   UNL     1      -4.975  11.459  -2.308  1.00  0.00     0.054 A 
BRANCH  76  77
ATOM     77  S   UNL     1      -4.950  11.619  -4.115  1.00  0.00     0.124 S 
ATOM     78  O   UNL     1      -6.095  12.491  -4.358  1.00  0.00    -0.237 OA
ATOM     79  O   UNL     1      -3.638  12.212  -4.362  1.00  0.00    -0.237 OA
ATOM     80  O   UNL     1      -5.100  10.242  -4.582  1.00  0.00    -0.744 OA
ENDBRANCH  76  77
ENDBRANCH  48  71
BRANCH  60  81
ATOM     81  C   UNL     1      -8.921  14.305   5.383  1.00  0.00    -0.014 A 
ATOM     82  C   UNL     1     -10.191  14.005   4.862  1.00  0.00     0.010 A 
ATOM     83  C   UNL     1      -8.684  15.581   5.926  1.00  0.00     0.010 A 
ATOM     84  C   UNL     1     -11.201  14.969   4.869  1.00  0.00     0.020 A 
ATOM     85  C   UNL     1      -9.700  16.538   5.962  1.00  0.00     0.020 A 
ATOM     86  C   UNL     1     -10.951  16.228   5.424  1.00  0.00     0.054 A 
BRANCH  86  87
ATOM     87  S   UNL     1     -12.300  17.438   5.481  1.00  0.00     0.124 S 
ATOM     88  O   UNL     1     -12.419  17.827   4.079  1.00  0.00    -0.237 OA
ATOM     89  O   UNL     1     -13.411  16.652   6.013  1.00  0.00    -0.237 OA
ATOM     90  O   UNL     1     -11.796  18.478   6.375  1.00  0.00    -0.744 OA
ENDBRANCH  86  87
ENDBRANCH  60  81
ENDBRANCH  34  35
ENDBRANCH  26  29
ENDBRANCH  24  25
ENDBRANCH   1  24
TORSDOF 15
