REMARK SMILES CC(=O)NS(=O)(=O)c1ccc(-c2ccn(C(F)F)c(=O)c2)cc1C(=O)NCCCNC(=O)c1ccc(-c2c3nc(c(-c4ccc(S(=O)(=O)[O-])cc4)c4ccc([nH]4)c(-c4ccc(S(=O)(=O)[O-])cc4)c4nc(c(-c5ccc(S(=O)(=O)[O-])cc5)c5ccc2[nH]5)C=C4)C=C3)cc1
REMARK SMILES IDX 28 1 27 2 26 3 24 4 25 5 23 7 8 8 9 9 10 10 22 11 11 12 5 13
REMARK SMILES IDX 6 14 7 15 4 16 1 17 2 18 3 19 12 21 13 22 21 23 14 24 19 25
REMARK SMILES IDX 15 26 20 27 16 28 17 29 18 30 29 31 30 32 31 33 32 35 33 36
REMARK SMILES IDX 34 37 92 38 35 39 91 40 36 41 37 42 38 43 85 44 39 45 90 46
REMARK SMILES IDX 84 47 86 48 40 49 89 50 83 51 82 52 41 54 71 55 52 56 70 57
REMARK SMILES IDX 53 58 56 59 69 60 87 61 54 62 55 63 68 65 88 66 57 67 42 68
REMARK SMILES IDX 43 69 51 70 44 71 50 72 45 73 46 74 47 75 48 76 49 77 72 78
REMARK SMILES IDX 73 79 81 80 74 81 80 82 75 83 76 84 77 85 78 86 79 87 58 88
REMARK SMILES IDX 59 89 67 90 60 91 66 92 61 93 62 94 63 95 64 96 65 97
REMARK H PARENT 26 6 4 20 30 34 86 53 56 64
REMARK Flexibility Score: inf
ROOT
ATOM      1  C   UNL     1       3.336  -0.749   3.685  1.00  0.00     0.042 C 
ENDROOT
BRANCH   1   2
ATOM      2  C   UNL     1       2.515  -1.261   2.504  1.00  0.00     0.118 C 
BRANCH   2   3
ATOM      3  N   UNL     1       1.922  -0.206   1.700  1.00  0.00    -0.352 N 
ATOM      4  C   UNL     1       1.571  -0.179   0.380  1.00  0.00     0.252 C 
ATOM      5  O   UNL     1       1.021   0.817  -0.083  1.00  0.00    -0.269 OA
ATOM      6  H   UNL     1       1.743   0.630   2.188  1.00  0.00     0.163 HD
BRANCH   4   7
ATOM      7  C   UNL     1       1.875  -1.287  -0.542  1.00  0.00     0.060 A 
ATOM      8  C   UNL     1       1.327  -2.567  -0.491  1.00  0.00     0.100 A 
ATOM      9  C   UNL     1       1.671  -3.511  -1.476  1.00  0.00     0.024 A 
ATOM     10  C   UNL     1       2.446  -3.142  -2.574  1.00  0.00     0.010 A 
ATOM     11  C   UNL     1       2.629  -0.915  -1.675  1.00  0.00     0.024 A 
ATOM     12  C   UNL     1       2.872  -1.819  -2.720  1.00  0.00    -0.017 A 
BRANCH   8  13
ATOM     13  S   UNL     1       0.019  -3.061   0.595  1.00  0.00     0.264 S 
ATOM     14  O   UNL     1       0.655  -3.650   1.750  1.00  0.00    -0.201 OA
ATOM     15  O   UNL     1      -0.919  -3.827  -0.196  1.00  0.00    -0.201 OA
BRANCH  13  16
ATOM     16  N   UNL     1      -0.760  -1.696   1.094  1.00  0.00    -0.249 N 
ATOM     17  C   UNL     1      -1.780  -0.974  -1.084  1.00  0.00     0.115 C 
ATOM     18  C   UNL     1      -1.721  -0.930   0.417  1.00  0.00     0.230 C 
ATOM     19  O   UNL     1      -2.439  -0.184   1.071  1.00  0.00    -0.274 OA
ATOM     20  H   UNL     1      -0.517  -1.374   1.992  1.00  0.00     0.183 HD
ENDBRANCH  13  16
ENDBRANCH   8  13
BRANCH  12  21
ATOM     21  C   UNL     1       3.430  -1.340  -4.004  1.00  0.00    -0.011 A 
ATOM     22  C   UNL     1       4.652  -0.568  -4.122  1.00  0.00     0.027 A 
ATOM     23  C   UNL     1       2.696  -1.558  -5.112  1.00  0.00     0.080 A 
ATOM     24  C   UNL     1       5.024  -0.059  -5.303  1.00  0.00     0.095 A 
ATOM     25  C   UNL     1       3.110  -1.026  -6.437  1.00  0.00     0.255 A 
ATOM     26  N   UNL     1       4.268  -0.268  -6.443  1.00  0.00    -0.258 N 
ATOM     27  O   UNL     1       2.408  -1.273  -7.412  1.00  0.00    -0.269 OA
BRANCH  26  28
ATOM     28  C   UNL     1       4.662   0.301  -7.705  1.00  0.00     0.451 C 
ATOM     29  F   UNL     1       4.904  -0.666  -8.623  1.00  0.00    -0.185 F 
ATOM     30  F   UNL     1       3.693   1.112  -8.198  1.00  0.00    -0.185 F 
ENDBRANCH  26  28
ENDBRANCH  12  21
ENDBRANCH   4   7
ENDBRANCH   2   3
ENDBRANCH   1   2
BRANCH   1  31
ATOM     31  C   UNL     1       2.627   0.252   4.603  1.00  0.00     0.118 C 
BRANCH  31  32
ATOM     32  N   UNL     1       1.269  -0.130   4.960  1.00  0.00    -0.352 N 
ATOM     33  C   UNL     1       0.733  -0.635   6.118  1.00  0.00     0.251 C 
ATOM     34  H   UNL     1       0.613  -0.003   4.236  1.00  0.00     0.163 HD
ATOM     35  O   UNL     1      -0.422  -1.057   6.098  1.00  0.00    -0.269 OA
BRANCH  33  36
ATOM     36  C   UNL     1       1.516  -0.700   7.371  1.00  0.00     0.039 A 
ATOM     37  C   UNL     1       1.407  -1.842   8.172  1.00  0.00     0.014 A 
ATOM     38  C   UNL     1       2.307   0.369   7.795  1.00  0.00     0.014 A 
ATOM     39  C   UNL     1       2.163  -1.952   9.343  1.00  0.00     0.010 A 
ATOM     40  C   UNL     1       3.103   0.236   8.933  1.00  0.00     0.010 A 
ATOM     41  C   UNL     1       3.059  -0.936   9.704  1.00  0.00    -0.014 A 
BRANCH  41  42
ATOM     42  C   UNL     1       3.989  -1.074  10.853  1.00  0.00     0.031 A 
ATOM     43  C   UNL     1       3.948  -0.087  11.983  1.00  0.00     0.074 A 
ATOM     44  C   UNL     1       4.956  -2.012  10.836  1.00  0.00     0.049 A 
ATOM     45  N   UNL     1       4.873   0.189  12.865  1.00  0.00    -0.248 NA
ATOM     46  C   UNL     1       2.725   0.719  12.111  1.00  0.00     0.031 C 
ATOM     47  C   UNL     1       5.140  -3.035   9.805  1.00  0.00     0.029 A 
ATOM     48  N   UNL     1       5.984  -2.238  11.717  1.00  0.00    -0.354 N 
ATOM     49  C   UNL     1       4.393   1.275  13.582  1.00  0.00     0.074 A 
ATOM     50  C   UNL     1       3.062   1.558  13.082  1.00  0.00     0.031 C 
ATOM     51  C   UNL     1       6.197  -3.797  10.127  1.00  0.00     0.029 A 
ATOM     52  C   UNL     1       6.797  -3.283  11.354  1.00  0.00     0.049 A 
ATOM     53  H   UNL     1       6.125  -1.703  12.531  1.00  0.00     0.167 HD
ATOM     54  C   UNL     1       5.029   2.002  14.532  1.00  0.00     0.031 A 
ATOM     55  C   UNL     1       7.918  -3.761  11.926  1.00  0.00     0.031 A 
ATOM     56  C   UNL     1       6.324   1.683  15.067  1.00  0.00     0.049 A 
ATOM     57  C   UNL     1       8.492  -3.075  13.127  1.00  0.00     0.074 A 
ATOM     58  C   UNL     1       7.106   2.406  15.953  1.00  0.00     0.029 A 
ATOM     59  N   UNL     1       7.008   0.508  14.800  1.00  0.00    -0.354 N 
ATOM     60  N   UNL     1       8.105  -1.957  13.691  1.00  0.00    -0.248 NA
ATOM     61  C   UNL     1       9.659  -3.705  13.759  1.00  0.00     0.031 C 
ATOM     62  C   UNL     1       8.248   1.645  16.250  1.00  0.00     0.029 A 
ATOM     63  C   UNL     1       8.172   0.454  15.547  1.00  0.00     0.049 A 
ATOM     64  H   UNL     1       6.709  -0.187  14.171  1.00  0.00     0.167 HD
ATOM     65  C   UNL     1       9.002  -1.730  14.726  1.00  0.00     0.074 A 
ATOM     66  C   UNL     1       9.927  -2.846  14.736  1.00  0.00     0.031 C 
ATOM     67  C   UNL     1       9.069  -0.671  15.569  1.00  0.00     0.031 A 
BRANCH  54  68
ATOM     68  C   UNL     1       4.342   3.256  14.978  1.00  0.00    -0.014 A 
ATOM     69  C   UNL     1       3.400   3.245  16.018  1.00  0.00     0.010 A 
ATOM     70  C   UNL     1       4.617   4.460  14.303  1.00  0.00     0.010 A 
ATOM     71  C   UNL     1       2.706   4.413  16.350  1.00  0.00     0.020 A 
ATOM     72  C   UNL     1       3.930   5.628  14.635  1.00  0.00     0.020 A 
ATOM     73  C   UNL     1       2.962   5.592  15.642  1.00  0.00     0.054 A 
BRANCH  73  74
ATOM     74  S   UNL     1       2.042   7.109  16.019  1.00  0.00     0.124 S 
ATOM     75  O   UNL     1       1.085   7.159  14.916  1.00  0.00    -0.237 OA
ATOM     76  O   UNL     1       1.464   6.843  17.334  1.00  0.00    -0.237 OA
ATOM     77  O   UNL     1       3.082   8.135  15.995  1.00  0.00    -0.744 OA
ENDBRANCH  73  74
ENDBRANCH  54  68
BRANCH  55  78
ATOM     78  C   UNL     1       8.572  -4.954  11.338  1.00  0.00    -0.014 A 
ATOM     79  C   UNL     1       8.200  -6.237  11.772  1.00  0.00     0.010 A 
ATOM     80  C   UNL     1       9.495  -4.815  10.290  1.00  0.00     0.010 A 
ATOM     81  C   UNL     1       8.732  -7.371  11.154  1.00  0.00     0.020 A 
ATOM     82  C   UNL     1      10.024  -5.948   9.666  1.00  0.00     0.020 A 
ATOM     83  C   UNL     1       9.638  -7.219  10.101  1.00  0.00     0.054 A 
BRANCH  83  84
ATOM     84  S   UNL     1      10.247  -8.682   9.217  1.00  0.00     0.124 S 
ATOM     85  O   UNL     1      11.521  -8.930   9.883  1.00  0.00    -0.237 OA
ATOM     86  O   UNL     1       9.204  -9.677   9.460  1.00  0.00    -0.237 OA
ATOM     87  O   UNL     1      10.335  -8.214   7.836  1.00  0.00    -0.744 OA
ENDBRANCH  83  84
ENDBRANCH  55  78
BRANCH  67  88
ATOM     88  C   UNL     1      10.181  -0.677  16.574  1.00  0.00    -0.014 A 
ATOM     89  C   UNL     1      11.430  -0.120  16.250  1.00  0.00     0.010 A 
ATOM     90  C   UNL     1       9.980  -1.237  17.847  1.00  0.00     0.010 A 
ATOM     91  C   UNL     1      12.473  -0.140  17.179  1.00  0.00     0.020 A 
ATOM     92  C   UNL     1      11.022  -1.259  18.778  1.00  0.00     0.020 A 
ATOM     93  C   UNL     1      12.266  -0.722  18.433  1.00  0.00     0.054 A 
BRANCH  93  94
ATOM     94  S   UNL     1      13.616  -0.733  19.646  1.00  0.00     0.124 S 
ATOM     95  O   UNL     1      14.291  -1.989  19.334  1.00  0.00    -0.237 OA
ATOM     96  O   UNL     1      14.364   0.479  19.324  1.00  0.00    -0.237 OA
ATOM     97  O   UNL     1      12.915  -0.701  20.928  1.00  0.00    -0.744 OA
ENDBRANCH  93  94
ENDBRANCH  67  88
ENDBRANCH  41  42
ENDBRANCH  33  36
ENDBRANCH  31  32
ENDBRANCH   1  31
TORSDOF 17
