REMARK SMILES NC(=O)C[C@@H](CC(=O)NCCCNC(=O)c1ccc(-c2c3nc(c(-c4ccc(S(=O)(=O)[O-])cc4)c4ccc([nH]4)c(-c4ccc(S(=O)(=O)[O-])cc4)c4nc(c(-c5ccc(S(=O)(=O)[O-])cc5)c5ccc2[nH]5)C=C4)C=C3)cc1)c1cccc(Br)c1
REMARK SMILES IDX 11 1 10 2 9 3 7 4 8 5 6 7 5 8 4 9 2 10 1 11 3 14 76 15 77 16
REMARK SMILES IDX 82 17 78 18 80 19 79 20 81 21 12 22 13 23 14 24 15 26 16 27
REMARK SMILES IDX 17 28 75 29 18 30 74 31 19 32 20 33 21 34 68 35 22 36 73 37
REMARK SMILES IDX 67 38 69 39 23 40 72 41 66 42 65 43 24 45 54 46 35 47 53 48
REMARK SMILES IDX 36 49 39 50 52 51 70 52 37 53 38 54 51 56 71 57 40 58 25 59
REMARK SMILES IDX 26 60 34 61 27 62 33 63 28 64 29 65 30 66 31 67 32 68 55 69
REMARK SMILES IDX 56 70 64 71 57 72 63 73 58 74 59 75 60 76 61 77 62 78 41 79
REMARK SMILES IDX 42 80 50 81 43 82 49 83 44 84 45 85 46 86 47 87 48 88
REMARK H PARENT 9 6 1 12 1 13 13 25 69 44 39 55
REMARK Flexibility Score: inf
ROOT
ATOM      1  C   UNL     1       1.568  -2.436   2.287  1.00  0.00     0.042 C 
ENDROOT
BRANCH   1   2
ATOM      2  C   UNL     1       2.203  -1.202   1.668  1.00  0.00     0.117 C 
BRANCH   2   3
ATOM      3  N   UNL     1       3.528  -1.463   1.163  1.00  0.00    -0.356 N 
ATOM      4  C   UNL     1       4.002  -1.473  -0.104  1.00  0.00     0.220 C 
ATOM      5  O   UNL     1       5.230  -1.498  -0.235  1.00  0.00    -0.275 OA
ATOM      6  H   UNL     1       4.198  -1.667   1.854  1.00  0.00     0.163 HD
BRANCH   4   7
ATOM      7  C   UNL     1       3.105  -1.364  -1.334  1.00  0.00     0.108 C 
BRANCH   7   8
ATOM      8  C   UNL     1       2.150  -2.518  -1.747  1.00  0.00     0.038 C 
BRANCH   8   9
ATOM      9  C   UNL     1       0.721  -2.471  -1.142  1.00  0.00     0.108 C 
BRANCH   9  10
ATOM     10  C   UNL     1      -0.244  -1.300  -1.298  1.00  0.00     0.218 C 
ATOM     11  N   UNL     1       0.130  -0.027  -1.040  1.00  0.00    -0.370 N 
ATOM     12  H   UNL     1      -0.516   0.707  -1.151  1.00  0.00     0.159 HD
ATOM     13  H   UNL     1       1.048   0.166  -0.743  1.00  0.00     0.159 HD
ATOM     14  O   UNL     1      -1.434  -1.496  -1.550  1.00  0.00    -0.275 OA
ENDBRANCH   9  10
ENDBRANCH   8   9
BRANCH   8  15
ATOM     15  C   UNL     1       2.795  -3.929  -1.655  1.00  0.00    -0.043 A 
ATOM     16  C   UNL     1       2.017  -5.104  -1.588  1.00  0.00     0.004 A 
ATOM     17  C   UNL     1       4.191  -4.116  -1.694  1.00  0.00     0.019 A 
ATOM     18  C   UNL     1       2.597  -6.375  -1.478  1.00  0.00     0.001 A 
ATOM     19  C   UNL     1       4.770  -5.383  -1.549  1.00  0.00     0.018 A 
ATOM     20  C   UNL     1       3.977  -6.516  -1.434  1.00  0.00     0.016 A 
ATOM     21  Br  UNL     1       6.654  -5.553  -1.496  1.00  0.00    -0.051 Br
ENDBRANCH   8  15
ENDBRANCH   7   8
ENDBRANCH   4   7
ENDBRANCH   2   3
ENDBRANCH   1   2
BRANCH   1  22
ATOM     22  C   UNL     1       2.079  -2.750   3.680  1.00  0.00     0.118 C 
BRANCH  22  23
ATOM     23  N   UNL     1       1.697  -1.735   4.651  1.00  0.00    -0.352 N 
ATOM     24  C   UNL     1       0.915  -1.833   5.772  1.00  0.00     0.251 C 
ATOM     25  H   UNL     1       2.058  -0.836   4.474  1.00  0.00     0.163 HD
ATOM     26  O   UNL     1       0.549  -0.796   6.333  1.00  0.00    -0.269 OA
BRANCH  24  27
ATOM     27  C   UNL     1       0.504  -3.149   6.306  1.00  0.00     0.039 A 
ATOM     28  C   UNL     1      -0.747  -3.275   6.916  1.00  0.00     0.014 A 
ATOM     29  C   UNL     1       1.361  -4.252   6.254  1.00  0.00     0.014 A 
ATOM     30  C   UNL     1      -1.145  -4.507   7.441  1.00  0.00     0.010 A 
ATOM     31  C   UNL     1       0.916  -5.503   6.665  1.00  0.00     0.010 A 
ATOM     32  C   UNL     1      -0.323  -5.637   7.303  1.00  0.00    -0.014 A 
BRANCH  32  33
ATOM     33  C   UNL     1      -0.702  -6.948   7.886  1.00  0.00     0.031 A 
ATOM     34  C   UNL     1       0.170  -7.573   8.948  1.00  0.00     0.074 A 
ATOM     35  C   UNL     1      -1.796  -7.594   7.437  1.00  0.00     0.049 A 
ATOM     36  N   UNL     1       0.036  -8.725   9.554  1.00  0.00    -0.248 NA
ATOM     37  C   UNL     1       1.368  -6.821   9.359  1.00  0.00     0.031 C 
ATOM     38  C   UNL     1      -2.690  -7.116   6.380  1.00  0.00     0.029 A 
ATOM     39  N   UNL     1      -2.343  -8.793   7.817  1.00  0.00    -0.354 N 
ATOM     40  C   UNL     1       1.141  -8.843  10.391  1.00  0.00     0.074 A 
ATOM     41  C   UNL     1       1.969  -7.680  10.167  1.00  0.00     0.031 C 
ATOM     42  C   UNL     1      -3.696  -7.993   6.226  1.00  0.00     0.029 A 
ATOM     43  C   UNL     1      -3.498  -9.111   7.142  1.00  0.00     0.049 A 
ATOM     44  H   UNL     1      -1.946  -9.372   8.508  1.00  0.00     0.167 HD
ATOM     45  C   UNL     1       1.429  -9.814  11.290  1.00  0.00     0.031 A 
ATOM     46  C   UNL     1      -4.308 -10.181   7.254  1.00  0.00     0.031 A 
ATOM     47  C   UNL     1       0.587 -10.954  11.530  1.00  0.00     0.049 A 
ATOM     48  C   UNL     1      -3.981 -11.237   8.275  1.00  0.00     0.074 A 
ATOM     49  C   UNL     1       0.752 -11.969  12.456  1.00  0.00     0.029 A 
ATOM     50  N   UNL     1      -0.587 -11.226  10.842  1.00  0.00    -0.354 N 
ATOM     51  N   UNL     1      -2.961 -11.301   9.099  1.00  0.00    -0.248 NA
ATOM     52  C   UNL     1      -4.927 -12.353   8.396  1.00  0.00     0.031 C 
ATOM     53  C   UNL     1      -0.296 -12.880  12.294  1.00  0.00     0.029 A 
ATOM     54  C   UNL     1      -1.149 -12.400  11.312  1.00  0.00     0.049 A 
ATOM     55  H   UNL     1      -0.964 -10.667  10.125  1.00  0.00     0.167 HD
ATOM     56  C   UNL     1      -3.162 -12.447   9.860  1.00  0.00     0.074 A 
ATOM     57  C   UNL     1      -4.408 -13.033   9.408  1.00  0.00     0.031 C 
ATOM     58  C   UNL     1      -2.389 -12.968  10.846  1.00  0.00     0.031 A 
BRANCH  45  59
ATOM     59  C   UNL     1       2.706  -9.677  12.079  1.00  0.00    -0.014 A 
ATOM     60  C   UNL     1       2.868  -8.654  13.033  1.00  0.00     0.010 A 
ATOM     61  C   UNL     1       3.753 -10.595  11.881  1.00  0.00     0.010 A 
ATOM     62  C   UNL     1       4.068  -8.524  13.737  1.00  0.00     0.020 A 
ATOM     63  C   UNL     1       4.943 -10.488  12.607  1.00  0.00     0.020 A 
ATOM     64  C   UNL     1       5.100  -9.441  13.518  1.00  0.00     0.054 A 
BRANCH  64  65
ATOM     65  S   UNL     1       6.638  -9.259  14.461  1.00  0.00     0.124 S 
ATOM     66  O   UNL     1       7.237  -8.082  13.835  1.00  0.00    -0.237 OA
ATOM     67  O   UNL     1       6.156  -9.066  15.826  1.00  0.00    -0.237 OA
ATOM     68  O   UNL     1       7.342 -10.516  14.223  1.00  0.00    -0.744 OA
ENDBRANCH  64  65
ENDBRANCH  45  59
BRANCH  46  69
ATOM     69  C   UNL     1      -5.525 -10.287   6.402  1.00  0.00    -0.014 A 
ATOM     70  C   UNL     1      -6.806 -10.153   6.966  1.00  0.00     0.010 A 
ATOM     71  C   UNL     1      -5.409 -10.512   5.018  1.00  0.00     0.010 A 
ATOM     72  C   UNL     1      -7.948 -10.268   6.168  1.00  0.00     0.020 A 
ATOM     73  C   UNL     1      -6.547 -10.597   4.212  1.00  0.00     0.020 A 
ATOM     74  C   UNL     1      -7.811 -10.489   4.795  1.00  0.00     0.054 A 
BRANCH  74  75
ATOM     75  S   UNL     1      -9.306 -10.591   3.772  1.00  0.00     0.124 S 
ATOM     76  O   UNL     1      -9.845 -11.893   4.151  1.00  0.00    -0.237 OA
ATOM     77  O   UNL     1     -10.075  -9.432   4.220  1.00  0.00    -0.237 OA
ATOM     78  O   UNL     1      -8.793 -10.498   2.407  1.00  0.00    -0.744 OA
ENDBRANCH  74  75
ENDBRANCH  46  69
BRANCH  58  79
ATOM     79  C   UNL     1      -2.895 -14.208  11.534  1.00  0.00    -0.014 A 
ATOM     80  C   UNL     1      -2.936 -15.450  10.875  1.00  0.00     0.010 A 
ATOM     81  C   UNL     1      -3.317 -14.129  12.874  1.00  0.00     0.010 A 
ATOM     82  C   UNL     1      -3.441 -16.578  11.526  1.00  0.00     0.020 A 
ATOM     83  C   UNL     1      -3.791 -15.261  13.539  1.00  0.00     0.020 A 
ATOM     84  C   UNL     1      -3.872 -16.474  12.853  1.00  0.00     0.054 A 
BRANCH  84  85
ATOM     85  S   UNL     1      -4.519 -17.952  13.679  1.00  0.00     0.124 S 
ATOM     86  O   UNL     1      -5.834 -18.094  13.060  1.00  0.00    -0.237 OA
ATOM     87  O   UNL     1      -3.541 -18.976  13.319  1.00  0.00    -0.237 OA
ATOM     88  O   UNL     1      -4.533 -17.581  15.092  1.00  0.00    -0.744 OA
ENDBRANCH  84  85
ENDBRANCH  58  79
ENDBRANCH  32  33
ENDBRANCH  24  27
ENDBRANCH  22  23
ENDBRANCH   1  22
TORSDOF 17
