REMARK SMILES CC(C)n1ccc(Cn2cc(C(=O)NCCCNC(=O)c3ccc(-c4c5nc(c(-c6ccc(S(=O)(=O)[O-])cc6)c6ccc([nH]6)c(-c6ccc(S(=O)(=O)[O-])cc6)c6nc(c(-c7ccc(S(=O)(=O)[O-])cc7)c7ccc4[nH]7)C=C6)C=C5)cc3)cc2Br)n1
REMARK SMILES IDX 16 1 15 2 14 3 12 4 13 5 11 7 9 8 10 9 82 10 81 11 83 12
REMARK SMILES IDX 8 13 7 14 4 15 5 16 84 17 6 18 2 19 1 20 3 21 17 22 18 23
REMARK SMILES IDX 19 24 20 26 21 27 22 28 80 29 23 30 79 31 24 32 25 33 26 34
REMARK SMILES IDX 73 35 27 36 78 37 72 38 74 39 28 40 77 41 71 42 70 43 29 45
REMARK SMILES IDX 59 46 40 47 58 48 41 49 44 50 57 51 75 52 42 53 43 54 56 56
REMARK SMILES IDX 76 57 45 58 30 59 31 60 39 61 32 62 38 63 33 64 34 65 35 66
REMARK SMILES IDX 36 67 37 68 60 69 61 70 69 71 62 72 68 73 63 74 64 75 65 76
REMARK SMILES IDX 66 77 67 78 46 79 47 80 55 81 48 82 54 83 49 84 50 85 51 86
REMARK SMILES IDX 52 87 53 88
REMARK H PARENT 14 6 18 25 74 44 44 55
REMARK Flexibility Score: inf
ROOT
ATOM      1  C   UNL     1      -6.909  -1.469  -1.376  1.00  0.00     0.042 C 
ENDROOT
BRANCH   1   2
ATOM      2  C   UNL     1      -6.140  -1.237  -2.683  1.00  0.00     0.118 C 
BRANCH   2   3
ATOM      3  N   UNL     1      -6.933  -0.541  -3.683  1.00  0.00    -0.352 N 
ATOM      4  C   UNL     1      -6.957   0.784  -4.056  1.00  0.00     0.252 C 
ATOM      5  O   UNL     1      -7.594   1.083  -5.059  1.00  0.00    -0.269 OA
ATOM      6  H   UNL     1      -7.560  -1.116  -4.178  1.00  0.00     0.163 HD
BRANCH   4   7
ATOM      7  C   UNL     1      -6.190   1.785  -3.317  1.00  0.00     0.058 A 
ATOM      8  N   UNL     1      -4.882   2.815  -1.808  1.00  0.00    -0.335 N 
ATOM      9  C   UNL     1      -5.758   1.768  -2.003  1.00  0.00     0.101 A 
ATOM     10  C   UNL     1      -4.993   3.666  -2.872  1.00  0.00     0.086 A 
ATOM     11  C   UNL     1      -5.780   3.059  -3.825  1.00  0.00     0.049 A 
ATOM     12  Br  UNL     1      -4.210   5.349  -3.074  1.00  0.00    -0.031 Br
BRANCH   8  13
ATOM     13  C   UNL     1      -4.021   2.945  -0.636  1.00  0.00     0.180 C 
BRANCH  13  14
ATOM     14  C   UNL     1      -2.923   1.917  -0.649  1.00  0.00     0.082 A 
ATOM     15  N   UNL     1      -0.951   1.113  -0.693  1.00  0.00    -0.270 N 
ATOM     16  C   UNL     1      -1.766   0.020  -0.653  1.00  0.00     0.109 A 
ATOM     17  N   UNL     1      -1.631   2.280  -0.687  1.00  0.00    -0.176 NA
ATOM     18  C   UNL     1      -3.047   0.506  -0.579  1.00  0.00     0.047 A 
BRANCH  15  19
ATOM     19  C   UNL     1       0.509   1.133  -0.735  1.00  0.00     0.101 C 
ATOM     20  C   UNL     1       1.146   0.015   0.095  1.00  0.00     0.033 C 
ATOM     21  C   UNL     1       1.013   1.095  -2.176  1.00  0.00     0.033 C 
ENDBRANCH  15  19
ENDBRANCH  13  14
ENDBRANCH   8  13
ENDBRANCH   4   7
ENDBRANCH   2   3
ENDBRANCH   1   2
BRANCH   1  22
ATOM     22  C   UNL     1      -7.812  -2.685  -1.467  1.00  0.00     0.118 C 
BRANCH  22  23
ATOM     23  N   UNL     1      -7.066  -3.955  -1.492  1.00  0.00    -0.352 N 
ATOM     24  C   UNL     1      -7.557  -5.256  -1.566  1.00  0.00     0.251 C 
ATOM     25  H   UNL     1      -6.086  -3.873  -1.452  1.00  0.00     0.163 HD
ATOM     26  O   UNL     1      -6.865  -6.206  -1.246  1.00  0.00    -0.269 OA
BRANCH  24  27
ATOM     27  C   UNL     1      -8.935  -5.446  -2.057  1.00  0.00     0.039 A 
ATOM     28  C   UNL     1      -9.820  -6.407  -1.560  1.00  0.00     0.014 A 
ATOM     29  C   UNL     1      -9.348  -4.547  -3.024  1.00  0.00     0.014 A 
ATOM     30  C   UNL     1     -11.135  -6.396  -2.028  1.00  0.00     0.010 A 
ATOM     31  C   UNL     1     -10.674  -4.317  -3.186  1.00  0.00     0.010 A 
ATOM     32  C   UNL     1     -11.545  -5.333  -2.846  1.00  0.00    -0.014 A 
BRANCH  32  33
ATOM     33  C   UNL     1     -12.886  -5.172  -3.376  1.00  0.00     0.031 A 
ATOM     34  C   UNL     1     -13.931  -5.005  -2.343  1.00  0.00     0.074 A 
ATOM     35  C   UNL     1     -13.096  -4.881  -4.681  1.00  0.00     0.049 A 
ATOM     36  N   UNL     1     -14.836  -5.859  -2.007  1.00  0.00    -0.248 NA
ATOM     37  C   UNL     1     -13.863  -3.826  -1.464  1.00  0.00     0.031 C 
ATOM     38  C   UNL     1     -12.111  -4.661  -5.755  1.00  0.00     0.029 A 
ATOM     39  N   UNL     1     -14.262  -4.581  -5.302  1.00  0.00    -0.354 N 
ATOM     40  C   UNL     1     -15.606  -5.229  -1.038  1.00  0.00     0.074 A 
ATOM     41  C   UNL     1     -14.835  -4.096  -0.590  1.00  0.00     0.031 C 
ATOM     42  C   UNL     1     -12.702  -4.037  -6.799  1.00  0.00     0.029 A 
ATOM     43  C   UNL     1     -14.129  -3.978  -6.548  1.00  0.00     0.049 A 
ATOM     44  H   UNL     1     -15.139  -4.777  -4.901  1.00  0.00     0.167 HD
ATOM     45  C   UNL     1     -16.924  -5.531  -0.874  1.00  0.00     0.031 A 
ATOM     46  C   UNL     1     -15.129  -3.448  -7.301  1.00  0.00     0.031 A 
ATOM     47  C   UNL     1     -17.293  -6.705  -1.629  1.00  0.00     0.049 A 
ATOM     48  C   UNL     1     -16.389  -4.069  -6.813  1.00  0.00     0.074 A 
ATOM     49  C   UNL     1     -16.885  -8.024  -1.628  1.00  0.00     0.029 A 
ATOM     50  N   UNL     1     -17.888  -6.494  -2.854  1.00  0.00    -0.354 N 
ATOM     51  N   UNL     1     -16.630  -5.349  -6.906  1.00  0.00    -0.248 NA
ATOM     52  C   UNL     1     -17.132  -3.372  -5.774  1.00  0.00     0.031 C 
ATOM     53  C   UNL     1     -16.805  -8.381  -3.008  1.00  0.00     0.029 A 
ATOM     54  C   UNL     1     -17.252  -7.297  -3.768  1.00  0.00     0.049 A 
ATOM     55  H   UNL     1     -18.634  -5.879  -3.040  1.00  0.00     0.167 HD
ATOM     56  C   UNL     1     -17.199  -5.697  -5.688  1.00  0.00     0.074 A 
ATOM     57  C   UNL     1     -17.566  -4.421  -5.068  1.00  0.00     0.031 C 
ATOM     58  C   UNL     1     -17.053  -6.952  -5.164  1.00  0.00     0.031 A 
BRANCH  45  59
ATOM     59  C   UNL     1     -17.956  -4.557  -0.368  1.00  0.00    -0.014 A 
ATOM     60  C   UNL     1     -19.267  -5.021  -0.142  1.00  0.00     0.010 A 
ATOM     61  C   UNL     1     -17.758  -3.161  -0.351  1.00  0.00     0.010 A 
ATOM     62  C   UNL     1     -20.334  -4.129   0.024  1.00  0.00     0.020 A 
ATOM     63  C   UNL     1     -18.806  -2.264  -0.144  1.00  0.00     0.020 A 
ATOM     64  C   UNL     1     -20.096  -2.755   0.007  1.00  0.00     0.054 A 
BRANCH  64  65
ATOM     65  S   UNL     1     -21.494  -1.613   0.112  1.00  0.00     0.124 S 
ATOM     66  O   UNL     1     -22.204  -1.893  -1.132  1.00  0.00    -0.237 OA
ATOM     67  O   UNL     1     -22.160  -2.053   1.335  1.00  0.00    -0.237 OA
ATOM     68  O   UNL     1     -20.859  -0.300   0.192  1.00  0.00    -0.744 OA
ENDBRANCH  64  65
ENDBRANCH  45  59
BRANCH  46  69
ATOM     69  C   UNL     1     -15.090  -2.212  -8.130  1.00  0.00    -0.014 A 
ATOM     70  C   UNL     1     -16.116  -1.904  -9.044  1.00  0.00     0.010 A 
ATOM     71  C   UNL     1     -14.174  -1.187  -7.814  1.00  0.00     0.010 A 
ATOM     72  C   UNL     1     -16.254  -0.605  -9.573  1.00  0.00     0.020 A 
ATOM     73  C   UNL     1     -14.304   0.108  -8.337  1.00  0.00     0.020 A 
ATOM     74  C   UNL     1     -15.358   0.400  -9.197  1.00  0.00     0.054 A 
BRANCH  74  75
ATOM     75  S   UNL     1     -15.649   2.115  -9.736  1.00  0.00     0.124 S 
ATOM     76  O   UNL     1     -15.349   2.049 -11.163  1.00  0.00    -0.237 OA
ATOM     77  O   UNL     1     -17.053   2.323  -9.395  1.00  0.00    -0.237 OA
ATOM     78  O   UNL     1     -14.701   2.892  -8.938  1.00  0.00    -0.744 OA
ENDBRANCH  74  75
ENDBRANCH  46  69
BRANCH  58  79
ATOM     79  C   UNL     1     -16.421  -8.025  -6.032  1.00  0.00    -0.014 A 
ATOM     80  C   UNL     1     -15.087  -7.978  -6.489  1.00  0.00     0.010 A 
ATOM     81  C   UNL     1     -17.149  -9.208  -6.242  1.00  0.00     0.010 A 
ATOM     82  C   UNL     1     -14.508  -9.074  -7.151  1.00  0.00     0.020 A 
ATOM     83  C   UNL     1     -16.575 -10.309  -6.887  1.00  0.00     0.020 A 
ATOM     84  C   UNL     1     -15.259 -10.236  -7.345  1.00  0.00     0.054 A 
BRANCH  84  85
ATOM     85  S   UNL     1     -14.497 -11.671  -8.156  1.00  0.00     0.124 S 
ATOM     86  O   UNL     1     -14.325 -11.207  -9.530  1.00  0.00    -0.237 OA
ATOM     87  O   UNL     1     -13.262 -11.858  -7.397  1.00  0.00    -0.237 OA
ATOM     88  O   UNL     1     -15.486 -12.735  -7.983  1.00  0.00    -0.744 OA
ENDBRANCH  84  85
ENDBRANCH  58  79
ENDBRANCH  32  33
ENDBRANCH  24  27
ENDBRANCH  22  23
ENDBRANCH   1  22
TORSDOF 16
