REMARK SMILES Cc1ncc(CC(=O)N2CCc3c(c(C(=O)NCCCNC(=O)c4ccc(-c5c6nc(c(-c7ccc(S(=O)(=O)[O-])cc7)c7ccc([nH]7)c(-c7ccc(S(=O)(=O)[O-])cc7)c7nc(c(-c8ccc(S(=O)(=O)[O-])cc8)c8ccc5[nH]8)C=C7)C=C6)cc4)nn3CC3CC3)C2)c(=O)[nH]1
REMARK SMILES IDX 19 1 18 2 17 3 15 4 16 5 14 7 9 8 10 9 90 10 11 11 13 12
REMARK SMILES IDX 12 13 85 14 84 15 7 16 8 17 6 18 5 19 1 20 2 21 3 22 93 23
REMARK SMILES IDX 4 24 91 25 92 27 86 28 87 29 88 30 89 31 20 32 21 33 22 34
REMARK SMILES IDX 23 36 24 37 25 38 83 39 26 40 82 41 27 42 28 43 29 44 76 45
REMARK SMILES IDX 30 46 81 47 75 48 77 49 31 50 80 51 74 52 73 53 32 55 62 56
REMARK SMILES IDX 43 57 61 58 44 59 47 60 60 61 78 62 45 63 46 64 59 66 79 67
REMARK SMILES IDX 48 68 33 69 34 70 42 71 35 72 41 73 36 74 37 75 38 76 39 77
REMARK SMILES IDX 40 78 63 79 64 80 72 81 65 82 71 83 66 84 67 85 68 86 69 87
REMARK SMILES IDX 70 88 49 89 50 90 58 91 51 92 57 93 52 94 53 95 54 96 55 97
REMARK SMILES IDX 56 98
REMARK H PARENT 17 6 93 26 21 35 77 54 47 65
REMARK Flexibility Score: inf
ROOT
ATOM      1  C   UNL     1       0.963   6.936   8.546  1.00  0.00     0.042 C 
ENDROOT
BRANCH   1   2
ATOM      2  C   UNL     1       1.637   7.231   7.201  1.00  0.00     0.118 C 
BRANCH   2   3
ATOM      3  N   UNL     1       2.795   6.382   6.933  1.00  0.00    -0.351 N 
ATOM      4  C   UNL     1       2.933   5.293   6.099  1.00  0.00     0.272 C 
ATOM      5  O   UNL     1       4.069   4.815   5.965  1.00  0.00    -0.267 OA
ATOM      6  H   UNL     1       3.609   6.628   7.428  1.00  0.00     0.163 HD
BRANCH   4   7
ATOM      7  C   UNL     1       1.778   4.707   5.401  1.00  0.00     0.155 A 
ATOM      8  N   UNL     1       2.337   2.004   2.788  1.00  0.00    -0.338 N 
ATOM      9  C   UNL     1       1.072   1.317   3.098  1.00  0.00     0.126 C 
ATOM     10  C   UNL     1       2.909   2.786   3.916  1.00  0.00     0.159 C 
ATOM     11  C   UNL     1      -0.066   2.331   3.296  1.00  0.00     0.078 C 
ATOM     12  C   UNL     1       1.785   3.615   4.482  1.00  0.00     0.026 A 
ATOM     13  C   UNL     1       0.449   3.396   4.189  1.00  0.00     0.046 A 
ATOM     14  N   UNL     1      -0.262   4.338   4.853  1.00  0.00    -0.268 N 
ATOM     15  N   UNL     1       0.517   5.149   5.579  1.00  0.00    -0.167 NA
BRANCH   8  16
ATOM     16  C   UNL     1       3.028   1.975   1.590  1.00  0.00     0.227 C 
ATOM     17  O   UNL     1       4.250   2.157   1.563  1.00  0.00    -0.275 OA
BRANCH  16  18
ATOM     18  C   UNL     1       2.270   2.023   0.246  1.00  0.00     0.143 C 
BRANCH  18  19
ATOM     19  C   UNL     1       1.065   1.177   0.019  1.00  0.00     0.045 A 
ATOM     20  C   UNL     1      -2.356  -1.300  -0.088  1.00  0.00     0.087 C 
ATOM     21  C   UNL     1      -1.168  -0.385  -0.116  1.00  0.00     0.105 A 
ATOM     22  N   UNL     1      -1.320   0.897  -0.186  1.00  0.00    -0.243 NA
ATOM     23  N   UNL     1       0.052  -0.994  -0.047  1.00  0.00    -0.311 N 
ATOM     24  C   UNL     1      -0.180   1.654  -0.131  1.00  0.00     0.123 A 
ATOM     25  C   UNL     1       1.221  -0.290  -0.026  1.00  0.00     0.254 A 
ATOM     26  H   UNL     1       0.089  -1.978  -0.011  1.00  0.00     0.171 HD
ATOM     27  O   UNL     1       2.313  -0.842  -0.018  1.00  0.00    -0.269 OA
ENDBRANCH  18  19
ENDBRANCH  16  18
ENDBRANCH   8  16
BRANCH  14  28
ATOM     28  C   UNL     1      -1.698   4.574   4.830  1.00  0.00     0.148 C 
BRANCH  28  29
ATOM     29  C   UNL     1      -2.434   4.125   6.064  1.00  0.00     0.011 C 
ATOM     30  C   UNL     1      -1.772   3.614   7.327  1.00  0.00     0.006 C 
ATOM     31  C   UNL     1      -2.385   4.984   7.307  1.00  0.00     0.006 C 
ENDBRANCH  28  29
ENDBRANCH  14  28
ENDBRANCH   4   7
ENDBRANCH   2   3
ENDBRANCH   1   2
BRANCH   1  32
ATOM     32  C   UNL     1       1.678   7.652   9.679  1.00  0.00     0.118 C 
BRANCH  32  33
ATOM     33  N   UNL     1       1.533   9.123   9.618  1.00  0.00    -0.352 N 
ATOM     34  C   UNL     1       1.999  10.107  10.481  1.00  0.00     0.251 C 
ATOM     35  H   UNL     1       1.026   9.457   8.843  1.00  0.00     0.163 HD
ATOM     36  O   UNL     1       1.538  11.243  10.435  1.00  0.00    -0.269 OA
BRANCH  34  37
ATOM     37  C   UNL     1       3.059   9.769  11.447  1.00  0.00     0.039 A 
ATOM     38  C   UNL     1       3.196  10.347  12.714  1.00  0.00     0.014 A 
ATOM     39  C   UNL     1       3.927   8.771  11.054  1.00  0.00     0.014 A 
ATOM     40  C   UNL     1       4.225   9.889  13.541  1.00  0.00     0.010 A 
ATOM     41  C   UNL     1       4.561   8.056  12.009  1.00  0.00     0.010 A 
ATOM     42  C   UNL     1       4.922   8.745  13.146  1.00  0.00    -0.014 A 
BRANCH  42  43
ATOM     43  C   UNL     1       6.043   8.150  13.849  1.00  0.00     0.031 A 
ATOM     44  C   UNL     1       5.641   7.392  15.052  1.00  0.00     0.074 A 
ATOM     45  C   UNL     1       7.233   7.973  13.225  1.00  0.00     0.049 A 
ATOM     46  N   UNL     1       5.776   7.755  16.283  1.00  0.00    -0.248 NA
ATOM     47  C   UNL     1       4.787   6.202  14.871  1.00  0.00     0.031 C 
ATOM     48  C   UNL     1       7.609   8.313  11.843  1.00  0.00     0.029 A 
ATOM     49  N   UNL     1       8.326   7.294  13.653  1.00  0.00    -0.354 N 
ATOM     50  C   UNL     1       5.265   6.700  17.028  1.00  0.00     0.074 A 
ATOM     51  C   UNL     1       4.418   5.962  16.130  1.00  0.00     0.031 C 
ATOM     52  C   UNL     1       8.714   7.616  11.489  1.00  0.00     0.029 A 
ATOM     53  C   UNL     1       9.197   6.885  12.648  1.00  0.00     0.049 A 
ATOM     54  H   UNL     1       8.492   7.104  14.605  1.00  0.00     0.167 HD
ATOM     55  C   UNL     1       5.838   6.317  18.205  1.00  0.00     0.031 A 
ATOM     56  C   UNL     1      10.174   5.942  12.757  1.00  0.00     0.031 A 
ATOM     57  C   UNL     1       6.853   7.260  18.617  1.00  0.00     0.049 A 
ATOM     58  C   UNL     1      10.443   5.783  14.217  1.00  0.00     0.074 A 
ATOM     59  C   UNL     1       6.873   8.622  18.851  1.00  0.00     0.029 A 
ATOM     60  N   UNL     1       8.165   6.895  18.392  1.00  0.00    -0.354 N 
ATOM     61  N   UNL     1      10.914   6.747  14.964  1.00  0.00    -0.248 NA
ATOM     62  C   UNL     1       9.694   4.759  14.935  1.00  0.00     0.031 C 
ATOM     63  C   UNL     1       8.090   9.072  18.259  1.00  0.00     0.029 A 
ATOM     64  C   UNL     1       8.794   7.957  17.796  1.00  0.00     0.049 A 
ATOM     65  H   UNL     1       8.574   6.028  18.619  1.00  0.00     0.167 HD
ATOM     66  C   UNL     1      10.160   6.700  16.131  1.00  0.00     0.074 A 
ATOM     67  C   UNL     1       9.484   5.401  16.090  1.00  0.00     0.031 C 
ATOM     68  C   UNL     1       9.895   7.829  16.860  1.00  0.00     0.031 A 
BRANCH  55  69
ATOM     69  C   UNL     1       5.822   4.904  18.744  1.00  0.00    -0.014 A 
ATOM     70  C   UNL     1       6.463   4.660  19.976  1.00  0.00     0.010 A 
ATOM     71  C   UNL     1       5.446   3.773  17.990  1.00  0.00     0.010 A 
ATOM     72  C   UNL     1       6.809   3.364  20.373  1.00  0.00     0.020 A 
ATOM     73  C   UNL     1       5.745   2.472  18.399  1.00  0.00     0.020 A 
ATOM     74  C   UNL     1       6.464   2.280  19.569  1.00  0.00     0.054 A 
BRANCH  74  75
ATOM     75  S   UNL     1       7.024   0.624  20.027  1.00  0.00     0.124 S 
ATOM     76  O   UNL     1       8.470   0.746  19.874  1.00  0.00    -0.237 OA
ATOM     77  O   UNL     1       6.537   0.504  21.399  1.00  0.00    -0.237 OA
ATOM     78  O   UNL     1       6.359  -0.242  19.056  1.00  0.00    -0.744 OA
ENDBRANCH  74  75
ENDBRANCH  55  69
BRANCH  56  79
ATOM     79  C   UNL     1      10.549   4.922  11.727  1.00  0.00    -0.014 A 
ATOM     80  C   UNL     1      11.645   4.051  11.898  1.00  0.00     0.010 A 
ATOM     81  C   UNL     1       9.660   4.625  10.671  1.00  0.00     0.010 A 
ATOM     82  C   UNL     1      11.801   2.904  11.088  1.00  0.00     0.020 A 
ATOM     83  C   UNL     1       9.813   3.496   9.856  1.00  0.00     0.020 A 
ATOM     84  C   UNL     1      10.869   2.622  10.086  1.00  0.00     0.054 A 
BRANCH  84  85
ATOM     85  S   UNL     1      10.952   1.048   9.175  1.00  0.00     0.124 S 
ATOM     86  O   UNL     1      12.120   1.241   8.321  1.00  0.00    -0.237 OA
ATOM     87  O   UNL     1      11.107   0.068  10.246  1.00  0.00    -0.237 OA
ATOM     88  O   UNL     1       9.671   0.990   8.472  1.00  0.00    -0.744 OA
ENDBRANCH  84  85
ENDBRANCH  56  79
BRANCH  68  89
ATOM     89  C   UNL     1      10.621   9.116  16.526  1.00  0.00    -0.014 A 
ATOM     90  C   UNL     1      10.534   9.773  15.282  1.00  0.00     0.010 A 
ATOM     91  C   UNL     1      11.253   9.787  17.588  1.00  0.00     0.010 A 
ATOM     92  C   UNL     1      11.082  11.055  15.104  1.00  0.00     0.020 A 
ATOM     93  C   UNL     1      11.783  11.069  17.423  1.00  0.00     0.020 A 
ATOM     94  C   UNL     1      11.704  11.695  16.180  1.00  0.00     0.054 A 
BRANCH  94  95
ATOM     95  S   UNL     1      12.377  13.367  15.963  1.00  0.00     0.124 S 
ATOM     96  O   UNL     1      13.499  13.143  15.056  1.00  0.00    -0.237 OA
ATOM     97  O   UNL     1      11.248  14.103  15.399  1.00  0.00    -0.237 OA
ATOM     98  O   UNL     1      12.751  13.770  17.319  1.00  0.00    -0.744 OA
ENDBRANCH  94  95
ENDBRANCH  68  89
ENDBRANCH  42  43
ENDBRANCH  34  37
ENDBRANCH  32  33
ENDBRANCH   1  32
TORSDOF 18
