REMARK SMILES O=C(NCCCNC(=O)c1ccc(-c2c3nc(c(-c4ccc(S(=O)(=O)[O-])cc4)c4ccc([nH]4)c(-c4ccc(S(=O)(=O)[O-])cc4)c4nc(c(-c5ccc(S(=O)(=O)[O-])cc5)c5ccc2[nH]5)C=C4)C=C3)cc1)c1ccc(C#CC#C[C@H]2C[C@@H](O)C2)cc1
REMARK SMILES IDX 4 1 3 2 1 3 2 4 70 6 71 7 84 8 72 9 83 10 73 11 74 12 75 13
REMARK SMILES IDX 76 14 77 15 78 16 82 17 79 18 80 19 81 20 5 22 6 23 7 24
REMARK SMILES IDX 8 25 9 27 10 28 11 29 69 30 12 31 68 32 13 33 14 34 15 35
REMARK SMILES IDX 62 36 16 37 67 38 61 39 63 40 17 41 66 42 60 43 59 44 18 46
REMARK SMILES IDX 48 47 29 48 47 49 30 50 33 51 46 52 64 53 31 54 32 55 45 57
REMARK SMILES IDX 65 58 34 59 19 60 20 61 28 62 21 63 27 64 22 65 23 66 24 67
REMARK SMILES IDX 25 68 26 69 49 70 50 71 58 72 51 73 57 74 52 75 53 76 54 77
REMARK SMILES IDX 55 78 56 79 35 80 36 81 44 82 37 83 43 84 38 85 39 86 40 87
REMARK SMILES IDX 41 88 42 89
REMARK H PARENT 3 5 81 21 7 26 63 45 33 56
REMARK Flexibility Score: inf
ROOT
ATOM      1  C   UNL     1       4.525   0.906   0.749  1.00  0.00     0.118 C 
ENDROOT
BRANCH   1   2
ATOM      2  N   UNL     1       3.085   0.714   0.651  1.00  0.00    -0.352 N 
ATOM      3  O   UNL     1       1.153  -0.058  -0.224  1.00  0.00    -0.269 OA
ATOM      4  C   UNL     1       2.375  -0.144  -0.151  1.00  0.00     0.251 C 
ATOM      5  H   UNL     1       2.543   1.282   1.244  1.00  0.00     0.163 HD
BRANCH   4   6
ATOM      6  C   UNL     1       3.085  -1.174  -0.935  1.00  0.00     0.039 A 
ATOM      7  C   UNL     1       4.034  -2.005  -0.330  1.00  0.00     0.015 A 
ATOM      8  C   UNL     1       2.780  -1.323  -2.291  1.00  0.00     0.015 A 
ATOM      9  C   UNL     1       4.743  -2.922  -1.100  1.00  0.00     0.018 A 
ATOM     10  C   UNL     1       3.474  -2.263  -3.057  1.00  0.00     0.018 A 
ATOM     11  C   UNL     1       4.464  -3.052  -2.463  1.00  0.00     0.026 A 
BRANCH  11  12
ATOM     12  C   UNL     1       5.186  -4.015  -3.229  1.00  0.00    -0.053 C 
ATOM     13  C   UNL     1       5.804  -4.858  -3.821  1.00  0.00    -0.010 C 
BRANCH  13  14
ATOM     14  C   UNL     1       6.590  -5.954  -4.537  1.00  0.00    -0.015 C 
ATOM     15  C   UNL     1       7.203  -6.818  -5.102  1.00  0.00    -0.085 C 
BRANCH  15  16
ATOM     16  C   UNL     1       7.937  -7.840  -5.808  1.00  0.00     0.070 C 
ATOM     17  C   UNL     1       9.355  -8.156  -5.269  1.00  0.00     0.048 C 
ATOM     18  C   UNL     1       7.575  -9.306  -5.463  1.00  0.00     0.048 C 
ATOM     19  C   UNL     1       9.078  -9.636  -5.625  1.00  0.00     0.116 C 
BRANCH  19  20
ATOM     20  O   UNL     1       9.620 -10.629  -4.737  1.00  0.00    -0.393 OA
ATOM     21  H   UNL     1       9.378 -10.413  -3.823  1.00  0.00     0.210 HD
ENDBRANCH  19  20
ENDBRANCH  15  16
ENDBRANCH  13  14
ENDBRANCH  11  12
ENDBRANCH   4   6
ENDBRANCH   1   2
BRANCH   1  22
ATOM     22  C   UNL     1       4.960   2.293   0.308  1.00  0.00     0.042 C 
BRANCH  22  23
ATOM     23  C   UNL     1       4.449   3.410   1.202  1.00  0.00     0.118 C 
BRANCH  23  24
ATOM     24  N   UNL     1       4.981   3.340   2.559  1.00  0.00    -0.352 N 
ATOM     25  C   UNL     1       5.774   4.236   3.237  1.00  0.00     0.251 C 
ATOM     26  H   UNL     1       4.734   2.532   3.064  1.00  0.00     0.163 HD
ATOM     27  O   UNL     1       6.271   3.924   4.315  1.00  0.00    -0.269 OA
BRANCH  25  28
ATOM     28  C   UNL     1       6.046   5.561   2.643  1.00  0.00     0.039 A 
ATOM     29  C   UNL     1       7.351   6.059   2.636  1.00  0.00     0.014 A 
ATOM     30  C   UNL     1       5.012   6.291   2.055  1.00  0.00     0.014 A 
ATOM     31  C   UNL     1       7.633   7.245   1.952  1.00  0.00     0.010 A 
ATOM     32  C   UNL     1       5.311   7.410   1.291  1.00  0.00     0.010 A 
ATOM     33  C   UNL     1       6.624   7.902   1.231  1.00  0.00    -0.014 A 
BRANCH  33  34
ATOM     34  C   UNL     1       6.889   9.108   0.406  1.00  0.00     0.031 A 
ATOM     35  C   UNL     1       6.171  10.393   0.719  1.00  0.00     0.074 A 
ATOM     36  C   UNL     1       7.682   9.024  -0.680  1.00  0.00     0.049 A 
ATOM     37  N   UNL     1       6.138  11.509   0.038  1.00  0.00    -0.248 NA
ATOM     38  C   UNL     1       5.356  10.411   1.946  1.00  0.00     0.031 C 
ATOM     39  C   UNL     1       8.425   7.835  -1.101  1.00  0.00     0.029 A 
ATOM     40  N   UNL     1       7.980   9.958  -1.642  1.00  0.00    -0.354 N 
ATOM     41  C   UNL     1       5.284  12.352   0.741  1.00  0.00     0.074 A 
ATOM     42  C   UNL     1       4.772  11.596   1.862  1.00  0.00     0.031 C 
ATOM     43  C   UNL     1       9.114   8.120  -2.219  1.00  0.00     0.029 A 
ATOM     44  C   UNL     1       8.813   9.488  -2.630  1.00  0.00     0.049 A 
ATOM     45  H   UNL     1       7.631  10.879  -1.625  1.00  0.00     0.167 HD
ATOM     46  C   UNL     1       4.969  13.644   0.487  1.00  0.00     0.031 A 
ATOM     47  C   UNL     1       9.268  10.082  -3.751  1.00  0.00     0.031 A 
ATOM     48  C   UNL     1       5.471  14.385  -0.639  1.00  0.00     0.049 A 
ATOM     49  C   UNL     1       8.851  11.496  -4.053  1.00  0.00     0.074 A 
ATOM     50  C   UNL     1       5.238  15.707  -0.972  1.00  0.00     0.029 A 
ATOM     51  N   UNL     1       6.301  13.866  -1.623  1.00  0.00    -0.354 N 
ATOM     52  N   UNL     1       8.075  12.293  -3.357  1.00  0.00    -0.248 NA
ATOM     53  C   UNL     1       9.377  12.095  -5.287  1.00  0.00     0.031 C 
ATOM     54  C   UNL     1       5.867  15.967  -2.193  1.00  0.00     0.029 A 
ATOM     55  C   UNL     1       6.566  14.833  -2.577  1.00  0.00     0.049 A 
ATOM     56  H   UNL     1       6.650  12.945  -1.639  1.00  0.00     0.167 HD
ATOM     57  C   UNL     1       8.059  13.502  -4.045  1.00  0.00     0.074 A 
ATOM     58  C   UNL     1       8.901  13.330  -5.211  1.00  0.00     0.031 C 
ATOM     59  C   UNL     1       7.414  14.653  -3.731  1.00  0.00     0.031 A 
BRANCH  46  60
ATOM     60  C   UNL     1       4.014  14.323   1.438  1.00  0.00    -0.014 A 
ATOM     61  C   UNL     1       4.363  14.555   2.783  1.00  0.00     0.010 A 
ATOM     62  C   UNL     1       2.750  14.739   0.982  1.00  0.00     0.010 A 
ATOM     63  C   UNL     1       3.444  15.127   3.666  1.00  0.00     0.020 A 
ATOM     64  C   UNL     1       1.843  15.350   1.853  1.00  0.00     0.020 A 
ATOM     65  C   UNL     1       2.187  15.516   3.195  1.00  0.00     0.054 A 
BRANCH  65  66
ATOM     66  S   UNL     1       1.013  16.248   4.367  1.00  0.00     0.124 S 
ATOM     67  O   UNL     1       0.667  15.100   5.202  1.00  0.00    -0.237 OA
ATOM     68  O   UNL     1       1.815  17.280   5.019  1.00  0.00    -0.237 OA
ATOM     69  O   UNL     1      -0.065  16.745   3.515  1.00  0.00    -0.744 OA
ENDBRANCH  65  66
ENDBRANCH  46  60
BRANCH  47  70
ATOM     70  C   UNL     1      10.192   9.346  -4.659  1.00  0.00    -0.014 A 
ATOM     71  C   UNL     1      11.536   9.744  -4.776  1.00  0.00     0.010 A 
ATOM     72  C   UNL     1       9.745   8.232  -5.393  1.00  0.00     0.010 A 
ATOM     73  C   UNL     1      12.412   9.050  -5.615  1.00  0.00     0.020 A 
ATOM     74  C   UNL     1      10.627   7.514  -6.208  1.00  0.00     0.020 A 
ATOM     75  C   UNL     1      11.954   7.933  -6.319  1.00  0.00     0.054 A 
BRANCH  75  76
ATOM     76  S   UNL     1      13.130   7.008  -7.345  1.00  0.00     0.124 S 
ATOM     77  O   UNL     1      13.402   7.952  -8.424  1.00  0.00    -0.237 OA
ATOM     78  O   UNL     1      14.233   6.771  -6.417  1.00  0.00    -0.237 OA
ATOM     79  O   UNL     1      12.382   5.814  -7.731  1.00  0.00    -0.744 OA
ENDBRANCH  75  76
ENDBRANCH  47  70
BRANCH  59  80
ATOM     80  C   UNL     1       7.638  15.851  -4.620  1.00  0.00    -0.014 A 
ATOM     81  C   UNL     1       7.114  15.918  -5.923  1.00  0.00     0.010 A 
ATOM     82  C   UNL     1       8.321  16.968  -4.100  1.00  0.00     0.010 A 
ATOM     83  C   UNL     1       7.287  17.071  -6.694  1.00  0.00     0.020 A 
ATOM     84  C   UNL     1       8.464  18.134  -4.854  1.00  0.00     0.020 A 
ATOM     85  C   UNL     1       7.954  18.174  -6.152  1.00  0.00     0.054 A 
BRANCH  85  86
ATOM     86  S   UNL     1       8.100  19.682  -7.149  1.00  0.00     0.124 S 
ATOM     87  O   UNL     1       9.036  19.270  -8.191  1.00  0.00    -0.237 OA
ATOM     88  O   UNL     1       6.726  19.905  -7.591  1.00  0.00    -0.237 OA
ATOM     89  O   UNL     1       8.615  20.674  -6.207  1.00  0.00    -0.744 OA
ENDBRANCH  85  86
ENDBRANCH  59  80
ENDBRANCH  33  34
ENDBRANCH  25  28
ENDBRANCH  23  24
ENDBRANCH  22  23
ENDBRANCH   1  22
TORSDOF 17
