REMARK SMILES O=C(NCCCNC(=O)[C@]1(Cc2cnc[nH]2)[NH2+][C@H](c2ccccc2O)[C@H]2C(=O)N(Cc3ccccc3)C(=O)[C@H]21)c1ccc(-c2c3nc(c(-c4ccc(S(=O)(=O)[O-])cc4)c4ccc([nH]4)c(-c4ccc(S(=O)(=O)[O-])cc4)c4nc(c(-c5ccc(S(=O)(=O)[O-])cc5)c5ccc2[nH]5)C=C4)C=C3)cc1
REMARK SMILES IDX 4 1 3 2 1 3 2 4 40 6 41 7 99 8 42 9 98 10 43 11 44 12 45 13
REMARK SMILES IDX 92 14 46 15 97 16 91 17 93 18 47 19 96 20 90 21 89 22 48 24
REMARK SMILES IDX 78 25 59 26 77 27 60 28 63 29 76 30 94 31 61 32 62 33 75 35
REMARK SMILES IDX 95 36 64 37 49 38 50 39 58 40 51 41 57 42 52 43 53 44 54 45
REMARK SMILES IDX 55 46 56 47 79 48 80 49 88 50 81 51 87 52 82 53 83 54 84 55
REMARK SMILES IDX 85 56 86 57 65 58 66 59 74 60 67 61 73 62 68 63 69 64 70 65
REMARK SMILES IDX 71 66 72 67 5 68 6 69 7 70 8 71 9 73 10 74 17 75 39 76 18 77
REMARK SMILES IDX 26 80 37 81 27 82 29 83 38 84 28 85 11 86 12 87 13 88 16 89
REMARK SMILES IDX 14 90 15 91 19 93 20 94 24 95 21 96 23 97 22 98 25 99 30 101
REMARK SMILES IDX 31 102 32 103 36 104 33 105 35 106 34 107
REMARK H PARENT 3 5 93 23 63 34 7 72 17 78 17 79 16 92 25 100
REMARK Flexibility Score: inf
ROOT
ATOM      1  C   UNL     1      11.191   0.829  -6.059  1.00  0.00     0.118 C 
ENDROOT
BRANCH   1   2
ATOM      2  N   UNL     1      11.260   2.259  -5.764  1.00  0.00    -0.352 N 
ATOM      3  O   UNL     1      11.860   4.194  -4.792  1.00  0.00    -0.269 OA
ATOM      4  C   UNL     1      12.108   3.005  -4.979  1.00  0.00     0.251 C 
ATOM      5  H   UNL     1      10.566   2.791  -6.216  1.00  0.00     0.163 HD
BRANCH   4   6
ATOM      6  C   UNL     1      13.293   2.398  -4.333  1.00  0.00     0.039 A 
ATOM      7  C   UNL     1      14.038   1.421  -4.982  1.00  0.00     0.014 A 
ATOM      8  C   UNL     1      13.697   2.836  -3.065  1.00  0.00     0.014 A 
ATOM      9  C   UNL     1      15.020   0.725  -4.295  1.00  0.00     0.010 A 
ATOM     10  C   UNL     1      14.794   2.239  -2.431  1.00  0.00     0.010 A 
ATOM     11  C   UNL     1      15.440   1.145  -3.024  1.00  0.00    -0.014 A 
BRANCH  11  12
ATOM     12  C   UNL     1      16.597   0.449  -2.400  1.00  0.00     0.031 A 
ATOM     13  C   UNL     1      16.467  -0.265  -1.082  1.00  0.00     0.074 A 
ATOM     14  C   UNL     1      17.756   0.393  -3.090  1.00  0.00     0.049 A 
ATOM     15  N   UNL     1      17.363  -0.976  -0.445  1.00  0.00    -0.248 NA
ATOM     16  C   UNL     1      15.176  -0.169  -0.382  1.00  0.00     0.031 C 
ATOM     17  C   UNL     1      18.003   1.054  -4.378  1.00  0.00     0.029 A 
ATOM     18  N   UNL     1      18.922  -0.284  -2.843  1.00  0.00    -0.354 N 
ATOM     19  C   UNL     1      16.759  -1.386   0.738  1.00  0.00     0.074 A 
ATOM     20  C   UNL     1      15.423  -0.831   0.741  1.00  0.00     0.031 C 
ATOM     21  C   UNL     1      19.196   0.671  -4.851  1.00  0.00     0.029 A 
ATOM     22  C   UNL     1      19.842  -0.180  -3.861  1.00  0.00     0.049 A 
ATOM     23  H   UNL     1      19.086  -0.794  -2.018  1.00  0.00     0.167 HD
ATOM     24  C   UNL     1      17.270  -2.158   1.728  1.00  0.00     0.031 A 
ATOM     25  C   UNL     1      21.080  -0.695  -3.985  1.00  0.00     0.031 A 
ATOM     26  C   UNL     1      18.599  -2.712   1.714  1.00  0.00     0.049 A 
ATOM     27  C   UNL     1      21.625  -1.531  -2.867  1.00  0.00     0.074 A 
ATOM     28  C   UNL     1      19.213  -3.504   2.669  1.00  0.00     0.029 A 
ATOM     29  N   UNL     1      19.520  -2.536   0.691  1.00  0.00    -0.354 N 
ATOM     30  N   UNL     1      21.035  -1.898  -1.755  1.00  0.00    -0.248 NA
ATOM     31  C   UNL     1      23.003  -2.012  -3.013  1.00  0.00     0.031 C 
ATOM     32  C   UNL     1      20.518  -3.774   2.242  1.00  0.00     0.029 A 
ATOM     33  C   UNL     1      20.700  -3.193   0.997  1.00  0.00     0.049 A 
ATOM     34  H   UNL     1      19.358  -2.020  -0.132  1.00  0.00     0.167 HD
ATOM     35  C   UNL     1      21.972  -2.656  -1.066  1.00  0.00     0.074 A 
ATOM     36  C   UNL     1      23.154  -2.721  -1.903  1.00  0.00     0.031 C 
ATOM     37  C   UNL     1      21.867  -3.237   0.154  1.00  0.00     0.031 A 
BRANCH  24  38
ATOM     38  C   UNL     1      16.397  -2.428   2.926  1.00  0.00    -0.014 A 
ATOM     39  C   UNL     1      15.302  -3.308   2.847  1.00  0.00     0.010 A 
ATOM     40  C   UNL     1      16.702  -1.827   4.162  1.00  0.00     0.010 A 
ATOM     41  C   UNL     1      14.509  -3.554   3.972  1.00  0.00     0.020 A 
ATOM     42  C   UNL     1      15.926  -2.089   5.295  1.00  0.00     0.020 A 
ATOM     43  C   UNL     1      14.823  -2.939   5.188  1.00  0.00     0.054 A 
BRANCH  43  44
ATOM     44  S   UNL     1      13.788  -3.291   6.636  1.00  0.00     0.124 S 
ATOM     45  O   UNL     1      12.580  -2.527   6.334  1.00  0.00    -0.237 OA
ATOM     46  O   UNL     1      13.641  -4.743   6.582  1.00  0.00    -0.237 OA
ATOM     47  O   UNL     1      14.578  -2.790   7.758  1.00  0.00    -0.744 OA
ENDBRANCH  43  44
ENDBRANCH  24  38
BRANCH  25  48
ATOM     48  C   UNL     1      21.889  -0.394  -5.197  1.00  0.00    -0.014 A 
ATOM     49  C   UNL     1      22.196  -1.400  -6.128  1.00  0.00     0.010 A 
ATOM     50  C   UNL     1      22.333   0.920  -5.438  1.00  0.00     0.010 A 
ATOM     51  C   UNL     1      22.942  -1.100  -7.273  1.00  0.00     0.020 A 
ATOM     52  C   UNL     1      23.049   1.230  -6.595  1.00  0.00     0.020 A 
ATOM     53  C   UNL     1      23.362   0.214  -7.499  1.00  0.00     0.054 A 
BRANCH  53  54
ATOM     54  S   UNL     1      24.280   0.598  -9.016  1.00  0.00     0.124 S 
ATOM     55  O   UNL     1      25.616   0.107  -8.692  1.00  0.00    -0.237 OA
ATOM     56  O   UNL     1      23.554  -0.164 -10.029  1.00  0.00    -0.237 OA
ATOM     57  O   UNL     1      24.154   2.049  -9.131  1.00  0.00    -0.744 OA
ENDBRANCH  53  54
ENDBRANCH  25  48
BRANCH  37  58
ATOM     58  C   UNL     1      23.061  -4.009   0.640  1.00  0.00    -0.014 A 
ATOM     59  C   UNL     1      24.221  -3.347   1.082  1.00  0.00     0.010 A 
ATOM     60  C   UNL     1      23.013  -5.414   0.675  1.00  0.00     0.010 A 
ATOM     61  C   UNL     1      25.327  -4.080   1.517  1.00  0.00     0.020 A 
ATOM     62  C   UNL     1      24.108  -6.149   1.133  1.00  0.00     0.020 A 
ATOM     63  C   UNL     1      25.264  -5.477   1.536  1.00  0.00     0.054 A 
BRANCH  63  64
ATOM     64  S   UNL     1      26.702  -6.408   2.131  1.00  0.00     0.124 S 
ATOM     65  O   UNL     1      27.614  -6.315   0.994  1.00  0.00    -0.237 OA
ATOM     66  O   UNL     1      27.101  -5.660   3.320  1.00  0.00    -0.237 OA
ATOM     67  O   UNL     1      26.165  -7.742   2.392  1.00  0.00    -0.744 OA
ENDBRANCH  63  64
ENDBRANCH  37  58
ENDBRANCH  11  12
ENDBRANCH   4   6
ENDBRANCH   1   2
BRANCH   1  68
ATOM     68  C   UNL     1      10.224   0.079  -5.160  1.00  0.00     0.042 C 
BRANCH  68  69
ATOM     69  C   UNL     1       8.780   0.471  -5.398  1.00  0.00     0.118 C 
BRANCH  69  70
ATOM     70  N   UNL     1       8.230   0.027  -6.669  1.00  0.00    -0.351 N 
ATOM     71  C   UNL     1       6.956  -0.322  -7.025  1.00  0.00     0.282 C 
ATOM     72  H   UNL     1       8.889  -0.033  -7.398  1.00  0.00     0.163 HD
ATOM     73  O   UNL     1       6.700  -0.249  -8.233  1.00  0.00    -0.268 OA
BRANCH  71  74
ATOM     74  C   UNL     1       5.879  -0.797  -5.982  1.00  0.00     0.194 C 
ATOM     75  N   UNL     1       6.471  -1.818  -5.061  1.00  0.00    -0.326 N 
ATOM     76  C   UNL     1       4.781  -1.628  -6.739  1.00  0.00     0.169 C 
ATOM     77  C   UNL     1       6.387  -3.147  -5.733  1.00  0.00     0.231 C 
ATOM     78  H   UNL     1       5.947  -1.839  -4.185  1.00  0.00     0.347 HD
ATOM     79  H   UNL     1       7.442  -1.587  -4.851  1.00  0.00     0.347 HD
ATOM     80  C   UNL     1       5.016  -3.091  -6.370  1.00  0.00     0.161 C 
ATOM     81  C   UNL     1       3.365  -1.404  -6.277  1.00  0.00     0.240 C 
ATOM     82  C   UNL     1       3.926  -3.401  -5.375  1.00  0.00     0.240 C 
ATOM     83  N   UNL     1       3.022  -2.381  -5.391  1.00  0.00    -0.277 N 
ATOM     84  O   UNL     1       2.666  -0.459  -6.619  1.00  0.00    -0.274 OA
ATOM     85  O   UNL     1       3.834  -4.441  -4.740  1.00  0.00    -0.274 OA
BRANCH  74  86
ATOM     86  C   UNL     1       5.231   0.443  -5.289  1.00  0.00     0.135 C 
BRANCH  86  87
ATOM     87  C   UNL     1       6.006   1.250  -4.307  1.00  0.00     0.041 A 
ATOM     88  C   UNL     1       6.479   2.545  -4.354  1.00  0.00     0.134 A 
ATOM     89  N   UNL     1       6.313   0.816  -3.038  1.00  0.00    -0.348 N 
ATOM     90  N   UNL     1       7.154   2.858  -3.205  1.00  0.00    -0.245 NA
ATOM     91  C   UNL     1       7.044   1.800  -2.435  1.00  0.00     0.196 A 
ATOM     92  H   UNL     1       6.053  -0.045  -2.638  1.00  0.00     0.167 HD
ENDBRANCH  86  87
ENDBRANCH  74  86
BRANCH  77  93
ATOM     93  C   UNL     1       7.611  -3.437  -6.606  1.00  0.00     0.052 A 
ATOM     94  C   UNL     1       8.848  -3.591  -5.940  1.00  0.00     0.014 A 
ATOM     95  C   UNL     1       7.626  -3.571  -8.002  1.00  0.00     0.124 A 
ATOM     96  C   UNL     1      10.036  -3.835  -6.636  1.00  0.00     0.001 A 
ATOM     97  C   UNL     1       8.813  -3.826  -8.703  1.00  0.00     0.047 A 
ATOM     98  C   UNL     1      10.018  -3.951  -8.019  1.00  0.00     0.004 A 
BRANCH  95  99
ATOM     99  O   UNL     1       6.475  -3.451  -8.727  1.00  0.00    -0.507 OA
ATOM    100  H   UNL     1       5.663  -3.281  -8.291  1.00  0.00     0.293 HD
ENDBRANCH  95  99
ENDBRANCH  77  93
BRANCH  83 101
ATOM    101  C   UNL     1       1.799  -2.383  -4.615  1.00  0.00     0.164 C 
BRANCH 101 102
ATOM    102  C   UNL     1       1.977  -1.716  -3.267  1.00  0.00    -0.028 A 
ATOM    103  C   UNL     1       2.050  -2.481  -2.094  1.00  0.00     0.005 A 
ATOM    104  C   UNL     1       2.075  -0.320  -3.167  1.00  0.00     0.005 A 
ATOM    105  C   UNL     1       2.206  -1.861  -0.851  1.00  0.00     0.000 A 
ATOM    106  C   UNL     1       2.253   0.297  -1.927  1.00  0.00     0.000 A 
ATOM    107  C   UNL     1       2.312  -0.474  -0.768  1.00  0.00     0.000 A 
ENDBRANCH 101 102
ENDBRANCH  83 101
ENDBRANCH  71  74
ENDBRANCH  69  70
ENDBRANCH  68  69
ENDBRANCH   1  68
TORSDOF 19
