REMARK SMILES CC(C)=CC(=O)Nc1ccc(C(=O)NCCCNC(=O)c2ccc(-c3c4nc(c(-c5ccc(S(=O)(=O)[O-])cc5)c5ccc([nH]5)c(-c5ccc(S(=O)(=O)[O-])cc5)c5nc(c(-c6ccc(S(=O)(=O)[O-])cc6)c6ccc3[nH]6)C=C5)C=C4)cc2)cc1
REMARK SMILES IDX 16 1 15 2 14 3 12 4 13 5 11 7 8 8 9 9 82 10 10 11 81 12 7 13
REMARK SMILES IDX 5 14 6 15 4 17 1 18 2 19 3 20 17 21 18 22 19 23 20 25 21 26
REMARK SMILES IDX 22 27 80 28 23 29 79 30 24 31 25 32 26 33 73 34 27 35 78 36
REMARK SMILES IDX 72 37 74 38 28 39 77 40 71 41 70 42 29 44 59 45 40 46 58 47
REMARK SMILES IDX 41 48 44 49 57 50 75 51 42 52 43 53 56 55 76 56 45 57 30 58
REMARK SMILES IDX 31 59 39 60 32 61 38 62 33 63 34 64 35 65 36 66 37 67 60 68
REMARK SMILES IDX 61 69 69 70 62 71 68 72 63 73 64 74 65 75 66 76 67 77 46 78
REMARK SMILES IDX 47 79 55 80 48 81 54 82 49 83 50 84 51 85 52 86 53 87
REMARK H PARENT 14 6 7 16 18 24 74 43 44 54
REMARK Flexibility Score: inf
ROOT
ATOM      1  C   UNL     1       2.340   3.876   3.019  1.00  0.00     0.042 C 
ENDROOT
BRANCH   1   2
ATOM      2  C   UNL     1       1.161   3.614   2.084  1.00  0.00     0.118 C 
BRANCH   2   3
ATOM      3  N   UNL     1       1.309   4.348   0.836  1.00  0.00    -0.352 N 
ATOM      4  C   UNL     1       1.740   3.966  -0.410  1.00  0.00     0.251 C 
ATOM      5  O   UNL     1       1.715   4.797  -1.317  1.00  0.00    -0.269 OA
ATOM      6  H   UNL     1       1.050   5.296   0.897  1.00  0.00     0.163 HD
BRANCH   4   7
ATOM      7  C   UNL     1       2.127   2.566  -0.720  1.00  0.00     0.039 A 
ATOM      8  C   UNL     1       2.342  -0.159  -1.274  1.00  0.00     0.041 A 
ATOM      9  C   UNL     1       1.919   0.716  -2.276  1.00  0.00     0.027 A 
ATOM     10  C   UNL     1       2.841   0.347  -0.077  1.00  0.00     0.027 A 
ATOM     11  C   UNL     1       1.777   2.072  -1.984  1.00  0.00     0.016 A 
ATOM     12  C   UNL     1       2.766   1.716   0.183  1.00  0.00     0.016 A 
BRANCH   8  13
ATOM     13  N   UNL     1       2.170  -1.528  -1.498  1.00  0.00    -0.323 N 
ATOM     14  C   UNL     1       1.760  -2.503  -0.635  1.00  0.00     0.248 C 
ATOM     15  O   UNL     1       1.827  -3.685  -0.974  1.00  0.00    -0.270 OA
ATOM     16  H   UNL     1       2.376  -1.833  -2.411  1.00  0.00     0.170 HD
BRANCH  14  17
ATOM     17  C   UNL     1       1.171  -2.184   0.698  1.00  0.00     0.070 C 
ATOM     18  C   UNL     1      -0.558  -0.424   0.052  1.00  0.00     0.039 C 
ATOM     19  C   UNL     1       0.173  -1.328   1.008  1.00  0.00    -0.071 C 
ATOM     20  C   UNL     1      -0.343  -1.244   2.422  1.00  0.00     0.039 C 
ENDBRANCH  14  17
ENDBRANCH   8  13
ENDBRANCH   4   7
ENDBRANCH   2   3
ENDBRANCH   1   2
BRANCH   1  21
ATOM     21  C   UNL     1       2.356   5.290   3.591  1.00  0.00     0.118 C 
BRANCH  21  22
ATOM     22  N   UNL     1       1.320   5.490   4.592  1.00  0.00    -0.352 N 
ATOM     23  C   UNL     1       1.429   5.894   5.900  1.00  0.00     0.251 C 
ATOM     24  H   UNL     1       0.402   5.310   4.285  1.00  0.00     0.163 HD
ATOM     25  O   UNL     1       0.451   5.808   6.637  1.00  0.00    -0.269 OA
BRANCH  23  26
ATOM     26  C   UNL     1       2.714   6.409   6.430  1.00  0.00     0.039 A 
ATOM     27  C   UNL     1       3.105   6.036   7.720  1.00  0.00     0.014 A 
ATOM     28  C   UNL     1       3.515   7.280   5.686  1.00  0.00     0.014 A 
ATOM     29  C   UNL     1       4.320   6.492   8.239  1.00  0.00     0.010 A 
ATOM     30  C   UNL     1       4.760   7.673   6.176  1.00  0.00     0.010 A 
ATOM     31  C   UNL     1       5.173   7.290   7.461  1.00  0.00    -0.014 A 
BRANCH  31  32
ATOM     32  C   UNL     1       6.496   7.735   7.974  1.00  0.00     0.031 A 
ATOM     33  C   UNL     1       6.778   9.200   8.178  1.00  0.00     0.074 A 
ATOM     34  C   UNL     1       7.465   6.826   8.198  1.00  0.00     0.049 A 
ATOM     35  N   UNL     1       7.887   9.781   8.558  1.00  0.00    -0.248 NA
ATOM     36  C   UNL     1       5.677  10.137   7.896  1.00  0.00     0.031 C 
ATOM     37  C   UNL     1       7.333   5.380   8.002  1.00  0.00     0.029 A 
ATOM     38  N   UNL     1       8.758   6.984   8.633  1.00  0.00    -0.354 N 
ATOM     39  C   UNL     1       7.627  11.147   8.540  1.00  0.00     0.074 A 
ATOM     40  C   UNL     1       6.268  11.310   8.071  1.00  0.00     0.031 C 
ATOM     41  C   UNL     1       8.489   4.783   8.335  1.00  0.00     0.029 A 
ATOM     42  C   UNL     1       9.457   5.803   8.729  1.00  0.00     0.049 A 
ATOM     43  H   UNL     1       9.149   7.860   8.854  1.00  0.00     0.167 HD
ATOM     44  C   UNL     1       8.438  12.172   8.898  1.00  0.00     0.031 A 
ATOM     45  C   UNL     1      10.734   5.564   9.086  1.00  0.00     0.031 A 
ATOM     46  C   UNL     1       9.784  12.006   9.379  1.00  0.00     0.049 A 
ATOM     47  C   UNL     1      11.615   6.718   9.481  1.00  0.00     0.074 A 
ATOM     48  C   UNL     1      10.664  12.979   9.822  1.00  0.00     0.029 A 
ATOM     49  N   UNL     1      10.447  10.792   9.479  1.00  0.00    -0.354 N 
ATOM     50  N   UNL     1      11.328   7.997   9.518  1.00  0.00    -0.248 NA
ATOM     51  C   UNL     1      12.987   6.394   9.895  1.00  0.00     0.031 C 
ATOM     52  C   UNL     1      11.876  12.358  10.142  1.00  0.00     0.029 A 
ATOM     53  C   UNL     1      11.731  10.993   9.956  1.00  0.00     0.049 A 
ATOM     54  H   UNL     1      10.061   9.917   9.246  1.00  0.00     0.167 HD
ATOM     55  C   UNL     1      12.476   8.628   9.985  1.00  0.00     0.074 A 
ATOM     56  C   UNL     1      13.455   7.589  10.229  1.00  0.00     0.031 C 
ATOM     57  C   UNL     1      12.697   9.949  10.194  1.00  0.00     0.031 A 
BRANCH  44  58
ATOM     58  C   UNL     1       7.891  13.570   8.773  1.00  0.00    -0.014 A 
ATOM     59  C   UNL     1       6.881  14.037   9.635  1.00  0.00     0.010 A 
ATOM     60  C   UNL     1       8.424  14.446   7.809  1.00  0.00     0.010 A 
ATOM     61  C   UNL     1       6.385  15.337   9.507  1.00  0.00     0.020 A 
ATOM     62  C   UNL     1       7.950  15.757   7.697  1.00  0.00     0.020 A 
ATOM     63  C   UNL     1       6.921  16.188   8.535  1.00  0.00     0.054 A 
BRANCH  63  64
ATOM     64  S   UNL     1       6.272  17.877   8.406  1.00  0.00     0.124 S 
ATOM     65  O   UNL     1       4.964  17.650   7.795  1.00  0.00    -0.237 OA
ATOM     66  O   UNL     1       6.247  18.319   9.797  1.00  0.00    -0.237 OA
ATOM     67  O   UNL     1       7.245  18.558   7.556  1.00  0.00    -0.744 OA
ENDBRANCH  63  64
ENDBRANCH  44  58
BRANCH  45  68
ATOM     68  C   UNL     1      11.250   4.168   9.100  1.00  0.00    -0.014 A 
ATOM     69  C   UNL     1      11.517   3.517  10.317  1.00  0.00     0.010 A 
ATOM     70  C   UNL     1      11.459   3.475   7.894  1.00  0.00     0.010 A 
ATOM     71  C   UNL     1      11.996   2.204  10.328  1.00  0.00     0.020 A 
ATOM     72  C   UNL     1      11.912   2.153   7.901  1.00  0.00     0.020 A 
ATOM     73  C   UNL     1      12.187   1.529   9.120  1.00  0.00     0.054 A 
BRANCH  73  74
ATOM     74  S   UNL     1      12.752  -0.195   9.160  1.00  0.00     0.124 S 
ATOM     75  O   UNL     1      14.160  -0.045   9.515  1.00  0.00    -0.237 OA
ATOM     76  O   UNL     1      11.898  -0.783  10.188  1.00  0.00    -0.237 OA
ATOM     77  O   UNL     1      12.495  -0.669   7.801  1.00  0.00    -0.744 OA
ENDBRANCH  73  74
ENDBRANCH  45  68
BRANCH  57  78
ATOM     78  C   UNL     1      14.038  10.349  10.750  1.00  0.00    -0.014 A 
ATOM     79  C   UNL     1      15.200  10.301   9.960  1.00  0.00     0.010 A 
ATOM     80  C   UNL     1      14.124  10.832  12.069  1.00  0.00     0.010 A 
ATOM     81  C   UNL     1      16.430  10.699  10.490  1.00  0.00     0.020 A 
ATOM     82  C   UNL     1      15.347  11.257  12.593  1.00  0.00     0.020 A 
ATOM     83  C   UNL     1      16.496  11.174  11.804  1.00  0.00     0.054 A 
BRANCH  83  84
ATOM     84  S   UNL     1      18.097  11.725  12.455  1.00  0.00     0.124 S 
ATOM     85  O   UNL     1      18.786  10.457  12.679  1.00  0.00    -0.237 OA
ATOM     86  O   UNL     1      18.623  12.543  11.365  1.00  0.00    -0.237 OA
ATOM     87  O   UNL     1      17.743  12.464  13.665  1.00  0.00    -0.744 OA
ENDBRANCH  83  84
ENDBRANCH  57  78
ENDBRANCH  31  32
ENDBRANCH  23  26
ENDBRANCH  21  22
ENDBRANCH   1  21
TORSDOF 15
