REMARK SMILES CC1(C)S[C@H](c2ccc(Br)cc2)[NH2+][C@H]1C(=O)NCCCNC(=O)c1ccc(-c2c3nc(c(-c4ccc(S(=O)(=O)[O-])cc4)c4ccc([nH]4)c(-c4ccc(S(=O)(=O)[O-])cc4)c4nc(c(-c5ccc(S(=O)(=O)[O-])cc5)c5ccc2[nH]5)C=C4)C=C3)cc1
REMARK SMILES IDX 20 1 19 2 18 3 17 4 15 5 16 6 14 8 1 9 2 10 3 11 4 12 5 13
REMARK SMILES IDX 13 14 6 17 7 18 12 19 8 20 11 21 9 22 10 23 21 24 22 25
REMARK SMILES IDX 23 27 24 28 25 29 83 30 26 31 82 32 27 33 28 34 29 35 76 36
REMARK SMILES IDX 30 37 81 38 75 39 77 40 31 41 80 42 74 43 73 44 32 46 62 47
REMARK SMILES IDX 43 48 61 49 44 50 47 51 60 52 78 53 45 54 46 55 59 57 79 58
REMARK SMILES IDX 48 59 33 60 34 61 42 62 35 63 41 64 36 65 37 66 38 67 39 68
REMARK SMILES IDX 40 69 63 70 64 71 72 72 65 73 71 74 66 75 67 76 68 77 69 78
REMARK SMILES IDX 70 79 49 80 50 81 58 82 51 83 57 84 52 85 53 86 54 87 55 88
REMARK SMILES IDX 56 89
REMARK H PARENT 17 7 13 15 13 16 21 26 77 45 47 56
REMARK Flexibility Score: inf
ROOT
ATOM      1  C   UNL     1       1.926   3.530   3.870  1.00  0.00     0.118 C 
ENDROOT
BRANCH   1   2
ATOM      2  C   UNL     1       1.229   2.240   3.465  1.00  0.00     0.042 C 
BRANCH   2   3
ATOM      3  C   UNL     1       0.073   2.433   2.487  1.00  0.00     0.118 C 
BRANCH   3   4
ATOM      4  N   UNL     1       0.511   2.940   1.193  1.00  0.00    -0.351 N 
ATOM      5  C   UNL     1       0.494   2.474  -0.084  1.00  0.00     0.279 C 
ATOM      6  O   UNL     1       1.029   3.213  -0.923  1.00  0.00    -0.268 OA
ATOM      7  H   UNL     1       0.918   3.834   1.260  1.00  0.00     0.163 HD
BRANCH   5   8
ATOM      8  C   UNL     1      -0.083   1.119  -0.538  1.00  0.00     0.289 C 
ATOM      9  C   UNL     1       1.606  -0.198   0.958  1.00  0.00     0.030 C 
ATOM     10  C   UNL     1       0.867  -0.082  -0.370  1.00  0.00     0.077 C 
ATOM     11  C   UNL     1       1.877  -0.159  -1.521  1.00  0.00     0.030 C 
ATOM     12  S   UNL     1      -0.265  -1.510  -0.477  1.00  0.00    -0.081 SA
ATOM     13  C   UNL     1      -1.791  -0.531  -0.333  1.00  0.00     0.274 C 
ATOM     14  N   UNL     1      -1.435   0.850   0.013  1.00  0.00    -0.320 N 
ATOM     15  H   UNL     1      -1.426   0.963   1.027  1.00  0.00     0.348 HD
ATOM     16  H   UNL     1      -2.116   1.502  -0.376  1.00  0.00     0.348 HD
BRANCH  13  17
ATOM     17  C   UNL     1      -2.668  -0.693  -1.563  1.00  0.00     0.020 A 
ATOM     18  C   UNL     1      -3.239  -1.956  -1.821  1.00  0.00     0.012 A 
ATOM     19  C   UNL     1      -2.942   0.350  -2.462  1.00  0.00     0.012 A 
ATOM     20  C   UNL     1      -4.028  -2.178  -2.951  1.00  0.00     0.016 A 
ATOM     21  C   UNL     1      -3.734   0.131  -3.595  1.00  0.00     0.016 A 
ATOM     22  C   UNL     1      -4.267  -1.133  -3.836  1.00  0.00     0.018 A 
ATOM     23  Br  UNL     1      -5.321  -1.433  -5.376  1.00  0.00    -0.051 Br
ENDBRANCH  13  17
ENDBRANCH   5   8
ENDBRANCH   3   4
ENDBRANCH   2   3
ENDBRANCH   1   2
BRANCH   1  24
ATOM     24  N   UNL     1       1.186   4.255   4.889  1.00  0.00    -0.352 N 
ATOM     25  C   UNL     1       1.431   4.373   6.237  1.00  0.00     0.251 C 
ATOM     26  H   UNL     1       0.389   4.733   4.565  1.00  0.00     0.163 HD
ATOM     27  O   UNL     1       0.554   4.831   6.965  1.00  0.00    -0.269 OA
BRANCH  25  28
ATOM     28  C   UNL     1       2.723   3.938   6.819  1.00  0.00     0.039 A 
ATOM     29  C   UNL     1       2.725   3.295   8.061  1.00  0.00     0.014 A 
ATOM     30  C   UNL     1       3.937   4.199   6.177  1.00  0.00     0.014 A 
ATOM     31  C   UNL     1       3.931   2.871   8.627  1.00  0.00     0.010 A 
ATOM     32  C   UNL     1       5.127   3.695   6.697  1.00  0.00     0.010 A 
ATOM     33  C   UNL     1       5.142   3.042   7.938  1.00  0.00    -0.014 A 
BRANCH  33  34
ATOM     34  C   UNL     1       6.436   2.588   8.513  1.00  0.00     0.031 A 
ATOM     35  C   UNL     1       7.516   3.593   8.829  1.00  0.00     0.074 A 
ATOM     36  C   UNL     1       6.667   1.274   8.705  1.00  0.00     0.049 A 
ATOM     37  N   UNL     1       8.731   3.388   9.269  1.00  0.00    -0.248 NA
ATOM     38  C   UNL     1       7.197   5.011   8.591  1.00  0.00     0.031 C 
ATOM     39  C   UNL     1       5.724   0.193   8.406  1.00  0.00     0.029 A 
ATOM     40  N   UNL     1       7.771   0.623   9.195  1.00  0.00    -0.354 N 
ATOM     41  C   UNL     1       9.327   4.643   9.336  1.00  0.00     0.074 A 
ATOM     42  C   UNL     1       8.357   5.597   8.846  1.00  0.00     0.031 C 
ATOM     43  C   UNL     1       6.278  -0.981   8.749  1.00  0.00     0.029 A 
ATOM     44  C   UNL     1       7.626  -0.743   9.257  1.00  0.00     0.049 A 
ATOM     45  H   UNL     1       8.591   1.090   9.477  1.00  0.00     0.167 HD
ATOM     46  C   UNL     1      10.560   4.979   9.785  1.00  0.00     0.031 A 
ATOM     47  C   UNL     1       8.480  -1.698   9.674  1.00  0.00     0.031 A 
ATOM     48  C   UNL     1      11.515   4.037  10.302  1.00  0.00     0.049 A 
ATOM     49  C   UNL     1       9.837  -1.302  10.184  1.00  0.00     0.074 A 
ATOM     50  C   UNL     1      12.770   4.285  10.831  1.00  0.00     0.029 A 
ATOM     51  N   UNL     1      11.319   2.666  10.364  1.00  0.00    -0.354 N 
ATOM     52  N   UNL     1      10.363  -0.104  10.280  1.00  0.00    -0.248 NA
ATOM     53  C   UNL     1      10.712  -2.386  10.653  1.00  0.00     0.031 C 
ATOM     54  C   UNL     1      13.346   3.059  11.183  1.00  0.00     0.029 A 
ATOM     55  C   UNL     1      12.432   2.053  10.913  1.00  0.00     0.049 A 
ATOM     56  H   UNL     1      10.507   2.197  10.063  1.00  0.00     0.167 HD
ATOM     57  C   UNL     1      11.621  -0.288  10.842  1.00  0.00     0.074 A 
ATOM     58  C   UNL     1      11.773  -1.710  11.076  1.00  0.00     0.031 C 
ATOM     59  C   UNL     1      12.567   0.637  11.138  1.00  0.00     0.031 A 
BRANCH  46  60
ATOM     60  C   UNL     1      10.941   6.435   9.738  1.00  0.00    -0.014 A 
ATOM     61  C   UNL     1      10.354   7.365  10.614  1.00  0.00     0.010 A 
ATOM     62  C   UNL     1      11.914   6.875   8.822  1.00  0.00     0.010 A 
ATOM     63  C   UNL     1      10.697   8.718  10.544  1.00  0.00     0.020 A 
ATOM     64  C   UNL     1      12.279   8.224   8.767  1.00  0.00     0.020 A 
ATOM     65  C   UNL     1      11.653   9.140   9.615  1.00  0.00     0.054 A 
BRANCH  65  66
ATOM     66  S   UNL     1      12.088  10.899   9.551  1.00  0.00     0.124 S 
ATOM     67  O   UNL     1      10.934  11.468   8.857  1.00  0.00    -0.237 OA
ATOM     68  O   UNL     1      12.208  11.254  10.963  1.00  0.00    -0.237 OA
ATOM     69  O   UNL     1      13.340  10.919   8.798  1.00  0.00    -0.744 OA
ENDBRANCH  65  66
ENDBRANCH  46  60
BRANCH  47  70
ATOM     70  C   UNL     1       8.062  -3.126   9.654  1.00  0.00    -0.014 A 
ATOM     71  C   UNL     1       7.756  -3.792  10.854  1.00  0.00     0.010 A 
ATOM     72  C   UNL     1       7.948  -3.820   8.436  1.00  0.00     0.010 A 
ATOM     73  C   UNL     1       7.358  -5.131  10.838  1.00  0.00     0.020 A 
ATOM     74  C   UNL     1       7.528  -5.153   8.415  1.00  0.00     0.020 A 
ATOM     75  C   UNL     1       7.244  -5.803   9.618  1.00  0.00     0.054 A 
BRANCH  75  76
ATOM     76  S   UNL     1       6.665  -7.523   9.615  1.00  0.00     0.124 S 
ATOM     77  O   UNL     1       7.856  -8.245  10.050  1.00  0.00    -0.237 OA
ATOM     78  O   UNL     1       5.561  -7.488  10.570  1.00  0.00    -0.237 OA
ATOM     79  O   UNL     1       6.269  -7.745   8.226  1.00  0.00    -0.744 OA
ENDBRANCH  75  76
ENDBRANCH  47  70
BRANCH  59  80
ATOM     80  C   UNL     1      13.837   0.146  11.775  1.00  0.00    -0.014 A 
ATOM     81  C   UNL     1      14.812  -0.532  11.023  1.00  0.00     0.010 A 
ATOM     82  C   UNL     1      14.080   0.413  13.135  1.00  0.00     0.010 A 
ATOM     83  C   UNL     1      15.996  -0.961  11.627  1.00  0.00     0.020 A 
ATOM     84  C   UNL     1      15.272   0.005  13.737  1.00  0.00     0.020 A 
ATOM     85  C   UNL     1      16.217  -0.693  12.982  1.00  0.00     0.054 A 
BRANCH  85  86
ATOM     86  S   UNL     1      17.779  -1.223  13.736  1.00  0.00     0.124 S 
ATOM     87  O   UNL     1      17.556  -2.655  13.920  1.00  0.00    -0.237 OA
ATOM     88  O   UNL     1      18.767  -0.867  12.720  1.00  0.00    -0.237 OA
ATOM     89  O   UNL     1      17.852  -0.439  14.967  1.00  0.00    -0.744 OA
ENDBRANCH  85  86
ENDBRANCH  59  80
ENDBRANCH  33  34
ENDBRANCH  25  28
ENDBRANCH   1  24
TORSDOF 14
