REMARK SMILES C[C@@H](C(=O)NCCCNC(=O)c1ccc(-c2c3nc(c(-c4ccc(S(=O)(=O)[O-])cc4)c4ccc([nH]4)c(-c4ccc(S(=O)(=O)[O-])cc4)c4nc(c(-c5ccc(S(=O)(=O)[O-])cc5)c5ccc2[nH]5)C=C4)C=C3)cc1)c1ccc(C[C@@H]2CCC[C@@H]2O)cc1Br
REMARK SMILES IDX 6 1 5 2 3 3 4 4 2 6 1 7 72 8 73 9 84 10 74 11 83 12 85 13
REMARK SMILES IDX 75 14 76 15 77 16 78 17 81 18 79 19 80 20 82 21 7 23 8 24
REMARK SMILES IDX 9 25 10 26 11 28 12 29 13 30 71 31 14 32 70 33 15 34 16 35
REMARK SMILES IDX 17 36 64 37 18 38 69 39 63 40 65 41 19 42 68 43 62 44 61 45
REMARK SMILES IDX 20 47 50 48 31 49 49 50 32 51 35 52 48 53 66 54 33 55 34 56
REMARK SMILES IDX 47 58 67 59 36 60 21 61 22 62 30 63 23 64 29 65 24 66 25 67
REMARK SMILES IDX 26 68 27 69 28 70 51 71 52 72 60 73 53 74 59 75 54 76 55 77
REMARK SMILES IDX 56 78 57 79 58 80 37 81 38 82 46 83 39 84 45 85 40 86 41 87
REMARK SMILES IDX 42 88 43 89 44 90
REMARK H PARENT 5 5 82 22 9 27 65 46 35 57
REMARK Flexibility Score: inf
ROOT
ATOM      1  C   UNL     1     -11.397   3.977   7.077  1.00  0.00     0.117 C 
ENDROOT
BRANCH   1   2
ATOM      2  N   UNL     1     -11.843   3.830   5.705  1.00  0.00    -0.356 N 
ATOM      3  C   UNL     1     -11.248   3.234   4.633  1.00  0.00     0.227 C 
ATOM      4  O   UNL     1     -11.990   2.988   3.679  1.00  0.00    -0.274 OA
ATOM      5  H   UNL     1     -12.724   4.228   5.516  1.00  0.00     0.163 HD
BRANCH   3   6
ATOM      6  C   UNL     1      -9.771   2.807   4.681  1.00  0.00     0.106 C 
ATOM      7  C   UNL     1      -8.771   3.896   5.082  1.00  0.00     0.023 C 
BRANCH   6   8
ATOM      8  C   UNL     1      -9.276   2.149   3.388  1.00  0.00    -0.022 A 
ATOM      9  C   UNL     1      -8.707   0.863   3.499  1.00  0.00     0.006 A 
ATOM     10  C   UNL     1      -9.267   2.759   2.120  1.00  0.00     0.022 A 
ATOM     11  C   UNL     1      -8.109   0.232   2.406  1.00  0.00     0.004 A 
ATOM     12  C   UNL     1      -8.692   2.105   1.022  1.00  0.00     0.019 A 
ATOM     13  Br  UNL     1      -9.919   4.513   1.771  1.00  0.00    -0.051 Br
ATOM     14  C   UNL     1      -8.060   0.865   1.164  1.00  0.00    -0.047 A 
BRANCH  14  15
ATOM     15  C   UNL     1      -7.307   0.261   0.006  1.00  0.00     0.041 C 
BRANCH  15  16
ATOM     16  C   UNL     1      -5.777   0.488  -0.045  1.00  0.00     0.022 C 
ATOM     17  C   UNL     1      -4.989  -0.134   1.114  1.00  0.00     0.007 C 
ATOM     18  C   UNL     1      -5.275   1.936  -0.049  1.00  0.00     0.117 C 
ATOM     19  C   UNL     1      -4.685   0.996   2.101  1.00  0.00     0.003 C 
ATOM     20  C   UNL     1      -5.091   2.298   1.421  1.00  0.00     0.032 C 
BRANCH  18  21
ATOM     21  O   UNL     1      -6.121   2.818  -0.758  1.00  0.00    -0.393 OA
ATOM     22  H   UNL     1      -7.004   2.812  -0.356  1.00  0.00     0.210 HD
ENDBRANCH  18  21
ENDBRANCH  15  16
ENDBRANCH  14  15
ENDBRANCH   6   8
ENDBRANCH   3   6
ENDBRANCH   1   2
BRANCH   1  23
ATOM     23  C   UNL     1     -11.083   5.422   7.453  1.00  0.00     0.042 C 
BRANCH  23  24
ATOM     24  C   UNL     1     -12.235   6.405   7.262  1.00  0.00     0.118 C 
BRANCH  24  25
ATOM     25  N   UNL     1     -13.416   6.056   8.034  1.00  0.00    -0.352 N 
ATOM     26  C   UNL     1     -14.111   6.765   8.983  1.00  0.00     0.251 C 
ATOM     27  H   UNL     1     -13.779   5.161   7.844  1.00  0.00     0.163 HD
ATOM     28  O   UNL     1     -14.994   6.192   9.617  1.00  0.00    -0.269 OA
BRANCH  26  29
ATOM     29  C   UNL     1     -13.804   8.186   9.268  1.00  0.00     0.039 A 
ATOM     30  C   UNL     1     -13.861   8.621  10.596  1.00  0.00     0.014 A 
ATOM     31  C   UNL     1     -13.516   9.103   8.254  1.00  0.00     0.014 A 
ATOM     32  C   UNL     1     -13.576   9.953  10.909  1.00  0.00     0.010 A 
ATOM     33  C   UNL     1     -13.160  10.414   8.574  1.00  0.00     0.010 A 
ATOM     34  C   UNL     1     -13.192  10.856   9.904  1.00  0.00    -0.014 A 
BRANCH  34  35
ATOM     35  C   UNL     1     -12.819  12.254  10.245  1.00  0.00     0.031 A 
ATOM     36  C   UNL     1     -13.645  13.414   9.755  1.00  0.00     0.074 A 
ATOM     37  C   UNL     1     -11.711  12.482  10.979  1.00  0.00     0.049 A 
ATOM     38  N   UNL     1     -13.476  14.694   9.973  1.00  0.00    -0.248 NA
ATOM     39  C   UNL     1     -14.796  13.099   8.894  1.00  0.00     0.031 C 
ATOM     40  C   UNL     1     -10.794  11.450  11.470  1.00  0.00     0.029 A 
ATOM     41  N   UNL     1     -11.168  13.654  11.442  1.00  0.00    -0.354 N 
ATOM     42  C   UNL     1     -14.490  15.336   9.271  1.00  0.00     0.074 A 
ATOM     43  C   UNL     1     -15.238  14.308   8.580  1.00  0.00     0.031 C 
ATOM     44  C   UNL     1      -9.824  12.032  12.194  1.00  0.00     0.029 A 
ATOM     45  C   UNL     1     -10.031  13.476  12.194  1.00  0.00     0.049 A 
ATOM     46  H   UNL     1     -11.557  14.539  11.255  1.00  0.00     0.167 HD
ATOM     47  C   UNL     1     -14.788  16.658   9.222  1.00  0.00     0.031 A 
ATOM     48  C   UNL     1      -9.243  14.372  12.820  1.00  0.00     0.031 A 
ATOM     49  C   UNL     1     -14.048  17.680   9.915  1.00  0.00     0.049 A 
ATOM     50  C   UNL     1      -9.602  15.831  12.766  1.00  0.00     0.074 A 
ATOM     51  C   UNL     1     -14.301  19.041   9.967  1.00  0.00     0.029 A 
ATOM     52  N   UNL     1     -12.911  17.457  10.676  1.00  0.00    -0.354 N 
ATOM     53  N   UNL     1     -10.606  16.409  12.151  1.00  0.00    -0.248 NA
ATOM     54  C   UNL     1      -8.731  16.754  13.506  1.00  0.00     0.031 C 
ATOM     55  C   UNL     1     -13.291  19.645  10.726  1.00  0.00     0.029 A 
ATOM     56  C   UNL     1     -12.440  18.655  11.188  1.00  0.00     0.049 A 
ATOM     57  H   UNL     1     -12.499  16.576  10.830  1.00  0.00     0.167 HD
ATOM     58  C   UNL     1     -10.498  17.764  12.446  1.00  0.00     0.074 A 
ATOM     59  C   UNL     1      -9.346  17.913  13.312  1.00  0.00     0.031 C 
ATOM     60  C   UNL     1     -11.284  18.791  12.037  1.00  0.00     0.031 A 
BRANCH  47  61
ATOM     61  C   UNL     1     -15.972  17.071   8.388  1.00  0.00    -0.014 A 
ATOM     62  C   UNL     1     -17.285  16.765   8.792  1.00  0.00     0.010 A 
ATOM     63  C   UNL     1     -15.776  17.804   7.203  1.00  0.00     0.010 A 
ATOM     64  C   UNL     1     -18.376  17.144   8.006  1.00  0.00     0.020 A 
ATOM     65  C   UNL     1     -16.867  18.209   6.427  1.00  0.00     0.020 A 
ATOM     66  C   UNL     1     -18.159  17.860   6.825  1.00  0.00     0.054 A 
BRANCH  66  67
ATOM     67  S   UNL     1     -19.595  18.353   5.831  1.00  0.00     0.124 S 
ATOM     68  O   UNL     1     -19.985  17.086   5.218  1.00  0.00    -0.237 OA
ATOM     69  O   UNL     1     -20.518  18.874   6.836  1.00  0.00    -0.237 OA
ATOM     70  O   UNL     1     -19.053  19.350   4.911  1.00  0.00    -0.744 OA
ENDBRANCH  66  67
ENDBRANCH  47  61
BRANCH  48  71
ATOM     71  C   UNL     1      -8.051  13.905  13.578  1.00  0.00    -0.014 A 
ATOM     72  C   UNL     1      -8.043  13.928  14.984  1.00  0.00     0.010 A 
ATOM     73  C   UNL     1      -6.923  13.415  12.895  1.00  0.00     0.010 A 
ATOM     74  C   UNL     1      -6.924  13.483  15.693  1.00  0.00     0.020 A 
ATOM     75  C   UNL     1      -5.812  12.945  13.601  1.00  0.00     0.020 A 
ATOM     76  C   UNL     1      -5.816  12.992  14.997  1.00  0.00     0.054 A 
BRANCH  76  77
ATOM     77  S   UNL     1      -4.398  12.361  15.937  1.00  0.00     0.124 S 
ATOM     78  O   UNL     1      -3.758  13.594  16.384  1.00  0.00    -0.237 OA
ATOM     79  O   UNL     1      -5.038  11.565  16.981  1.00  0.00    -0.237 OA
ATOM     80  O   UNL     1      -3.650  11.589  14.947  1.00  0.00    -0.744 OA
ENDBRANCH  76  77
ENDBRANCH  48  71
BRANCH  60  81
ATOM     81  C   UNL     1     -10.931  20.165  12.540  1.00  0.00    -0.014 A 
ATOM     82  C   UNL     1      -9.797  20.846  12.062  1.00  0.00     0.010 A 
ATOM     83  C   UNL     1     -11.760  20.794  13.487  1.00  0.00     0.010 A 
ATOM     84  C   UNL     1      -9.472  22.112  12.557  1.00  0.00     0.020 A 
ATOM     85  C   UNL     1     -11.453  22.071  13.964  1.00  0.00     0.020 A 
ATOM     86  C   UNL     1     -10.300  22.713  13.510  1.00  0.00     0.054 A 
BRANCH  86  87
ATOM     87  S   UNL     1      -9.869  24.364  14.126  1.00  0.00     0.124 S 
ATOM     88  O   UNL     1      -8.774  24.067  15.046  1.00  0.00    -0.237 OA
ATOM     89  O   UNL     1      -9.490  25.075  12.907  1.00  0.00    -0.237 OA
ATOM     90  O   UNL     1     -11.102  24.831  14.754  1.00  0.00    -0.744 OA
ENDBRANCH  86  87
ENDBRANCH  60  81
ENDBRANCH  34  35
ENDBRANCH  26  29
ENDBRANCH  24  25
ENDBRANCH  23  24
ENDBRANCH   1  23
TORSDOF 17
