REMARK SMILES O=C(NCCCNC(=O)c1cnc2sc(N3CCCCCC3)nn2c1=O)c1ccc(-c2c3nc(c(-c4ccc(S(=O)(=O)[O-])cc4)c4ccc([nH]4)c(-c4ccc(S(=O)(=O)[O-])cc4)c4nc(c(-c5ccc(S(=O)(=O)[O-])cc5)c5ccc2[nH]5)C=C4)C=C3)cc1
REMARK SMILES IDX 6 1 5 2 4 3 3 4 1 5 2 6 27 8 28 9 86 10 29 11 85 12 30 13
REMARK SMILES IDX 31 14 32 15 79 16 33 17 84 18 78 19 80 20 34 21 83 22 77 23
REMARK SMILES IDX 76 24 35 26 65 27 46 28 64 29 47 30 50 31 63 32 81 33 48 34
REMARK SMILES IDX 49 35 62 37 82 38 51 39 36 40 37 41 45 42 38 43 44 44 39 45
REMARK SMILES IDX 40 46 41 47 42 48 43 49 66 50 67 51 75 52 68 53 74 54 69 55
REMARK SMILES IDX 70 56 71 57 72 58 73 59 52 60 53 61 61 62 54 63 60 64 55 65
REMARK SMILES IDX 56 66 57 67 58 68 59 69 7 70 8 71 9 73 10 74 11 75 25 76
REMARK SMILES IDX 12 77 24 78 26 79 13 80 23 81 14 82 15 83 16 84 17 85 18 86
REMARK SMILES IDX 22 88 21 89 20 90 19 91
REMARK H PARENT 3 7 80 25 50 36 7 72
REMARK Flexibility Score: 80.00
ROOT
ATOM      1  C   UNL     1       4.418   3.305   1.919  1.00  0.00     0.118 C 
ENDROOT
BRANCH   1   2
ATOM      2  C   UNL     1       4.937   2.345   0.858  1.00  0.00     0.042 C 
BRANCH   2   3
ATOM      3  C   UNL     1       4.537   0.898   1.096  1.00  0.00     0.118 C 
BRANCH   3   4
ATOM      4  N   UNL     1       3.101   0.689   0.968  1.00  0.00    -0.352 N 
ATOM      5  O   UNL     1       1.180   0.047  -0.013  1.00  0.00    -0.269 OA
ATOM      6  C   UNL     1       2.403  -0.061   0.053  1.00  0.00     0.251 C 
ATOM      7  H   UNL     1       2.549   1.155   1.636  1.00  0.00     0.163 HD
BRANCH   6   8
ATOM      8  C   UNL     1       3.118  -0.984  -0.854  1.00  0.00     0.039 A 
ATOM      9  C   UNL     1       4.164  -1.779  -0.381  1.00  0.00     0.014 A 
ATOM     10  C   UNL     1       2.708  -1.088  -2.187  1.00  0.00     0.014 A 
ATOM     11  C   UNL     1       4.883  -2.577  -1.262  1.00  0.00     0.010 A 
ATOM     12  C   UNL     1       3.370  -1.966  -3.051  1.00  0.00     0.010 A 
ATOM     13  C   UNL     1       4.469  -2.711  -2.595  1.00  0.00    -0.014 A 
BRANCH  13  14
ATOM     14  C   UNL     1       5.107  -3.743  -3.448  1.00  0.00     0.031 A 
ATOM     15  C   UNL     1       5.889  -3.377  -4.677  1.00  0.00     0.074 A 
ATOM     16  C   UNL     1       4.958  -5.035  -3.090  1.00  0.00     0.049 A 
ATOM     17  N   UNL     1       6.488  -4.170  -5.528  1.00  0.00    -0.248 NA
ATOM     18  C   UNL     1       6.015  -1.946  -4.999  1.00  0.00     0.031 C 
ATOM     19  C   UNL     1       4.201  -5.503  -1.922  1.00  0.00     0.029 A 
ATOM     20  N   UNL     1       5.430  -6.189  -3.658  1.00  0.00    -0.354 N 
ATOM     21  C   UNL     1       7.038  -3.343  -6.500  1.00  0.00     0.074 A 
ATOM     22  C   UNL     1       6.698  -1.983  -6.138  1.00  0.00     0.031 C 
ATOM     23  C   UNL     1       4.285  -6.838  -1.846  1.00  0.00     0.029 A 
ATOM     24  C   UNL     1       5.034  -7.328  -2.995  1.00  0.00     0.049 A 
ATOM     25  H   UNL     1       5.997  -6.202  -4.462  1.00  0.00     0.167 HD
ATOM     26  C   UNL     1       7.755  -3.695  -7.594  1.00  0.00     0.031 A 
ATOM     27  C   UNL     1       5.214  -8.627  -3.297  1.00  0.00     0.031 A 
ATOM     28  C   UNL     1       8.093  -5.053  -7.934  1.00  0.00     0.049 A 
ATOM     29  C   UNL     1       5.979  -8.980  -4.538  1.00  0.00     0.074 A 
ATOM     30  C   UNL     1       8.880  -5.503  -8.981  1.00  0.00     0.029 A 
ATOM     31  N   UNL     1       7.652  -6.178  -7.254  1.00  0.00    -0.354 N 
ATOM     32  N   UNL     1       6.564  -8.179  -5.397  1.00  0.00    -0.248 NA
ATOM     33  C   UNL     1       6.102 -10.408  -4.858  1.00  0.00     0.031 C 
ATOM     34  C   UNL     1       8.856  -6.901  -8.976  1.00  0.00     0.029 A 
ATOM     35  C   UNL     1       8.107  -7.322  -7.889  1.00  0.00     0.049 A 
ATOM     36  H   UNL     1       7.099  -6.166  -6.440  1.00  0.00     0.167 HD
ATOM     37  C   UNL     1       7.128  -9.008  -6.358  1.00  0.00     0.074 A 
ATOM     38  C   UNL     1       6.845 -10.371  -5.956  1.00  0.00     0.031 C 
ATOM     39  C   UNL     1       7.809  -8.670  -7.479  1.00  0.00     0.031 A 
BRANCH  26  40
ATOM     40  C   UNL     1       8.210  -2.611  -8.535  1.00  0.00    -0.014 A 
ATOM     41  C   UNL     1       9.281  -1.760  -8.210  1.00  0.00     0.010 A 
ATOM     42  C   UNL     1       7.635  -2.527  -9.818  1.00  0.00     0.010 A 
ATOM     43  C   UNL     1       9.763  -0.842  -9.148  1.00  0.00     0.020 A 
ATOM     44  C   UNL     1       8.128  -1.625 -10.765  1.00  0.00     0.020 A 
ATOM     45  C   UNL     1       9.187  -0.784 -10.422  1.00  0.00     0.054 A 
BRANCH  45  46
ATOM     46  S   UNL     1       9.883   0.367 -11.641  1.00  0.00     0.124 S 
ATOM     47  O   UNL     1       9.457   1.660 -11.111  1.00  0.00    -0.237 OA
ATOM     48  O   UNL     1      11.315   0.095 -11.555  1.00  0.00    -0.237 OA
ATOM     49  O   UNL     1       9.250  -0.030 -12.896  1.00  0.00    -0.744 OA
ENDBRANCH  45  46
ENDBRANCH  26  40
BRANCH  27  50
ATOM     50  C   UNL     1       4.596  -9.681  -2.447  1.00  0.00    -0.014 A 
ATOM     51  C   UNL     1       5.390 -10.569  -1.704  1.00  0.00     0.010 A 
ATOM     52  C   UNL     1       3.194  -9.803  -2.390  1.00  0.00     0.010 A 
ATOM     53  C   UNL     1       4.795 -11.582  -0.946  1.00  0.00     0.020 A 
ATOM     54  C   UNL     1       2.595 -10.791  -1.606  1.00  0.00     0.020 A 
ATOM     55  C   UNL     1       3.401 -11.688  -0.905  1.00  0.00     0.054 A 
BRANCH  55  56
ATOM     56  S   UNL     1       2.649 -13.002   0.092  1.00  0.00     0.124 S 
ATOM     57  O   UNL     1       2.893 -14.182  -0.730  1.00  0.00    -0.237 OA
ATOM     58  O   UNL     1       3.409 -12.929   1.338  1.00  0.00    -0.237 OA
ATOM     59  O   UNL     1       1.251 -12.590   0.200  1.00  0.00    -0.744 OA
ENDBRANCH  55  56
ENDBRANCH  27  50
BRANCH  39  60
ATOM     60  C   UNL     1       8.298  -9.794  -8.350  1.00  0.00    -0.014 A 
ATOM     61  C   UNL     1       7.401 -10.538  -9.136  1.00  0.00     0.010 A 
ATOM     62  C   UNL     1       9.675 -10.071  -8.427  1.00  0.00     0.010 A 
ATOM     63  C   UNL     1       7.870 -11.555  -9.970  1.00  0.00     0.020 A 
ATOM     64  C   UNL     1      10.151 -11.068  -9.281  1.00  0.00     0.020 A 
ATOM     65  C   UNL     1       9.243 -11.810 -10.040  1.00  0.00     0.054 A 
BRANCH  65  66
ATOM     66  S   UNL     1       9.832 -13.094 -11.178  1.00  0.00     0.124 S 
ATOM     67  O   UNL     1       9.413 -14.317 -10.500  1.00  0.00    -0.237 OA
ATOM     68  O   UNL     1       9.113 -12.781 -12.412  1.00  0.00    -0.237 OA
ATOM     69  O   UNL     1      11.275 -12.875 -11.232  1.00  0.00    -0.744 OA
ENDBRANCH  65  66
ENDBRANCH  39  60
ENDBRANCH  13  14
ENDBRANCH   6   8
ENDBRANCH   3   4
ENDBRANCH   2   3
ENDBRANCH   1   2
BRANCH   1  70
ATOM     70  N   UNL     1       5.005   3.054   3.231  1.00  0.00    -0.352 N 
ATOM     71  C   UNL     1       5.783   3.871   4.002  1.00  0.00     0.258 C 
ATOM     72  H   UNL     1       4.814   2.168   3.616  1.00  0.00     0.163 HD
ATOM     73  O   UNL     1       6.264   3.462   5.055  1.00  0.00    -0.269 OA
BRANCH  71  74
ATOM     74  C   UNL     1       6.101   5.211   3.487  1.00  0.00     0.125 A 
ATOM     75  C   UNL     1       7.385   5.488   3.208  1.00  0.00     0.134 A 
ATOM     76  C   UNL     1       5.064   6.213   3.152  1.00  0.00     0.288 A 
ATOM     77  N   UNL     1       7.824   6.602   2.528  1.00  0.00    -0.226 NA
ATOM     78  N   UNL     1       5.556   7.272   2.417  1.00  0.00    -0.165 N 
ATOM     79  O   UNL     1       3.889   6.046   3.470  1.00  0.00    -0.266 OA
ATOM     80  C   UNL     1       6.889   7.401   2.134  1.00  0.00     0.217 A 
ATOM     81  N   UNL     1       4.720   8.218   1.887  1.00  0.00    -0.133 NA
ATOM     82  S   UNL     1       7.142   8.776   1.122  1.00  0.00    -0.057 S 
ATOM     83  C   UNL     1       5.402   9.037   1.146  1.00  0.00     0.208 A 
BRANCH  83  84
ATOM     84  N   UNL     1       4.866  10.079   0.423  1.00  0.00    -0.347 N 
BRANCH  84  85
ATOM     85  C   UNL     1       5.150  10.220  -1.003  1.00  0.00     0.119 C 
BRANCH  85  86
ATOM     86  C   UNL     1       6.093  11.390  -1.253  1.00  0.00     0.021 CG0
ATOM     87  G   UNL     1       5.446  12.763  -1.080  1.00  0.00     0.000 G0
ENDBRANCH  85  86
ENDBRANCH  84  85
BRANCH  84  88
ATOM     88  C   UNL     1       3.680  10.748   0.953  1.00  0.00     0.119 C 
BRANCH  88  89
ATOM     89  C   UNL     1       3.470  12.162   0.413  1.00  0.00     0.021 C 
BRANCH  89  90
ATOM     90  C   UNL     1       4.750  12.987   0.264  1.00  0.00     0.002 C 
BRANCH  90  91
ATOM     91  C   UNL     1       5.446  12.763  -1.080  1.00  0.00     0.002 CG0
ATOM     92  G   UNL     1       6.093  11.390  -1.253  1.00  0.00     0.000 G0
ENDBRANCH  90  91
ENDBRANCH  89  90
ENDBRANCH  88  89
ENDBRANCH  84  88
ENDBRANCH  83  84
ENDBRANCH  71  74
ENDBRANCH   1  70
TORSDOF 14
