REMARK SMILES O=C(CCC(=O)Nc1ccc2nc(-c3ccccc3)oc2c1)NCCCNC(=O)c1ccc(-c2c3nc(c(-c4ccc(S(=O)(=O)[O-])cc4)c4ccc([nH]4)c(-c4ccc(S(=O)(=O)[O-])cc4)c4nc(c(-c5ccc(S(=O)(=O)[O-])cc5)c5ccc2[nH]5)C=C4)C=C3)cc1
REMARK SMILES IDX 24 1 23 2 1 3 2 4 3 6 4 7 5 8 6 9 7 10 8 12 9 13 22 14 10 15
REMARK SMILES IDX 21 16 11 17 20 18 12 19 13 20 14 21 15 22 19 23 16 24 18 25
REMARK SMILES IDX 17 26 25 27 26 28 27 29 28 30 29 32 30 33 31 34 89 35 32 36
REMARK SMILES IDX 88 37 33 38 34 39 35 40 82 41 36 42 87 43 81 44 83 45 37 46
REMARK SMILES IDX 86 47 80 48 79 49 38 51 68 52 49 53 67 54 50 55 53 56 66 57
REMARK SMILES IDX 84 58 51 59 52 60 65 62 85 63 54 64 39 65 40 66 48 67 41 68
REMARK SMILES IDX 47 69 42 70 43 71 44 72 45 73 46 74 69 75 70 76 78 77 71 78
REMARK SMILES IDX 77 79 72 80 73 81 74 82 75 83 76 84 55 85 56 86 64 87 57 88
REMARK SMILES IDX 63 89 58 90 59 91 60 92 61 93 62 94
REMARK H PARENT 23 5 7 11 27 31 83 50 53 61
REMARK Flexibility Score: inf
ROOT
ATOM      1  C   UNL     1       2.282   2.100  -0.695  1.00  0.00     0.117 C 
ENDROOT
BRANCH   1   2
ATOM      2  N   UNL     1       3.239   1.283   0.029  1.00  0.00    -0.356 N 
ATOM      3  O   UNL     1       1.718   0.260   1.423  1.00  0.00    -0.275 OA
ATOM      4  C   UNL     1       2.850   0.344   0.957  1.00  0.00     0.220 C 
ATOM      5  H   UNL     1       4.200   1.405  -0.150  1.00  0.00     0.163 HD
BRANCH   4   6
ATOM      6  C   UNL     1       3.921  -0.669   1.291  1.00  0.00     0.110 C 
BRANCH   6   7
ATOM      7  C   UNL     1       4.033  -1.789   0.256  1.00  0.00     0.110 C 
BRANCH   7   8
ATOM      8  C   UNL     1       4.495  -1.315  -1.103  1.00  0.00     0.224 C 
ATOM      9  O   UNL     1       5.699  -1.082  -1.268  1.00  0.00    -0.275 OA
ATOM     10  N   UNL     1       3.681  -1.082  -2.171  1.00  0.00    -0.326 N 
ATOM     11  H   UNL     1       4.185  -0.978  -3.011  1.00  0.00     0.169 HD
BRANCH  10  12
ATOM     12  C   UNL     1       2.288  -0.956  -2.362  1.00  0.00     0.045 A 
ATOM     13  C   UNL     1       1.329  -1.167  -1.366  1.00  0.00     0.028 A 
ATOM     14  C   UNL     1       1.879  -0.455  -3.620  1.00  0.00     0.075 A 
ATOM     15  C   UNL     1      -0.003  -0.753  -1.507  1.00  0.00     0.034 A 
ATOM     16  C   UNL     1       0.537  -0.088  -3.739  1.00  0.00     0.157 A 
ATOM     17  C   UNL     1      -0.386  -0.179  -2.712  1.00  0.00     0.110 A 
ATOM     18  O   UNL     1      -0.117   0.417  -4.833  1.00  0.00    -0.436 OA
ATOM     19  N   UNL     1      -1.586   0.326  -3.102  1.00  0.00    -0.209 NA
ATOM     20  C   UNL     1      -1.395   0.624  -4.370  1.00  0.00     0.227 A 
BRANCH  20  21
ATOM     21  C   UNL     1      -2.425   0.962  -5.334  1.00  0.00     0.037 A 
ATOM     22  C   UNL     1      -3.264   2.061  -5.111  1.00  0.00     0.014 A 
ATOM     23  C   UNL     1      -2.724   0.066  -6.368  1.00  0.00     0.014 A 
ATOM     24  C   UNL     1      -4.405   2.243  -5.895  1.00  0.00     0.001 A 
ATOM     25  C   UNL     1      -3.874   0.240  -7.138  1.00  0.00     0.001 A 
ATOM     26  C   UNL     1      -4.718   1.323  -6.894  1.00  0.00     0.000 A 
ENDBRANCH  20  21
ENDBRANCH  10  12
ENDBRANCH   7   8
ENDBRANCH   6   7
ENDBRANCH   4   6
ENDBRANCH   1   2
BRANCH   1  27
ATOM     27  C   UNL     1       2.604   3.579  -0.700  1.00  0.00     0.042 C 
BRANCH  27  28
ATOM     28  C   UNL     1       3.990   3.929  -1.216  1.00  0.00     0.118 C 
BRANCH  28  29
ATOM     29  N   UNL     1       4.249   3.558  -2.602  1.00  0.00    -0.352 N 
ATOM     30  C   UNL     1       4.950   4.259  -3.562  1.00  0.00     0.251 C 
ATOM     31  H   UNL     1       3.874   2.695  -2.891  1.00  0.00     0.163 HD
ATOM     32  O   UNL     1       5.037   3.813  -4.703  1.00  0.00    -0.269 OA
BRANCH  30  33
ATOM     33  C   UNL     1       5.546   5.573  -3.221  1.00  0.00     0.039 A 
ATOM     34  C   UNL     1       5.376   6.649  -4.096  1.00  0.00     0.014 A 
ATOM     35  C   UNL     1       6.210   5.763  -2.008  1.00  0.00     0.014 A 
ATOM     36  C   UNL     1       5.790   7.928  -3.710  1.00  0.00     0.010 A 
ATOM     37  C   UNL     1       6.510   7.050  -1.578  1.00  0.00     0.010 A 
ATOM     38  C   UNL     1       6.317   8.149  -2.427  1.00  0.00    -0.014 A 
BRANCH  38  39
ATOM     39  C   UNL     1       6.704   9.507  -1.956  1.00  0.00     0.031 A 
ATOM     40  C   UNL     1       8.125   9.773  -1.526  1.00  0.00     0.074 A 
ATOM     41  C   UNL     1       5.774  10.477  -1.838  1.00  0.00     0.049 A 
ATOM     42  N   UNL     1       8.643  10.857  -1.006  1.00  0.00    -0.248 NA
ATOM     43  C   UNL     1       9.081   8.660  -1.657  1.00  0.00     0.031 C 
ATOM     44  C   UNL     1       4.350  10.338  -2.157  1.00  0.00     0.029 A 
ATOM     45  N   UNL     1       5.888  11.778  -1.411  1.00  0.00    -0.354 N 
ATOM     46  C   UNL     1       9.967  10.544  -0.720  1.00  0.00     0.074 A 
ATOM     47  C   UNL     1      10.156   9.152  -1.061  1.00  0.00     0.031 C 
ATOM     48  C   UNL     1       3.735  11.515  -1.953  1.00  0.00     0.029 A 
ATOM     49  C   UNL     1       4.707  12.482  -1.454  1.00  0.00     0.049 A 
ATOM     50  H   UNL     1       6.737  12.170  -1.103  1.00  0.00     0.167 HD
ATOM     51  C   UNL     1      10.950  11.345  -0.246  1.00  0.00     0.031 A 
ATOM     52  C   UNL     1       4.438  13.763  -1.133  1.00  0.00     0.031 A 
ATOM     53  C   UNL     1      10.775  12.740   0.052  1.00  0.00     0.049 A 
ATOM     54  C   UNL     1       5.555  14.650  -0.652  1.00  0.00     0.074 A 
ATOM     55  C   UNL     1      11.723  13.657   0.471  1.00  0.00     0.029 A 
ATOM     56  N   UNL     1       9.574  13.424  -0.054  1.00  0.00    -0.354 N 
ATOM     57  N   UNL     1       6.816  14.349  -0.448  1.00  0.00    -0.248 NA
ATOM     58  C   UNL     1       5.218  16.053  -0.378  1.00  0.00     0.031 C 
ATOM     59  C   UNL     1      11.087  14.889   0.652  1.00  0.00     0.029 A 
ATOM     60  C   UNL     1       9.754  14.750   0.297  1.00  0.00     0.049 A 
ATOM     61  H   UNL     1       8.719  13.025  -0.336  1.00  0.00     0.167 HD
ATOM     62  C   UNL     1       7.428  15.534  -0.056  1.00  0.00     0.074 A 
ATOM     63  C   UNL     1       6.402  16.557  -0.061  1.00  0.00     0.031 C 
ATOM     64  C   UNL     1       8.724  15.757   0.276  1.00  0.00     0.031 A 
BRANCH  51  65
ATOM     65  C   UNL     1      12.307  10.725  -0.035  1.00  0.00    -0.014 A 
ATOM     66  C   UNL     1      13.094  10.314  -1.127  1.00  0.00     0.010 A 
ATOM     67  C   UNL     1      12.811  10.566   1.268  1.00  0.00     0.010 A 
ATOM     68  C   UNL     1      14.333   9.705  -0.919  1.00  0.00     0.020 A 
ATOM     69  C   UNL     1      14.065   9.986   1.480  1.00  0.00     0.020 A 
ATOM     70  C   UNL     1      14.809   9.539   0.385  1.00  0.00     0.054 A 
BRANCH  70  71
ATOM     71  S   UNL     1      16.426   8.756   0.627  1.00  0.00     0.124 S 
ATOM     72  O   UNL     1      16.122   7.352   0.362  1.00  0.00    -0.237 OA
ATOM     73  O   UNL     1      17.257   9.418  -0.375  1.00  0.00    -0.237 OA
ATOM     74  O   UNL     1      16.759   9.070   2.014  1.00  0.00    -0.744 OA
ENDBRANCH  70  71
ENDBRANCH  51  65
BRANCH  52  75
ATOM     75  C   UNL     1       3.059  14.301  -1.301  1.00  0.00    -0.014 A 
ATOM     76  C   UNL     1       2.772  15.210  -2.336  1.00  0.00     0.010 A 
ATOM     77  C   UNL     1       2.025  13.905  -0.434  1.00  0.00     0.010 A 
ATOM     78  C   UNL     1       1.483  15.729  -2.487  1.00  0.00     0.020 A 
ATOM     79  C   UNL     1       0.728  14.402  -0.599  1.00  0.00     0.020 A 
ATOM     80  C   UNL     1       0.468  15.322  -1.618  1.00  0.00     0.054 A 
BRANCH  80  81
ATOM     81  S   UNL     1      -1.208  15.972  -1.863  1.00  0.00     0.124 S 
ATOM     82  O   UNL     1      -1.081  17.337  -1.362  1.00  0.00    -0.237 OA
ATOM     83  O   UNL     1      -1.390  15.842  -3.307  1.00  0.00    -0.237 OA
ATOM     84  O   UNL     1      -2.041  15.083  -1.056  1.00  0.00    -0.744 OA
ENDBRANCH  80  81
ENDBRANCH  52  75
BRANCH  64  85
ATOM     85  C   UNL     1       9.122  17.169   0.610  1.00  0.00    -0.014 A 
ATOM     86  C   UNL     1       8.739  17.771   1.821  1.00  0.00     0.010 A 
ATOM     87  C   UNL     1       9.938  17.885  -0.285  1.00  0.00     0.010 A 
ATOM     88  C   UNL     1       9.137  19.078   2.115  1.00  0.00     0.020 A 
ATOM     89  C   UNL     1      10.361  19.181   0.017  1.00  0.00     0.020 A 
ATOM     90  C   UNL     1       9.943  19.775   1.210  1.00  0.00     0.054 A 
BRANCH  90  91
ATOM     91  S   UNL     1      10.478  21.457   1.629  1.00  0.00     0.124 S 
ATOM     92  O   UNL     1       9.262  22.230   1.392  1.00  0.00    -0.237 OA
ATOM     93  O   UNL     1      10.878  21.328   3.029  1.00  0.00    -0.237 OA
ATOM     94  O   UNL     1      11.573  21.715   0.697  1.00  0.00    -0.744 OA
ENDBRANCH  90  91
ENDBRANCH  64  85
ENDBRANCH  38  39
ENDBRANCH  30  33
ENDBRANCH  28  29
ENDBRANCH  27  28
ENDBRANCH   1  27
TORSDOF 17
