REMARK SMILES CCCc1cc2c(cc1Cl)C=C(C(=O)NCCCNC(=O)c1ccc(-c3c4nc(c(-c5ccc(S(=O)(=O)[O-])cc5)c5ccc([nH]5)c(-c5ccc(S(=O)(=O)[O-])cc5)c5nc(c(-c6ccc(S(=O)(=O)[O-])cc6)c6ccc3[nH]6)C=C5)C=C4)cc1)[C@H](C(F)(F)F)O2
REMARK SMILES IDX 17 1 16 2 15 3 13 4 14 5 12 7 4 8 5 9 9 10 6 11 8 12 10 13
REMARK SMILES IDX 7 14 87 15 11 16 82 17 3 18 2 19 1 20 83 21 84 22 85 23
REMARK SMILES IDX 86 24 18 25 19 26 20 27 21 29 22 30 23 31 81 32 24 33 80 34
REMARK SMILES IDX 25 35 26 36 27 37 74 38 28 39 79 40 73 41 75 42 29 43 78 44
REMARK SMILES IDX 72 45 71 46 30 48 60 49 41 50 59 51 42 52 45 53 58 54 76 55
REMARK SMILES IDX 43 56 44 57 57 59 77 60 46 61 31 62 32 63 40 64 33 65 39 66
REMARK SMILES IDX 34 67 35 68 36 69 37 70 38 71 61 72 62 73 70 74 63 75 69 76
REMARK SMILES IDX 64 77 65 78 66 79 67 80 68 81 47 82 48 83 56 84 49 85 55 86
REMARK SMILES IDX 50 87 51 88 52 89 53 90 54 91
REMARK H PARENT 15 6 19 28 75 47 45 58
REMARK Flexibility Score: inf
ROOT
ATOM      1  C   UNL     1      -6.070   6.856   0.839  1.00  0.00     0.042 C 
ENDROOT
BRANCH   1   2
ATOM      2  C   UNL     1      -4.832   6.917  -0.046  1.00  0.00     0.118 C 
BRANCH   2   3
ATOM      3  N   UNL     1      -3.716   7.559   0.631  1.00  0.00    -0.352 N 
ATOM      4  C   UNL     1      -2.572   7.175   1.242  1.00  0.00     0.251 C 
ATOM      5  O   UNL     1      -1.846   8.098   1.624  1.00  0.00    -0.270 OA
ATOM      6  H   UNL     1      -3.823   8.538   0.651  1.00  0.00     0.163 HD
BRANCH   4   7
ATOM      7  C   UNL     1      -2.143   5.763   1.462  1.00  0.00     0.067 C 
ATOM      8  C   UNL     1       0.602   1.616   2.386  1.00  0.00    -0.026 A 
ATOM      9  C   UNL     1      -0.710   1.870   1.958  1.00  0.00     0.052 A 
ATOM     10  C   UNL     1       1.408   2.720   2.714  1.00  0.00     0.045 A 
ATOM     11  C   UNL     1      -1.168   3.171   1.776  1.00  0.00     0.128 A 
ATOM     12  C   UNL     1       0.936   4.031   2.548  1.00  0.00     0.032 A 
ATOM     13  Cl  UNL     1       3.019   2.537   3.316  1.00  0.00    -0.084 Cl
ATOM     14  C   UNL     1      -0.352   4.259   2.058  1.00  0.00     0.019 A 
ATOM     15  O   UNL     1      -2.417   3.291   1.247  1.00  0.00    -0.475 OA
ATOM     16  C   UNL     1      -0.847   5.602   1.792  1.00  0.00     0.025 C 
ATOM     17  C   UNL     1      -3.068   4.576   1.416  1.00  0.00     0.314 C 
BRANCH   8  18
ATOM     18  C   UNL     1       1.075   0.181   2.490  1.00  0.00     0.037 C 
BRANCH  18  19
ATOM     19  C   UNL     1       0.638  -0.741   1.337  1.00  0.00     0.001 C 
ATOM     20  C   UNL     1       1.097  -0.256  -0.033  1.00  0.00     0.004 C 
ENDBRANCH  18  19
ENDBRANCH   8  18
BRANCH  17  21
ATOM     21  C   UNL     1      -4.053   4.503   2.595  1.00  0.00     0.429 C 
ATOM     22  F   UNL     1      -3.678   3.604   3.531  1.00  0.00    -0.167 F 
ATOM     23  F   UNL     1      -4.201   5.691   3.223  1.00  0.00    -0.167 F 
ATOM     24  F   UNL     1      -5.280   4.134   2.148  1.00  0.00    -0.167 F 
ENDBRANCH  17  21
ENDBRANCH   4   7
ENDBRANCH   2   3
ENDBRANCH   1   2
BRANCH   1  25
ATOM     25  C   UNL     1      -6.808   8.187   0.903  1.00  0.00     0.118 C 
BRANCH  25  26
ATOM     26  N   UNL     1      -7.518   8.479  -0.337  1.00  0.00    -0.352 N 
ATOM     27  C   UNL     1      -8.868   8.503  -0.601  1.00  0.00     0.251 C 
ATOM     28  H   UNL     1      -6.941   8.691  -1.106  1.00  0.00     0.163 HD
ATOM     29  O   UNL     1      -9.254   8.536  -1.768  1.00  0.00    -0.269 OA
BRANCH  27  30
ATOM     30  C   UNL     1      -9.847   8.463   0.507  1.00  0.00     0.039 A 
ATOM     31  C   UNL     1      -9.616   9.176   1.683  1.00  0.00     0.014 A 
ATOM     32  C   UNL     1     -11.012   7.704   0.373  1.00  0.00     0.014 A 
ATOM     33  C   UNL     1     -10.428   8.965   2.789  1.00  0.00     0.010 A 
ATOM     34  C   UNL     1     -11.897   7.591   1.451  1.00  0.00     0.010 A 
ATOM     35  C   UNL     1     -11.585   8.176   2.688  1.00  0.00    -0.014 A 
BRANCH  35  36
ATOM     36  C   UNL     1     -12.448   7.992   3.885  1.00  0.00     0.031 A 
ATOM     37  C   UNL     1     -12.680   6.622   4.467  1.00  0.00     0.074 A 
ATOM     38  C   UNL     1     -12.977   9.078   4.485  1.00  0.00     0.049 A 
ATOM     39  N   UNL     1     -13.386   6.287   5.517  1.00  0.00    -0.248 NA
ATOM     40  C   UNL     1     -12.047   5.479   3.787  1.00  0.00     0.031 C 
ATOM     41  C   UNL     1     -12.805  10.459   4.024  1.00  0.00     0.029 A 
ATOM     42  N   UNL     1     -13.735   9.204   5.623  1.00  0.00    -0.354 N 
ATOM     43  C   UNL     1     -13.299   4.902   5.611  1.00  0.00     0.074 A 
ATOM     44  C   UNL     1     -12.502   4.452   4.492  1.00  0.00     0.031 C 
ATOM     45  C   UNL     1     -13.376  11.292   4.903  1.00  0.00     0.029 A 
ATOM     46  C   UNL     1     -14.034  10.508   5.943  1.00  0.00     0.049 A 
ATOM     47  H   UNL     1     -14.036   8.435   6.158  1.00  0.00     0.167 HD
ATOM     48  C   UNL     1     -13.824   4.085   6.555  1.00  0.00     0.031 A 
ATOM     49  C   UNL     1     -14.768  11.027   6.948  1.00  0.00     0.031 A 
ATOM     50  C   UNL     1     -14.598   4.549   7.678  1.00  0.00     0.049 A 
ATOM     51  C   UNL     1     -15.377  10.097   7.956  1.00  0.00     0.074 A 
ATOM     52  C   UNL     1     -15.149   3.799   8.703  1.00  0.00     0.029 A 
ATOM     53  N   UNL     1     -14.926   5.873   7.932  1.00  0.00    -0.354 N 
ATOM     54  N   UNL     1     -15.268   8.792   8.036  1.00  0.00    -0.248 NA
ATOM     55  C   UNL     1     -16.205  10.700   9.009  1.00  0.00     0.031 C 
ATOM     56  C   UNL     1     -15.874   4.658   9.530  1.00  0.00     0.029 A 
ATOM     57  C   UNL     1     -15.703   5.956   9.076  1.00  0.00     0.049 A 
ATOM     58  H   UNL     1     -14.647   6.640   7.381  1.00  0.00     0.167 HD
ATOM     59  C   UNL     1     -16.004   8.418   9.154  1.00  0.00     0.074 A 
ATOM     60  C   UNL     1     -16.532   9.636   9.734  1.00  0.00     0.031 C 
ATOM     61  C   UNL     1     -16.225   7.175   9.647  1.00  0.00     0.031 A 
BRANCH  48  62
ATOM     62  C   UNL     1     -13.592   2.598   6.433  1.00  0.00    -0.014 A 
ATOM     63  C   UNL     1     -14.687   1.738   6.224  1.00  0.00     0.010 A 
ATOM     64  C   UNL     1     -12.320   2.038   6.650  1.00  0.00     0.010 A 
ATOM     65  C   UNL     1     -14.524   0.350   6.271  1.00  0.00     0.020 A 
ATOM     66  C   UNL     1     -12.146   0.650   6.664  1.00  0.00     0.020 A 
ATOM     67  C   UNL     1     -13.254  -0.185   6.500  1.00  0.00     0.054 A 
BRANCH  67  68
ATOM     68  S   UNL     1     -13.068  -1.988   6.590  1.00  0.00     0.124 S 
ATOM     69  O   UNL     1     -13.659  -2.295   7.888  1.00  0.00    -0.237 OA
ATOM     70  O   UNL     1     -13.825  -2.444   5.426  1.00  0.00    -0.237 OA
ATOM     71  O   UNL     1     -11.623  -2.187   6.497  1.00  0.00    -0.744 OA
ENDBRANCH  67  68
ENDBRANCH  48  62
BRANCH  49  72
ATOM     72  C   UNL     1     -14.941  12.506   7.028  1.00  0.00    -0.014 A 
ATOM     73  C   UNL     1     -15.623  13.196   6.006  1.00  0.00     0.010 A 
ATOM     74  C   UNL     1     -14.336  13.244   8.060  1.00  0.00     0.010 A 
ATOM     75  C   UNL     1     -15.630  14.592   5.972  1.00  0.00     0.020 A 
ATOM     76  C   UNL     1     -14.375  14.643   8.050  1.00  0.00     0.020 A 
ATOM     77  C   UNL     1     -14.991  15.307   6.986  1.00  0.00     0.054 A 
BRANCH  77  78
ATOM     78  S   UNL     1     -14.951  17.117   6.880  1.00  0.00     0.124 S 
ATOM     79  O   UNL     1     -13.965  17.332   5.824  1.00  0.00    -0.237 OA
ATOM     80  O   UNL     1     -16.330  17.446   6.529  1.00  0.00    -0.237 OA
ATOM     81  O   UNL     1     -14.535  17.530   8.217  1.00  0.00    -0.744 OA
ENDBRANCH  77  78
ENDBRANCH  49  72
BRANCH  61  82
ATOM     82  C   UNL     1     -17.079   7.040  10.882  1.00  0.00    -0.014 A 
ATOM     83  C   UNL     1     -16.511   6.550  12.073  1.00  0.00     0.010 A 
ATOM     84  C   UNL     1     -18.468   7.255  10.825  1.00  0.00     0.010 A 
ATOM     85  C   UNL     1     -17.318   6.231  13.166  1.00  0.00     0.020 A 
ATOM     86  C   UNL     1     -19.275   6.971  11.930  1.00  0.00     0.020 A 
ATOM     87  C   UNL     1     -18.698   6.432  13.083  1.00  0.00     0.054 A 
BRANCH  87  88
ATOM     88  S   UNL     1     -19.735   5.962  14.494  1.00  0.00     0.124 S 
ATOM     89  O   UNL     1     -19.736   4.505  14.403  1.00  0.00    -0.237 OA
ATOM     90  O   UNL     1     -19.005   6.522  15.629  1.00  0.00    -0.237 OA
ATOM     91  O   UNL     1     -21.016   6.606  14.209  1.00  0.00    -0.744 OA
ENDBRANCH  87  88
ENDBRANCH  61  82
ENDBRANCH  35  36
ENDBRANCH  27  30
ENDBRANCH  25  26
ENDBRANCH   1  25
TORSDOF 16
