REMARK SMILES O=C(NCCCNC(=O)c1cc(-c2ccccc2)nc(Nc2nc3ccccc3s2)n1)c1ccc(-c2c3nc(c(-c4ccc(S(=O)(=O)[O-])cc4)c4ccc([nH]4)c(-c4ccc(S(=O)(=O)[O-])cc4)c4nc(c(-c5ccc(S(=O)(=O)[O-])cc5)c5ccc2[nH]5)C=C4)C=C3)cc1
REMARK SMILES IDX 4 1 3 2 1 3 2 4 32 6 33 7 91 8 34 9 90 10 35 11 36 12 37 13
REMARK SMILES IDX 84 14 38 15 89 16 83 17 85 18 39 19 88 20 82 21 81 22 40 24
REMARK SMILES IDX 70 25 51 26 69 27 52 28 55 29 68 30 86 31 53 32 54 33 67 35
REMARK SMILES IDX 87 36 56 37 41 38 42 39 50 40 43 41 49 42 44 43 45 44 46 45
REMARK SMILES IDX 47 46 48 47 71 48 72 49 80 50 73 51 79 52 74 53 75 54 76 55
REMARK SMILES IDX 77 56 78 57 57 58 58 59 66 60 59 61 65 62 60 63 61 64 62 65
REMARK SMILES IDX 63 66 64 67 5 68 6 69 7 70 8 71 9 73 10 74 11 75 31 76 12 77
REMARK SMILES IDX 20 78 19 79 13 80 14 81 18 82 15 83 17 84 16 85 21 86 22 88
REMARK SMILES IDX 23 89 30 90 24 91 29 92 25 93 28 94 26 95 27 96
REMARK H PARENT 3 5 85 23 55 34 7 72 21 87
REMARK Flexibility Score: inf
ROOT
ATOM      1  C   UNL     1       4.469  -0.214  -1.438  1.00  0.00     0.118 C 
ENDROOT
BRANCH   1   2
ATOM      2  N   UNL     1       3.039  -0.042  -1.214  1.00  0.00    -0.352 N 
ATOM      3  O   UNL     1       1.100   0.026  -0.083  1.00  0.00    -0.269 OA
ATOM      4  C   UNL     1       2.323   0.086  -0.047  1.00  0.00     0.251 C 
ATOM      5  H   UNL     1       2.496  -0.012  -2.034  1.00  0.00     0.163 HD
BRANCH   4   6
ATOM      6  C   UNL     1       3.021   0.273   1.245  1.00  0.00     0.039 A 
ATOM      7  C   UNL     1       4.135   1.106   1.343  1.00  0.00     0.014 A 
ATOM      8  C   UNL     1       2.533  -0.372   2.386  1.00  0.00     0.014 A 
ATOM      9  C   UNL     1       4.859   1.160   2.527  1.00  0.00     0.010 A 
ATOM     10  C   UNL     1       3.201  -0.231   3.607  1.00  0.00     0.010 A 
ATOM     11  C   UNL     1       4.391   0.509   3.679  1.00  0.00    -0.014 A 
BRANCH  11  12
ATOM     12  C   UNL     1       5.132   0.682   4.955  1.00  0.00     0.031 A 
ATOM     13  C   UNL     1       5.780  -0.484   5.648  1.00  0.00     0.074 A 
ATOM     14  C   UNL     1       5.248   1.925   5.465  1.00  0.00     0.049 A 
ATOM     15  N   UNL     1       6.495  -0.490   6.745  1.00  0.00    -0.248 NA
ATOM     16  C   UNL     1       5.601  -1.813   5.044  1.00  0.00     0.031 C 
ATOM     17  C   UNL     1       4.652   3.134   4.886  1.00  0.00     0.029 A 
ATOM     18  N   UNL     1       5.925   2.386   6.565  1.00  0.00    -0.354 N 
ATOM     19  C   UNL     1       6.832  -1.819   6.975  1.00  0.00     0.074 A 
ATOM     20  C   UNL     1       6.225  -2.595   5.915  1.00  0.00     0.031 C 
ATOM     21  C   UNL     1       5.037   4.200   5.600  1.00  0.00     0.029 A 
ATOM     22  C   UNL     1       5.847   3.749   6.725  1.00  0.00     0.049 A 
ATOM     23  H   UNL     1       6.419   1.798   7.181  1.00  0.00     0.167 HD
ATOM     24  C   UNL     1       7.581  -2.341   7.977  1.00  0.00     0.031 A 
ATOM     25  C   UNL     1       6.356   4.553   7.677  1.00  0.00     0.031 A 
ATOM     26  C   UNL     1       8.187  -1.562   9.026  1.00  0.00     0.049 A 
ATOM     27  C   UNL     1       7.170   3.946   8.780  1.00  0.00     0.074 A 
ATOM     28  C   UNL     1       8.988  -1.996  10.068  1.00  0.00     0.029 A 
ATOM     29  N   UNL     1       8.057  -0.188   9.170  1.00  0.00    -0.354 N 
ATOM     30  N   UNL     1       7.499   2.689   8.963  1.00  0.00    -0.248 NA
ATOM     31  C   UNL     1       7.684   4.863   9.805  1.00  0.00     0.031 C 
ATOM     32  C   UNL     1       9.303  -0.893  10.868  1.00  0.00     0.029 A 
ATOM     33  C   UNL     1       8.744   0.238  10.295  1.00  0.00     0.049 A 
ATOM     34  H   UNL     1       7.552   0.399   8.562  1.00  0.00     0.167 HD
ATOM     35  C   UNL     1       8.268   2.666  10.119  1.00  0.00     0.074 A 
ATOM     36  C   UNL     1       8.374   4.037  10.579  1.00  0.00     0.031 C 
ATOM     37  C   UNL     1       8.831   1.604  10.745  1.00  0.00     0.031 A 
BRANCH  24  38
ATOM     38  C   UNL     1       7.767  -3.837   8.006  1.00  0.00    -0.014 A 
ATOM     39  C   UNL     1       8.603  -4.487   7.081  1.00  0.00     0.010 A 
ATOM     40  C   UNL     1       7.139  -4.596   9.011  1.00  0.00     0.010 A 
ATOM     41  C   UNL     1       8.779  -5.873   7.138  1.00  0.00     0.020 A 
ATOM     42  C   UNL     1       7.332  -5.979   9.087  1.00  0.00     0.020 A 
ATOM     43  C   UNL     1       8.139  -6.611   8.139  1.00  0.00     0.054 A 
BRANCH  43  44
ATOM     44  S   UNL     1       8.402  -8.405   8.205  1.00  0.00     0.124 S 
ATOM     45  O   UNL     1       7.605  -8.868   7.071  1.00  0.00    -0.237 OA
ATOM     46  O   UNL     1       9.849  -8.524   8.043  1.00  0.00    -0.237 OA
ATOM     47  O   UNL     1       7.892  -8.784   9.520  1.00  0.00    -0.744 OA
ENDBRANCH  43  44
ENDBRANCH  24  38
BRANCH  25  48
ATOM     48  C   UNL     1       6.086   6.014   7.625  1.00  0.00    -0.014 A 
ATOM     49  C   UNL     1       7.109   6.923   7.310  1.00  0.00     0.010 A 
ATOM     50  C   UNL     1       4.784   6.498   7.851  1.00  0.00     0.010 A 
ATOM     51  C   UNL     1       6.837   8.292   7.231  1.00  0.00     0.020 A 
ATOM     52  C   UNL     1       4.502   7.862   7.745  1.00  0.00     0.020 A 
ATOM     53  C   UNL     1       5.534   8.752   7.446  1.00  0.00     0.054 A 
BRANCH  53  54
ATOM     54  S   UNL     1       5.189  10.525   7.274  1.00  0.00     0.124 S 
ATOM     55  O   UNL     1       5.737  11.061   8.516  1.00  0.00    -0.237 OA
ATOM     56  O   UNL     1       5.917  10.874   6.057  1.00  0.00    -0.237 OA
ATOM     57  O   UNL     1       3.733  10.578   7.156  1.00  0.00    -0.744 OA
ENDBRANCH  53  54
ENDBRANCH  25  48
BRANCH  37  58
ATOM     58  C   UNL     1       9.631   1.889  11.986  1.00  0.00    -0.014 A 
ATOM     59  C   UNL     1       9.000   2.238  13.193  1.00  0.00     0.010 A 
ATOM     60  C   UNL     1      11.032   1.771  11.952  1.00  0.00     0.010 A 
ATOM     61  C   UNL     1       9.759   2.500  14.336  1.00  0.00     0.020 A 
ATOM     62  C   UNL     1      11.793   2.006  13.100  1.00  0.00     0.020 A 
ATOM     63  C   UNL     1      11.152   2.385  14.281  1.00  0.00     0.054 A 
BRANCH  63  64
ATOM     64  S   UNL     1      12.115   2.697  15.786  1.00  0.00     0.124 S 
ATOM     65  O   UNL     1      12.078   4.154  15.873  1.00  0.00    -0.237 OA
ATOM     66  O   UNL     1      11.353   1.986  16.809  1.00  0.00    -0.237 OA
ATOM     67  O   UNL     1      13.425   2.124  15.483  1.00  0.00    -0.744 OA
ENDBRANCH  63  64
ENDBRANCH  37  58
ENDBRANCH  11  12
ENDBRANCH   4   6
ENDBRANCH   1   2
BRANCH   1  68
ATOM     68  C   UNL     1       4.822  -1.597  -1.966  1.00  0.00     0.042 C 
BRANCH  68  69
ATOM     69  C   UNL     1       4.172  -1.932  -3.298  1.00  0.00     0.118 C 
BRANCH  69  70
ATOM     70  N   UNL     1       4.541  -1.003  -4.356  1.00  0.00    -0.351 N 
ATOM     71  C   UNL     1       5.350  -1.192  -5.454  1.00  0.00     0.270 C 
ATOM     72  H   UNL     1       4.153  -0.102  -4.274  1.00  0.00     0.163 HD
ATOM     73  O   UNL     1       5.612  -0.239  -6.184  1.00  0.00    -0.268 OA
BRANCH  71  74
ATOM     74  C   UNL     1       5.862  -2.548  -5.766  1.00  0.00     0.134 A 
ATOM     75  C   UNL     1       4.993  -3.592  -5.903  1.00  0.00     0.063 A 
ATOM     76  N   UNL     1       7.188  -2.666  -5.886  1.00  0.00    -0.207 NA
ATOM     77  C   UNL     1       5.578  -4.825  -6.068  1.00  0.00     0.077 A 
ATOM     78  C   UNL     1       7.689  -3.884  -6.107  1.00  0.00     0.230 A 
ATOM     79  N   UNL     1       6.918  -4.985  -6.190  1.00  0.00    -0.213 NA
BRANCH  77  80
ATOM     80  C   UNL     1       4.744  -6.034  -6.003  1.00  0.00     0.000 A 
ATOM     81  C   UNL     1       5.041  -7.059  -5.091  1.00  0.00     0.010 A 
ATOM     82  C   UNL     1       3.555  -6.136  -6.749  1.00  0.00     0.010 A 
ATOM     83  C   UNL     1       4.160  -8.128  -4.902  1.00  0.00     0.001 A 
ATOM     84  C   UNL     1       2.676  -7.205  -6.564  1.00  0.00     0.001 A 
ATOM     85  C   UNL     1       2.975  -8.195  -5.633  1.00  0.00     0.000 A 
ENDBRANCH  77  80
BRANCH  78  86
ATOM     86  N   UNL     1       9.052  -4.031  -6.351  1.00  0.00    -0.300 N 
ATOM     87  H   UNL     1       9.393  -4.924  -6.587  1.00  0.00     0.172 HD
BRANCH  86  88
ATOM     88  C   UNL     1       9.926  -3.006  -6.279  1.00  0.00     0.190 A 
ATOM     89  N   UNL     1       9.852  -2.010  -5.426  1.00  0.00    -0.220 NA
ATOM     90  S   UNL     1      11.265  -2.902  -7.364  1.00  0.00    -0.097 S 
ATOM     91  C   UNL     1      10.736  -1.009  -5.755  1.00  0.00     0.084 A 
ATOM     92  C   UNL     1      11.587  -1.296  -6.820  1.00  0.00     0.056 A 
ATOM     93  C   UNL     1      10.817   0.249  -5.128  1.00  0.00     0.030 A 
ATOM     94  C   UNL     1      12.514  -0.352  -7.294  1.00  0.00     0.021 A 
ATOM     95  C   UNL     1      11.724   1.201  -5.598  1.00  0.00     0.002 A 
ATOM     96  C   UNL     1      12.559   0.903  -6.671  1.00  0.00     0.002 A 
ENDBRANCH  86  88
ENDBRANCH  78  86
ENDBRANCH  71  74
ENDBRANCH  69  70
ENDBRANCH  68  69
ENDBRANCH   1  68
TORSDOF 16
