REMARK SMILES CC(=O)c1cccc(C(=O)NCCCNC(=O)c2ccc(-c3c4nc(c(-c5ccc(S(=O)(=O)[O-])cc5)c5ccc([nH]5)c(-c5ccc(S(=O)(=O)[O-])cc5)c5nc(c(-c6ccc(S(=O)(=O)[O-])cc6)c6ccc3[nH]6)C=C5)C=C4)cc2)c1C
REMARK SMILES IDX 14 1 13 2 12 3 11 4 9 5 10 6 8 8 4 9 5 10 78 11 6 12 79 13
REMARK SMILES IDX 7 14 2 15 1 16 3 17 15 18 16 19 17 21 18 22 19 23 77 24
REMARK SMILES IDX 20 25 76 26 21 27 22 28 23 29 70 30 24 31 75 32 69 33 71 34
REMARK SMILES IDX 25 35 74 36 68 37 67 38 26 40 56 41 37 42 55 43 38 44 41 45
REMARK SMILES IDX 54 46 72 47 39 48 40 49 53 51 73 52 42 53 27 54 28 55 36 56
REMARK SMILES IDX 29 57 35 58 30 59 31 60 32 61 33 62 34 63 57 64 58 65 66 66
REMARK SMILES IDX 59 67 65 68 60 69 61 70 62 71 63 72 64 73 43 74 44 75 52 76
REMARK SMILES IDX 45 77 51 78 46 79 47 80 48 81 49 82 50 83
REMARK H PARENT 11 7 15 20 71 39 41 50
REMARK Flexibility Score: inf
ROOT
ATOM      1  C   UNL     1       4.949  -0.448   3.308  1.00  0.00     0.118 C 
ENDROOT
BRANCH   1   2
ATOM      2  C   UNL     1       3.871   0.449   2.716  1.00  0.00     0.042 C 
BRANCH   2   3
ATOM      3  C   UNL     1       3.251   1.392   3.735  1.00  0.00     0.118 C 
BRANCH   3   4
ATOM      4  N   UNL     1       3.325   2.809   3.388  1.00  0.00    -0.352 N 
ATOM      5  C   UNL     1       2.816   3.730   2.521  1.00  0.00     0.251 C 
ATOM      6  O   UNL     1       3.150   4.888   2.821  1.00  0.00    -0.269 OA
ATOM      7  H   UNL     1       3.967   3.254   3.989  1.00  0.00     0.163 HD
BRANCH   5   8
ATOM      8  C   UNL     1       1.998   3.568   1.258  1.00  0.00     0.043 A 
ATOM      9  C   UNL     1       0.642   2.584  -0.535  1.00  0.00     0.021 A 
ATOM     10  C   UNL     1       0.654   3.791  -1.246  1.00  0.00     0.012 A 
ATOM     11  C   UNL     1       1.232   2.486   0.764  1.00  0.00    -0.028 A 
ATOM     12  C   UNL     1       1.303   4.890  -0.725  1.00  0.00     0.002 A 
ATOM     13  C   UNL     1       0.903   1.279   1.577  1.00  0.00     0.046 C 
ATOM     14  C   UNL     1       1.986   4.763   0.483  1.00  0.00     0.014 A 
BRANCH   9  15
ATOM     15  C   UNL     1      -0.071   1.466  -1.231  1.00  0.00     0.160 C 
ATOM     16  C   UNL     1       0.513   0.077  -1.205  1.00  0.00     0.093 C 
ATOM     17  O   UNL     1      -1.096   1.708  -1.868  1.00  0.00    -0.295 OA
ENDBRANCH   9  15
ENDBRANCH   5   8
ENDBRANCH   3   4
ENDBRANCH   2   3
ENDBRANCH   1   2
BRANCH   1  18
ATOM     18  N   UNL     1       4.634  -1.874   3.189  1.00  0.00    -0.352 N 
ATOM     19  C   UNL     1       5.498  -2.939   3.381  1.00  0.00     0.251 C 
ATOM     20  H   UNL     1       3.707  -2.100   2.946  1.00  0.00     0.163 HD
ATOM     21  O   UNL     1       5.260  -4.083   3.014  1.00  0.00    -0.269 OA
BRANCH  19  22
ATOM     22  C   UNL     1       6.686  -2.645   4.201  1.00  0.00     0.039 A 
ATOM     23  C   UNL     1       6.568  -2.934   5.567  1.00  0.00     0.014 A 
ATOM     24  C   UNL     1       7.589  -1.702   3.723  1.00  0.00     0.014 A 
ATOM     25  C   UNL     1       7.194  -2.106   6.486  1.00  0.00     0.010 A 
ATOM     26  C   UNL     1       8.121  -0.819   4.637  1.00  0.00     0.010 A 
ATOM     27  C   UNL     1       7.872  -0.988   6.009  1.00  0.00    -0.014 A 
BRANCH  27  28
ATOM     28  C   UNL     1       8.338   0.095   6.859  1.00  0.00     0.031 A 
ATOM     29  C   UNL     1       9.795   0.211   7.089  1.00  0.00     0.074 A 
ATOM     30  C   UNL     1       7.476   1.000   7.376  1.00  0.00     0.049 A 
ATOM     31  N   UNL     1      10.332   0.930   8.011  1.00  0.00    -0.248 NA
ATOM     32  C   UNL     1      10.778  -0.561   6.325  1.00  0.00     0.031 C 
ATOM     33  C   UNL     1       7.805   2.292   7.978  1.00  0.00     0.029 A 
ATOM     34  N   UNL     1       6.115   0.907   7.603  1.00  0.00    -0.354 N 
ATOM     35  C   UNL     1      11.683   0.971   7.763  1.00  0.00     0.074 A 
ATOM     36  C   UNL     1      11.924  -0.067   6.796  1.00  0.00     0.031 C 
ATOM     37  C   UNL     1       6.768   2.703   8.729  1.00  0.00     0.029 A 
ATOM     38  C   UNL     1       5.804   1.616   8.765  1.00  0.00     0.049 A 
ATOM     39  H   UNL     1       5.471   0.420   7.039  1.00  0.00     0.167 HD
ATOM     40  C   UNL     1      12.414   1.988   8.294  1.00  0.00     0.031 A 
ATOM     41  C   UNL     1       5.390   1.005   9.919  1.00  0.00     0.031 A 
ATOM     42  C   UNL     1      11.665   2.663   9.355  1.00  0.00     0.049 A 
ATOM     43  C   UNL     1       6.384   1.150  11.065  1.00  0.00     0.074 A 
ATOM     44  C   UNL     1      10.989   3.868   9.432  1.00  0.00     0.029 A 
ATOM     45  N   UNL     1      11.252   1.911  10.454  1.00  0.00    -0.354 N 
ATOM     46  N   UNL     1       7.621   1.545  10.918  1.00  0.00    -0.248 NA
ATOM     47  C   UNL     1       6.068   0.855  12.462  1.00  0.00     0.031 C 
ATOM     48  C   UNL     1      10.056   3.771  10.507  1.00  0.00     0.029 A 
ATOM     49  C   UNL     1      10.210   2.535  11.114  1.00  0.00     0.049 A 
ATOM     50  H   UNL     1      11.650   1.052  10.724  1.00  0.00     0.167 HD
ATOM     51  C   UNL     1       8.262   1.549  12.129  1.00  0.00     0.074 A 
ATOM     52  C   UNL     1       7.238   1.127  13.069  1.00  0.00     0.031 C 
ATOM     53  C   UNL     1       9.580   1.887  12.262  1.00  0.00     0.031 A 
BRANCH  40  54
ATOM     54  C   UNL     1      13.695   2.510   7.675  1.00  0.00    -0.014 A 
ATOM     55  C   UNL     1      14.274   3.699   8.163  1.00  0.00     0.010 A 
ATOM     56  C   UNL     1      14.306   1.959   6.527  1.00  0.00     0.010 A 
ATOM     57  C   UNL     1      15.370   4.311   7.526  1.00  0.00     0.020 A 
ATOM     58  C   UNL     1      15.410   2.543   5.894  1.00  0.00     0.020 A 
ATOM     59  C   UNL     1      15.928   3.730   6.388  1.00  0.00     0.054 A 
BRANCH  59  60
ATOM     60  S   UNL     1      17.308   4.541   5.540  1.00  0.00     0.124 S 
ATOM     61  O   UNL     1      16.702   5.789   5.084  1.00  0.00    -0.237 OA
ATOM     62  O   UNL     1      18.301   4.670   6.602  1.00  0.00    -0.237 OA
ATOM     63  O   UNL     1      17.661   3.603   4.475  1.00  0.00    -0.744 OA
ENDBRANCH  59  60
ENDBRANCH  40  54
BRANCH  41  64
ATOM     64  C   UNL     1       4.483  -0.158   9.686  1.00  0.00    -0.014 A 
ATOM     65  C   UNL     1       3.207   0.130   9.153  1.00  0.00     0.010 A 
ATOM     66  C   UNL     1       4.997  -1.457   9.541  1.00  0.00     0.010 A 
ATOM     67  C   UNL     1       2.564  -0.781   8.311  1.00  0.00     0.020 A 
ATOM     68  C   UNL     1       4.345  -2.381   8.706  1.00  0.00     0.020 A 
ATOM     69  C   UNL     1       3.178  -2.002   8.035  1.00  0.00     0.054 A 
BRANCH  69  70
ATOM     70  S   UNL     1       2.546  -2.968   6.627  1.00  0.00     0.124 S 
ATOM     71  O   UNL     1       1.179  -3.265   7.040  1.00  0.00    -0.237 OA
ATOM     72  O   UNL     1       2.674  -2.017   5.520  1.00  0.00    -0.237 OA
ATOM     73  O   UNL     1       3.450  -4.111   6.569  1.00  0.00    -0.744 OA
ENDBRANCH  69  70
ENDBRANCH  41  64
BRANCH  53  74
ATOM     74  C   UNL     1      10.409   1.696  13.514  1.00  0.00    -0.014 A 
ATOM     75  C   UNL     1      10.114   0.764  14.521  1.00  0.00     0.010 A 
ATOM     76  C   UNL     1      11.632   2.400  13.635  1.00  0.00     0.010 A 
ATOM     77  C   UNL     1      10.957   0.597  15.631  1.00  0.00     0.020 A 
ATOM     78  C   UNL     1      12.505   2.203  14.709  1.00  0.00     0.020 A 
ATOM     79  C   UNL     1      12.145   1.322  15.720  1.00  0.00     0.054 A 
BRANCH  79  80
ATOM     80  S   UNL     1      13.252   1.062  17.128  1.00  0.00     0.124 S 
ATOM     81  O   UNL     1      12.717   2.005  18.107  1.00  0.00    -0.237 OA
ATOM     82  O   UNL     1      13.054  -0.350  17.446  1.00  0.00    -0.237 OA
ATOM     83  O   UNL     1      14.570   1.393  16.592  1.00  0.00    -0.744 OA
ENDBRANCH  79  80
ENDBRANCH  53  74
ENDBRANCH  27  28
ENDBRANCH  19  22
ENDBRANCH   1  18
TORSDOF 14
