REMARK SMILES C[C@@H](NC(=O)/C(=C/c1ccc(Cl)cc1)NC(=O)c1ccc(C(C)(C)C)cc1)C(=O)NCCCNC(=O)c1ccc(-c2c3nc(c(-c4ccc(S(=O)(=O)[O-])cc4)c4ccc([nH]4)c(-c4ccc(S(=O)(=O)[O-])cc4)c4nc(c(-c5ccc(S(=O)(=O)[O-])cc5)c5ccc2[nH]5)C=C4)C=C3)cc1
REMARK SMILES IDX 31 1 30 2 28 3 29 4 2 6 1 7 3 8 4 9 5 11 6 12 7 13 15 14
REMARK SMILES IDX 16 15 17 17 18 18 19 19 27 20 20 21 26 22 21 23 22 24 23 25
REMARK SMILES IDX 24 26 25 27 8 28 9 29 14 30 10 31 13 32 11 33 12 34 32 35
REMARK SMILES IDX 33 36 34 37 35 38 36 40 37 41 38 42 96 43 39 44 95 45 40 46
REMARK SMILES IDX 41 47 42 48 89 49 43 50 94 51 88 52 90 53 44 54 93 55 87 56
REMARK SMILES IDX 86 57 45 59 75 60 56 61 74 62 57 63 60 64 73 65 91 66 58 67
REMARK SMILES IDX 59 68 72 70 92 71 61 72 46 73 47 74 55 75 48 76 54 77 49 78
REMARK SMILES IDX 50 79 51 80 52 81 53 82 76 83 77 84 85 85 78 86 84 87 79 88
REMARK SMILES IDX 80 89 81 90 82 91 83 92 62 93 63 94 71 95 64 96 70 97 65 98
REMARK SMILES IDX 66 99 67 100 68 101 69 102
REMARK H PARENT 30 5 3 10 15 16 34 39 90 58 60 69
REMARK Flexibility Score: inf
ROOT
ATOM      1  C   UNL     1      -0.897  -1.996   0.744  1.00  0.00     0.117 C 
ENDROOT
BRANCH   1   2
ATOM      2  N   UNL     1      -1.255  -0.653   0.335  1.00  0.00    -0.354 N 
ATOM      3  C   UNL     1      -0.680   0.130  -0.614  1.00  0.00     0.242 C 
ATOM      4  O   UNL     1      -1.122   1.272  -0.769  1.00  0.00    -0.273 OA
ATOM      5  H   UNL     1      -2.018  -0.253   0.810  1.00  0.00     0.163 HD
BRANCH   3   6
ATOM      6  C   UNL     1       0.569  -0.331  -1.384  1.00  0.00     0.168 C 
ATOM      7  C   UNL     1       1.771  -0.061  -0.471  1.00  0.00     0.041 C 
BRANCH   6   8
ATOM      8  N   UNL     1       0.617  -1.706  -1.918  1.00  0.00    -0.339 N 
ATOM      9  C   UNL     1      -0.151  -2.200  -2.951  1.00  0.00     0.268 C 
ATOM     10  H   UNL     1       1.256  -2.327  -1.498  1.00  0.00     0.164 HD
ATOM     11  O   UNL     1       0.399  -2.643  -3.956  1.00  0.00    -0.268 OA
BRANCH   9  12
ATOM     12  C   UNL     1      -1.631  -2.362  -2.736  1.00  0.00     0.107 C 
ATOM     13  C   UNL     1      -2.356  -1.229  -2.671  1.00  0.00     0.040 C 
BRANCH  12  14
ATOM     14  N   UNL     1      -2.236  -3.605  -2.714  1.00  0.00    -0.317 N 
ATOM     15  C   UNL     1      -1.794  -4.905  -2.762  1.00  0.00     0.255 C 
ATOM     16  H   UNL     1      -3.217  -3.544  -2.649  1.00  0.00     0.170 HD
ATOM     17  O   UNL     1      -2.618  -5.812  -2.871  1.00  0.00    -0.269 OA
BRANCH  15  18
ATOM     18  C   UNL     1      -0.374  -5.265  -2.704  1.00  0.00     0.040 A 
ATOM     19  C   UNL     1       0.180  -5.916  -3.804  1.00  0.00     0.014 A 
ATOM     20  C   UNL     1       0.393  -5.028  -1.567  1.00  0.00     0.014 A 
ATOM     21  C   UNL     1       1.540  -6.224  -3.808  1.00  0.00     0.005 A 
ATOM     22  C   UNL     1       1.759  -5.331  -1.581  1.00  0.00     0.005 A 
ATOM     23  C   UNL     1       2.370  -5.891  -2.719  1.00  0.00    -0.043 A 
BRANCH  23  24
ATOM     24  C   UNL     1       3.886  -6.129  -2.816  1.00  0.00    -0.013 C 
ATOM     25  C   UNL     1       4.171  -7.643  -2.840  1.00  0.00     0.016 C 
ATOM     26  C   UNL     1       4.433  -5.486  -4.113  1.00  0.00     0.016 C 
ATOM     27  C   UNL     1       4.684  -5.512  -1.646  1.00  0.00     0.016 C 
ENDBRANCH  23  24
ENDBRANCH  15  18
ENDBRANCH  12  14
BRANCH  13  28
ATOM     28  C   UNL     1      -3.768  -1.027  -2.279  1.00  0.00    -0.023 A 
ATOM     29  C   UNL     1      -4.458  -1.878  -1.399  1.00  0.00     0.010 A 
ATOM     30  C   UNL     1      -4.398   0.161  -2.677  1.00  0.00     0.010 A 
ATOM     31  C   UNL     1      -5.763  -1.587  -0.989  1.00  0.00     0.021 A 
ATOM     32  C   UNL     1      -5.694   0.468  -2.248  1.00  0.00     0.021 A 
ATOM     33  C   UNL     1      -6.376  -0.414  -1.416  1.00  0.00     0.041 A 
ATOM     34  Cl  UNL     1      -7.968  -0.039  -0.891  1.00  0.00    -0.084 Cl
ENDBRANCH  13  28
ENDBRANCH   9  12
ENDBRANCH   6   8
ENDBRANCH   3   6
ENDBRANCH   1   2
BRANCH   1  35
ATOM     35  C   UNL     1      -1.188  -2.221   2.216  1.00  0.00     0.042 C 
BRANCH  35  36
ATOM     36  C   UNL     1      -2.675  -2.326   2.513  1.00  0.00     0.118 C 
BRANCH  36  37
ATOM     37  N   UNL     1      -3.253  -3.580   2.051  1.00  0.00    -0.352 N 
ATOM     38  C   UNL     1      -4.070  -4.449   2.739  1.00  0.00     0.251 C 
ATOM     39  H   UNL     1      -3.031  -3.840   1.128  1.00  0.00     0.163 HD
ATOM     40  O   UNL     1      -4.360  -5.532   2.256  1.00  0.00    -0.269 OA
BRANCH  38  41
ATOM     41  C   UNL     1      -4.552  -4.068   4.084  1.00  0.00     0.039 A 
ATOM     42  C   UNL     1      -4.431  -4.987   5.127  1.00  0.00     0.014 A 
ATOM     43  C   UNL     1      -5.068  -2.791   4.321  1.00  0.00     0.014 A 
ATOM     44  C   UNL     1      -4.771  -4.600   6.424  1.00  0.00     0.010 A 
ATOM     45  C   UNL     1      -5.314  -2.379   5.626  1.00  0.00     0.010 A 
ATOM     46  C   UNL     1      -5.181  -3.282   6.690  1.00  0.00    -0.014 A 
BRANCH  46  47
ATOM     47  C   UNL     1      -5.487  -2.844   8.075  1.00  0.00     0.031 A 
ATOM     48  C   UNL     1      -6.878  -2.396   8.436  1.00  0.00     0.074 A 
ATOM     49  C   UNL     1      -4.505  -2.817   8.999  1.00  0.00     0.049 A 
ATOM     50  N   UNL     1      -7.339  -1.993   9.592  1.00  0.00    -0.248 NA
ATOM     51  C   UNL     1      -7.875  -2.368   7.352  1.00  0.00     0.031 C 
ATOM     52  C   UNL     1      -3.102  -3.167   8.758  1.00  0.00     0.029 A 
ATOM     53  N   UNL     1      -4.537  -2.484  10.330  1.00  0.00    -0.354 N 
ATOM     54  C   UNL     1      -8.669  -1.654   9.371  1.00  0.00     0.074 A 
ATOM     55  C   UNL     1      -8.924  -1.837   7.960  1.00  0.00     0.031 C 
ATOM     56  C   UNL     1      -2.420  -3.075   9.911  1.00  0.00     0.029 A 
ATOM     57  C   UNL     1      -3.325  -2.628  10.965  1.00  0.00     0.049 A 
ATOM     58  H   UNL     1      -5.351  -2.172  10.787  1.00  0.00     0.167 HD
ATOM     59  C   UNL     1      -9.604  -1.254  10.265  1.00  0.00     0.031 A 
ATOM     60  C   UNL     1      -2.984  -2.432  12.253  1.00  0.00     0.031 A 
ATOM     61  C   UNL     1      -9.351  -1.091  11.671  1.00  0.00     0.049 A 
ATOM     62  C   UNL     1      -4.044  -2.008  13.232  1.00  0.00     0.074 A 
ATOM     63  C   UNL     1     -10.243  -0.748  12.672  1.00  0.00     0.029 A 
ATOM     64  N   UNL     1      -8.115  -1.261  12.277  1.00  0.00    -0.354 N 
ATOM     65  N   UNL     1      -5.315  -1.766  13.017  1.00  0.00    -0.248 NA
ATOM     66  C   UNL     1      -3.626  -1.849  14.632  1.00  0.00     0.031 C 
ATOM     67  C   UNL     1      -9.536  -0.665  13.876  1.00  0.00     0.029 A 
ATOM     68  C   UNL     1      -8.216  -1.012  13.635  1.00  0.00     0.049 A 
ATOM     69  H   UNL     1      -7.288  -1.521  11.810  1.00  0.00     0.167 HD
ATOM     70  C   UNL     1      -5.856  -1.452  14.259  1.00  0.00     0.074 A 
ATOM     71  C   UNL     1      -4.777  -1.553  15.221  1.00  0.00     0.031 C 
ATOM     72  C   UNL     1      -7.130  -1.112  14.576  1.00  0.00     0.031 A 
BRANCH  59  73
ATOM     73  C   UNL     1     -10.988  -0.972   9.742  1.00  0.00    -0.014 A 
ATOM     74  C   UNL     1     -11.814  -2.011   9.275  1.00  0.00     0.010 A 
ATOM     75  C   UNL     1     -11.482   0.345   9.743  1.00  0.00     0.010 A 
ATOM     76  C   UNL     1     -13.089  -1.734   8.778  1.00  0.00     0.020 A 
ATOM     77  C   UNL     1     -12.770   0.623   9.274  1.00  0.00     0.020 A 
ATOM     78  C   UNL     1     -13.558  -0.417   8.778  1.00  0.00     0.054 A 
BRANCH  78  79
ATOM     79  S   UNL     1     -15.228  -0.090   8.149  1.00  0.00     0.124 S 
ATOM     80  O   UNL     1     -15.042  -0.248   6.709  1.00  0.00    -0.237 OA
ATOM     81  O   UNL     1     -16.024  -1.128   8.797  1.00  0.00    -0.237 OA
ATOM     82  O   UNL     1     -15.505   1.273   8.595  1.00  0.00    -0.744 OA
ENDBRANCH  78  79
ENDBRANCH  59  73
BRANCH  60  83
ATOM     83  C   UNL     1      -1.583  -2.671  12.696  1.00  0.00    -0.014 A 
ATOM     84  C   UNL     1      -1.268  -3.775  13.508  1.00  0.00     0.010 A 
ATOM     85  C   UNL     1      -0.552  -1.800  12.298  1.00  0.00     0.010 A 
ATOM     86  C   UNL     1       0.047  -3.994  13.930  1.00  0.00     0.020 A 
ATOM     87  C   UNL     1       0.769  -2.031  12.695  1.00  0.00     0.020 A 
ATOM     88  C   UNL     1       1.058  -3.120  13.518  1.00  0.00     0.054 A 
BRANCH  88  89
ATOM     89  S   UNL     1       2.766  -3.451  14.034  1.00  0.00     0.124 S 
ATOM     90  O   UNL     1       2.743  -3.055  15.438  1.00  0.00    -0.237 OA
ATOM     91  O   UNL     1       2.900  -4.884  13.781  1.00  0.00    -0.237 OA
ATOM     92  O   UNL     1       3.559  -2.596  13.153  1.00  0.00    -0.744 OA
ENDBRANCH  88  89
ENDBRANCH  60  83
BRANCH  72  93
ATOM     93  C   UNL     1      -7.432  -0.853  16.027  1.00  0.00    -0.014 A 
ATOM     94  C   UNL     1      -6.960   0.302  16.676  1.00  0.00     0.010 A 
ATOM     95  C   UNL     1      -8.232  -1.764  16.741  1.00  0.00     0.010 A 
ATOM     96  C   UNL     1      -7.246   0.518  18.026  1.00  0.00     0.020 A 
ATOM     97  C   UNL     1      -8.545  -1.535  18.083  1.00  0.00     0.020 A 
ATOM     98  C   UNL     1      -8.033  -0.404  18.723  1.00  0.00     0.054 A 
BRANCH  98  99
ATOM     99  S   UNL     1      -8.411  -0.090  20.468  1.00  0.00     0.124 S 
ATOM    100  O   UNL     1      -7.143  -0.416  21.115  1.00  0.00    -0.237 OA
ATOM    101  O   UNL     1      -8.771   1.326  20.470  1.00  0.00    -0.237 OA
ATOM    102  O   UNL     1      -9.511  -1.007  20.755  1.00  0.00    -0.744 OA
ENDBRANCH  98  99
ENDBRANCH  72  93
ENDBRANCH  46  47
ENDBRANCH  38  41
ENDBRANCH  36  37
ENDBRANCH  35  36
ENDBRANCH   1  35
TORSDOF 19
