REMARK SMILES CS(=O)(=O)CCSCc1cc(F)cc(/C=C/C(=O)NCCCNC(=O)c2ccc(-c3c4nc(c(-c5ccc(S(=O)(=O)[O-])cc5)c5ccc([nH]5)c(-c5ccc(S(=O)(=O)[O-])cc5)c5nc(c(-c6ccc(S(=O)(=O)[O-])cc6)c6ccc3[nH]6)C=C5)C=C4)cc2)c1
REMARK SMILES IDX 17 1 18 2 19 3 16 5 15 6 14 7 9 8 10 9 86 10 11 11 12 12
REMARK SMILES IDX 13 13 8 14 7 15 6 16 5 17 2 18 1 19 3 20 4 21 20 22 21 23
REMARK SMILES IDX 22 24 23 25 24 26 25 28 26 29 27 30 85 31 28 32 84 33 29 34
REMARK SMILES IDX 30 35 31 36 78 37 32 38 83 39 77 40 79 41 33 42 82 43 76 44
REMARK SMILES IDX 75 45 34 47 64 48 45 49 63 50 46 51 49 52 62 53 80 54 47 55
REMARK SMILES IDX 48 56 61 58 81 59 50 60 35 61 36 62 44 63 37 64 43 65 38 66
REMARK SMILES IDX 39 67 40 68 41 69 42 70 65 71 66 72 74 73 67 74 73 75 68 76
REMARK SMILES IDX 69 77 70 78 71 79 72 80 51 81 52 82 60 83 53 84 59 85 54 86
REMARK SMILES IDX 55 87 56 88 57 89 58 90
REMARK H PARENT 19 4 23 27 79 46 49 57
REMARK Flexibility Score: inf
ROOT
ATOM      1  C   UNL     1      -5.793   2.360   0.468  1.00  0.00     0.244 C 
ATOM      2  O   UNL     1      -7.016   2.355   0.328  1.00  0.00    -0.270 OA
ATOM      3  N   UNL     1      -5.160   3.545   0.632  1.00  0.00    -0.352 N 
ATOM      4  H   UNL     1      -5.758   4.326   0.593  1.00  0.00     0.163 HD
ENDROOT
BRANCH   1   5
ATOM      5  C   UNL     1      -5.093   1.059   0.572  1.00  0.00     0.072 C 
ATOM      6  C   UNL     1      -3.875   0.717   0.123  1.00  0.00     0.014 C 
BRANCH   6   7
ATOM      7  C   UNL     1      -3.301  -0.627   0.332  1.00  0.00    -0.022 A 
ATOM      8  C   UNL     1      -1.296  -1.992   0.764  1.00  0.00    -0.035 A 
ATOM      9  C   UNL     1      -2.116  -3.125   0.842  1.00  0.00     0.043 A 
ATOM     10  C   UNL     1      -1.909  -0.760   0.471  1.00  0.00     0.013 A 
ATOM     11  C   UNL     1      -3.486  -3.013   0.627  1.00  0.00     0.124 A 
ATOM     12  F   UNL     1      -4.246  -4.116   0.646  1.00  0.00    -0.207 F 
ATOM     13  C   UNL     1      -4.083  -1.783   0.376  1.00  0.00     0.047 A 
BRANCH   8  14
ATOM     14  C   UNL     1       0.203  -2.135   0.847  1.00  0.00     0.105 C 
BRANCH  14  15
ATOM     15  S   UNL     1       1.093  -1.585   2.337  1.00  0.00    -0.156 SA
BRANCH  15  16
ATOM     16  C   UNL     1       0.402   0.046   2.787  1.00  0.00     0.086 C 
BRANCH  16  17
ATOM     17  C   UNL     1       1.323   1.234   2.556  1.00  0.00     0.147 C 
BRANCH  17  18
ATOM     18  S   UNL     1       1.073   2.127   1.039  1.00  0.00     0.148 S 
ATOM     19  C   UNL     1       1.682   1.057  -0.243  1.00  0.00     0.158 C 
ATOM     20  O   UNL     1       1.947   3.280   1.089  1.00  0.00    -0.229 OA
ATOM     21  O   UNL     1      -0.357   2.307   0.846  1.00  0.00    -0.229 OA
ENDBRANCH  17  18
ENDBRANCH  16  17
ENDBRANCH  15  16
ENDBRANCH  14  15
ENDBRANCH   8  14
ENDBRANCH   6   7
ENDBRANCH   1   5
BRANCH   3  22
ATOM     22  C   UNL     1      -3.765   3.880   0.857  1.00  0.00     0.118 C 
BRANCH  22  23
ATOM     23  C   UNL     1      -3.145   4.487  -0.398  1.00  0.00     0.042 C 
BRANCH  23  24
ATOM     24  C   UNL     1      -3.663   5.892  -0.706  1.00  0.00     0.118 C 
BRANCH  24  25
ATOM     25  N   UNL     1      -3.256   6.866   0.302  1.00  0.00    -0.352 N 
ATOM     26  C   UNL     1      -2.487   7.996   0.169  1.00  0.00     0.251 C 
ATOM     27  H   UNL     1      -3.582   6.686   1.213  1.00  0.00     0.163 HD
ATOM     28  O   UNL     1      -2.072   8.575   1.169  1.00  0.00    -0.269 OA
BRANCH  26  29
ATOM     29  C   UNL     1      -2.157   8.508  -1.177  1.00  0.00     0.039 A 
ATOM     30  C   UNL     1      -0.847   8.904  -1.457  1.00  0.00     0.014 A 
ATOM     31  C   UNL     1      -3.146   8.600  -2.159  1.00  0.00     0.014 A 
ATOM     32  C   UNL     1      -0.513   9.324  -2.747  1.00  0.00     0.010 A 
ATOM     33  C   UNL     1      -2.796   8.943  -3.460  1.00  0.00     0.010 A 
ATOM     34  C   UNL     1      -1.476   9.307  -3.769  1.00  0.00    -0.014 A 
BRANCH  34  35
ATOM     35  C   UNL     1      -1.134   9.650  -5.173  1.00  0.00     0.031 A 
ATOM     36  C   UNL     1      -1.800  10.821  -5.844  1.00  0.00     0.074 A 
ATOM     37  C   UNL     1      -0.300   8.853  -5.870  1.00  0.00     0.049 A 
ATOM     38  N   UNL     1      -1.730  11.205  -7.093  1.00  0.00    -0.248 NA
ATOM     39  C   UNL     1      -2.682  11.653  -5.008  1.00  0.00     0.031 C 
ATOM     40  C   UNL     1       0.384   7.671  -5.340  1.00  0.00     0.029 A 
ATOM     41  N   UNL     1       0.102   8.906  -7.182  1.00  0.00    -0.354 N 
ATOM     42  C   UNL     1      -2.574  12.305  -7.197  1.00  0.00     0.074 A 
ATOM     43  C   UNL     1      -3.181  12.498  -5.899  1.00  0.00     0.031 C 
ATOM     44  C   UNL     1       1.134   7.123  -6.310  1.00  0.00     0.029 A 
ATOM     45  C   UNL     1       0.943   7.879  -7.544  1.00  0.00     0.049 A 
ATOM     46  H   UNL     1      -0.184   9.612  -7.805  1.00  0.00     0.167 HD
ATOM     47  C   UNL     1      -2.810  13.092  -8.274  1.00  0.00     0.031 A 
ATOM     48  C   UNL     1       1.484   7.566  -8.738  1.00  0.00     0.031 A 
ATOM     49  C   UNL     1      -2.196  12.896  -9.561  1.00  0.00     0.049 A 
ATOM     50  C   UNL     1       1.184   8.437  -9.927  1.00  0.00     0.074 A 
ATOM     51  C   UNL     1      -2.326  13.669 -10.701  1.00  0.00     0.029 A 
ATOM     52  N   UNL     1      -1.342  11.851  -9.882  1.00  0.00    -0.354 N 
ATOM     53  N   UNL     1       0.432   9.511  -9.992  1.00  0.00    -0.248 NA
ATOM     54  C   UNL     1       1.809   8.062 -11.203  1.00  0.00     0.031 C 
ATOM     55  C   UNL     1      -1.604  13.057 -11.728  1.00  0.00     0.029 A 
ATOM     56  C   UNL     1      -0.962  11.943 -11.210  1.00  0.00     0.049 A 
ATOM     57  H   UNL     1      -1.050  11.148  -9.257  1.00  0.00     0.167 HD
ATOM     58  C   UNL     1       0.522   9.957 -11.306  1.00  0.00     0.074 A 
ATOM     59  C   UNL     1       1.407   9.044 -11.999  1.00  0.00     0.031 C 
ATOM     60  C   UNL     1      -0.072  11.030 -11.884  1.00  0.00     0.031 A 
BRANCH  47  61
ATOM     61  C   UNL     1      -3.783  14.231  -8.111  1.00  0.00    -0.014 A 
ATOM     62  C   UNL     1      -3.479  15.341  -7.302  1.00  0.00     0.010 A 
ATOM     63  C   UNL     1      -5.002  14.213  -8.814  1.00  0.00     0.010 A 
ATOM     64  C   UNL     1      -4.392  16.390  -7.166  1.00  0.00     0.020 A 
ATOM     65  C   UNL     1      -5.904  15.276  -8.707  1.00  0.00     0.020 A 
ATOM     66  C   UNL     1      -5.599  16.351  -7.870  1.00  0.00     0.054 A 
BRANCH  66  67
ATOM     67  S   UNL     1      -6.751  17.740  -7.694  1.00  0.00     0.124 S 
ATOM     68  O   UNL     1      -7.232  17.562  -6.326  1.00  0.00    -0.237 OA
ATOM     69  O   UNL     1      -5.888  18.899  -7.910  1.00  0.00    -0.237 OA
ATOM     70  O   UNL     1      -7.745  17.503  -8.738  1.00  0.00    -0.744 OA
ENDBRANCH  66  67
ENDBRANCH  47  61
BRANCH  48  71
ATOM     71  C   UNL     1       2.365   6.371  -8.866  1.00  0.00    -0.014 A 
ATOM     72  C   UNL     1       3.742   6.520  -9.111  1.00  0.00     0.010 A 
ATOM     73  C   UNL     1       1.834   5.075  -8.728  1.00  0.00     0.010 A 
ATOM     74  C   UNL     1       4.566   5.397  -9.234  1.00  0.00     0.020 A 
ATOM     75  C   UNL     1       2.660   3.951  -8.819  1.00  0.00     0.020 A 
ATOM     76  C   UNL     1       4.020   4.119  -9.083  1.00  0.00     0.054 A 
BRANCH  76  77
ATOM     77  S   UNL     1       5.119   2.679  -9.193  1.00  0.00     0.124 S 
ATOM     78  O   UNL     1       5.432   2.644 -10.618  1.00  0.00    -0.237 OA
ATOM     79  O   UNL     1       6.220   3.055  -8.310  1.00  0.00    -0.237 OA
ATOM     80  O   UNL     1       4.290   1.578  -8.706  1.00  0.00    -0.744 OA
ENDBRANCH  76  77
ENDBRANCH  48  71
BRANCH  60  81
ATOM     81  C   UNL     1       0.244  11.313 -13.329  1.00  0.00    -0.014 A 
ATOM     82  C   UNL     1      -0.261  10.506 -14.363  1.00  0.00     0.010 A 
ATOM     83  C   UNL     1       0.990  12.461 -13.658  1.00  0.00     0.010 A 
ATOM     84  C   UNL     1      -0.012  10.834 -15.699  1.00  0.00     0.020 A 
ATOM     85  C   UNL     1       1.214  12.809 -14.991  1.00  0.00     0.020 A 
ATOM     86  C   UNL     1       0.717  11.988 -16.004  1.00  0.00     0.054 A 
BRANCH  86  87
ATOM     87  S   UNL     1       0.961  12.429 -17.747  1.00  0.00     0.124 S 
ATOM     88  O   UNL     1       1.906  11.408 -18.191  1.00  0.00    -0.237 OA
ATOM     89  O   UNL     1      -0.389  12.318 -18.295  1.00  0.00    -0.237 OA
ATOM     90  O   UNL     1       1.494  13.788 -17.690  1.00  0.00    -0.744 OA
ENDBRANCH  86  87
ENDBRANCH  60  81
ENDBRANCH  34  35
ENDBRANCH  26  29
ENDBRANCH  24  25
ENDBRANCH  23  24
ENDBRANCH  22  23
ENDBRANCH   3  22
TORSDOF 19
