REMARK SMILES O=C(C[C@]12CSc3[nH]c(=O)sc3[C@H]1c1cc(Cl)ccc1OC2=O)NCCCNC(=O)c1ccc(-c2c3nc(c(-c4ccc(S(=O)(=O)[O-])cc4)c4ccc([nH]4)c(-c4ccc(S(=O)(=O)[O-])cc4)c4nc(c(-c5ccc(S(=O)(=O)[O-])cc5)c5ccc2[nH]5)C=C4)C=C3)cc1
REMARK SMILES IDX 27 1 26 2 25 3 24 4 1 5 2 6 3 8 4 9 5 10 13 11 22 12 6 13
REMARK SMILES IDX 12 14 14 15 21 16 23 17 7 18 11 19 15 20 20 21 8 22 9 23
REMARK SMILES IDX 16 24 19 25 10 27 17 28 18 29 28 30 29 31 30 33 31 34 32 35
REMARK SMILES IDX 90 36 33 37 89 38 34 39 35 40 36 41 83 42 37 43 88 44 82 45
REMARK SMILES IDX 84 46 38 47 87 48 81 49 80 50 39 52 69 53 50 54 68 55 51 56
REMARK SMILES IDX 54 57 67 58 85 59 52 60 53 61 66 63 86 64 55 65 40 66 41 67
REMARK SMILES IDX 49 68 42 69 48 70 43 71 44 72 45 73 46 74 47 75 70 76 71 77
REMARK SMILES IDX 79 78 72 79 78 80 73 81 74 82 75 83 76 84 77 85 56 86 57 87
REMARK SMILES IDX 65 88 58 89 64 90 59 91 60 92 61 93 62 94 63 95
REMARK H PARENT 24 7 8 26 28 32 84 51 54 62
REMARK Flexibility Score: inf
ROOT
ATOM      1  C   UNL     1       4.065  -1.995   3.849  1.00  0.00     0.118 C 
ENDROOT
BRANCH   1   2
ATOM      2  C   UNL     1       2.538  -1.791   3.815  1.00  0.00     0.042 C 
BRANCH   2   3
ATOM      3  C   UNL     1       2.090  -0.655   2.896  1.00  0.00     0.117 C 
BRANCH   3   4
ATOM      4  N   UNL     1       2.828  -0.758   1.663  1.00  0.00    -0.356 N 
ATOM      5  O   UNL     1       1.261  -0.187   0.086  1.00  0.00    -0.275 OA
ATOM      6  C   UNL     1       2.380  -0.560   0.398  1.00  0.00     0.221 C 
ATOM      7  H   UNL     1       3.778  -1.003   1.749  1.00  0.00     0.163 HD
BRANCH   6   8
ATOM      8  C   UNL     1       3.527  -0.748  -0.581  1.00  0.00     0.120 C 
BRANCH   8   9
ATOM      9  C   UNL     1       4.181   0.619  -0.951  1.00  0.00     0.098 C 
ATOM     10  C   UNL     1       4.665   1.272   0.363  1.00  0.00     0.097 C 
ATOM     11  C   UNL     1       3.174   1.497  -1.770  1.00  0.00     0.085 C 
ATOM     12  C   UNL     1       5.455   0.385  -1.802  1.00  0.00     0.319 C 
ATOM     13  S   UNL     1       5.443   2.882   0.187  1.00  0.00    -0.106 SA
ATOM     14  C   UNL     1       3.550   2.962  -1.806  1.00  0.00     0.049 A 
ATOM     15  C   UNL     1       2.939   0.645  -3.043  1.00  0.00     0.006 A 
ATOM     16  O   UNL     1       5.323   0.487  -3.173  1.00  0.00    -0.426 OA
ATOM     17  O   UNL     1       6.557   0.154  -1.312  1.00  0.00    -0.251 OA
ATOM     18  C   UNL     1       4.392   3.572  -0.951  1.00  0.00     0.090 A 
ATOM     19  S   UNL     1       2.607   4.179  -2.653  1.00  0.00    -0.077 S 
ATOM     20  C   UNL     1       1.705  -0.019  -3.220  1.00  0.00     0.028 A 
ATOM     21  C   UNL     1       4.079   0.010  -3.558  1.00  0.00     0.134 A 
ATOM     22  N   UNL     1       4.295   4.926  -0.908  1.00  0.00    -0.307 N 
ATOM     23  C   UNL     1       3.365   5.488  -1.723  1.00  0.00     0.305 A 
ATOM     24  C   UNL     1       1.683  -1.343  -3.703  1.00  0.00     0.041 A 
ATOM     25  C   UNL     1       4.053  -1.277  -4.112  1.00  0.00     0.049 A 
ATOM     26  H   UNL     1       4.867   5.470  -0.319  1.00  0.00     0.171 HD
ATOM     27  O   UNL     1       3.077   6.678  -1.798  1.00  0.00    -0.257 OA
ATOM     28  Cl  UNL     1       0.247  -2.286  -3.547  1.00  0.00    -0.084 Cl
ATOM     29  C   UNL     1       2.854  -1.980  -4.125  1.00  0.00     0.024 A 
ENDBRANCH   8   9
ENDBRANCH   6   8
ENDBRANCH   3   4
ENDBRANCH   2   3
ENDBRANCH   1   2
BRANCH   1  30
ATOM     30  N   UNL     1       4.807  -0.834   4.295  1.00  0.00    -0.352 N 
ATOM     31  C   UNL     1       5.235  -0.438   5.531  1.00  0.00     0.251 C 
ATOM     32  H   UNL     1       5.049  -0.213   3.571  1.00  0.00     0.163 HD
ATOM     33  O   UNL     1       6.026   0.508   5.560  1.00  0.00    -0.269 OA
BRANCH  31  34
ATOM     34  C   UNL     1       4.721  -1.005   6.803  1.00  0.00     0.039 A 
ATOM     35  C   UNL     1       3.891  -2.121   6.914  1.00  0.00     0.014 A 
ATOM     36  C   UNL     1       5.027  -0.272   7.962  1.00  0.00     0.014 A 
ATOM     37  C   UNL     1       3.242  -2.397   8.102  1.00  0.00     0.010 A 
ATOM     38  C   UNL     1       4.414  -0.569   9.168  1.00  0.00     0.010 A 
ATOM     39  C   UNL     1       3.470  -1.587   9.211  1.00  0.00    -0.014 A 
BRANCH  39  40
ATOM     40  C   UNL     1       2.821  -1.958  10.457  1.00  0.00     0.031 A 
ATOM     41  C   UNL     1       3.215  -3.315  10.915  1.00  0.00     0.074 A 
ATOM     42  C   UNL     1       2.009  -1.128  11.144  1.00  0.00     0.049 A 
ATOM     43  N   UNL     1       2.472  -4.370  10.939  1.00  0.00    -0.248 NA
ATOM     44  C   UNL     1       4.640  -3.588  11.169  1.00  0.00     0.031 C 
ATOM     45  C   UNL     1       1.735   0.285  10.864  1.00  0.00     0.029 A 
ATOM     46  N   UNL     1       1.323  -1.341  12.302  1.00  0.00    -0.354 N 
ATOM     47  C   UNL     1       3.268  -5.380  11.469  1.00  0.00     0.074 A 
ATOM     48  C   UNL     1       4.623  -4.902  11.402  1.00  0.00     0.031 C 
ATOM     49  C   UNL     1       1.168   0.860  11.952  1.00  0.00     0.029 A 
ATOM     50  C   UNL     1       0.883  -0.177  12.929  1.00  0.00     0.049 A 
ATOM     51  H   UNL     1       1.153  -2.241  12.664  1.00  0.00     0.167 HD
ATOM     52  C   UNL     1       2.707  -6.394  12.183  1.00  0.00     0.031 A 
ATOM     53  C   UNL     1       0.324  -0.077  14.163  1.00  0.00     0.031 A 
ATOM     54  C   UNL     1       1.282  -6.424  11.995  1.00  0.00     0.049 A 
ATOM     55  C   UNL     1      -0.249  -1.401  14.480  1.00  0.00     0.074 A 
ATOM     56  C   UNL     1       0.413  -6.848  11.016  1.00  0.00     0.029 A 
ATOM     57  N   UNL     1       0.606  -5.547  12.805  1.00  0.00    -0.354 N 
ATOM     58  N   UNL     1      -1.250  -1.913  13.821  1.00  0.00    -0.248 NA
ATOM     59  C   UNL     1       0.522  -2.340  15.285  1.00  0.00     0.031 C 
ATOM     60  C   UNL     1      -0.752  -6.040  11.155  1.00  0.00     0.029 A 
ATOM     61  C   UNL     1      -0.597  -5.198  12.256  1.00  0.00     0.049 A 
ATOM     62  H   UNL     1       0.942  -5.213  13.668  1.00  0.00     0.167 HD
ATOM     63  C   UNL     1      -0.964  -3.262  13.770  1.00  0.00     0.074 A 
ATOM     64  C   UNL     1       0.024  -3.489  14.821  1.00  0.00     0.031 C 
ATOM     65  C   UNL     1      -1.308  -4.009  12.684  1.00  0.00     0.031 A 
BRANCH  52  66
ATOM     66  C   UNL     1       3.340  -7.023  13.405  1.00  0.00    -0.014 A 
ATOM     67  C   UNL     1       4.484  -6.507  14.044  1.00  0.00     0.010 A 
ATOM     68  C   UNL     1       2.612  -8.008  14.108  1.00  0.00     0.010 A 
ATOM     69  C   UNL     1       4.893  -6.949  15.305  1.00  0.00     0.020 A 
ATOM     70  C   UNL     1       2.994  -8.437  15.387  1.00  0.00     0.020 A 
ATOM     71  C   UNL     1       4.141  -7.909  15.973  1.00  0.00     0.054 A 
BRANCH  71  72
ATOM     72  S   UNL     1       4.675  -8.412  17.626  1.00  0.00     0.124 S 
ATOM     73  O   UNL     1       5.940  -9.083  17.337  1.00  0.00    -0.237 OA
ATOM     74  O   UNL     1       4.785  -7.134  18.322  1.00  0.00    -0.237 OA
ATOM     75  O   UNL     1       3.597  -9.284  18.085  1.00  0.00    -0.744 OA
ENDBRANCH  71  72
ENDBRANCH  52  66
BRANCH  53  76
ATOM     76  C   UNL     1       0.542   0.937  15.227  1.00  0.00    -0.014 A 
ATOM     77  C   UNL     1       1.810   1.537  15.355  1.00  0.00     0.010 A 
ATOM     78  C   UNL     1      -0.347   1.040  16.317  1.00  0.00     0.010 A 
ATOM     79  C   UNL     1       2.214   2.126  16.562  1.00  0.00     0.020 A 
ATOM     80  C   UNL     1       0.050   1.636  17.529  1.00  0.00     0.020 A 
ATOM     81  C   UNL     1       1.347   2.136  17.655  1.00  0.00     0.054 A 
BRANCH  81  82
ATOM     82  S   UNL     1       1.980   2.723  19.256  1.00  0.00     0.124 S 
ATOM     83  O   UNL     1       2.960   1.693  19.592  1.00  0.00    -0.237 OA
ATOM     84  O   UNL     1       2.538   4.030  18.916  1.00  0.00    -0.237 OA
ATOM     85  O   UNL     1       0.795   2.760  20.109  1.00  0.00    -0.744 OA
ENDBRANCH  81  82
ENDBRANCH  53  76
BRANCH  65  86
ATOM     86  C   UNL     1      -2.400  -3.506  11.778  1.00  0.00    -0.014 A 
ATOM     87  C   UNL     1      -3.520  -4.343  11.633  1.00  0.00     0.010 A 
ATOM     88  C   UNL     1      -2.307  -2.354  10.974  1.00  0.00     0.010 A 
ATOM     89  C   UNL     1      -4.495  -4.080  10.675  1.00  0.00     0.020 A 
ATOM     90  C   UNL     1      -3.303  -2.066  10.025  1.00  0.00     0.020 A 
ATOM     91  C   UNL     1      -4.376  -2.950   9.866  1.00  0.00     0.054 A 
BRANCH  91  92
ATOM     92  S   UNL     1      -5.642  -2.688   8.597  1.00  0.00     0.124 S 
ATOM     93  O   UNL     1      -5.346  -3.756   7.643  1.00  0.00    -0.237 OA
ATOM     94  O   UNL     1      -6.887  -2.851   9.346  1.00  0.00    -0.237 OA
ATOM     95  O   UNL     1      -5.385  -1.335   8.111  1.00  0.00    -0.744 OA
ENDBRANCH  91  92
ENDBRANCH  65  86
ENDBRANCH  39  40
ENDBRANCH  31  34
ENDBRANCH   1  30
TORSDOF 14
