REMARK SMILES O=C(NCCCNC(=O)[C@@H](Cc1ccccc1)/N=C1\C(=O)c2ccccc2C(=O)[C@H]1Cl)c1ccc(-c2c3nc(c(-c4ccc(S(=O)(=O)[O-])cc4)c4ccc([nH]4)c(-c4ccc(S(=O)(=O)[O-])cc4)c4nc(c(-c5ccc(S(=O)(=O)[O-])cc5)c5ccc2[nH]5)C=C4)C=C3)cc1
REMARK SMILES IDX 4 1 3 2 1 3 2 4 32 6 33 7 91 8 34 9 90 10 35 11 36 12 37 13
REMARK SMILES IDX 84 14 38 15 89 16 83 17 85 18 39 19 88 20 82 21 81 22 40 24
REMARK SMILES IDX 70 25 51 26 69 27 52 28 55 29 68 30 86 31 53 32 54 33 67 35
REMARK SMILES IDX 87 36 56 37 41 38 42 39 50 40 43 41 49 42 44 43 45 44 46 45
REMARK SMILES IDX 47 46 48 47 71 48 72 49 80 50 73 51 79 52 74 53 75 54 76 55
REMARK SMILES IDX 77 56 78 57 57 58 58 59 66 60 59 61 65 62 60 63 61 64 62 65
REMARK SMILES IDX 63 66 64 67 5 68 6 69 7 70 8 71 9 73 10 74 11 75 12 76 13 77
REMARK SMILES IDX 17 78 14 79 16 80 15 81 18 82 19 83 20 84 30 85 21 86 22 87
REMARK SMILES IDX 28 88 31 89 23 90 27 91 29 92 24 93 26 94 25 95
REMARK H PARENT 3 5 85 23 55 34 7 72
REMARK Flexibility Score: inf
ROOT
ATOM      1  C   UNL     1       4.655  -1.276  -1.647  1.00  0.00     0.118 C 
ENDROOT
BRANCH   1   2
ATOM      2  N   UNL     1       3.261  -0.973  -1.346  1.00  0.00    -0.352 N 
ATOM      3  O   UNL     1       1.423   0.051  -0.592  1.00  0.00    -0.269 OA
ATOM      4  C   UNL     1       2.634   0.129  -0.810  1.00  0.00     0.251 C 
ATOM      5  H   UNL     1       2.643  -1.705  -1.572  1.00  0.00     0.163 HD
BRANCH   4   6
ATOM      6  C   UNL     1       3.349   1.382  -0.449  1.00  0.00     0.039 A 
ATOM      7  C   UNL     1       4.487   1.812  -1.123  1.00  0.00     0.014 A 
ATOM      8  C   UNL     1       2.810   2.210   0.551  1.00  0.00     0.014 A 
ATOM      9  C   UNL     1       5.171   2.948  -0.705  1.00  0.00     0.010 A 
ATOM     10  C   UNL     1       3.419   3.431   0.879  1.00  0.00     0.010 A 
ATOM     11  C   UNL     1       4.614   3.804   0.257  1.00  0.00    -0.014 A 
BRANCH  11  12
ATOM     12  C   UNL     1       5.231   5.147   0.419  1.00  0.00     0.031 A 
ATOM     13  C   UNL     1       5.895   5.574   1.694  1.00  0.00     0.074 A 
ATOM     14  C   UNL     1       5.255   5.949  -0.666  1.00  0.00     0.049 A 
ATOM     15  N   UNL     1       6.617   6.642   1.917  1.00  0.00    -0.248 NA
ATOM     16  C   UNL     1       5.724   4.706   2.868  1.00  0.00     0.031 C 
ATOM     17  C   UNL     1       4.612   5.640  -1.950  1.00  0.00     0.029 A 
ATOM     18  N   UNL     1       5.885   7.144  -0.896  1.00  0.00    -0.354 N 
ATOM     19  C   UNL     1       6.978   6.587   3.257  1.00  0.00     0.074 A 
ATOM     20  C   UNL     1       6.376   5.387   3.803  1.00  0.00     0.031 C 
ATOM     21  C   UNL     1       4.969   6.559  -2.855  1.00  0.00     0.029 A 
ATOM     22  C   UNL     1       5.795   7.565  -2.203  1.00  0.00     0.049 A 
ATOM     23  H   UNL     1       6.355   7.651  -0.195  1.00  0.00     0.167 HD
ATOM     24  C   UNL     1       7.739   7.459   3.963  1.00  0.00     0.031 A 
ATOM     25  C   UNL     1       6.319   8.642  -2.818  1.00  0.00     0.031 A 
ATOM     26  C   UNL     1       8.318   8.657   3.408  1.00  0.00     0.049 A 
ATOM     27  C   UNL     1       7.156   9.588  -2.014  1.00  0.00     0.074 A 
ATOM     28  C   UNL     1       9.120   9.597   4.033  1.00  0.00     0.029 A 
ATOM     29  N   UNL     1       8.152   9.085   2.097  1.00  0.00    -0.354 N 
ATOM     30  N   UNL     1       7.516   9.496  -0.756  1.00  0.00    -0.248 NA
ATOM     31  C   UNL     1       7.649  10.785  -2.704  1.00  0.00     0.031 C 
ATOM     32  C   UNL     1       9.396  10.618   3.115  1.00  0.00     0.029 A 
ATOM     33  C   UNL     1       8.812  10.288   1.902  1.00  0.00     0.049 A 
ATOM     34  H   UNL     1       7.640   8.604   1.407  1.00  0.00     0.167 HD
ATOM     35  C   UNL     1       8.278  10.628  -0.500  1.00  0.00     0.074 A 
ATOM     36  C   UNL     1       8.353  11.370  -1.744  1.00  0.00     0.031 C 
ATOM     37  C   UNL     1       8.856  11.021   0.661  1.00  0.00     0.031 A 
BRANCH  24  38
ATOM     38  C   UNL     1       7.955   7.170   5.426  1.00  0.00    -0.014 A 
ATOM     39  C   UNL     1       8.793   6.122   5.848  1.00  0.00     0.010 A 
ATOM     40  C   UNL     1       7.336   7.981   6.395  1.00  0.00     0.010 A 
ATOM     41  C   UNL     1       8.971   5.862   7.211  1.00  0.00     0.020 A 
ATOM     42  C   UNL     1       7.530   7.739   7.759  1.00  0.00     0.020 A 
ATOM     43  C   UNL     1       8.330   6.667   8.158  1.00  0.00     0.054 A 
BRANCH  43  44
ATOM     44  S   UNL     1       8.574   6.307   9.920  1.00  0.00     0.124 S 
ATOM     45  O   UNL     1       7.754   5.111  10.097  1.00  0.00    -0.237 OA
ATOM     46  O   UNL     1      10.017   6.097  10.010  1.00  0.00    -0.237 OA
ATOM     47  O   UNL     1       8.079   7.507  10.591  1.00  0.00    -0.744 OA
ENDBRANCH  43  44
ENDBRANCH  24  38
BRANCH  25  48
ATOM     48  C   UNL     1       6.046   8.867  -4.263  1.00  0.00    -0.014 A 
ATOM     49  C   UNL     1       7.064   8.723  -5.220  1.00  0.00     0.010 A 
ATOM     50  C   UNL     1       4.740   9.171  -4.693  1.00  0.00     0.010 A 
ATOM     51  C   UNL     1       6.782   8.878  -6.581  1.00  0.00     0.020 A 
ATOM     52  C   UNL     1       4.448   9.297  -6.053  1.00  0.00     0.020 A 
ATOM     53  C   UNL     1       5.474   9.158  -6.989  1.00  0.00     0.054 A 
BRANCH  53  54
ATOM     54  S   UNL     1       5.110   9.276  -8.762  1.00  0.00     0.124 S 
ATOM     55  O   UNL     1       5.641  10.595  -9.092  1.00  0.00    -0.237 OA
ATOM     56  O   UNL     1       5.845   8.140  -9.313  1.00  0.00    -0.237 OA
ATOM     57  O   UNL     1       3.655   9.152  -8.820  1.00  0.00    -0.744 OA
ENDBRANCH  53  54
ENDBRANCH  25  48
BRANCH  37  58
ATOM     58  C   UNL     1       9.620  12.315   0.632  1.00  0.00    -0.014 A 
ATOM     59  C   UNL     1       8.948  13.549   0.570  1.00  0.00     0.010 A 
ATOM     60  C   UNL     1      11.024  12.297   0.695  1.00  0.00     0.010 A 
ATOM     61  C   UNL     1       9.670  14.744   0.539  1.00  0.00     0.020 A 
ATOM     62  C   UNL     1      11.749  13.491   0.690  1.00  0.00     0.020 A 
ATOM     63  C   UNL     1      11.067  14.707   0.596  1.00  0.00     0.054 A 
BRANCH  63  64
ATOM     64  S   UNL     1      11.983  16.272   0.590  1.00  0.00     0.124 S 
ATOM     65  O   UNL     1      11.894  16.669  -0.812  1.00  0.00    -0.237 OA
ATOM     66  O   UNL     1      11.221  17.095   1.526  1.00  0.00    -0.237 OA
ATOM     67  O   UNL     1      13.318  15.892   1.048  1.00  0.00    -0.744 OA
ENDBRANCH  63  64
ENDBRANCH  37  58
ENDBRANCH  11  12
ENDBRANCH   4   6
ENDBRANCH   1   2
BRANCH   1  68
ATOM     68  C   UNL     1       5.258  -2.418  -0.839  1.00  0.00     0.042 C 
BRANCH  68  69
ATOM     69  C   UNL     1       4.564  -3.763  -1.039  1.00  0.00     0.117 C 
BRANCH  69  70
ATOM     70  N   UNL     1       5.460  -4.904  -0.895  1.00  0.00    -0.354 N 
ATOM     71  C   UNL     1       5.953  -5.722   0.052  1.00  0.00     0.245 C 
ATOM     72  H   UNL     1       5.821  -5.157  -1.776  1.00  0.00     0.163 HD
ATOM     73  O   UNL     1       6.642  -6.631  -0.459  1.00  0.00    -0.273 OA
BRANCH  71  74
ATOM     74  C   UNL     1       5.887  -5.670   1.600  1.00  0.00     0.199 C 
BRANCH  74  75
ATOM     75  C   UNL     1       6.968  -4.874   2.369  1.00  0.00     0.073 C 
BRANCH  75  76
ATOM     76  C   UNL     1       6.624  -3.580   3.055  1.00  0.00    -0.045 A 
ATOM     77  C   UNL     1       6.959  -2.357   2.458  1.00  0.00     0.004 A 
ATOM     78  C   UNL     1       5.972  -3.571   4.298  1.00  0.00     0.004 A 
ATOM     79  C   UNL     1       6.575  -1.153   3.048  1.00  0.00     0.000 A 
ATOM     80  C   UNL     1       5.580  -2.365   4.883  1.00  0.00     0.000 A 
ATOM     81  C   UNL     1       5.870  -1.158   4.249  1.00  0.00     0.000 A 
ENDBRANCH  75  76
ENDBRANCH  74  75
BRANCH  74  82
ATOM     82  N   UNL     1       4.653  -6.069   2.321  1.00  0.00    -0.270 NA
ATOM     83  C   UNL     1       3.669  -5.338   2.703  1.00  0.00     0.109 C 
ATOM     84  C   UNL     1       3.460  -3.907   2.347  1.00  0.00     0.209 C 
ATOM     85  C   UNL     1       2.614  -5.917   3.606  1.00  0.00     0.205 C 
ATOM     86  O   UNL     1       4.217  -3.378   1.555  1.00  0.00    -0.287 OA
ATOM     87  C   UNL     1       2.399  -3.115   2.949  1.00  0.00     0.035 A 
ATOM     88  C   UNL     1       2.029  -4.930   4.591  1.00  0.00     0.187 C 
ATOM     89  Cl  UNL     1       1.290  -6.543   2.588  1.00  0.00    -0.107 Cl
ATOM     90  C   UNL     1       2.097  -1.864   2.400  1.00  0.00     0.013 A 
ATOM     91  C   UNL     1       1.768  -3.558   4.101  1.00  0.00     0.031 A 
ATOM     92  O   UNL     1       1.707  -5.239   5.735  1.00  0.00    -0.292 OA
ATOM     93  C   UNL     1       1.181  -1.034   3.033  1.00  0.00     0.001 A 
ATOM     94  C   UNL     1       0.882  -2.705   4.765  1.00  0.00     0.012 A 
ATOM     95  C   UNL     1       0.594  -1.444   4.229  1.00  0.00     0.001 A 
ENDBRANCH  74  82
ENDBRANCH  71  74
ENDBRANCH  69  70
ENDBRANCH  68  69
ENDBRANCH   1  68
TORSDOF 16
