REMARK SMILES Cn1ccc(-c2n[nH]c(=O)n2-c2ccc(C(=O)NCCCNC(=O)c3ccc(-c4c5nc(c(-c6ccc(S(=O)(=O)[O-])cc6)c6ccc([nH]6)c(-c6ccc(S(=O)(=O)[O-])cc6)c6nc(c(-c7ccc(S(=O)(=O)[O-])cc7)c7ccc4[nH]7)C=C6)C=C5)cc3)cc2)n1
REMARK SMILES IDX 20 1 19 2 18 3 16 4 17 5 15 7 12 8 13 9 86 10 14 11 85 12
REMARK SMILES IDX 11 13 6 14 7 15 8 16 9 17 10 19 5 20 1 21 2 22 3 23 87 24
REMARK SMILES IDX 4 25 21 26 22 27 23 28 24 30 25 31 26 32 84 33 27 34 83 35
REMARK SMILES IDX 28 36 29 37 30 38 77 39 31 40 82 41 76 42 78 43 32 44 81 45
REMARK SMILES IDX 75 46 74 47 33 49 63 50 44 51 62 52 45 53 48 54 61 55 79 56
REMARK SMILES IDX 46 57 47 58 60 60 80 61 49 62 34 63 35 64 43 65 36 66 42 67
REMARK SMILES IDX 37 68 38 69 39 70 40 71 41 72 64 73 65 74 73 75 66 76 72 77
REMARK SMILES IDX 67 78 68 79 69 80 70 81 71 82 50 83 51 84 59 85 52 86 58 87
REMARK SMILES IDX 53 88 54 89 55 90 56 91 57 92
REMARK H PARENT 18 6 8 18 22 29 78 48 48 59
REMARK Flexibility Score: inf
ROOT
ATOM      1  C   UNL     1       0.993   0.310   6.973  1.00  0.00     0.042 C 
ENDROOT
BRANCH   1   2
ATOM      2  C   UNL     1      -0.208   0.963   6.274  1.00  0.00     0.118 C 
BRANCH   2   3
ATOM      3  N   UNL     1      -0.219   2.407   6.448  1.00  0.00    -0.352 N 
ATOM      4  C   UNL     1       0.240   3.441   5.668  1.00  0.00     0.251 C 
ATOM      5  O   UNL     1      -0.005   4.587   6.042  1.00  0.00    -0.269 OA
ATOM      6  H   UNL     1      -0.637   2.701   7.290  1.00  0.00     0.163 HD
BRANCH   4   7
ATOM      7  C   UNL     1       0.960   3.240   4.377  1.00  0.00     0.039 A 
ATOM      8  C   UNL     1       2.125   2.927   1.832  1.00  0.00     0.052 A 
ATOM      9  C   UNL     1       1.586   4.159   2.201  1.00  0.00     0.028 A 
ATOM     10  C   UNL     1       2.165   1.891   2.767  1.00  0.00     0.028 A 
ATOM     11  C   UNL     1       0.978   4.302   3.456  1.00  0.00     0.016 A 
ATOM     12  C   UNL     1       1.634   2.069   4.040  1.00  0.00     0.016 A 
BRANCH   8  13
ATOM     13  N   UNL     1       2.693   2.718   0.570  1.00  0.00    -0.242 N 
ATOM     14  C   UNL     1       2.572   1.623  -0.235  1.00  0.00     0.189 A 
ATOM     15  N   UNL     1       3.491   1.511  -1.156  1.00  0.00    -0.150 NA
ATOM     16  N   UNL     1       4.261   2.631  -0.973  1.00  0.00    -0.226 N 
ATOM     17  C   UNL     1       3.784   3.396   0.091  1.00  0.00     0.348 A 
ATOM     18  H   UNL     1       5.046   2.863  -1.520  1.00  0.00     0.195 HD
ATOM     19  O   UNL     1       4.331   4.407   0.521  1.00  0.00    -0.246 OA
BRANCH  14  20
ATOM     20  C   UNL     1       1.473   0.675  -0.131  1.00  0.00     0.130 A 
ATOM     21  C   UNL     1      -1.966   0.024   0.021  1.00  0.00     0.173 C 
ATOM     22  N   UNL     1      -0.524  -0.049  -0.003  1.00  0.00    -0.275 N 
ATOM     23  C   UNL     1       0.238  -1.175  -0.100  1.00  0.00     0.109 A 
ATOM     24  N   UNL     1       0.199   1.083   0.025  1.00  0.00    -0.170 NA
ATOM     25  C   UNL     1       1.538  -0.740  -0.217  1.00  0.00     0.054 A 
ENDBRANCH  14  20
ENDBRANCH   8  13
ENDBRANCH   4   7
ENDBRANCH   2   3
ENDBRANCH   1   2
BRANCH   1  26
ATOM     26  C   UNL     1       0.718   0.037   8.441  1.00  0.00     0.118 C 
BRANCH  26  27
ATOM     27  N   UNL     1      -0.251  -1.048   8.621  1.00  0.00    -0.352 N 
ATOM     28  C   UNL     1      -0.800  -1.528   9.793  1.00  0.00     0.251 C 
ATOM     29  H   UNL     1      -0.550  -1.493   7.796  1.00  0.00     0.163 HD
ATOM     30  O   UNL     1      -1.312  -2.640   9.828  1.00  0.00    -0.269 OA
BRANCH  28  31
ATOM     31  C   UNL     1      -0.758  -0.679  10.995  1.00  0.00     0.039 A 
ATOM     32  C   UNL     1      -0.490  -1.212  12.260  1.00  0.00     0.014 A 
ATOM     33  C   UNL     1      -0.958   0.686  10.825  1.00  0.00     0.014 A 
ATOM     34  C   UNL     1      -0.342  -0.342  13.338  1.00  0.00     0.010 A 
ATOM     35  C   UNL     1      -0.635   1.546  11.839  1.00  0.00     0.010 A 
ATOM     36  C   UNL     1      -0.395   1.040  13.112  1.00  0.00    -0.014 A 
BRANCH  36  37
ATOM     37  C   UNL     1      -0.072   2.001  14.163  1.00  0.00     0.031 A 
ATOM     38  C   UNL     1       1.298   1.843  14.730  1.00  0.00     0.074 A 
ATOM     39  C   UNL     1      -0.835   3.098  14.375  1.00  0.00     0.049 A 
ATOM     40  N   UNL     1       1.625   1.542  15.942  1.00  0.00    -0.248 NA
ATOM     41  C   UNL     1       2.443   1.872  13.799  1.00  0.00     0.031 C 
ATOM     42  C   UNL     1      -2.034   3.512  13.629  1.00  0.00     0.029 A 
ATOM     43  N   UNL     1      -0.616   4.168  15.183  1.00  0.00    -0.354 N 
ATOM     44  C   UNL     1       3.016   1.589  15.981  1.00  0.00     0.074 A 
ATOM     45  C   UNL     1       3.458   1.573  14.611  1.00  0.00     0.031 C 
ATOM     46  C   UNL     1      -2.249   4.832  13.815  1.00  0.00     0.029 A 
ATOM     47  C   UNL     1      -1.321   5.316  14.819  1.00  0.00     0.049 A 
ATOM     48  H   UNL     1      -0.011   4.137  15.959  1.00  0.00     0.167 HD
ATOM     49  C   UNL     1       3.686   1.932  17.118  1.00  0.00     0.031 A 
ATOM     50  C   UNL     1      -1.112   6.583  15.263  1.00  0.00     0.031 A 
ATOM     51  C   UNL     1       2.823   1.893  18.271  1.00  0.00     0.049 A 
ATOM     52  C   UNL     1      -0.342   6.469  16.525  1.00  0.00     0.074 A 
ATOM     53  C   UNL     1       2.048   0.922  18.873  1.00  0.00     0.029 A 
ATOM     54  N   UNL     1       2.347   3.100  18.728  1.00  0.00    -0.354 N 
ATOM     55  N   UNL     1      -0.812   5.909  17.605  1.00  0.00    -0.248 NA
ATOM     56  C   UNL     1       1.108   6.548  16.445  1.00  0.00     0.031 C 
ATOM     57  C   UNL     1       0.857   1.600  19.267  1.00  0.00     0.029 A 
ATOM     58  C   UNL     1       1.005   2.956  18.969  1.00  0.00     0.049 A 
ATOM     59  H   UNL     1       2.875   3.921  18.858  1.00  0.00     0.167 HD
ATOM     60  C   UNL     1       0.249   5.168  18.106  1.00  0.00     0.074 A 
ATOM     61  C   UNL     1       1.429   5.680  17.409  1.00  0.00     0.031 C 
ATOM     62  C   UNL     1       0.035   4.021  18.816  1.00  0.00     0.031 A 
BRANCH  49  63
ATOM     63  C   UNL     1       4.980   2.714  17.123  1.00  0.00    -0.014 A 
ATOM     64  C   UNL     1       5.609   2.979  18.357  1.00  0.00     0.010 A 
ATOM     65  C   UNL     1       5.449   3.433  16.003  1.00  0.00     0.010 A 
ATOM     66  C   UNL     1       6.603   3.960  18.473  1.00  0.00     0.020 A 
ATOM     67  C   UNL     1       6.470   4.380  16.099  1.00  0.00     0.020 A 
ATOM     68  C   UNL     1       7.018   4.662  17.342  1.00  0.00     0.054 A 
BRANCH  68  69
ATOM     69  S   UNL     1       8.236   5.987  17.516  1.00  0.00     0.124 S 
ATOM     70  O   UNL     1       7.498   6.972  18.301  1.00  0.00    -0.237 OA
ATOM     71  O   UNL     1       9.329   5.311  18.210  1.00  0.00    -0.237 OA
ATOM     72  O   UNL     1       8.524   6.370  16.136  1.00  0.00    -0.744 OA
ENDBRANCH  68  69
ENDBRANCH  49  63
BRANCH  50  73
ATOM     73  C   UNL     1      -1.205   7.855  14.492  1.00  0.00    -0.014 A 
ATOM     74  C   UNL     1      -1.077   9.101  15.140  1.00  0.00     0.010 A 
ATOM     75  C   UNL     1      -1.117   7.846  13.085  1.00  0.00     0.010 A 
ATOM     76  C   UNL     1      -0.779  10.270  14.416  1.00  0.00     0.020 A 
ATOM     77  C   UNL     1      -0.832   9.008  12.356  1.00  0.00     0.020 A 
ATOM     78  C   UNL     1      -0.630  10.210  13.029  1.00  0.00     0.054 A 
BRANCH  78  79
ATOM     79  S   UNL     1      -0.021  11.667  12.126  1.00  0.00     0.124 S 
ATOM     80  O   UNL     1      -1.177  12.557  12.153  1.00  0.00    -0.237 OA
ATOM     81  O   UNL     1       1.120  12.089  12.934  1.00  0.00    -0.237 OA
ATOM     82  O   UNL     1       0.322  11.136  10.808  1.00  0.00    -0.744 OA
ENDBRANCH  78  79
ENDBRANCH  50  73
BRANCH  62  83
ATOM     83  C   UNL     1      -1.365   3.722  19.306  1.00  0.00    -0.014 A 
ATOM     84  C   UNL     1      -2.481   3.532  18.465  1.00  0.00     0.010 A 
ATOM     85  C   UNL     1      -1.518   3.475  20.681  1.00  0.00     0.010 A 
ATOM     86  C   UNL     1      -3.720   3.134  18.995  1.00  0.00     0.020 A 
ATOM     87  C   UNL     1      -2.740   3.060  21.212  1.00  0.00     0.020 A 
ATOM     88  C   UNL     1      -3.840   2.902  20.369  1.00  0.00     0.054 A 
BRANCH  88  89
ATOM     89  S   UNL     1      -5.431   2.359  21.054  1.00  0.00     0.124 S 
ATOM     90  O   UNL     1      -6.275   3.536  20.871  1.00  0.00    -0.237 OA
ATOM     91  O   UNL     1      -5.768   1.206  20.222  1.00  0.00    -0.237 OA
ATOM     92  O   UNL     1      -5.119   2.034  22.446  1.00  0.00    -0.744 OA
ENDBRANCH  88  89
ENDBRANCH  62  83
ENDBRANCH  36  37
ENDBRANCH  28  31
ENDBRANCH  26  27
ENDBRANCH   1  26
TORSDOF 15
