REMARK SMILES NS(=O)(=O)c1ccc(-c2coc(=O)n2-c2ccc(C(=O)NCCCNC(=O)c3ccc(-c4c5nc(c(-c6ccc(S(=O)(=O)[O-])cc6)c6ccc([nH]6)c(-c6ccc(S(=O)(=O)[O-])cc6)c6nc(c(-c7ccc(S(=O)(=O)[O-])cc7)c7ccc4[nH]7)C=C6)C=C5)cc3)cc2)cc1
REMARK SMILES IDX 22 1 21 2 19 3 20 4 18 6 15 7 16 8 89 9 17 10 88 11 14 12
REMARK SMILES IDX 9 13 10 14 11 15 12 16 13 17 8 18 5 19 6 20 91 21 7 22 90 23
REMARK SMILES IDX 2 24 3 25 4 26 1 27 23 30 24 31 25 32 26 33 27 35 28 36
REMARK SMILES IDX 29 37 87 38 30 39 86 40 31 41 32 42 33 43 80 44 34 45 85 46
REMARK SMILES IDX 79 47 81 48 35 49 84 50 78 51 77 52 36 54 66 55 47 56 65 57
REMARK SMILES IDX 48 58 51 59 64 60 82 61 49 62 50 63 63 65 83 66 52 67 37 68
REMARK SMILES IDX 38 69 46 70 39 71 45 72 40 73 41 74 42 75 43 76 44 77 67 78
REMARK SMILES IDX 68 79 76 80 69 81 75 82 70 83 71 84 72 85 73 86 74 87 53 88
REMARK SMILES IDX 54 89 62 90 55 91 61 92 56 93 57 94 58 95 59 96 60 97
REMARK H PARENT 21 5 1 28 1 29 25 34 81 53 51 64
REMARK Flexibility Score: inf
ROOT
ATOM      1  C   UNL     1      -3.224  -3.008  -4.276  1.00  0.00     0.118 C 
ENDROOT
BRANCH   1   2
ATOM      2  N   UNL     1      -3.998  -4.237  -4.378  1.00  0.00    -0.352 N 
ATOM      3  C   UNL     1      -3.674  -5.563  -4.211  1.00  0.00     0.251 C 
ATOM      4  O   UNL     1      -4.588  -6.385  -4.272  1.00  0.00    -0.269 OA
ATOM      5  H   UNL     1      -4.943  -4.089  -4.612  1.00  0.00     0.163 HD
BRANCH   3   6
ATOM      6  C   UNL     1      -2.295  -6.040  -3.906  1.00  0.00     0.039 A 
ATOM      7  C   UNL     1       0.235  -6.964  -3.091  1.00  0.00     0.053 A 
ATOM      8  C   UNL     1      -0.881  -7.785  -2.939  1.00  0.00     0.028 A 
ATOM      9  C   UNL     1       0.099  -5.735  -3.736  1.00  0.00     0.028 A 
ATOM     10  C   UNL     1      -2.145  -7.309  -3.318  1.00  0.00     0.016 A 
ATOM     11  C   UNL     1      -1.145  -5.305  -4.178  1.00  0.00     0.016 A 
BRANCH   7  12
ATOM     12  N   UNL     1       1.494  -7.315  -2.577  1.00  0.00    -0.242 N 
ATOM     13  C   UNL     1       2.328  -6.539  -1.821  1.00  0.00     0.095 A 
ATOM     14  C   UNL     1       3.469  -7.211  -1.732  1.00  0.00     0.228 A 
ATOM     15  O   UNL     1       3.463  -8.441  -2.389  1.00  0.00    -0.415 OA
ATOM     16  C   UNL     1       2.168  -8.484  -2.913  1.00  0.00     0.424 A 
ATOM     17  O   UNL     1       1.767  -9.417  -3.595  1.00  0.00    -0.223 OA
BRANCH  13  18
ATOM     18  C   UNL     1       1.948  -5.293  -1.154  1.00  0.00     0.002 A 
ATOM     19  C   UNL     1       1.146  -2.909   0.089  1.00  0.00     0.082 A 
ATOM     20  C   UNL     1       0.441  -4.088   0.337  1.00  0.00     0.022 A 
ATOM     21  C   UNL     1       2.240  -2.908  -0.781  1.00  0.00     0.022 A 
ATOM     22  C   UNL     1       0.848  -5.275  -0.279  1.00  0.00     0.012 A 
ATOM     23  C   UNL     1       2.642  -4.101  -1.395  1.00  0.00     0.012 A 
BRANCH  19  24
ATOM     24  S   UNL     1       0.618  -1.429   0.900  1.00  0.00     0.238 S 
ATOM     25  O   UNL     1       1.296  -1.341   2.166  1.00  0.00    -0.207 OA
ATOM     26  O   UNL     1      -0.820  -1.320   0.766  1.00  0.00    -0.207 OA
BRANCH  24  27
ATOM     27  N   UNL     1       1.238  -0.183  -0.045  1.00  0.00    -0.225 NA
ATOM     28  H   UNL     1       0.974   0.714   0.361  1.00  0.00     0.137 HD
ATOM     29  H   UNL     1       0.861  -0.254  -0.990  1.00  0.00     0.137 HD
ENDBRANCH  24  27
ENDBRANCH  19  24
ENDBRANCH  13  18
ENDBRANCH   7  12
ENDBRANCH   3   6
ENDBRANCH   1   2
BRANCH   1  30
ATOM     30  C   UNL     1      -2.666  -2.562  -5.636  1.00  0.00     0.042 C 
BRANCH  30  31
ATOM     31  C   UNL     1      -3.713  -1.860  -6.480  1.00  0.00     0.118 C 
BRANCH  31  32
ATOM     32  N   UNL     1      -4.045  -0.530  -5.968  1.00  0.00    -0.352 N 
ATOM     33  C   UNL     1      -4.952   0.375  -6.484  1.00  0.00     0.251 C 
ATOM     34  H   UNL     1      -3.563  -0.246  -5.158  1.00  0.00     0.163 HD
ATOM     35  O   UNL     1      -4.862   1.566  -6.205  1.00  0.00    -0.269 OA
BRANCH  33  36
ATOM     36  C   UNL     1      -6.018  -0.119  -7.377  1.00  0.00     0.039 A 
ATOM     37  C   UNL     1      -6.442   0.613  -8.486  1.00  0.00     0.014 A 
ATOM     38  C   UNL     1      -6.571  -1.368  -7.106  1.00  0.00     0.014 A 
ATOM     39  C   UNL     1      -7.360   0.028  -9.357  1.00  0.00     0.010 A 
ATOM     40  C   UNL     1      -7.315  -2.016  -8.059  1.00  0.00     0.010 A 
ATOM     41  C   UNL     1      -7.767  -1.308  -9.158  1.00  0.00    -0.014 A 
BRANCH  41  42
ATOM     42  C   UNL     1      -8.540  -2.023 -10.172  1.00  0.00     0.031 A 
ATOM     43  C   UNL     1      -7.983  -1.862 -11.538  1.00  0.00     0.074 A 
ATOM     44  C   UNL     1      -9.562  -2.874  -9.920  1.00  0.00     0.049 A 
ATOM     45  N   UNL     1      -8.421  -1.057 -12.446  1.00  0.00    -0.248 NA
ATOM     46  C   UNL     1      -6.688  -2.480 -11.866  1.00  0.00     0.031 C 
ATOM     47  C   UNL     1     -10.070  -3.343  -8.624  1.00  0.00     0.029 A 
ATOM     48  N   UNL     1     -10.335  -3.573 -10.800  1.00  0.00    -0.354 N 
ATOM     49  C   UNL     1      -7.623  -1.272 -13.559  1.00  0.00     0.074 A 
ATOM     50  C   UNL     1      -6.461  -1.980 -13.085  1.00  0.00     0.031 C 
ATOM     51  C   UNL     1     -10.896  -4.401  -8.804  1.00  0.00     0.029 A 
ATOM     52  C   UNL     1     -11.128  -4.568 -10.226  1.00  0.00     0.049 A 
ATOM     53  H   UNL     1     -10.333  -3.390 -11.767  1.00  0.00     0.167 HD
ATOM     54  C   UNL     1      -8.133  -1.106 -14.811  1.00  0.00     0.031 A 
ATOM     55  C   UNL     1     -11.951  -5.439 -10.869  1.00  0.00     0.031 A 
ATOM     56  C   UNL     1      -9.402  -0.419 -14.768  1.00  0.00     0.049 A 
ATOM     57  C   UNL     1     -12.296  -4.807 -12.161  1.00  0.00     0.074 A 
ATOM     58  C   UNL     1      -9.837   0.819 -14.342  1.00  0.00     0.029 A 
ATOM     59  N   UNL     1     -10.516  -1.225 -14.816  1.00  0.00    -0.354 N 
ATOM     60  N   UNL     1     -12.999  -3.714 -12.252  1.00  0.00    -0.248 NA
ATOM     61  C   UNL     1     -11.490  -5.132 -13.324  1.00  0.00     0.031 C 
ATOM     62  C   UNL     1     -11.111   0.581 -13.744  1.00  0.00     0.029 A 
ATOM     63  C   UNL     1     -11.436  -0.767 -13.910  1.00  0.00     0.049 A 
ATOM     64  H   UNL     1     -10.633  -2.005 -15.405  1.00  0.00     0.167 HD
ATOM     65  C   UNL     1     -12.380  -2.986 -13.256  1.00  0.00     0.074 A 
ATOM     66  C   UNL     1     -11.540  -3.957 -13.957  1.00  0.00     0.031 C 
ATOM     67  C   UNL     1     -12.399  -1.619 -13.239  1.00  0.00     0.031 A 
BRANCH  54  68
ATOM     68  C   UNL     1      -7.742  -1.968 -15.988  1.00  0.00    -0.014 A 
ATOM     69  C   UNL     1      -8.340  -1.708 -17.238  1.00  0.00     0.010 A 
ATOM     70  C   UNL     1      -7.044  -3.187 -15.855  1.00  0.00     0.010 A 
ATOM     71  C   UNL     1      -8.297  -2.647 -18.276  1.00  0.00     0.020 A 
ATOM     72  C   UNL     1      -6.961  -4.113 -16.896  1.00  0.00     0.020 A 
ATOM     73  C   UNL     1      -7.613  -3.849 -18.093  1.00  0.00     0.054 A 
BRANCH  73  74
ATOM     74  S   UNL     1      -7.622  -5.082 -19.416  1.00  0.00     0.124 S 
ATOM     75  O   UNL     1      -9.032  -5.450 -19.474  1.00  0.00    -0.237 OA
ATOM     76  O   UNL     1      -7.117  -4.314 -20.551  1.00  0.00    -0.237 OA
ATOM     77  O   UNL     1      -6.720  -6.119 -18.921  1.00  0.00    -0.744 OA
ENDBRANCH  73  74
ENDBRANCH  54  68
BRANCH  55  78
ATOM     78  C   UNL     1     -12.224  -6.877 -10.603  1.00  0.00    -0.014 A 
ATOM     79  C   UNL     1     -13.276  -7.552 -11.260  1.00  0.00     0.010 A 
ATOM     80  C   UNL     1     -11.249  -7.665  -9.962  1.00  0.00     0.010 A 
ATOM     81  C   UNL     1     -13.306  -8.957 -11.340  1.00  0.00     0.020 A 
ATOM     82  C   UNL     1     -11.274  -9.067 -10.036  1.00  0.00     0.020 A 
ATOM     83  C   UNL     1     -12.288  -9.707 -10.747  1.00  0.00     0.054 A 
BRANCH  83  84
ATOM     84  S   UNL     1     -12.224 -11.507 -11.017  1.00  0.00     0.124 S 
ATOM     85  O   UNL     1     -13.359 -11.982 -10.231  1.00  0.00    -0.237 OA
ATOM     86  O   UNL     1     -12.370 -11.620 -12.466  1.00  0.00    -0.237 OA
ATOM     87  O   UNL     1     -10.910 -11.887 -10.500  1.00  0.00    -0.744 OA
ENDBRANCH  83  84
ENDBRANCH  55  78
BRANCH  67  88
ATOM     88  C   UNL     1     -13.395  -0.934 -12.324  1.00  0.00    -0.014 A 
ATOM     89  C   UNL     1     -13.417  -1.059 -10.920  1.00  0.00     0.010 A 
ATOM     90  C   UNL     1     -14.293  -0.036 -12.925  1.00  0.00     0.010 A 
ATOM     91  C   UNL     1     -14.339  -0.330 -10.148  1.00  0.00     0.020 A 
ATOM     92  C   UNL     1     -15.197   0.707 -12.164  1.00  0.00     0.020 A 
ATOM     93  C   UNL     1     -15.227   0.547 -10.780  1.00  0.00     0.054 A 
BRANCH  93  94
ATOM     94  S   UNL     1     -16.413   1.500  -9.788  1.00  0.00     0.124 S 
ATOM     95  O   UNL     1     -17.310   0.465  -9.281  1.00  0.00    -0.237 OA
ATOM     96  O   UNL     1     -15.562   2.140  -8.788  1.00  0.00    -0.237 OA
ATOM     97  O   UNL     1     -17.015   2.419 -10.754  1.00  0.00    -0.744 OA
ENDBRANCH  93  94
ENDBRANCH  67  88
ENDBRANCH  41  42
ENDBRANCH  33  36
ENDBRANCH  31  32
ENDBRANCH  30  31
ENDBRANCH   1  30
TORSDOF 17
