REMARK SMILES Cc1cc(Br)cc2c1O[C@H](C(F)(F)F)C(C(=O)NCCCNC(=O)c1ccc(-c3c4nc(c(-c5ccc(S(=O)(=O)[O-])cc5)c5ccc([nH]5)c(-c5ccc(S(=O)(=O)[O-])cc5)c5nc(c(-c6ccc(S(=O)(=O)[O-])cc6)c6ccc3[nH]6)C=C5)C=C4)cc1)=C2
REMARK SMILES IDX 21 1 20 2 19 3 18 4 16 5 17 6 15 8 1 9 2 10 3 11 8 12 4 13
REMARK SMILES IDX 7 14 9 15 5 16 6 17 85 18 10 19 11 20 12 21 13 22 14 23
REMARK SMILES IDX 22 24 23 25 24 27 25 28 26 29 84 30 27 31 83 32 28 33 29 34
REMARK SMILES IDX 30 35 77 36 31 37 82 38 76 39 78 40 32 41 81 42 75 43 74 44
REMARK SMILES IDX 33 46 63 47 44 48 62 49 45 50 48 51 61 52 79 53 46 54 47 55
REMARK SMILES IDX 60 57 80 58 49 59 34 60 35 61 43 62 36 63 42 64 37 65 38 66
REMARK SMILES IDX 39 67 40 68 41 69 64 70 65 71 73 72 66 73 72 74 67 75 68 76
REMARK SMILES IDX 69 77 70 78 71 79 50 80 51 81 59 82 52 83 58 84 53 85 54 86
REMARK SMILES IDX 55 87 56 88 57 89
REMARK H PARENT 18 7 22 26 78 45 48 56
REMARK Flexibility Score: inf
ROOT
ATOM      1  C   UNL     1      -0.353  -7.743   4.373  1.00  0.00     0.118 C 
ENDROOT
BRANCH   1   2
ATOM      2  C   UNL     1      -0.112  -6.536   3.476  1.00  0.00     0.042 C 
BRANCH   2   3
ATOM      3  C   UNL     1      -1.325  -5.621   3.408  1.00  0.00     0.118 C 
BRANCH   3   4
ATOM      4  N   UNL     1      -1.434  -4.771   4.584  1.00  0.00    -0.352 N 
ATOM      5  C   UNL     1      -1.264  -3.461   4.881  1.00  0.00     0.251 C 
ATOM      6  O   UNL     1      -1.494  -3.152   6.054  1.00  0.00    -0.270 OA
ATOM      7  H   UNL     1      -1.704  -5.287   5.378  1.00  0.00     0.163 HD
BRANCH   5   8
ATOM      8  C   UNL     1      -0.839  -2.413   3.911  1.00  0.00     0.067 C 
ATOM      9  C   UNL     1       1.046   0.242  -0.067  1.00  0.00     0.048 C 
ATOM     10  C   UNL     1       0.566   0.580   1.316  1.00  0.00    -0.007 A 
ATOM     11  C   UNL     1       0.572   1.910   1.752  1.00  0.00     0.023 A 
ATOM     12  C   UNL     1       0.157  -0.418   2.210  1.00  0.00     0.130 A 
ATOM     13  C   UNL     1       0.159   2.226   3.048  1.00  0.00     0.019 A 
ATOM     14  C   UNL     1      -0.257  -0.104   3.511  1.00  0.00     0.019 A 
ATOM     15  O   UNL     1       0.225  -1.712   1.776  1.00  0.00    -0.475 OA
ATOM     16  Br  UNL     1       0.174   4.030   3.617  1.00  0.00    -0.051 Br
ATOM     17  C   UNL     1      -0.255   1.228   3.930  1.00  0.00     0.027 A 
ATOM     18  C   UNL     1      -0.648  -1.180   4.416  1.00  0.00     0.025 C 
ATOM     19  C   UNL     1      -0.651  -2.656   2.442  1.00  0.00     0.314 C 
BRANCH  19  20
ATOM     20  C   UNL     1      -1.988  -2.742   1.681  1.00  0.00     0.429 C 
ATOM     21  F   UNL     1      -1.810  -3.327   0.470  1.00  0.00    -0.167 F 
ATOM     22  F   UNL     1      -2.914  -3.487   2.333  1.00  0.00    -0.167 F 
ATOM     23  F   UNL     1      -2.549  -1.531   1.466  1.00  0.00    -0.167 F 
ENDBRANCH  19  20
ENDBRANCH   5   8
ENDBRANCH   3   4
ENDBRANCH   2   3
ENDBRANCH   1   2
BRANCH   1  24
ATOM     24  N   UNL     1      -1.415  -8.600   3.851  1.00  0.00    -0.352 N 
ATOM     25  C   UNL     1      -1.340  -9.826   3.241  1.00  0.00     0.251 C 
ATOM     26  H   UNL     1      -2.326  -8.242   3.953  1.00  0.00     0.163 HD
ATOM     27  O   UNL     1      -2.308 -10.253   2.614  1.00  0.00    -0.269 OA
BRANCH  25  28
ATOM     28  C   UNL     1      -0.104 -10.624   3.338  1.00  0.00     0.039 A 
ATOM     29  C   UNL     1       0.347 -11.336   2.224  1.00  0.00     0.014 A 
ATOM     30  C   UNL     1       0.599 -10.685   4.544  1.00  0.00     0.014 A 
ATOM     31  C   UNL     1       1.540 -12.055   2.305  1.00  0.00     0.010 A 
ATOM     32  C   UNL     1       1.834 -11.316   4.593  1.00  0.00     0.010 A 
ATOM     33  C   UNL     1       2.309 -12.021   3.480  1.00  0.00    -0.014 A 
BRANCH  33  34
ATOM     34  C   UNL     1       3.597 -12.747   3.587  1.00  0.00     0.031 A 
ATOM     35  C   UNL     1       3.739 -13.860   4.591  1.00  0.00     0.074 A 
ATOM     36  C   UNL     1       4.641 -12.378   2.818  1.00  0.00     0.049 A 
ATOM     37  N   UNL     1       4.798 -14.564   4.894  1.00  0.00    -0.248 NA
ATOM     38  C   UNL     1       2.541 -14.215   5.375  1.00  0.00     0.031 C 
ATOM     39  C   UNL     1       4.625 -11.301   1.823  1.00  0.00     0.029 A 
ATOM     40  N   UNL     1       5.918 -12.873   2.747  1.00  0.00    -0.354 N 
ATOM     41  C   UNL     1       4.395 -15.439   5.896  1.00  0.00     0.074 A 
ATOM     42  C   UNL     1       3.017 -15.134   6.202  1.00  0.00     0.031 C 
ATOM     43  C   UNL     1       5.819 -11.251   1.210  1.00  0.00     0.029 A 
ATOM     44  C   UNL     1       6.699 -12.255   1.798  1.00  0.00     0.049 A 
ATOM     45  H   UNL     1       6.245 -13.603   3.320  1.00  0.00     0.167 HD
ATOM     46  C   UNL     1       5.098 -16.435   6.482  1.00  0.00     0.031 A 
ATOM     47  C   UNL     1       7.980 -12.476   1.445  1.00  0.00     0.031 A 
ATOM     48  C   UNL     1       6.462 -16.751   6.158  1.00  0.00     0.049 A 
ATOM     49  C   UNL     1       8.754 -13.554   2.157  1.00  0.00     0.074 A 
ATOM     50  C   UNL     1       7.258 -17.753   6.682  1.00  0.00     0.029 A 
ATOM     51  N   UNL     1       7.224 -16.083   5.213  1.00  0.00    -0.354 N 
ATOM     52  N   UNL     1       8.345 -14.386   3.085  1.00  0.00    -0.248 NA
ATOM     53  C   UNL     1      10.162 -13.725   1.770  1.00  0.00     0.031 C 
ATOM     54  C   UNL     1       8.518 -17.665   6.083  1.00  0.00     0.029 A 
ATOM     55  C   UNL     1       8.487 -16.643   5.147  1.00  0.00     0.049 A 
ATOM     56  H   UNL     1       6.914 -15.323   4.669  1.00  0.00     0.167 HD
ATOM     57  C   UNL     1       9.437 -15.200   3.368  1.00  0.00     0.074 A 
ATOM     58  C   UNL     1      10.516 -14.772   2.502  1.00  0.00     0.031 C 
ATOM     59  C   UNL     1       9.540 -16.210   4.266  1.00  0.00     0.031 A 
BRANCH  46  60
ATOM     60  C   UNL     1       4.397 -17.285   7.505  1.00  0.00    -0.014 A 
ATOM     61  C   UNL     1       3.417 -18.213   7.107  1.00  0.00     0.010 A 
ATOM     62  C   UNL     1       4.781 -17.229   8.857  1.00  0.00     0.010 A 
ATOM     63  C   UNL     1       2.828 -19.064   8.044  1.00  0.00     0.020 A 
ATOM     64  C   UNL     1       4.212 -18.098   9.793  1.00  0.00     0.020 A 
ATOM     65  C   UNL     1       3.237 -19.008   9.379  1.00  0.00     0.054 A 
BRANCH  65  66
ATOM     66  S   UNL     1       2.508 -20.183  10.553  1.00  0.00     0.124 S 
ATOM     67  O   UNL     1       1.126 -19.716  10.630  1.00  0.00    -0.237 OA
ATOM     68  O   UNL     1       2.701 -21.464   9.879  1.00  0.00    -0.237 OA
ATOM     69  O   UNL     1       3.297 -19.995  11.768  1.00  0.00    -0.744 OA
ENDBRANCH  65  66
ENDBRANCH  46  60
BRANCH  47  70
ATOM     70  C   UNL     1       8.616 -11.682   0.356  1.00  0.00    -0.014 A 
ATOM     71  C   UNL     1       8.982 -12.305  -0.851  1.00  0.00     0.010 A 
ATOM     72  C   UNL     1       8.890 -10.314   0.528  1.00  0.00     0.010 A 
ATOM     73  C   UNL     1       9.645 -11.585  -1.849  1.00  0.00     0.020 A 
ATOM     74  C   UNL     1       9.525  -9.582  -0.480  1.00  0.00     0.020 A 
ATOM     75  C   UNL     1       9.917 -10.229  -1.655  1.00  0.00     0.054 A 
BRANCH  75  76
ATOM     76  S   UNL     1      10.778  -9.315  -2.965  1.00  0.00     0.124 S 
ATOM     77  O   UNL     1      12.127  -9.865  -2.880  1.00  0.00    -0.237 OA
ATOM     78  O   UNL     1      10.018  -9.683  -4.156  1.00  0.00    -0.237 OA
ATOM     79  O   UNL     1      10.643  -7.920  -2.554  1.00  0.00    -0.744 OA
ENDBRANCH  75  76
ENDBRANCH  47  70
BRANCH  59  80
ATOM     80  C   UNL     1      10.848 -16.948   4.338  1.00  0.00    -0.014 A 
ATOM     81  C   UNL     1      11.983 -16.355   4.916  1.00  0.00     0.010 A 
ATOM     82  C   UNL     1      10.917 -18.282   3.896  1.00  0.00     0.010 A 
ATOM     83  C   UNL     1      13.172 -17.077   5.032  1.00  0.00     0.020 A 
ATOM     84  C   UNL     1      12.095 -19.017   4.037  1.00  0.00     0.020 A 
ATOM     85  C   UNL     1      13.219 -18.406   4.596  1.00  0.00     0.054 A 
BRANCH  85  86
ATOM     86  S   UNL     1      14.759 -19.336   4.817  1.00  0.00     0.124 S 
ATOM     87  O   UNL     1      15.640 -18.703   3.839  1.00  0.00    -0.237 OA
ATOM     88  O   UNL     1      15.087 -19.081   6.217  1.00  0.00    -0.237 OA
ATOM     89  O   UNL     1      14.380 -20.714   4.512  1.00  0.00    -0.744 OA
ENDBRANCH  85  86
ENDBRANCH  59  80
ENDBRANCH  33  34
ENDBRANCH  25  28
ENDBRANCH   1  24
TORSDOF 14
