REMARK SMILES O=C(NCCCNC(=O)c1ccc(-c2c3nc(c(-c4ccc(S(=O)(=O)[O-])cc4)c4ccc([nH]4)c(-c4ccc(S(=O)(=O)[O-])cc4)c4nc(c(-c5ccc(S(=O)(=O)[O-])cc5)c5ccc2[nH]5)C=C4)C=C3)cc1)C1=Cc2cc(OC(F)(F)F)ccc2O[C@@H]1C(F)(F)F
REMARK SMILES IDX 5 1 4 2 3 3 1 4 2 5 70 7 71 8 84 9 72 10 83 11 73 12 82 13
REMARK SMILES IDX 74 14 81 15 80 16 85 17 86 18 87 19 88 20 75 21 76 22 77 23
REMARK SMILES IDX 78 24 79 25 6 26 7 27 8 28 9 30 10 31 11 32 69 33 12 34
REMARK SMILES IDX 68 35 13 36 14 37 15 38 62 39 16 40 67 41 61 42 63 43 17 44
REMARK SMILES IDX 66 45 60 46 59 47 18 49 48 50 29 51 47 52 30 53 33 54 46 55
REMARK SMILES IDX 64 56 31 57 32 58 45 60 65 61 34 62 19 63 20 64 28 65 21 66
REMARK SMILES IDX 27 67 22 68 23 69 24 70 25 71 26 72 49 73 50 74 58 75 51 76
REMARK SMILES IDX 57 77 52 78 53 79 54 80 55 81 56 82 35 83 36 84 44 85 37 86
REMARK SMILES IDX 43 87 38 88 39 89 40 90 41 91 42 92
REMARK H PARENT 3 6 7 29 63 48 33 59
REMARK Flexibility Score: inf
ROOT
ATOM      1  C   UNL     1       4.011   2.090   1.806  1.00  0.00     0.042 C 
ENDROOT
BRANCH   1   2
ATOM      2  C   UNL     1       3.233   0.842   1.406  1.00  0.00     0.118 C 
BRANCH   2   3
ATOM      3  N   UNL     1       2.274   1.080   0.324  1.00  0.00    -0.352 N 
ATOM      4  O   UNL     1       1.167   0.640  -1.608  1.00  0.00    -0.270 OA
ATOM      5  C   UNL     1       2.159   0.484  -0.909  1.00  0.00     0.251 C 
ATOM      6  H   UNL     1       1.606   1.779   0.509  1.00  0.00     0.163 HD
BRANCH   5   7
ATOM      7  C   UNL     1       3.252  -0.411  -1.323  1.00  0.00     0.067 C 
ATOM      8  C   UNL     1       4.438   0.157  -1.572  1.00  0.00     0.025 C 
ATOM      9  C   UNL     1       3.082  -1.871  -1.039  1.00  0.00     0.314 C 
ATOM     10  C   UNL     1       5.546  -0.521  -0.890  1.00  0.00     0.021 A 
ATOM     11  O   UNL     1       4.136  -2.406  -0.200  1.00  0.00    -0.475 OA
ATOM     12  C   UNL     1       6.702   0.229  -0.645  1.00  0.00     0.058 A 
ATOM     13  C   UNL     1       5.296  -1.676  -0.130  1.00  0.00     0.128 A 
ATOM     14  C   UNL     1       7.527  -0.078   0.440  1.00  0.00     0.130 A 
ATOM     15  C   UNL     1       6.153  -2.017   0.914  1.00  0.00     0.051 A 
ATOM     16  C   UNL     1       7.243  -1.198   1.223  1.00  0.00     0.050 A 
BRANCH   9  17
ATOM     17  C   UNL     1       2.959  -2.678  -2.340  1.00  0.00     0.429 C 
ATOM     18  F   UNL     1       2.655  -3.975  -2.080  1.00  0.00    -0.167 F 
ATOM     19  F   UNL     1       1.975  -2.205  -3.140  1.00  0.00    -0.167 F 
ATOM     20  F   UNL     1       4.103  -2.674  -3.064  1.00  0.00    -0.167 F 
ENDBRANCH   9  17
BRANCH  14  21
ATOM     21  O   UNL     1       8.539   0.815   0.642  1.00  0.00    -0.406 OA
BRANCH  21  22
ATOM     22  C   UNL     1       9.084   0.904   1.950  1.00  0.00     0.573 C 
ATOM     23  F   UNL     1       8.123   1.184   2.855  1.00  0.00    -0.132 F 
ATOM     24  F   UNL     1       9.712  -0.241   2.292  1.00  0.00    -0.132 F 
ATOM     25  F   UNL     1       9.991   1.903   1.973  1.00  0.00    -0.132 F 
ENDBRANCH  21  22
ENDBRANCH  14  21
ENDBRANCH   5   7
ENDBRANCH   2   3
ENDBRANCH   1   2
BRANCH   1  26
ATOM     26  C   UNL     1       3.945   2.363   3.305  1.00  0.00     0.118 C 
BRANCH  26  27
ATOM     27  N   UNL     1       4.611   1.361   4.129  1.00  0.00    -0.352 N 
ATOM     28  C   UNL     1       5.522   1.511   5.161  1.00  0.00     0.251 C 
ATOM     29  H   UNL     1       4.376   0.428   3.917  1.00  0.00     0.163 HD
ATOM     30  O   UNL     1       6.012   0.525   5.680  1.00  0.00    -0.269 OA
BRANCH  28  31
ATOM     31  C   UNL     1       5.927   2.871   5.601  1.00  0.00     0.039 A 
ATOM     32  C   UNL     1       7.270   3.121   5.900  1.00  0.00     0.014 A 
ATOM     33  C   UNL     1       4.999   3.907   5.685  1.00  0.00     0.014 A 
ATOM     34  C   UNL     1       7.691   4.427   6.175  1.00  0.00     0.010 A 
ATOM     35  C   UNL     1       5.438   5.218   5.824  1.00  0.00     0.010 A 
ATOM     36  C   UNL     1       6.788   5.498   6.080  1.00  0.00    -0.014 A 
BRANCH  36  37
ATOM     37  C   UNL     1       7.206   6.916   6.256  1.00  0.00     0.031 A 
ATOM     38  C   UNL     1       6.516   7.776   7.287  1.00  0.00     0.074 A 
ATOM     39  C   UNL     1       8.118   7.464   5.426  1.00  0.00     0.049 A 
ATOM     40  N   UNL     1       6.609   9.065   7.487  1.00  0.00    -0.248 NA
ATOM     41  C   UNL     1       5.553   7.103   8.176  1.00  0.00     0.031 C 
ATOM     42  C   UNL     1       8.818   6.766   4.344  1.00  0.00     0.029 A 
ATOM     43  N   UNL     1       8.607   8.746   5.356  1.00  0.00    -0.354 N 
ATOM     44  C   UNL     1       5.684   9.361   8.483  1.00  0.00     0.074 A 
ATOM     45  C   UNL     1       4.997   8.129   8.801  1.00  0.00     0.031 C 
ATOM     46  C   UNL     1       9.671   7.614   3.747  1.00  0.00     0.029 A 
ATOM     47  C   UNL     1       9.547   8.928   4.368  1.00  0.00     0.049 A 
ATOM     48  H   UNL     1       8.313   9.467   5.958  1.00  0.00     0.167 HD
ATOM     49  C   UNL     1       5.444  10.541   9.101  1.00  0.00     0.031 A 
ATOM     50  C   UNL     1      10.230  10.030   3.999  1.00  0.00     0.031 A 
ATOM     51  C   UNL     1       6.173  11.749   8.827  1.00  0.00     0.049 A 
ATOM     52  C   UNL     1       9.990  11.318   4.737  1.00  0.00     0.074 A 
ATOM     53  C   UNL     1       6.068  12.979   9.452  1.00  0.00     0.029 A 
ATOM     54  N   UNL     1       7.157  11.873   7.859  1.00  0.00    -0.354 N 
ATOM     55  N   UNL     1       9.147  11.564   5.712  1.00  0.00    -0.248 NA
ATOM     56  C   UNL     1      10.802  12.475   4.335  1.00  0.00     0.031 C 
ATOM     57  C   UNL     1       6.968  13.857   8.838  1.00  0.00     0.029 A 
ATOM     58  C   UNL     1       7.665  13.159   7.864  1.00  0.00     0.049 A 
ATOM     59  H   UNL     1       7.451  11.152   7.256  1.00  0.00     0.167 HD
ATOM     60  C   UNL     1       9.348  12.895   6.059  1.00  0.00     0.074 A 
ATOM     61  C   UNL     1      10.400  13.397   5.199  1.00  0.00     0.031 C 
ATOM     62  C   UNL     1       8.719  13.635   7.005  1.00  0.00     0.031 A 
BRANCH  49  63
ATOM     63  C   UNL     1       4.358  10.572  10.146  1.00  0.00    -0.014 A 
ATOM     64  C   UNL     1       4.507   9.893  11.369  1.00  0.00     0.010 A 
ATOM     65  C   UNL     1       3.178  11.300   9.909  1.00  0.00     0.010 A 
ATOM     66  C   UNL     1       3.475   9.893  12.311  1.00  0.00     0.020 A 
ATOM     67  C   UNL     1       2.156  11.331  10.863  1.00  0.00     0.020 A 
ATOM     68  C   UNL     1       2.303  10.608  12.049  1.00  0.00     0.054 A 
BRANCH  68  69
ATOM     69  S   UNL     1       0.984  10.599  13.293  1.00  0.00     0.124 S 
ATOM     70  O   UNL     1       0.423   9.260  13.126  1.00  0.00    -0.237 OA
ATOM     71  O   UNL     1       1.714  10.822  14.538  1.00  0.00    -0.237 OA
ATOM     72  O   UNL     1       0.111  11.695  12.881  1.00  0.00    -0.744 OA
ENDBRANCH  68  69
ENDBRANCH  49  63
BRANCH  50  73
ATOM     73  C   UNL     1      11.233   9.953   2.901  1.00  0.00    -0.014 A 
ATOM     74  C   UNL     1      12.608  10.017   3.192  1.00  0.00     0.010 A 
ATOM     75  C   UNL     1      10.825   9.800   1.564  1.00  0.00     0.010 A 
ATOM     76  C   UNL     1      13.555   9.949   2.166  1.00  0.00     0.020 A 
ATOM     77  C   UNL     1      11.771   9.704   0.537  1.00  0.00     0.020 A 
ATOM     78  C   UNL     1      13.130   9.791   0.844  1.00  0.00     0.054 A 
BRANCH  78  79
ATOM     79  S   UNL     1      14.379   9.652  -0.466  1.00  0.00     0.124 S 
ATOM     80  O   UNL     1      14.842  11.030  -0.591  1.00  0.00    -0.237 OA
ATOM     81  O   UNL     1      15.338   8.712   0.109  1.00  0.00    -0.237 OA
ATOM     82  O   UNL     1      13.621   9.138  -1.605  1.00  0.00    -0.744 OA
ENDBRANCH  78  79
ENDBRANCH  50  73
BRANCH  62  83
ATOM     83  C   UNL     1       9.180  15.055   7.191  1.00  0.00    -0.014 A 
ATOM     84  C   UNL     1       8.861  16.053   6.255  1.00  0.00     0.010 A 
ATOM     85  C   UNL     1       9.890  15.402   8.355  1.00  0.00     0.010 A 
ATOM     86  C   UNL     1       9.272  17.372   6.465  1.00  0.00     0.020 A 
ATOM     87  C   UNL     1      10.279  16.724   8.581  1.00  0.00     0.020 A 
ATOM     88  C   UNL     1       9.979  17.699   7.627  1.00  0.00     0.054 A 
BRANCH  88  89
ATOM     89  S   UNL     1      10.459  19.426   7.901  1.00  0.00     0.124 S 
ATOM     90  O   UNL     1      11.578  19.579   6.975  1.00  0.00    -0.237 OA
ATOM     91  O   UNL     1       9.245  20.157   7.547  1.00  0.00    -0.237 OA
ATOM     92  O   UNL     1      10.812  19.466   9.318  1.00  0.00    -0.744 OA
ENDBRANCH  88  89
ENDBRANCH  62  83
ENDBRANCH  36  37
ENDBRANCH  28  31
ENDBRANCH  26  27
ENDBRANCH   1  26
TORSDOF 16
