REMARK SMILES O=C(NCCCNC(=O)C1CCN(C(=O)CSCc2ccccc2)CC1)c1ccc(-c2c3nc(c(-c4ccc(S(=O)(=O)[O-])cc4)c4ccc([nH]4)c(-c4ccc(S(=O)(=O)[O-])cc4)c4nc(c(-c5ccc(S(=O)(=O)[O-])cc5)c5ccc2[nH]5)C=C4)C=C3)cc1
REMARK SMILES IDX 5 1 4 2 3 3 1 4 2 5 27 7 28 8 86 9 29 10 85 11 30 12 31 13
REMARK SMILES IDX 32 14 79 15 33 16 84 17 78 18 80 19 34 20 83 21 77 22 76 23
REMARK SMILES IDX 35 25 65 26 46 27 64 28 47 29 50 30 63 31 81 32 48 33 49 34
REMARK SMILES IDX 62 36 82 37 51 38 36 39 37 40 45 41 38 42 44 43 39 44 40 45
REMARK SMILES IDX 41 46 42 47 43 48 66 49 67 50 75 51 68 52 74 53 69 54 70 55
REMARK SMILES IDX 71 56 72 57 73 58 52 59 53 60 61 61 54 62 60 63 55 64 56 65
REMARK SMILES IDX 57 66 58 67 59 68 6 69 7 70 8 71 9 73 10 74 11 75 26 76
REMARK SMILES IDX 12 77 25 78 13 79 14 80 15 81 16 82 17 83 18 84 19 85 20 86
REMARK SMILES IDX 24 87 21 88 23 89 22 90
REMARK H PARENT 3 6 80 24 50 35 7 72
REMARK Flexibility Score: inf
ROOT
ATOM      1  C   UNL     1       4.801  -1.867   1.684  1.00  0.00     0.042 C 
ENDROOT
BRANCH   1   2
ATOM      2  C   UNL     1       4.502  -1.233   0.330  1.00  0.00     0.118 C 
BRANCH   2   3
ATOM      3  N   UNL     1       3.076  -1.066   0.084  1.00  0.00    -0.352 N 
ATOM      4  O   UNL     1       1.121   0.025  -0.143  1.00  0.00    -0.269 OA
ATOM      5  C   UNL     1       2.349   0.080  -0.129  1.00  0.00     0.251 C 
ATOM      6  H   UNL     1       2.554  -1.900   0.069  1.00  0.00     0.163 HD
BRANCH   5   7
ATOM      7  C   UNL     1       3.038   1.374  -0.317  1.00  0.00     0.039 A 
ATOM      8  C   UNL     1       4.165   1.471  -1.135  1.00  0.00     0.014 A 
ATOM      9  C   UNL     1       2.536   2.513   0.321  1.00  0.00     0.014 A 
ATOM     10  C   UNL     1       4.875   2.664  -1.196  1.00  0.00     0.010 A 
ATOM     11  C   UNL     1       3.202   3.735   0.186  1.00  0.00     0.010 A 
ATOM     12  C   UNL     1       4.395   3.813  -0.548  1.00  0.00    -0.014 A 
BRANCH  12  13
ATOM     13  C   UNL     1       5.126   5.096  -0.705  1.00  0.00     0.031 A 
ATOM     14  C   UNL     1       5.775   5.772   0.472  1.00  0.00     0.074 A 
ATOM     15  C   UNL     1       5.222   5.638  -1.935  1.00  0.00     0.049 A 
ATOM     16  N   UNL     1       6.468   6.883   0.499  1.00  0.00    -0.248 NA
ATOM     17  C   UNL     1       5.627   5.126   1.785  1.00  0.00     0.031 C 
ATOM     18  C   UNL     1       4.628   5.076  -3.152  1.00  0.00     0.029 A 
ATOM     19  N   UNL     1       5.866   6.766  -2.372  1.00  0.00    -0.354 N 
ATOM     20  C   UNL     1       6.820   7.081   1.829  1.00  0.00     0.074 A 
ATOM     21  C   UNL     1       6.246   5.986   2.583  1.00  0.00     0.031 C 
ATOM     22  C   UNL     1       4.976   5.833  -4.202  1.00  0.00     0.029 A 
ATOM     23  C   UNL     1       5.761   6.967  -3.728  1.00  0.00     0.049 A 
ATOM     24  H   UNL     1       6.357   7.373  -1.773  1.00  0.00     0.167 HD
ATOM     25  C   UNL     1       7.558   8.081   2.371  1.00  0.00     0.031 A 
ATOM     26  C   UNL     1       6.228   7.960  -4.507  1.00  0.00     0.031 A 
ATOM     27  C   UNL     1       8.125   9.168   1.615  1.00  0.00     0.049 A 
ATOM     28  C   UNL     1       7.019   9.069  -3.877  1.00  0.00     0.074 A 
ATOM     29  C   UNL     1       8.911  10.214   2.070  1.00  0.00     0.029 A 
ATOM     30  N   UNL     1       7.967   9.354   0.250  1.00  0.00    -0.354 N 
ATOM     31  N   UNL     1       7.364   9.221  -2.622  1.00  0.00    -0.248 NA
ATOM     32  C   UNL     1       7.482  10.140  -4.769  1.00  0.00     0.031 C 
ATOM     33  C   UNL     1       9.186  11.058   0.988  1.00  0.00     0.029 A 
ATOM     34  C   UNL     1       8.618  10.509  -0.150  1.00  0.00     0.049 A 
ATOM     35  H   UNL     1       7.465   8.753  -0.347  1.00  0.00     0.167 HD
ATOM     36  C   UNL     1       8.098  10.399  -2.574  1.00  0.00     0.074 A 
ATOM     37  C   UNL     1       8.164  10.907  -3.930  1.00  0.00     0.031 C 
ATOM     38  C   UNL     1       8.666  11.006  -1.502  1.00  0.00     0.031 A 
BRANCH  25  39
ATOM     39  C   UNL     1       7.771   8.063   3.862  1.00  0.00    -0.014 A 
ATOM     40  C   UNL     1       8.634   7.130   4.465  1.00  0.00     0.010 A 
ATOM     41  C   UNL     1       7.134   9.024   4.669  1.00  0.00     0.010 A 
ATOM     42  C   UNL     1       8.826   7.134   5.850  1.00  0.00     0.020 A 
ATOM     43  C   UNL     1       7.341   9.047   6.052  1.00  0.00     0.020 A 
ATOM     44  C   UNL     1       8.173   8.089   6.635  1.00  0.00     0.054 A 
BRANCH  44  45
ATOM     45  S   UNL     1       8.449   8.079   8.429  1.00  0.00     0.124 S 
ATOM     46  O   UNL     1       7.671   6.915   8.845  1.00  0.00    -0.237 OA
ATOM     47  O   UNL     1       9.898   7.934   8.530  1.00  0.00    -0.237 OA
ATOM     48  O   UNL     1       7.922   9.369   8.868  1.00  0.00    -0.744 OA
ENDBRANCH  44  45
ENDBRANCH  25  39
BRANCH  26  49
ATOM     49  C   UNL     1       5.941   7.946  -5.966  1.00  0.00    -0.014 A 
ATOM     50  C   UNL     1       6.962   7.687  -6.895  1.00  0.00     0.010 A 
ATOM     51  C   UNL     1       4.628   8.153  -6.429  1.00  0.00     0.010 A 
ATOM     52  C   UNL     1       6.678   7.645  -8.263  1.00  0.00     0.020 A 
ATOM     53  C   UNL     1       4.335   8.084  -7.793  1.00  0.00     0.020 A 
ATOM     54  C   UNL     1       5.365   7.841  -8.702  1.00  0.00     0.054 A 
BRANCH  54  55
ATOM     55  S   UNL     1       5.006   7.719 -10.476  1.00  0.00     0.124 S 
ATOM     56  O   UNL     1       5.520   8.989 -10.977  1.00  0.00    -0.237 OA
ATOM     57  O   UNL     1       5.759   6.530 -10.871  1.00  0.00    -0.237 OA
ATOM     58  O   UNL     1       3.553   7.568 -10.520  1.00  0.00    -0.744 OA
ENDBRANCH  54  55
ENDBRANCH  26  49
BRANCH  38  59
ATOM     59  C   UNL     1       9.426  12.278  -1.759  1.00  0.00    -0.014 A 
ATOM     60  C   UNL     1       8.755  13.479  -2.049  1.00  0.00     0.010 A 
ATOM     61  C   UNL     1      10.830  12.278  -1.671  1.00  0.00     0.010 A 
ATOM     62  C   UNL     1       9.478  14.653  -2.278  1.00  0.00     0.020 A 
ATOM     63  C   UNL     1      11.554  13.455  -1.874  1.00  0.00     0.020 A 
ATOM     64  C   UNL     1      10.873  14.632  -2.191  1.00  0.00     0.054 A 
BRANCH  64  65
ATOM     65  S   UNL     1      11.789  16.176  -2.454  1.00  0.00     0.124 S 
ATOM     66  O   UNL     1      11.720  16.326  -3.905  1.00  0.00    -0.237 OA
ATOM     67  O   UNL     1      11.012  17.146  -1.685  1.00  0.00    -0.237 OA
ATOM     68  O   UNL     1      13.117  15.886  -1.919  1.00  0.00    -0.744 OA
ENDBRANCH  64  65
ENDBRANCH  38  59
ENDBRANCH  12  13
ENDBRANCH   5   7
ENDBRANCH   2   3
ENDBRANCH   1   2
BRANCH   1  69
ATOM     69  C   UNL     1       4.239  -3.272   1.849  1.00  0.00     0.117 C 
BRANCH  69  70
ATOM     70  N   UNL     1       4.740  -4.172   0.827  1.00  0.00    -0.356 N 
ATOM     71  C   UNL     1       5.589  -5.229   0.903  1.00  0.00     0.223 C 
ATOM     72  H   UNL     1       4.407  -3.983  -0.080  1.00  0.00     0.163 HD
ATOM     73  O   UNL     1       5.909  -5.778  -0.151  1.00  0.00    -0.275 OA
BRANCH  71  74
ATOM     74  C   UNL     1       6.108  -5.702   2.252  1.00  0.00     0.082 C 
ATOM     75  C   UNL     1       7.523  -5.164   2.521  1.00  0.00     0.035 C 
ATOM     76  C   UNL     1       6.022  -7.237   2.325  1.00  0.00     0.035 C 
ATOM     77  C   UNL     1       8.613  -5.975   1.817  1.00  0.00     0.120 C 
ATOM     78  C   UNL     1       7.169  -7.931   1.592  1.00  0.00     0.120 C 
ATOM     79  N   UNL     1       8.433  -7.398   2.088  1.00  0.00    -0.342 N 
ATOM     80  C   UNL     1       9.313  -8.060   2.932  1.00  0.00     0.232 C 
ATOM     81  O   UNL     1      10.256  -7.476   3.474  1.00  0.00    -0.274 OA
BRANCH  80  82
ATOM     82  C   UNL     1       9.117  -9.551   3.177  1.00  0.00     0.169 C 
BRANCH  82  83
ATOM     83  S   UNL     1       7.740  -9.911   4.319  1.00  0.00    -0.147 SA
BRANCH  83  84
ATOM     84  C   UNL     1       8.278  -8.980   5.788  1.00  0.00     0.105 C 
BRANCH  84  85
ATOM     85  C   UNL     1       9.477  -9.560   6.493  1.00  0.00    -0.038 A 
ATOM     86  C   UNL     1       9.573 -10.930   6.786  1.00  0.00     0.004 A 
ATOM     87  C   UNL     1      10.495  -8.707   6.944  1.00  0.00     0.004 A 
ATOM     88  C   UNL     1      10.673 -11.437   7.479  1.00  0.00     0.000 A 
ATOM     89  C   UNL     1      11.587  -9.213   7.652  1.00  0.00     0.000 A 
ATOM     90  C   UNL     1      11.678 -10.578   7.915  1.00  0.00     0.000 A 
ENDBRANCH  84  85
ENDBRANCH  83  84
ENDBRANCH  82  83
ENDBRANCH  80  82
ENDBRANCH  71  74
ENDBRANCH  69  70
ENDBRANCH   1  69
TORSDOF 17
