REMARK SMILES Cc1ccc2oc(CCCC(=O)OCCOC(=O)c3ccc(-c4c5nc(c(-c6ccc(S(=O)(=O)[O-])cc6)c6ccc([nH]6)c(-c6ccc(S(=O)(=O)[O-])cc6)c6nc(c(-c7ccc(S(=O)(=O)[O-])cc7)c7ccc4[nH]7)C=C6)C=C5)cc3)cc(=O)c2c1
REMARK SMILES IDX 14 1 13 2 11 3 12 4 10 5 9 6 8 7 7 8 1 9 2 10 3 11 83 12
REMARK SMILES IDX 4 13 82 14 5 15 80 16 6 17 79 18 81 19 15 20 16 21 17 22
REMARK SMILES IDX 18 23 19 24 20 25 78 26 21 27 77 28 22 29 23 30 24 31 71 32
REMARK SMILES IDX 25 33 76 34 70 35 72 36 26 37 75 38 69 39 68 40 27 42 57 43
REMARK SMILES IDX 38 44 56 45 39 46 42 47 55 48 73 49 40 50 41 51 54 53 74 54
REMARK SMILES IDX 43 55 28 56 29 57 37 58 30 59 36 60 31 61 32 62 33 63 34 64
REMARK SMILES IDX 35 65 58 66 59 67 67 68 60 69 66 70 61 71 62 72 63 73 64 74
REMARK SMILES IDX 65 75 44 76 45 77 53 78 46 79 52 80 47 81 48 82 49 83 50 84
REMARK SMILES IDX 51 85
REMARK H PARENT 72 41 42 52
REMARK Flexibility Score: inf
ROOT
ATOM      1  C   UNL     1       2.736  -4.956  -2.072  1.00  0.00     0.274 C 
ENDROOT
BRANCH   1   2
ATOM      2  O   UNL     1       2.882  -4.021  -0.985  1.00  0.00    -0.462 OA
BRANCH   2   3
ATOM      3  C   UNL     1       2.096  -4.202   0.102  1.00  0.00     0.305 C 
ATOM      4  O   UNL     1       1.235  -5.068   0.203  1.00  0.00    -0.252 OA
BRANCH   3   5
ATOM      5  C   UNL     1       2.364  -3.205   1.213  1.00  0.00     0.123 C 
BRANCH   5   6
ATOM      6  C   UNL     1       3.619  -2.332   1.106  1.00  0.00     0.020 C 
BRANCH   6   7
ATOM      7  C   UNL     1       3.693  -1.328  -0.059  1.00  0.00     0.076 C 
BRANCH   7   8
ATOM      8  C   UNL     1       2.460  -0.482  -0.225  1.00  0.00     0.108 A 
ATOM      9  C   UNL     1      -3.808   1.048   0.076  1.00  0.00     0.044 C 
ATOM     10  C   UNL     1      -2.440   0.461  -0.108  1.00  0.00    -0.050 A 
ATOM     11  C   UNL     1      -2.272  -0.918  -0.301  1.00  0.00     0.007 A 
ATOM     12  C   UNL     1      -1.313   1.296  -0.093  1.00  0.00     0.019 A 
ATOM     13  C   UNL     1      -0.998  -1.458  -0.482  1.00  0.00     0.048 A 
ATOM     14  C   UNL     1      -0.039   0.746  -0.251  1.00  0.00     0.065 A 
ATOM     15  C   UNL     1       0.114  -0.621  -0.454  1.00  0.00     0.138 A 
ATOM     16  C   UNL     1       1.173   1.576  -0.153  1.00  0.00     0.192 A 
ATOM     17  O   UNL     1       1.343  -1.202  -0.620  1.00  0.00    -0.461 OA
ATOM     18  C   UNL     1       2.449   0.845  -0.031  1.00  0.00     0.095 A 
ATOM     19  O   UNL     1       1.135   2.798  -0.120  1.00  0.00    -0.289 OA
ENDBRANCH   7   8
ENDBRANCH   6   7
ENDBRANCH   5   6
ENDBRANCH   3   5
ENDBRANCH   2   3
ENDBRANCH   1   2
BRANCH   1  20
ATOM     20  C   UNL     1       3.997  -5.809  -2.211  1.00  0.00     0.275 C 
BRANCH  20  21
ATOM     21  O   UNL     1       4.153  -6.681  -1.076  1.00  0.00    -0.458 OA
BRANCH  21  22
ATOM     22  C   UNL     1       4.909  -6.180  -0.072  1.00  0.00     0.338 C 
ATOM     23  O   UNL     1       5.522  -5.127  -0.058  1.00  0.00    -0.246 OA
BRANCH  22  24
ATOM     24  C   UNL     1       4.772  -7.044   1.108  1.00  0.00     0.060 A 
ATOM     25  C   UNL     1       4.062  -6.547   2.202  1.00  0.00     0.016 A 
ATOM     26  C   UNL     1       5.394  -8.291   1.171  1.00  0.00     0.016 A 
ATOM     27  C   UNL     1       3.976  -7.287   3.376  1.00  0.00     0.010 A 
ATOM     28  C   UNL     1       5.302  -9.039   2.349  1.00  0.00     0.010 A 
ATOM     29  C   UNL     1       4.605  -8.534   3.462  1.00  0.00    -0.014 A 
BRANCH  29  30
ATOM     30  C   UNL     1       4.576  -9.277   4.744  1.00  0.00     0.031 A 
ATOM     31  C   UNL     1       5.812  -9.343   5.594  1.00  0.00     0.074 A 
ATOM     32  C   UNL     1       3.433  -9.855   5.158  1.00  0.00     0.049 A 
ATOM     33  N   UNL     1       6.008  -9.988   6.715  1.00  0.00    -0.248 NA
ATOM     34  C   UNL     1       6.982  -8.585   5.120  1.00  0.00     0.031 C 
ATOM     35  C   UNL     1       2.155  -9.810   4.443  1.00  0.00     0.029 A 
ATOM     36  N   UNL     1       3.161 -10.588   6.284  1.00  0.00    -0.354 N 
ATOM     37  C   UNL     1       7.329  -9.737   7.068  1.00  0.00     0.074 A 
ATOM     38  C   UNL     1       7.889  -8.889   6.038  1.00  0.00     0.031 C 
ATOM     39  C   UNL     1       1.234 -10.480   5.155  1.00  0.00     0.029 A 
ATOM     40  C   UNL     1       1.864 -11.037   6.348  1.00  0.00     0.049 A 
ATOM     41  H   UNL     1       3.831 -10.774   6.981  1.00  0.00     0.167 HD
ATOM     42  C   UNL     1       8.011 -10.175   8.153  1.00  0.00     0.031 A 
ATOM     43  C   UNL     1       1.258 -11.829   7.253  1.00  0.00     0.031 A 
ATOM     44  C   UNL     1       7.447 -11.014   9.177  1.00  0.00     0.049 A 
ATOM     45  C   UNL     1       2.048 -12.338   8.427  1.00  0.00     0.074 A 
ATOM     46  C   UNL     1       8.057 -11.517  10.312  1.00  0.00     0.029 A 
ATOM     47  N   UNL     1       6.137 -11.471   9.191  1.00  0.00    -0.354 N 
ATOM     48  N   UNL     1       3.303 -12.109   8.735  1.00  0.00    -0.248 NA
ATOM     49  C   UNL     1       1.342 -13.213   9.372  1.00  0.00     0.031 C 
ATOM     50  C   UNL     1       7.126 -12.308  10.995  1.00  0.00     0.029 A 
ATOM     51  C   UNL     1       5.923 -12.260  10.308  1.00  0.00     0.049 A 
ATOM     52  H   UNL     1       5.460 -11.264   8.507  1.00  0.00     0.167 HD
ATOM     53  C   UNL     1       3.531 -12.797   9.921  1.00  0.00     0.074 A 
ATOM     54  C   UNL     1       2.283 -13.439  10.281  1.00  0.00     0.031 C 
ATOM     55  C   UNL     1       4.673 -12.889  10.647  1.00  0.00     0.031 A 
BRANCH  42  56
ATOM     56  C   UNL     1       9.460  -9.786   8.261  1.00  0.00    -0.014 A 
ATOM     57  C   UNL     1       9.841  -8.478   8.609  1.00  0.00     0.010 A 
ATOM     58  C   UNL     1      10.456 -10.751   8.027  1.00  0.00     0.010 A 
ATOM     59  C   UNL     1      11.193  -8.133   8.683  1.00  0.00     0.020 A 
ATOM     60  C   UNL     1      11.809 -10.415   8.121  1.00  0.00     0.020 A 
ATOM     61  C   UNL     1      12.169  -9.102   8.430  1.00  0.00     0.054 A 
BRANCH  61  62
ATOM     62  S   UNL     1      13.918  -8.633   8.537  1.00  0.00     0.124 S 
ATOM     63  O   UNL     1      14.108  -7.899   7.288  1.00  0.00    -0.237 OA
ATOM     64  O   UNL     1      13.962  -7.824   9.752  1.00  0.00    -0.237 OA
ATOM     65  O   UNL     1      14.616  -9.914   8.620  1.00  0.00    -0.744 OA
ENDBRANCH  61  62
ENDBRANCH  42  56
BRANCH  43  66
ATOM     66  C   UNL     1      -0.170 -12.204   7.069  1.00  0.00    -0.014 A 
ATOM     67  C   UNL     1      -1.165 -11.669   7.904  1.00  0.00     0.010 A 
ATOM     68  C   UNL     1      -0.541 -13.087   6.038  1.00  0.00     0.010 A 
ATOM     69  C   UNL     1      -2.507 -12.017   7.717  1.00  0.00     0.020 A 
ATOM     70  C   UNL     1      -1.883 -13.418   5.834  1.00  0.00     0.020 A 
ATOM     71  C   UNL     1      -2.857 -12.889   6.682  1.00  0.00     0.054 A 
BRANCH  71  72
ATOM     72  S   UNL     1      -4.609 -13.280   6.414  1.00  0.00     0.124 S 
ATOM     73  O   UNL     1      -4.865 -14.258   7.467  1.00  0.00    -0.237 OA
ATOM     74  O   UNL     1      -5.255 -11.981   6.585  1.00  0.00    -0.237 OA
ATOM     75  O   UNL     1      -4.635 -13.805   5.050  1.00  0.00    -0.744 OA
ENDBRANCH  71  72
ENDBRANCH  43  66
BRANCH  55  76
ATOM     76  C   UNL     1       4.614 -13.687  11.921  1.00  0.00    -0.014 A 
ATOM     77  C   UNL     1       4.595 -15.092  11.897  1.00  0.00     0.010 A 
ATOM     78  C   UNL     1       4.629 -13.018  13.158  1.00  0.00     0.010 A 
ATOM     79  C   UNL     1       4.563 -15.816  13.092  1.00  0.00     0.020 A 
ATOM     80  C   UNL     1       4.619 -13.739  14.355  1.00  0.00     0.020 A 
ATOM     81  C   UNL     1       4.571 -15.134  14.314  1.00  0.00     0.054 A 
BRANCH  81  82
ATOM     82  S   UNL     1       4.571 -16.093  15.853  1.00  0.00     0.124 S 
ATOM     83  O   UNL     1       3.172 -16.498  15.958  1.00  0.00    -0.237 OA
ATOM     84  O   UNL     1       5.517 -17.169  15.565  1.00  0.00    -0.237 OA
ATOM     85  O   UNL     1       5.020 -15.132  16.858  1.00  0.00    -0.744 OA
ENDBRANCH  81  82
ENDBRANCH  55  76
ENDBRANCH  29  30
ENDBRANCH  22  24
ENDBRANCH  21  22
ENDBRANCH  20  21
ENDBRANCH   1  20
TORSDOF 17
