REMARK SMILES Cc1nc(=O)[nH]c(C)c1CC(=O)N1CC[C@H](C(=O)OCCOC(=O)c2ccc(-c3c4nc(c(-c5ccc(S(=O)(=O)[O-])cc5)c5ccc([nH]5)c(-c5ccc(S(=O)(=O)[O-])cc5)c5nc(c(-c6ccc(S(=O)(=O)[O-])cc6)c6ccc3[nH]6)C=C5)C=C4)cc2)[C@@H]1C
REMARK SMILES IDX 20 1 19 2 17 3 18 4 16 5 13 6 14 7 85 8 15 9 86 10 11 11
REMARK SMILES IDX 12 12 10 13 9 14 1 15 2 16 3 17 4 18 7 19 5 20 6 21 8 22
REMARK SMILES IDX 21 24 22 25 23 26 24 27 25 28 26 29 84 30 27 31 83 32 28 33
REMARK SMILES IDX 29 34 30 35 77 36 31 37 82 38 76 39 78 40 32 41 81 42 75 43
REMARK SMILES IDX 74 44 33 46 63 47 44 48 62 49 45 50 48 51 61 52 79 53 46 54
REMARK SMILES IDX 47 55 60 57 80 58 49 59 34 60 35 61 43 62 36 63 42 64 37 65
REMARK SMILES IDX 38 66 39 67 40 68 41 69 64 70 65 71 73 72 66 73 72 74 67 75
REMARK SMILES IDX 68 76 69 77 70 78 71 79 50 80 51 81 59 82 52 83 58 84 53 85
REMARK SMILES IDX 54 86 55 87 56 88 57 89
REMARK H PARENT 6 23 78 45 48 56
REMARK Flexibility Score: inf
ROOT
ATOM      1  C   UNL     1      -1.391   0.891   6.484  1.00  0.00     0.274 C 
ENDROOT
BRANCH   1   2
ATOM      2  O   UNL     1      -1.503  -0.183   5.527  1.00  0.00    -0.462 OA
BRANCH   2   3
ATOM      3  C   UNL     1      -0.357  -0.826   5.194  1.00  0.00     0.311 C 
ATOM      4  O   UNL     1       0.734  -0.614   5.710  1.00  0.00    -0.252 OA
BRANCH   3   5
ATOM      5  C   UNL     1      -0.542  -1.843   4.081  1.00  0.00     0.123 C 
ATOM      6  N   UNL     1      -2.118  -2.144   2.320  1.00  0.00    -0.339 N 
ATOM      7  C   UNL     1      -2.699  -2.765   3.490  1.00  0.00     0.121 C 
ATOM      8  C   UNL     1      -1.000  -1.279   2.726  1.00  0.00     0.096 C 
ATOM      9  C   UNL     1      -1.499  -3.004   4.375  1.00  0.00     0.039 C 
ATOM     10  C   UNL     1      -1.437   0.187   2.774  1.00  0.00     0.032 C 
BRANCH   6  11
ATOM     11  C   UNL     1      -2.692  -2.367   1.091  1.00  0.00     0.227 C 
ATOM     12  O   UNL     1      -3.855  -2.779   1.004  1.00  0.00    -0.275 OA
BRANCH  11  13
ATOM     13  C   UNL     1      -1.851  -2.315  -0.189  1.00  0.00     0.139 C 
BRANCH  13  14
ATOM     14  C   UNL     1      -0.985  -1.119  -0.411  1.00  0.00     0.002 A 
ATOM     15  C   UNL     1       1.232  -2.535  -0.252  1.00  0.00     0.067 C 
ATOM     16  C   UNL     1       0.515  -1.199  -0.354  1.00  0.00     0.049 A 
ATOM     17  N   UNL     1       1.300  -0.167  -0.358  1.00  0.00    -0.198 NA
ATOM     18  C   UNL     1       0.762   1.080  -0.450  1.00  0.00     0.345 A 
ATOM     19  C   UNL     1      -1.463   0.124  -0.616  1.00  0.00     0.022 A 
ATOM     20  O   UNL     1       1.431   2.110  -0.371  1.00  0.00    -0.246 OA
ATOM     21  N   UNL     1      -0.590   1.181  -0.633  1.00  0.00    -0.310 N 
ATOM     22  C   UNL     1      -2.919   0.503  -0.696  1.00  0.00     0.065 C 
ATOM     23  H   UNL     1      -0.963   2.078  -0.789  1.00  0.00     0.171 HD
ENDBRANCH  13  14
ENDBRANCH  11  13
ENDBRANCH   6  11
ENDBRANCH   3   5
ENDBRANCH   2   3
ENDBRANCH   1   2
BRANCH   1  24
ATOM     24  C   UNL     1      -2.099   0.523   7.784  1.00  0.00     0.275 C 
BRANCH  24  25
ATOM     25  O   UNL     1      -1.459  -0.614   8.388  1.00  0.00    -0.458 OA
BRANCH  25  26
ATOM     26  C   UNL     1      -1.979  -1.799   8.001  1.00  0.00     0.338 C 
ATOM     27  O   UNL     1      -2.968  -1.984   7.311  1.00  0.00    -0.246 OA
BRANCH  26  28
ATOM     28  C   UNL     1      -1.107  -2.900   8.422  1.00  0.00     0.060 A 
ATOM     29  C   UNL     1      -0.246  -3.459   7.480  1.00  0.00     0.016 A 
ATOM     30  C   UNL     1      -1.294  -3.511   9.657  1.00  0.00     0.016 A 
ATOM     31  C   UNL     1       0.309  -4.707   7.696  1.00  0.00     0.010 A 
ATOM     32  C   UNL     1      -0.629  -4.711   9.925  1.00  0.00     0.010 A 
ATOM     33  C   UNL     1       0.137  -5.343   8.928  1.00  0.00    -0.014 A 
BRANCH  33  34
ATOM     34  C   UNL     1       0.750  -6.677   9.136  1.00  0.00     0.031 A 
ATOM     35  C   UNL     1      -0.117  -7.872   9.428  1.00  0.00     0.074 A 
ATOM     36  C   UNL     1       2.086  -6.812   9.012  1.00  0.00     0.049 A 
ATOM     37  N   UNL     1       0.242  -9.100   9.700  1.00  0.00    -0.248 NA
ATOM     38  C   UNL     1      -1.575  -7.663   9.426  1.00  0.00     0.031 C 
ATOM     39  C   UNL     1       3.023  -5.731   8.682  1.00  0.00     0.029 A 
ATOM     40  N   UNL     1       2.890  -7.915   9.127  1.00  0.00    -0.354 N 
ATOM     41  C   UNL     1      -0.936  -9.794   9.952  1.00  0.00     0.074 A 
ATOM     42  C   UNL     1      -2.022  -8.851   9.809  1.00  0.00     0.031 C 
ATOM     43  C   UNL     1       4.261  -6.234   8.575  1.00  0.00     0.029 A 
ATOM     44  C   UNL     1       4.223  -7.649   8.916  1.00  0.00     0.049 A 
ATOM     45  H   UNL     1       2.546  -8.813   9.340  1.00  0.00     0.167 HD
ATOM     46  C   UNL     1      -1.091 -11.099  10.278  1.00  0.00     0.031 A 
ATOM     47  C   UNL     1       5.301  -8.447   9.020  1.00  0.00     0.031 A 
ATOM     48  C   UNL     1      -0.000 -12.033  10.387  1.00  0.00     0.049 A 
ATOM     49  C   UNL     1       5.095  -9.879   9.425  1.00  0.00     0.074 A 
ATOM     50  C   UNL     1      -0.053 -13.385  10.677  1.00  0.00     0.029 A 
ATOM     51  N   UNL     1       1.339 -11.715  10.210  1.00  0.00    -0.354 N 
ATOM     52  N   UNL     1       3.973 -10.518   9.659  1.00  0.00    -0.248 NA
ATOM     53  C   UNL     1       6.303 -10.697   9.579  1.00  0.00     0.031 C 
ATOM     54  C   UNL     1       1.257 -13.870  10.743  1.00  0.00     0.029 A 
ATOM     55  C   UNL     1       2.123 -12.838  10.418  1.00  0.00     0.049 A 
ATOM     56  H   UNL     1       1.681 -10.824   9.972  1.00  0.00     0.167 HD
ATOM     57  C   UNL     1       4.341 -11.824   9.961  1.00  0.00     0.074 A 
ATOM     58  C   UNL     1       5.784 -11.886   9.847  1.00  0.00     0.031 C 
ATOM     59  C   UNL     1       3.559 -12.877  10.308  1.00  0.00     0.031 A 
BRANCH  46  60
ATOM     60  C   UNL     1      -2.481 -11.592  10.590  1.00  0.00    -0.014 A 
ATOM     61  C   UNL     1      -3.455 -11.752   9.589  1.00  0.00     0.010 A 
ATOM     62  C   UNL     1      -2.789 -11.975  11.910  1.00  0.00     0.010 A 
ATOM     63  C   UNL     1      -4.716 -12.267   9.906  1.00  0.00     0.020 A 
ATOM     64  C   UNL     1      -4.038 -12.516  12.225  1.00  0.00     0.020 A 
ATOM     65  C   UNL     1      -4.998 -12.651  11.221  1.00  0.00     0.054 A 
BRANCH  65  66
ATOM     66  S   UNL     1      -6.620 -13.374  11.590  1.00  0.00     0.124 S 
ATOM     67  O   UNL     1      -7.504 -12.219  11.454  1.00  0.00    -0.237 OA
ATOM     68  O   UNL     1      -6.757 -14.394  10.553  1.00  0.00    -0.237 OA
ATOM     69  O   UNL     1      -6.472 -13.887  12.950  1.00  0.00    -0.744 OA
ENDBRANCH  65  66
ENDBRANCH  46  60
BRANCH  47  70
ATOM     70  C   UNL     1       6.668  -7.907   8.780  1.00  0.00    -0.014 A 
ATOM     71  C   UNL     1       7.451  -8.384   7.715  1.00  0.00     0.010 A 
ATOM     72  C   UNL     1       7.207  -6.931   9.639  1.00  0.00     0.010 A 
ATOM     73  C   UNL     1       8.761  -7.928   7.539  1.00  0.00     0.020 A 
ATOM     74  C   UNL     1       8.501  -6.443   9.443  1.00  0.00     0.020 A 
ATOM     75  C   UNL     1       9.278  -6.963   8.407  1.00  0.00     0.054 A 
BRANCH  75  76
ATOM     76  S   UNL     1      10.979  -6.384   8.159  1.00  0.00     0.124 S 
ATOM     77  O   UNL     1      11.758  -7.534   8.608  1.00  0.00    -0.237 OA
ATOM     78  O   UNL     1      11.014  -6.116   6.723  1.00  0.00    -0.237 OA
ATOM     79  O   UNL     1      11.064  -5.199   9.009  1.00  0.00    -0.744 OA
ENDBRANCH  75  76
ENDBRANCH  47  70
BRANCH  59  80
ATOM     80  C   UNL     1       4.257 -14.190  10.540  1.00  0.00    -0.014 A 
ATOM     81  C   UNL     1       5.119 -14.380  11.636  1.00  0.00     0.010 A 
ATOM     82  C   UNL     1       4.056 -15.248   9.635  1.00  0.00     0.010 A 
ATOM     83  C   UNL     1       5.822 -15.578  11.781  1.00  0.00     0.020 A 
ATOM     84  C   UNL     1       4.727 -16.462   9.799  1.00  0.00     0.020 A 
ATOM     85  C   UNL     1       5.628 -16.608  10.855  1.00  0.00     0.054 A 
BRANCH  85  86
ATOM     86  S   UNL     1       6.564 -18.147  11.053  1.00  0.00     0.124 S 
ATOM     87  O   UNL     1       7.904 -17.742  10.637  1.00  0.00    -0.237 OA
ATOM     88  O   UNL     1       6.408 -18.437  12.477  1.00  0.00    -0.237 OA
ATOM     89  O   UNL     1       5.888 -19.082  10.156  1.00  0.00    -0.744 OA
ENDBRANCH  85  86
ENDBRANCH  59  80
ENDBRANCH  33  34
ENDBRANCH  26  28
ENDBRANCH  25  26
ENDBRANCH  24  25
ENDBRANCH   1  24
TORSDOF 17
