REMARK SMILES CC(=O)Nc1ccc(/C=C2/CCc3oc(C(=O)OCCOC(=O)c4ccc(-c5c6nc(c(-c7ccc(S(=O)(=O)[O-])cc7)c7ccc([nH]7)c(-c7ccc(S(=O)(=O)[O-])cc7)c7nc(c(-c8ccc(S(=O)(=O)[O-])cc8)c8ccc5[nH]8)C=C7)C=C6)cc4)c(C)c3C2=O)cc1
REMARK SMILES IDX 20 1 19 2 18 3 16 4 17 5 15 6 9 7 10 8 11 9 87 10 12 11
REMARK SMILES IDX 86 12 88 13 13 14 84 15 14 16 85 17 8 18 5 19 6 20 90 21
REMARK SMILES IDX 7 22 89 23 4 24 1 25 2 26 3 27 21 29 22 30 23 31 24 32 25 33
REMARK SMILES IDX 83 34 26 35 82 36 27 37 28 38 29 39 76 40 30 41 81 42 75 43
REMARK SMILES IDX 77 44 31 45 80 46 74 47 73 48 32 50 62 51 43 52 61 53 44 54
REMARK SMILES IDX 47 55 60 56 78 57 45 58 46 59 59 61 79 62 48 63 33 64 34 65
REMARK SMILES IDX 42 66 35 67 41 68 36 69 37 70 38 71 39 72 40 73 63 74 64 75
REMARK SMILES IDX 72 76 65 77 71 78 66 79 67 80 68 81 69 82 70 83 49 84 50 85
REMARK SMILES IDX 58 86 51 87 57 88 52 89 53 90 54 91 55 92 56 93
REMARK H PARENT 4 28 77 49 47 60
REMARK Flexibility Score: inf
ROOT
ATOM      1  C   UNL     1       0.392  10.590   9.700  1.00  0.00     0.275 C 
ENDROOT
BRANCH   1   2
ATOM      2  C   UNL     1       0.246   9.074   9.742  1.00  0.00     0.275 C 
BRANCH   2   3
ATOM      3  O   UNL     1       1.038   8.426   8.735  1.00  0.00    -0.456 OA
BRANCH   3   4
ATOM      4  C   UNL     1       0.450   8.249   7.513  1.00  0.00     0.374 C 
ATOM      5  O   UNL     1      -0.739   8.463   7.280  1.00  0.00    -0.242 OA
BRANCH   4   6
ATOM      6  C   UNL     1       1.433   7.823   6.539  1.00  0.00     0.215 A 
ATOM      7  C   UNL     1       4.371   4.773   2.869  1.00  0.00     0.016 C 
ATOM      8  C   UNL     1       4.324   5.925   3.571  1.00  0.00     0.001 C 
ATOM      9  C   UNL     1       5.336   6.248   4.668  1.00  0.00     0.048 C 
ATOM     10  C   UNL     1       3.248   6.969   3.451  1.00  0.00     0.192 C 
ATOM     11  C   UNL     1       4.669   6.336   6.059  1.00  0.00     0.081 C 
ATOM     12  C   UNL     1       2.670   7.262   4.746  1.00  0.00     0.067 A 
ATOM     13  O   UNL     1       2.927   7.511   2.405  1.00  0.00    -0.289 OA
ATOM     14  C   UNL     1       3.341   6.969   5.907  1.00  0.00     0.116 A 
ATOM     15  C   UNL     1       1.427   7.834   5.142  1.00  0.00     0.014 A 
ATOM     16  O   UNL     1       2.618   7.292   6.996  1.00  0.00    -0.453 OA
ATOM     17  C   UNL     1       0.367   8.320   4.220  1.00  0.00     0.049 C 
BRANCH   7  18
ATOM     18  C   UNL     1       3.459   4.154   1.877  1.00  0.00    -0.025 A 
ATOM     19  C   UNL     1       1.792   2.767   0.034  1.00  0.00     0.041 A 
ATOM     20  C   UNL     1       1.458   4.041   0.481  1.00  0.00     0.027 A 
ATOM     21  C   UNL     1       2.983   2.198   0.473  1.00  0.00     0.027 A 
ATOM     22  C   UNL     1       2.262   4.705   1.417  1.00  0.00     0.010 A 
ATOM     23  C   UNL     1       3.809   2.888   1.375  1.00  0.00     0.010 A 
BRANCH  19  24
ATOM     24  N   UNL     1       0.919   2.159  -0.880  1.00  0.00    -0.326 N 
ATOM     25  C   UNL     1       1.062  -0.190  -0.092  1.00  0.00     0.114 C 
ATOM     26  C   UNL     1       0.638   0.842  -1.102  1.00  0.00     0.221 C 
ATOM     27  O   UNL     1      -0.035   0.522  -2.084  1.00  0.00    -0.275 OA
ATOM     28  H   UNL     1       0.429   2.787  -1.458  1.00  0.00     0.169 HD
ENDBRANCH  19  24
ENDBRANCH   7  18
ENDBRANCH   4   6
ENDBRANCH   3   4
ENDBRANCH   2   3
ENDBRANCH   1   2
BRANCH   1  29
ATOM     29  O   UNL     1      -0.262  11.147   8.561  1.00  0.00    -0.458 OA
BRANCH  29  30
ATOM     30  C   UNL     1       0.529  11.308   7.476  1.00  0.00     0.338 C 
ATOM     31  O   UNL     1       1.629  10.815   7.292  1.00  0.00    -0.246 OA
BRANCH  30  32
ATOM     32  C   UNL     1      -0.043  12.337   6.606  1.00  0.00     0.060 A 
ATOM     33  C   UNL     1       0.609  12.579   5.394  1.00  0.00     0.016 A 
ATOM     34  C   UNL     1      -1.017  13.210   7.112  1.00  0.00     0.016 A 
ATOM     35  C   UNL     1       0.414  13.797   4.781  1.00  0.00     0.010 A 
ATOM     36  C   UNL     1      -1.205  14.427   6.502  1.00  0.00     0.010 A 
ATOM     37  C   UNL     1      -0.428  14.736   5.391  1.00  0.00    -0.014 A 
BRANCH  37  38
ATOM     38  C   UNL     1      -0.591  16.022   4.749  1.00  0.00     0.031 A 
ATOM     39  C   UNL     1      -1.376  15.907   3.504  1.00  0.00     0.074 A 
ATOM     40  C   UNL     1      -0.160  17.180   5.285  1.00  0.00     0.049 A 
ATOM     41  N   UNL     1      -0.917  15.866   2.299  1.00  0.00    -0.248 NA
ATOM     42  C   UNL     1      -2.800  15.545   3.618  1.00  0.00     0.031 C 
ATOM     43  C   UNL     1       0.349  17.408   6.641  1.00  0.00     0.029 A 
ATOM     44  N   UNL     1      -0.178  18.432   4.754  1.00  0.00    -0.354 N 
ATOM     45  C   UNL     1      -2.041  15.768   1.490  1.00  0.00     0.074 A 
ATOM     46  C   UNL     1      -3.110  15.315   2.341  1.00  0.00     0.031 C 
ATOM     47  C   UNL     1       0.355  18.738   6.899  1.00  0.00     0.029 A 
ATOM     48  C   UNL     1       0.010  19.452   5.680  1.00  0.00     0.049 A 
ATOM     49  H   UNL     1      -0.312  18.602   3.793  1.00  0.00     0.167 HD
ATOM     50  C   UNL     1      -2.087  16.426   0.299  1.00  0.00     0.031 A 
ATOM     51  C   UNL     1      -0.150  20.781   5.455  1.00  0.00     0.031 A 
ATOM     52  C   UNL     1      -0.782  16.910  -0.072  1.00  0.00     0.049 A 
ATOM     53  C   UNL     1      -0.016  20.990   3.994  1.00  0.00     0.074 A 
ATOM     54  C   UNL     1       0.390  16.379  -0.558  1.00  0.00     0.029 A 
ATOM     55  N   UNL     1      -0.486  18.132   0.480  1.00  0.00    -0.354 N 
ATOM     56  N   UNL     1       1.093  20.765   3.344  1.00  0.00    -0.248 NA
ATOM     57  C   UNL     1      -1.216  21.076   3.170  1.00  0.00     0.031 C 
ATOM     58  C   UNL     1       1.430  17.251  -0.117  1.00  0.00     0.029 A 
ATOM     59  C   UNL     1       0.864  18.321   0.578  1.00  0.00     0.049 A 
ATOM     60  H   UNL     1      -1.160  18.788   0.768  1.00  0.00     0.167 HD
ATOM     61  C   UNL     1       0.682  20.261   2.124  1.00  0.00     0.074 A 
ATOM     62  C   UNL     1      -0.724  20.629   2.010  1.00  0.00     0.031 C 
ATOM     63  C   UNL     1       1.423  19.323   1.464  1.00  0.00     0.031 A 
BRANCH  50  64
ATOM     64  C   UNL     1      -3.333  17.112  -0.220  1.00  0.00    -0.014 A 
ATOM     65  C   UNL     1      -3.271  17.768  -1.465  1.00  0.00     0.010 A 
ATOM     66  C   UNL     1      -4.457  17.389   0.587  1.00  0.00     0.010 A 
ATOM     67  C   UNL     1      -4.259  18.681  -1.860  1.00  0.00     0.020 A 
ATOM     68  C   UNL     1      -5.465  18.268   0.190  1.00  0.00     0.020 A 
ATOM     69  C   UNL     1      -5.349  18.927  -1.024  1.00  0.00     0.054 A 
BRANCH  69  70
ATOM     70  S   UNL     1      -6.590  20.148  -1.512  1.00  0.00     0.124 S 
ATOM     71  O   UNL     1      -5.818  21.386  -1.504  1.00  0.00    -0.237 OA
ATOM     72  O   UNL     1      -6.998  19.661  -2.827  1.00  0.00    -0.237 OA
ATOM     73  O   UNL     1      -7.608  20.035  -0.469  1.00  0.00    -0.744 OA
ENDBRANCH  69  70
ENDBRANCH  50  64
BRANCH  51  74
ATOM     74  C   UNL     1      -0.746  21.803   6.355  1.00  0.00    -0.014 A 
ATOM     75  C   UNL     1      -0.618  23.180   6.084  1.00  0.00     0.010 A 
ATOM     76  C   UNL     1      -1.705  21.414   7.312  1.00  0.00     0.010 A 
ATOM     77  C   UNL     1      -1.464  24.123   6.697  1.00  0.00     0.020 A 
ATOM     78  C   UNL     1      -2.550  22.347   7.927  1.00  0.00     0.020 A 
ATOM     79  C   UNL     1      -2.443  23.697   7.598  1.00  0.00     0.054 A 
BRANCH  79  80
ATOM     80  S   UNL     1      -3.651  24.893   8.247  1.00  0.00     0.124 S 
ATOM     81  O   UNL     1      -2.832  25.714   9.134  1.00  0.00    -0.237 OA
ATOM     82  O   UNL     1      -4.128  25.555   7.036  1.00  0.00    -0.237 OA
ATOM     83  O   UNL     1      -4.640  24.053   8.921  1.00  0.00    -0.744 OA
ENDBRANCH  79  80
ENDBRANCH  51  74
BRANCH  63  84
ATOM     84  C   UNL     1       2.896  19.250   1.756  1.00  0.00    -0.014 A 
ATOM     85  C   UNL     1       3.459  18.843   2.979  1.00  0.00     0.010 A 
ATOM     86  C   UNL     1       3.752  19.532   0.677  1.00  0.00     0.010 A 
ATOM     87  C   UNL     1       4.854  18.738   3.116  1.00  0.00     0.020 A 
ATOM     88  C   UNL     1       5.134  19.412   0.802  1.00  0.00     0.020 A 
ATOM     89  C   UNL     1       5.681  19.026   2.024  1.00  0.00     0.054 A 
BRANCH  89  90
ATOM     90  S   UNL     1       7.482  18.868   2.189  1.00  0.00     0.124 S 
ATOM     91  O   UNL     1       7.812  19.946   3.116  1.00  0.00    -0.237 OA
ATOM     92  O   UNL     1       7.642  17.514   2.714  1.00  0.00    -0.237 OA
ATOM     93  O   UNL     1       7.975  19.055   0.824  1.00  0.00    -0.744 OA
ENDBRANCH  89  90
ENDBRANCH  63  84
ENDBRANCH  37  38
ENDBRANCH  30  32
ENDBRANCH  29  30
ENDBRANCH   1  29
TORSDOF 16
