REMARK SMILES Cc1cccc(C[C@H](C(=O)OCCOC(=O)c2ccc(-c3c4nc(c(-c5ccc(S(=O)(=O)[O-])cc5)c5ccc([nH]5)c(-c5ccc(S(=O)(=O)[O-])cc5)c5nc(c(-c6ccc(S(=O)(=O)[O-])cc6)c6ccc3[nH]6)C=C5)C=C4)cc2)[C@@H]2CCCC[C@@H]2O)c1
REMARK SMILES IDX 13 1 12 2 11 3 9 4 10 5 8 6 7 7 6 8 1 9 2 10 3 11 84 12 4 13
REMARK SMILES IDX 5 14 77 15 78 16 82 17 79 18 81 19 80 20 83 21 14 23 15 24
REMARK SMILES IDX 16 25 17 26 18 27 76 28 19 29 75 30 20 31 21 32 22 33 69 34
REMARK SMILES IDX 23 35 74 36 68 37 70 38 24 39 73 40 67 41 66 42 25 44 55 45
REMARK SMILES IDX 36 46 54 47 37 48 40 49 53 50 71 51 38 52 39 53 52 55 72 56
REMARK SMILES IDX 41 57 26 58 27 59 35 60 28 61 34 62 29 63 30 64 31 65 32 66
REMARK SMILES IDX 33 67 56 68 57 69 65 70 58 71 64 72 59 73 60 74 61 75 62 76
REMARK SMILES IDX 63 77 42 78 43 79 51 80 44 81 50 82 45 83 46 84 47 85 48 86
REMARK SMILES IDX 49 87
REMARK H PARENT 83 22 70 43 40 54
REMARK Flexibility Score: inf
ROOT
ATOM      1  C   UNL     1      -0.254   4.165   2.362  1.00  0.00     0.275 C 
ENDROOT
BRANCH   1   2
ATOM      2  C   UNL     1      -0.296   3.370   1.028  1.00  0.00     0.274 C 
BRANCH   2   3
ATOM      3  O   UNL     1      -1.517   3.440   0.253  1.00  0.00    -0.462 OA
BRANCH   3   4
ATOM      4  C   UNL     1      -1.938   4.678  -0.108  1.00  0.00     0.309 C 
ATOM      5  O   UNL     1      -1.301   5.694   0.145  1.00  0.00    -0.252 OA
BRANCH   4   6
ATOM      6  C   UNL     1      -3.168   4.626  -1.047  1.00  0.00     0.109 C 
BRANCH   6   7
ATOM      7  C   UNL     1      -4.128   5.750  -0.538  1.00  0.00     0.051 C 
BRANCH   7   8
ATOM      8  C   UNL     1      -5.508   6.046  -1.102  1.00  0.00    -0.047 A 
ATOM      9  C   UNL     1      -8.366   8.508  -0.367  1.00  0.00     0.044 C 
ATOM     10  C   UNL     1      -7.516   7.472  -1.042  1.00  0.00    -0.051 A 
ATOM     11  C   UNL     1      -7.923   6.950  -2.270  1.00  0.00     0.003 A 
ATOM     12  C   UNL     1      -6.296   7.041  -0.485  1.00  0.00     0.007 A 
ATOM     13  C   UNL     1      -7.196   5.920  -2.851  1.00  0.00     0.001 A 
ATOM     14  C   UNL     1      -6.037   5.441  -2.233  1.00  0.00     0.004 A 
ENDBRANCH   7   8
ENDBRANCH   6   7
BRANCH   6  15
ATOM     15  C   UNL     1      -2.476   4.670  -2.455  1.00  0.00     0.032 C 
ATOM     16  C   UNL     1      -1.843   6.024  -2.806  1.00  0.00     0.007 C 
ATOM     17  C   UNL     1      -3.106   4.034  -3.715  1.00  0.00     0.118 C 
ATOM     18  C   UNL     1      -2.819   6.964  -3.478  1.00  0.00     0.001 C 
ATOM     19  C   UNL     1      -3.827   4.959  -4.705  1.00  0.00     0.032 C 
ATOM     20  C   UNL     1      -3.289   6.385  -4.798  1.00  0.00     0.003 C 
BRANCH  17  21
ATOM     21  O   UNL     1      -3.856   2.852  -3.464  1.00  0.00    -0.393 OA
ATOM     22  H   UNL     1      -4.670   3.080  -2.989  1.00  0.00     0.210 HD
ENDBRANCH  17  21
ENDBRANCH   6  15
ENDBRANCH   4   6
ENDBRANCH   3   4
ENDBRANCH   2   3
ENDBRANCH   1   2
BRANCH   1  23
ATOM     23  O   UNL     1      -1.307   3.813   3.270  1.00  0.00    -0.458 OA
BRANCH  23  24
ATOM     24  C   UNL     1      -2.520   4.287   2.939  1.00  0.00     0.338 C 
ATOM     25  O   UNL     1      -2.812   5.456   2.614  1.00  0.00    -0.246 OA
BRANCH  24  26
ATOM     26  C   UNL     1      -3.354   3.151   2.532  1.00  0.00     0.060 A 
ATOM     27  C   UNL     1      -4.681   3.325   2.116  1.00  0.00     0.016 A 
ATOM     28  C   UNL     1      -2.688   1.933   2.306  1.00  0.00     0.016 A 
ATOM     29  C   UNL     1      -5.353   2.241   1.576  1.00  0.00     0.010 A 
ATOM     30  C   UNL     1      -3.256   0.960   1.545  1.00  0.00     0.010 A 
ATOM     31  C   UNL     1      -4.626   1.058   1.364  1.00  0.00    -0.014 A 
BRANCH  31  32
ATOM     32  C   UNL     1      -5.223  -0.239   1.611  1.00  0.00     0.031 A 
ATOM     33  C   UNL     1      -5.682  -1.016   0.469  1.00  0.00     0.074 A 
ATOM     34  C   UNL     1      -5.227  -0.591   2.920  1.00  0.00     0.049 A 
ATOM     35  N   UNL     1      -6.903  -1.364   0.266  1.00  0.00    -0.248 NA
ATOM     36  C   UNL     1      -4.762  -1.399  -0.607  1.00  0.00     0.031 C 
ATOM     37  C   UNL     1      -5.702  -1.786   3.580  1.00  0.00     0.029 A 
ATOM     38  N   UNL     1      -4.850   0.199   4.005  1.00  0.00    -0.354 N 
ATOM     39  C   UNL     1      -6.812  -2.363  -0.676  1.00  0.00     0.074 A 
ATOM     40  C   UNL     1      -5.555  -2.164  -1.365  1.00  0.00     0.031 C 
ATOM     41  C   UNL     1      -5.956  -1.470   4.872  1.00  0.00     0.029 A 
ATOM     42  C   UNL     1      -5.685  -0.045   5.073  1.00  0.00     0.049 A 
ATOM     43  H   UNL     1      -4.100   0.836   4.008  1.00  0.00     0.167 HD
ATOM     44  C   UNL     1      -7.514  -3.521  -0.517  1.00  0.00     0.031 A 
ATOM     45  C   UNL     1      -6.576   0.920   5.460  1.00  0.00     0.031 A 
ATOM     46  C   UNL     1      -8.131  -3.573   0.812  1.00  0.00     0.049 A 
ATOM     47  C   UNL     1      -7.978   0.522   5.024  1.00  0.00     0.074 A 
ATOM     48  C   UNL     1      -7.777  -4.254   1.967  1.00  0.00     0.029 A 
ATOM     49  N   UNL     1      -9.009  -2.567   1.217  1.00  0.00    -0.354 N 
ATOM     50  N   UNL     1      -8.221  -0.325   4.056  1.00  0.00    -0.248 NA
ATOM     51  C   UNL     1      -9.203   0.976   5.674  1.00  0.00     0.031 C 
ATOM     52  C   UNL     1      -8.394  -3.612   3.073  1.00  0.00     0.029 A 
ATOM     53  C   UNL     1      -9.123  -2.538   2.597  1.00  0.00     0.049 A 
ATOM     54  H   UNL     1      -9.484  -1.960   0.604  1.00  0.00     0.167 HD
ATOM     55  C   UNL     1      -9.553  -0.640   4.033  1.00  0.00     0.074 A 
ATOM     56  C   UNL     1     -10.133   0.235   5.042  1.00  0.00     0.031 C 
ATOM     57  C   UNL     1     -10.068  -1.629   3.239  1.00  0.00     0.031 A 
BRANCH  44  58
ATOM     58  C   UNL     1      -7.206  -4.710  -1.394  1.00  0.00    -0.014 A 
ATOM     59  C   UNL     1      -7.107  -6.005  -0.857  1.00  0.00     0.010 A 
ATOM     60  C   UNL     1      -6.979  -4.575  -2.782  1.00  0.00     0.010 A 
ATOM     61  C   UNL     1      -6.722  -7.100  -1.642  1.00  0.00     0.020 A 
ATOM     62  C   UNL     1      -6.569  -5.660  -3.574  1.00  0.00     0.020 A 
ATOM     63  C   UNL     1      -6.439  -6.919  -2.994  1.00  0.00     0.054 A 
BRANCH  63  64
ATOM     64  S   UNL     1      -5.902  -8.349  -3.969  1.00  0.00     0.124 S 
ATOM     65  O   UNL     1      -4.777  -8.860  -3.189  1.00  0.00    -0.237 OA
ATOM     66  O   UNL     1      -7.096  -9.188  -3.974  1.00  0.00    -0.237 OA
ATOM     67  O   UNL     1      -5.540  -7.771  -5.262  1.00  0.00    -0.744 OA
ENDBRANCH  63  64
ENDBRANCH  44  58
BRANCH  45  68
ATOM     68  C   UNL     1      -6.032   2.315   5.665  1.00  0.00    -0.014 A 
ATOM     69  C   UNL     1      -4.847   2.441   6.438  1.00  0.00     0.010 A 
ATOM     70  C   UNL     1      -6.511   3.490   5.058  1.00  0.00     0.010 A 
ATOM     71  C   UNL     1      -4.133   3.644   6.540  1.00  0.00     0.020 A 
ATOM     72  C   UNL     1      -5.801   4.717   5.168  1.00  0.00     0.020 A 
ATOM     73  C   UNL     1      -4.610   4.782   5.900  1.00  0.00     0.054 A 
BRANCH  73  74
ATOM     74  S   UNL     1      -3.600   6.301   5.996  1.00  0.00     0.124 S 
ATOM     75  O   UNL     1      -3.816   6.722   7.377  1.00  0.00    -0.237 OA
ATOM     76  O   UNL     1      -2.257   5.806   5.708  1.00  0.00    -0.237 OA
ATOM     77  O   UNL     1      -4.194   7.173   4.985  1.00  0.00    -0.744 OA
ENDBRANCH  73  74
ENDBRANCH  45  68
BRANCH  57  78
ATOM     78  C   UNL     1     -11.528  -1.966   3.050  1.00  0.00    -0.014 A 
ATOM     79  C   UNL     1     -12.586  -1.080   3.274  1.00  0.00     0.010 A 
ATOM     80  C   UNL     1     -11.854  -3.221   2.467  1.00  0.00     0.010 A 
ATOM     81  C   UNL     1     -13.906  -1.442   2.966  1.00  0.00     0.020 A 
ATOM     82  C   UNL     1     -13.151  -3.568   2.104  1.00  0.00     0.020 A 
ATOM     83  C   UNL     1     -14.178  -2.679   2.377  1.00  0.00     0.054 A 
BRANCH  83  84
ATOM     84  S   UNL     1     -15.864  -3.099   1.883  1.00  0.00     0.124 S 
ATOM     85  O   UNL     1     -16.382  -3.727   3.095  1.00  0.00    -0.237 OA
ATOM     86  O   UNL     1     -16.443  -1.799   1.553  1.00  0.00    -0.237 OA
ATOM     87  O   UNL     1     -15.672  -3.994   0.744  1.00  0.00    -0.744 OA
ENDBRANCH  83  84
ENDBRANCH  57  78
ENDBRANCH  31  32
ENDBRANCH  24  26
ENDBRANCH  23  24
ENDBRANCH   1  23
TORSDOF 18
