REMARK SMILES O=C(OCCOC(=O)c1ccc(-c2c3nc(c(-c4ccc(S(=O)(=O)[O-])cc4)c4ccc([nH]4)c(-c4ccc(S(=O)(=O)[O-])cc4)c4nc(c(-c5ccc(S(=O)(=O)[O-])cc5)c5ccc2[nH]5)C=C4)C=C3)cc1)C1=Cc2c(cc(Cl)c(Cl)c2Cl)O[C@H]1C(F)(F)F
REMARK SMILES IDX 5 1 4 2 3 3 2 4 1 5 69 6 70 7 81 8 71 9 80 10 72 11 78 12
REMARK SMILES IDX 73 13 76 14 79 15 74 16 77 17 75 18 82 19 83 20 84 21 85 22
REMARK SMILES IDX 6 23 7 24 8 25 9 26 10 27 68 28 11 29 67 30 12 31 13 32
REMARK SMILES IDX 14 33 61 34 15 35 66 36 60 37 62 38 16 39 65 40 59 41 58 42
REMARK SMILES IDX 17 44 47 45 28 46 46 47 29 48 32 49 45 50 63 51 30 52 31 53
REMARK SMILES IDX 44 55 64 56 33 57 18 58 19 59 27 60 20 61 26 62 21 63 22 64
REMARK SMILES IDX 23 65 24 66 25 67 48 68 49 69 57 70 50 71 56 72 51 73 52 74
REMARK SMILES IDX 53 75 54 76 55 77 34 78 35 79 43 80 36 81 42 82 37 83 38 84
REMARK SMILES IDX 39 85 40 86 41 87
REMARK H PARENT 62 43 32 54
REMARK Flexibility Score: inf
ROOT
ATOM      1  C   UNL     1       3.005   0.768  -2.859  1.00  0.00     0.275 C 
ENDROOT
BRANCH   1   2
ATOM      2  C   UNL     1       2.804  -0.449  -1.944  1.00  0.00     0.275 C 
BRANCH   2   3
ATOM      3  O   UNL     1       2.157  -0.156  -0.688  1.00  0.00    -0.459 OA
BRANCH   3   4
ATOM      4  C   UNL     1       2.695   0.280   0.470  1.00  0.00     0.338 C 
ATOM      5  O   UNL     1       1.995   0.298   1.480  1.00  0.00    -0.246 OA
BRANCH   4   6
ATOM      6  C   UNL     1       4.105   0.731   0.589  1.00  0.00     0.087 C 
ATOM      7  C   UNL     1       5.006   0.745  -0.410  1.00  0.00     0.029 C 
ATOM      8  C   UNL     1       4.598   0.751   2.031  1.00  0.00     0.316 C 
ATOM      9  C   UNL     1       6.066  -0.269  -0.184  1.00  0.00     0.038 A 
ATOM     10  O   UNL     1       5.941   0.196   2.190  1.00  0.00    -0.475 OA
ATOM     11  C   UNL     1       6.417  -0.545   1.141  1.00  0.00     0.131 A 
ATOM     12  C   UNL     1       6.665  -1.000  -1.230  1.00  0.00     0.072 A 
ATOM     13  C   UNL     1       7.305  -1.573   1.435  1.00  0.00     0.069 A 
ATOM     14  C   UNL     1       7.507  -2.084  -0.935  1.00  0.00     0.079 A 
ATOM     15  Cl  UNL     1       6.379  -0.540  -2.881  1.00  0.00    -0.082 Cl
ATOM     16  C   UNL     1       7.815  -2.367   0.404  1.00  0.00     0.064 A 
ATOM     17  Cl  UNL     1       8.129  -3.087  -2.212  1.00  0.00    -0.081 Cl
ATOM     18  Cl  UNL     1       8.828  -3.694   0.855  1.00  0.00    -0.083 Cl
BRANCH   8  19
ATOM     19  C   UNL     1       4.537   2.179   2.599  1.00  0.00     0.430 C 
ATOM     20  F   UNL     1       3.309   2.726   2.477  1.00  0.00    -0.167 F 
ATOM     21  F   UNL     1       4.865   2.204   3.911  1.00  0.00    -0.167 F 
ATOM     22  F   UNL     1       5.404   2.996   1.949  1.00  0.00    -0.167 F 
ENDBRANCH   8  19
ENDBRANCH   4   6
ENDBRANCH   3   4
ENDBRANCH   2   3
ENDBRANCH   1   2
BRANCH   1  23
ATOM     23  O   UNL     1       2.859   2.001  -2.154  1.00  0.00    -0.458 OA
BRANCH  23  24
ATOM     24  C   UNL     1       1.562   2.352  -1.986  1.00  0.00     0.338 C 
ATOM     25  O   UNL     1       0.599   1.847  -2.542  1.00  0.00    -0.246 OA
BRANCH  24  26
ATOM     26  C   UNL     1       1.463   3.317  -0.879  1.00  0.00     0.060 A 
ATOM     27  C   UNL     1       0.324   3.236  -0.076  1.00  0.00     0.016 A 
ATOM     28  C   UNL     1       2.442   4.288  -0.636  1.00  0.00     0.016 A 
ATOM     29  C   UNL     1       0.105   4.194   0.902  1.00  0.00     0.010 A 
ATOM     30  C   UNL     1       2.234   5.236   0.368  1.00  0.00     0.010 A 
ATOM     31  C   UNL     1       1.032   5.229   1.091  1.00  0.00    -0.014 A 
BRANCH  31  32
ATOM     32  C   UNL     1       0.610   6.386   1.911  1.00  0.00     0.031 A 
ATOM     33  C   UNL     1       0.147   7.635   1.208  1.00  0.00     0.074 A 
ATOM     34  C   UNL     1       0.498   6.260   3.246  1.00  0.00     0.049 A 
ATOM     35  N   UNL     1      -0.466   8.680   1.700  1.00  0.00    -0.248 NA
ATOM     36  C   UNL     1       0.396   7.715  -0.242  1.00  0.00     0.031 C 
ATOM     37  C   UNL     1       0.905   5.087   4.021  1.00  0.00     0.029 A 
ATOM     38  N   UNL     1      -0.026   7.116   4.179  1.00  0.00    -0.354 N 
ATOM     39  C   UNL     1      -0.702   9.521   0.618  1.00  0.00     0.074 A 
ATOM     40  C   UNL     1      -0.105   8.903  -0.543  1.00  0.00     0.031 C 
ATOM     41  C   UNL     1       0.592   5.288   5.312  1.00  0.00     0.029 A 
ATOM     42  C   UNL     1      -0.026   6.604   5.454  1.00  0.00     0.049 A 
ATOM     43  H   UNL     1      -0.370   8.011   3.957  1.00  0.00     0.167 HD
ATOM     44  C   UNL     1      -1.387  10.687   0.587  1.00  0.00     0.031 A 
ATOM     45  C   UNL     1      -0.487   7.136   6.602  1.00  0.00     0.031 A 
ATOM     46  C   UNL     1      -1.960  11.305   1.751  1.00  0.00     0.049 A 
ATOM     47  C   UNL     1      -1.187   8.470   6.551  1.00  0.00     0.074 A 
ATOM     48  C   UNL     1      -2.667  12.491   1.839  1.00  0.00     0.029 A 
ATOM     49  N   UNL     1      -1.886  10.784   3.035  1.00  0.00    -0.354 N 
ATOM     50  N   UNL     1      -1.450   9.226   5.510  1.00  0.00    -0.248 NA
ATOM     51  C   UNL     1      -1.677   9.009   7.826  1.00  0.00     0.031 C 
ATOM     52  C   UNL     1      -2.971  12.715   3.186  1.00  0.00     0.029 A 
ATOM     53  C   UNL     1      -2.512  11.636   3.927  1.00  0.00     0.049 A 
ATOM     54  H   UNL     1      -1.452   9.934   3.276  1.00  0.00     0.167 HD
ATOM     55  C   UNL     1      -2.158  10.318   6.003  1.00  0.00     0.074 A 
ATOM     56  C   UNL     1      -2.309  10.104   7.428  1.00  0.00     0.031 C 
ATOM     57  C   UNL     1      -2.639  11.402   5.343  1.00  0.00     0.031 A 
BRANCH  44  58
ATOM     58  C   UNL     1      -1.545  11.366  -0.748  1.00  0.00    -0.014 A 
ATOM     59  C   UNL     1      -2.379  10.819  -1.742  1.00  0.00     0.010 A 
ATOM     60  C   UNL     1      -0.882  12.579  -1.004  1.00  0.00     0.010 A 
ATOM     61  C   UNL     1      -2.525  11.459  -2.976  1.00  0.00     0.020 A 
ATOM     62  C   UNL     1      -1.048  13.236  -2.228  1.00  0.00     0.020 A 
ATOM     63  C   UNL     1      -1.859  12.665  -3.210  1.00  0.00     0.054 A 
BRANCH  63  64
ATOM     64  S   UNL     1      -2.099  13.492  -4.807  1.00  0.00     0.124 S 
ATOM     65  O   UNL     1      -1.384  12.602  -5.719  1.00  0.00    -0.237 OA
ATOM     66  O   UNL     1      -3.553  13.498  -4.947  1.00  0.00    -0.237 OA
ATOM     67  O   UNL     1      -1.489  14.805  -4.614  1.00  0.00    -0.744 OA
ENDBRANCH  63  64
ENDBRANCH  44  58
BRANCH  45  68
ATOM     68  C   UNL     1      -0.293   6.420   7.894  1.00  0.00    -0.014 A 
ATOM     69  C   UNL     1      -1.385   5.934   8.636  1.00  0.00     0.010 A 
ATOM     70  C   UNL     1       1.006   6.251   8.409  1.00  0.00     0.010 A 
ATOM     71  C   UNL     1      -1.184   5.336   9.885  1.00  0.00     0.020 A 
ATOM     72  C   UNL     1       1.214   5.625   9.640  1.00  0.00     0.020 A 
ATOM     73  C   UNL     1       0.115   5.190  10.381  1.00  0.00     0.054 A 
BRANCH  73  74
ATOM     74  S   UNL     1       0.355   4.410  12.001  1.00  0.00     0.124 S 
ATOM     75  O   UNL     1      -0.135   5.441  12.910  1.00  0.00    -0.237 OA
ATOM     76  O   UNL     1      -0.472   3.210  11.899  1.00  0.00    -0.237 OA
ATOM     77  O   UNL     1       1.794   4.162  12.053  1.00  0.00    -0.744 OA
ENDBRANCH  73  74
ENDBRANCH  45  68
BRANCH  57  78
ATOM     78  C   UNL     1      -3.388  12.424   6.159  1.00  0.00    -0.014 A 
ATOM     79  C   UNL     1      -2.728  13.228   7.105  1.00  0.00     0.010 A 
ATOM     80  C   UNL     1      -4.770  12.597   5.956  1.00  0.00     0.010 A 
ATOM     81  C   UNL     1      -3.446  14.146   7.875  1.00  0.00     0.020 A 
ATOM     82  C   UNL     1      -5.485  13.541   6.697  1.00  0.00     0.020 A 
ATOM     83  C   UNL     1      -4.822  14.293   7.669  1.00  0.00     0.054 A 
BRANCH  83  84
ATOM     84  S   UNL     1      -5.729  15.498   8.674  1.00  0.00     0.124 S 
ATOM     85  O   UNL     1      -5.777  14.834   9.973  1.00  0.00    -0.237 OA
ATOM     86  O   UNL     1      -4.875  16.682   8.603  1.00  0.00    -0.237 OA
ATOM     87  O   UNL     1      -7.014  15.623   7.990  1.00  0.00    -0.744 OA
ENDBRANCH  83  84
ENDBRANCH  57  78
ENDBRANCH  31  32
ENDBRANCH  24  26
ENDBRANCH  23  24
ENDBRANCH   1  23
TORSDOF 15
