REMARK SMILES O=C(OCCOC(=O)[C@H]1O[C@@H](Oc2c(-c3cc(O)c(O)c(O)c3)oc3cc(O)cc(O)c3c2=O)[C@H](O)[C@@H](O)[C@@H]1O)c1ccc(-c2c3nc(c(-c4ccc(S(=O)(=O)[O-])cc4)c4ccc([nH]4)c(-c4ccc(S(=O)(=O)[O-])cc4)c4nc(c(-c5ccc(S(=O)(=O)[O-])cc5)c5ccc2[nH]5)C=C4)C=C3)cc1
REMARK SMILES IDX 5 1 4 2 3 3 2 4 1 5 41 6 42 7 100 8 43 9 99 10 44 11 45 12
REMARK SMILES IDX 46 13 93 14 47 15 98 16 92 17 94 18 48 19 97 20 91 21 90 22
REMARK SMILES IDX 49 24 79 25 60 26 78 27 61 28 64 29 77 30 95 31 62 32 63 33
REMARK SMILES IDX 76 35 96 36 65 37 50 38 51 39 59 40 52 41 58 42 53 43 54 44
REMARK SMILES IDX 55 45 56 46 57 47 80 48 81 49 89 50 82 51 88 52 83 53 84 54
REMARK SMILES IDX 85 55 86 56 87 57 66 58 67 59 75 60 68 61 74 62 69 63 70 64
REMARK SMILES IDX 71 65 72 66 73 67 6 68 7 69 8 70 9 71 10 72 39 73 11 74
REMARK SMILES IDX 37 75 35 76 40 77 12 79 13 80 14 81 33 82 24 83 32 84 34 85
REMARK SMILES IDX 25 86 30 87 26 88 29 89 27 90 15 91 16 92 23 93 17 94 21 95
REMARK SMILES IDX 19 96 18 97 22 99 20 101 31 103 28 105 38 107 36 109
REMARK H PARENT 94 23 64 34 40 78 18 98 22 100 20 102 31 104 28 106 38 108
REMARK H PARENT 36 110
REMARK Flexibility Score: inf
ROOT
ATOM      1  C   UNL     1      -1.572   0.853  -2.710  1.00  0.00     0.274 C 
ENDROOT
BRANCH   1   2
ATOM      2  C   UNL     1      -1.748   0.390  -1.260  1.00  0.00     0.275 C 
BRANCH   2   3
ATOM      3  O   UNL     1      -0.852   1.048  -0.346  1.00  0.00    -0.458 OA
BRANCH   3   4
ATOM      4  C   UNL     1       0.358   0.660   0.120  1.00  0.00     0.338 C 
ATOM      5  O   UNL     1       0.828   1.269   1.083  1.00  0.00    -0.246 OA
BRANCH   4   6
ATOM      6  C   UNL     1       1.256  -0.341  -0.555  1.00  0.00     0.060 A 
ATOM      7  C   UNL     1       0.886  -1.331  -1.473  1.00  0.00     0.016 A 
ATOM      8  C   UNL     1       2.630  -0.205  -0.276  1.00  0.00     0.016 A 
ATOM      9  C   UNL     1       1.841  -2.123  -2.129  1.00  0.00     0.010 A 
ATOM     10  C   UNL     1       3.588  -0.975  -0.943  1.00  0.00     0.010 A 
ATOM     11  C   UNL     1       3.196  -1.957  -1.865  1.00  0.00    -0.014 A 
BRANCH  11  12
ATOM     12  C   UNL     1       4.203  -2.934  -2.340  1.00  0.00     0.031 A 
ATOM     13  C   UNL     1       4.740  -3.897  -1.326  1.00  0.00     0.074 A 
ATOM     14  C   UNL     1       4.656  -2.974  -3.607  1.00  0.00     0.049 A 
ATOM     15  N   UNL     1       5.695  -4.774  -1.449  1.00  0.00    -0.248 NA
ATOM     16  C   UNL     1       4.077  -3.898  -0.009  1.00  0.00     0.031 C 
ATOM     17  C   UNL     1       4.101  -2.245  -4.738  1.00  0.00     0.029 A 
ATOM     18  N   UNL     1       5.749  -3.614  -4.141  1.00  0.00    -0.354 N 
ATOM     19  C   UNL     1       5.712  -5.465  -0.248  1.00  0.00     0.074 A 
ATOM     20  C   UNL     1       4.748  -4.841   0.627  1.00  0.00     0.031 C 
ATOM     21  C   UNL     1       4.949  -2.324  -5.777  1.00  0.00     0.029 A 
ATOM     22  C   UNL     1       6.079  -3.155  -5.398  1.00  0.00     0.049 A 
ATOM     23  H   UNL     1       6.244  -4.326  -3.675  1.00  0.00     0.167 HD
ATOM     24  C   UNL     1       6.434  -6.561   0.072  1.00  0.00     0.031 A 
ATOM     25  C   UNL     1       7.177  -3.363  -6.149  1.00  0.00     0.031 A 
ATOM     26  C   UNL     1       7.425  -7.127  -0.795  1.00  0.00     0.049 A 
ATOM     27  C   UNL     1       8.142  -4.416  -5.692  1.00  0.00     0.074 A 
ATOM     28  C   UNL     1       8.224  -8.234  -0.588  1.00  0.00     0.029 A 
ATOM     29  N   UNL     1       7.774  -6.600  -2.033  1.00  0.00    -0.354 N 
ATOM     30  N   UNL     1       8.120  -5.108  -4.577  1.00  0.00    -0.248 NA
ATOM     31  C   UNL     1       9.218  -4.788  -6.617  1.00  0.00     0.031 C 
ATOM     32  C   UNL     1       9.108  -8.332  -1.667  1.00  0.00     0.029 A 
ATOM     33  C   UNL     1       8.808  -7.332  -2.583  1.00  0.00     0.049 A 
ATOM     34  H   UNL     1       7.347  -5.820  -2.455  1.00  0.00     0.167 HD
ATOM     35  C   UNL     1       9.117  -6.063  -4.705  1.00  0.00     0.074 A 
ATOM     36  C   UNL     1       9.760  -5.823  -5.984  1.00  0.00     0.031 C 
ATOM     37  C   UNL     1       9.430  -7.075  -3.861  1.00  0.00     0.031 A 
BRANCH  24  38
ATOM     38  C   UNL     1       6.181  -7.152   1.430  1.00  0.00    -0.014 A 
ATOM     39  C   UNL     1       4.942  -7.747   1.744  1.00  0.00     0.010 A 
ATOM     40  C   UNL     1       7.158  -7.034   2.431  1.00  0.00     0.010 A 
ATOM     41  C   UNL     1       4.658  -8.136   3.054  1.00  0.00     0.020 A 
ATOM     42  C   UNL     1       6.889  -7.453   3.735  1.00  0.00     0.020 A 
ATOM     43  C   UNL     1       5.630  -7.972   4.045  1.00  0.00     0.054 A 
BRANCH  43  44
ATOM     44  S   UNL     1       5.218  -8.432   5.749  1.00  0.00     0.124 S 
ATOM     45  O   UNL     1       4.304  -7.361   6.137  1.00  0.00    -0.237 OA
ATOM     46  O   UNL     1       4.608  -9.749   5.587  1.00  0.00    -0.237 OA
ATOM     47  O   UNL     1       6.510  -8.426   6.431  1.00  0.00    -0.744 OA
ENDBRANCH  43  44
ENDBRANCH  24  38
BRANCH  25  48
ATOM     48  C   UNL     1       7.379  -2.590  -7.406  1.00  0.00    -0.014 A 
ATOM     49  C   UNL     1       7.100  -3.151  -8.663  1.00  0.00     0.010 A 
ATOM     50  C   UNL     1       7.807  -1.249  -7.340  1.00  0.00     0.010 A 
ATOM     51  C   UNL     1       7.235  -2.385  -9.829  1.00  0.00     0.020 A 
ATOM     52  C   UNL     1       7.935  -0.478  -8.503  1.00  0.00     0.020 A 
ATOM     53  C   UNL     1       7.641  -1.050  -9.740  1.00  0.00     0.054 A 
BRANCH  53  54
ATOM     54  S   UNL     1       7.715  -0.057 -11.260  1.00  0.00     0.124 S 
ATOM     55  O   UNL     1       8.823  -0.678 -11.980  1.00  0.00    -0.237 OA
ATOM     56  O   UNL     1       6.388  -0.270 -11.835  1.00  0.00    -0.237 OA
ATOM     57  O   UNL     1       7.964   1.298 -10.775  1.00  0.00    -0.744 OA
ENDBRANCH  53  54
ENDBRANCH  25  48
BRANCH  37  58
ATOM     58  C   UNL     1      10.473  -8.058  -4.309  1.00  0.00    -0.014 A 
ATOM     59  C   UNL     1      11.838  -7.733  -4.300  1.00  0.00     0.010 A 
ATOM     60  C   UNL     1      10.073  -9.374  -4.612  1.00  0.00     0.010 A 
ATOM     61  C   UNL     1      12.791  -8.715  -4.579  1.00  0.00     0.020 A 
ATOM     62  C   UNL     1      11.023 -10.363  -4.862  1.00  0.00     0.020 A 
ATOM     63  C   UNL     1      12.377 -10.027  -4.843  1.00  0.00     0.054 A 
BRANCH  63  64
ATOM     64  S   UNL     1      13.640 -11.306  -5.078  1.00  0.00     0.124 S 
ATOM     65  O   UNL     1      14.169 -10.972  -6.397  1.00  0.00    -0.237 OA
ATOM     66  O   UNL     1      14.546 -11.068  -3.957  1.00  0.00    -0.237 OA
ATOM     67  O   UNL     1      12.885 -12.555  -5.007  1.00  0.00    -0.744 OA
ENDBRANCH  63  64
ENDBRANCH  37  58
ENDBRANCH  11  12
ENDBRANCH   4   6
ENDBRANCH   3   4
ENDBRANCH   2   3
ENDBRANCH   1   2
BRANCH   1  68
ATOM     68  O   UNL     1      -0.186   0.883  -3.071  1.00  0.00    -0.460 OA
BRANCH  68  69
ATOM     69  C   UNL     1       0.399   2.114  -3.243  1.00  0.00     0.338 C 
ATOM     70  O   UNL     1      -0.202   3.168  -3.355  1.00  0.00    -0.249 OA
BRANCH  69  71
ATOM     71  C   UNL     1       1.918   1.927  -3.200  1.00  0.00     0.263 C 
ATOM     72  O   UNL     1       2.530   1.737  -4.472  1.00  0.00    -0.322 OA
ATOM     73  C   UNL     1       2.662   3.045  -2.472  1.00  0.00     0.186 C 
ATOM     74  C   UNL     1       3.778   1.060  -4.303  1.00  0.00     0.340 C 
ATOM     75  C   UNL     1       4.103   2.567  -2.195  1.00  0.00     0.181 C 
ATOM     76  C   UNL     1       4.743   1.830  -3.373  1.00  0.00     0.214 C 
BRANCH  73  77
ATOM     77  O   UNL     1       2.042   3.432  -1.245  1.00  0.00    -0.387 OA
ATOM     78  H   UNL     1       2.031   2.678  -0.636  1.00  0.00     0.211 HD
ENDBRANCH  73  77
BRANCH  74  79
ATOM     79  O   UNL     1       4.491   0.756  -5.516  1.00  0.00    -0.454 OA
BRANCH  79  80
ATOM     80  C   UNL     1       4.016   1.323  -6.684  1.00  0.00     0.214 A 
ATOM     81  C   UNL     1       4.514   2.464  -7.198  1.00  0.00     0.181 A 
ATOM     82  C   UNL     1       2.994   0.578  -7.478  1.00  0.00     0.239 A 
ATOM     83  O   UNL     1       4.071   3.069  -8.352  1.00  0.00    -0.452 OA
ATOM     84  C   UNL     1       2.725   1.094  -8.843  1.00  0.00     0.111 A 
ATOM     85  O   UNL     1       2.409  -0.386  -6.995  1.00  0.00    -0.285 OA
ATOM     86  C   UNL     1       3.256   2.341  -9.183  1.00  0.00     0.146 A 
ATOM     87  C   UNL     1       1.964   0.403  -9.798  1.00  0.00     0.134 A 
ATOM     88  C   UNL     1       2.980   2.923 -10.422  1.00  0.00     0.094 A 
ATOM     89  C   UNL     1       1.705   0.970 -11.051  1.00  0.00     0.093 A 
ATOM     90  C   UNL     1       2.205   2.235 -11.343  1.00  0.00     0.123 A 
BRANCH  81  91
ATOM     91  C   UNL     1       5.509   3.250  -6.448  1.00  0.00     0.029 A 
ATOM     92  C   UNL     1       5.093   4.443  -5.830  1.00  0.00     0.062 A 
ATOM     93  C   UNL     1       6.762   2.691  -6.127  1.00  0.00     0.062 A 
ATOM     94  C   UNL     1       5.862   4.979  -4.803  1.00  0.00     0.162 A 
ATOM     95  C   UNL     1       7.509   3.234  -5.088  1.00  0.00     0.162 A 
ATOM     96  C   UNL     1       7.039   4.350  -4.404  1.00  0.00     0.200 A 
BRANCH  94  97
ATOM     97  O   UNL     1       5.369   6.025  -4.076  1.00  0.00    -0.504 OA
ATOM     98  H   UNL     1       4.577   6.449  -4.343  1.00  0.00     0.293 HD
ENDBRANCH  94  97
BRANCH  95  99
ATOM     99  O   UNL     1       8.603   2.553  -4.639  1.00  0.00    -0.504 OA
ATOM    100  H   UNL     1       9.119   2.904  -3.940  1.00  0.00     0.293 HD
ENDBRANCH  95  99
BRANCH  96 101
ATOM    101  O   UNL     1       7.593   4.685  -3.195  1.00  0.00    -0.502 OA
ATOM    102  H   UNL     1       7.281   5.436  -2.729  1.00  0.00     0.293 HD
ENDBRANCH  96 101
ENDBRANCH  81  91
BRANCH  87 103
ATOM    103  O   UNL     1       1.448  -0.837  -9.541  1.00  0.00    -0.507 OA
ATOM    104  H   UNL     1       0.943  -1.278 -10.195  1.00  0.00     0.293 HD
ENDBRANCH  87 103
BRANCH  90 105
ATOM    105  O   UNL     1       1.948   2.837 -12.539  1.00  0.00    -0.508 OA
ATOM    106  H   UNL     1       2.293   3.690 -12.718  1.00  0.00     0.293 HD
ENDBRANCH  90 105
ENDBRANCH  79  80
ENDBRANCH  74  79
BRANCH  75 107
ATOM    107  O   UNL     1       4.944   3.687  -1.813  1.00  0.00    -0.387 OA
ATOM    108  H   UNL     1       5.002   4.314  -2.552  1.00  0.00     0.211 HD
ENDBRANCH  75 107
BRANCH  76 109
ATOM    109  O   UNL     1       5.800   0.990  -2.879  1.00  0.00    -0.384 OA
ATOM    110  H   UNL     1       5.428   0.310  -2.296  1.00  0.00     0.211 HD
ENDBRANCH  76 109
ENDBRANCH  69  71
ENDBRANCH  68  69
ENDBRANCH   1  68
TORSDOF 25
