REMARK SMILES O=C(OCCOC(=O)c1cc(F)c(O[C@H]2CCCCNC2=O)c(F)c1)c1ccc(-c2c3nc(c(-c4ccc(S(=O)(=O)[O-])cc4)c4ccc([nH]4)c(-c4ccc(S(=O)(=O)[O-])cc4)c4nc(c(-c5ccc(S(=O)(=O)[O-])cc5)c5ccc2[nH]5)C=C4)C=C3)cc1
REMARK SMILES IDX 5 1 4 2 3 3 2 4 1 5 26 6 27 7 85 8 28 9 84 10 29 11 30 12
REMARK SMILES IDX 31 13 78 14 32 15 83 16 77 17 79 18 33 19 82 20 76 21 75 22
REMARK SMILES IDX 34 24 64 25 45 26 63 27 46 28 49 29 62 30 80 31 47 32 48 33
REMARK SMILES IDX 61 35 81 36 50 37 35 38 36 39 44 40 37 41 43 42 38 43 39 44
REMARK SMILES IDX 40 45 41 46 42 47 65 48 66 49 74 50 67 51 73 52 68 53 69 54
REMARK SMILES IDX 70 55 71 56 72 57 51 58 52 59 60 60 53 61 59 62 54 63 55 64
REMARK SMILES IDX 56 65 57 66 58 67 6 68 7 69 8 70 9 71 10 72 25 73 11 74
REMARK SMILES IDX 23 75 12 76 13 77 24 78 14 79 15 80 16 81 17 82 18 83 21 85
REMARK SMILES IDX 20 86 22 87 19 89
REMARK H PARENT 79 23 49 34 20 88
REMARK Flexibility Score: 80.00
ROOT
ATOM      1  C   UNL     1       3.818  -1.727  -1.547  1.00  0.00     0.275 C 
ENDROOT
BRANCH   1   2
ATOM      2  C   UNL     1       4.013  -1.633  -0.033  1.00  0.00     0.275 C 
BRANCH   2   3
ATOM      3  O   UNL     1       2.952  -0.969   0.677  1.00  0.00    -0.458 OA
BRANCH   3   4
ATOM      4  C   UNL     1       2.811   0.339   0.996  1.00  0.00     0.338 C 
ATOM      5  O   UNL     1       1.958   0.662   1.821  1.00  0.00    -0.246 OA
BRANCH   4   6
ATOM      6  C   UNL     1       3.533   1.435   0.281  1.00  0.00     0.060 A 
ATOM      7  C   UNL     1       4.859   1.385  -0.153  1.00  0.00     0.016 A 
ATOM      8  C   UNL     1       2.814   2.627   0.078  1.00  0.00     0.016 A 
ATOM      9  C   UNL     1       5.432   2.459  -0.840  1.00  0.00     0.010 A 
ATOM     10  C   UNL     1       3.380   3.704  -0.608  1.00  0.00     0.010 A 
ATOM     11  C   UNL     1       4.700   3.624  -1.068  1.00  0.00    -0.014 A 
BRANCH  11  12
ATOM     12  C   UNL     1       5.379   4.829  -1.595  1.00  0.00     0.031 A 
ATOM     13  C   UNL     1       5.758   5.895  -0.611  1.00  0.00     0.074 A 
ATOM     14  C   UNL     1       5.719   4.927  -2.894  1.00  0.00     0.049 A 
ATOM     15  N   UNL     1       6.309   7.058  -0.825  1.00  0.00    -0.248 NA
ATOM     16  C   UNL     1       5.532   5.586   0.814  1.00  0.00     0.031 C 
ATOM     17  C   UNL     1       5.567   3.861  -3.882  1.00  0.00     0.029 A 
ATOM     18  N   UNL     1       6.249   5.968  -3.616  1.00  0.00    -0.354 N 
ATOM     19  C   UNL     1       6.559   7.585   0.436  1.00  0.00     0.074 A 
ATOM     20  C   UNL     1       6.015   6.665   1.407  1.00  0.00     0.031 C 
ATOM     21  C   UNL     1       5.938   4.320  -5.088  1.00  0.00     0.029 A 
ATOM     22  C   UNL     1       6.286   5.732  -4.976  1.00  0.00     0.049 A 
ATOM     23  H   UNL     1       6.572   6.802  -3.204  1.00  0.00     0.167 HD
ATOM     24  C   UNL     1       7.236   8.712   0.752  1.00  0.00     0.031 A 
ATOM     25  C   UNL     1       6.500   6.587  -6.002  1.00  0.00     0.031 A 
ATOM     26  C   UNL     1       7.718   9.631  -0.237  1.00  0.00     0.049 A 
ATOM     27  C   UNL     1       6.851   8.018  -5.618  1.00  0.00     0.074 A 
ATOM     28  C   UNL     1       8.390  10.825  -0.064  1.00  0.00     0.029 A 
ATOM     29  N   UNL     1       7.547   9.454  -1.604  1.00  0.00    -0.354 N 
ATOM     30  N   UNL     1       7.128   8.499  -4.424  1.00  0.00    -0.248 NA
ATOM     31  C   UNL     1       6.925   9.024  -6.686  1.00  0.00     0.031 C 
ATOM     32  C   UNL     1       8.580  11.394  -1.329  1.00  0.00     0.029 A 
ATOM     33  C   UNL     1       8.068  10.532  -2.290  1.00  0.00     0.049 A 
ATOM     34  H   UNL     1       7.117   8.673  -2.023  1.00  0.00     0.167 HD
ATOM     35  C   UNL     1       7.539   9.814  -4.620  1.00  0.00     0.074 A 
ATOM     36  C   UNL     1       7.408  10.078  -6.038  1.00  0.00     0.031 C 
ATOM     37  C   UNL     1       8.017  10.710  -3.721  1.00  0.00     0.031 A 
BRANCH  24  38
ATOM     38  C   UNL     1       7.472   8.975   2.213  1.00  0.00    -0.014 A 
ATOM     39  C   UNL     1       8.368   8.171   2.945  1.00  0.00     0.010 A 
ATOM     40  C   UNL     1       6.762   9.988   2.879  1.00  0.00     0.010 A 
ATOM     41  C   UNL     1       8.501   8.332   4.326  1.00  0.00     0.020 A 
ATOM     42  C   UNL     1       6.910  10.168   4.258  1.00  0.00     0.020 A 
ATOM     43  C   UNL     1       7.758   9.321   4.977  1.00  0.00     0.054 A 
BRANCH  43  44
ATOM     44  S   UNL     1       7.916   9.481   6.777  1.00  0.00     0.124 S 
ATOM     45  O   UNL     1       7.165   8.320   7.248  1.00  0.00    -0.237 OA
ATOM     46  O   UNL     1       9.361   9.416   6.980  1.00  0.00    -0.237 OA
ATOM     47  O   UNL     1       7.307  10.777   7.064  1.00  0.00    -0.744 OA
ENDBRANCH  43  44
ENDBRANCH  24  38
BRANCH  25  48
ATOM     48  C   UNL     1       6.275   6.175  -7.438  1.00  0.00    -0.014 A 
ATOM     49  C   UNL     1       7.165   6.519  -8.472  1.00  0.00     0.010 A 
ATOM     50  C   UNL     1       5.080   5.521  -7.813  1.00  0.00     0.010 A 
ATOM     51  C   UNL     1       6.817   6.331  -9.823  1.00  0.00     0.020 A 
ATOM     52  C   UNL     1       4.742   5.293  -9.150  1.00  0.00     0.020 A 
ATOM     53  C   UNL     1       5.601   5.730 -10.152  1.00  0.00     0.054 A 
BRANCH  53  54
ATOM     54  S   UNL     1       5.061   5.630 -11.882  1.00  0.00     0.124 S 
ATOM     55  O   UNL     1       5.628   6.840 -12.470  1.00  0.00    -0.237 OA
ATOM     56  O   UNL     1       5.660   4.372 -12.315  1.00  0.00    -0.237 OA
ATOM     57  O   UNL     1       3.603   5.628 -11.771  1.00  0.00    -0.744 OA
ENDBRANCH  53  54
ENDBRANCH  25  48
BRANCH  37  58
ATOM     58  C   UNL     1       8.635  11.973  -4.255  1.00  0.00    -0.014 A 
ATOM     59  C   UNL     1       7.863  13.071  -4.663  1.00  0.00     0.010 A 
ATOM     60  C   UNL     1      10.039  12.087  -4.224  1.00  0.00     0.010 A 
ATOM     61  C   UNL     1       8.489  14.264  -5.038  1.00  0.00     0.020 A 
ATOM     62  C   UNL     1      10.665  13.284  -4.572  1.00  0.00     0.020 A 
ATOM     63  C   UNL     1       9.884  14.364  -4.983  1.00  0.00     0.054 A 
BRANCH  63  64
ATOM     64  S   UNL     1      10.671  15.950  -5.381  1.00  0.00     0.124 S 
ATOM     65  O   UNL     1      10.612  15.959  -6.839  1.00  0.00    -0.237 OA
ATOM     66  O   UNL     1       9.804  16.916  -4.710  1.00  0.00    -0.237 OA
ATOM     67  O   UNL     1      12.010  15.824  -4.810  1.00  0.00    -0.744 OA
ENDBRANCH  63  64
ENDBRANCH  37  58
ENDBRANCH  11  12
ENDBRANCH   4   6
ENDBRANCH   3   4
ENDBRANCH   2   3
ENDBRANCH   1   2
BRANCH   1  68
ATOM     68  O   UNL     1       3.385  -0.497  -2.147  1.00  0.00    -0.458 OA
BRANCH  68  69
ATOM     69  C   UNL     1       2.040  -0.400  -2.335  1.00  0.00     0.338 C 
ATOM     70  O   UNL     1       1.207  -1.243  -2.074  1.00  0.00    -0.246 OA
BRANCH  69  71
ATOM     71  C   UNL     1       1.697   0.966  -2.785  1.00  0.00     0.066 A 
ATOM     72  C   UNL     1       2.432   1.637  -3.760  1.00  0.00     0.059 A 
ATOM     73  C   UNL     1       0.610   1.595  -2.181  1.00  0.00     0.059 A 
ATOM     74  C   UNL     1       2.082   2.946  -4.115  1.00  0.00     0.169 A 
ATOM     75  C   UNL     1       0.296   2.906  -2.535  1.00  0.00     0.169 A 
ATOM     76  F   UNL     1       2.830   3.536  -5.054  1.00  0.00    -0.203 F 
ATOM     77  C   UNL     1       1.015   3.609  -3.510  1.00  0.00     0.191 A 
ATOM     78  F   UNL     1      -0.716   3.505  -1.887  1.00  0.00    -0.203 F 
BRANCH  77  79
ATOM     79  O   UNL     1       0.567   4.878  -3.731  1.00  0.00    -0.474 OA
BRANCH  79  80
ATOM     80  C   UNL     1       1.037   5.715  -4.793  1.00  0.00     0.262 C 
BRANCH  80  81
ATOM     81  C   UNL     1       2.374   6.363  -4.406  1.00  0.00     0.055 C 
BRANCH  81  82
ATOM     82  C   UNL     1       2.554   7.780  -4.950  1.00  0.00     0.006 C 
BRANCH  82  83
ATOM     83  C   UNL     1       2.767   7.855  -6.455  1.00  0.00     0.021 CG0
ATOM     84  G   UNL     1       1.616   7.327  -7.295  1.00  0.00     0.000 G0
ENDBRANCH  82  83
ENDBRANCH  81  82
ENDBRANCH  80  81
BRANCH  80  85
ATOM     85  C   UNL     1       0.985   5.129  -6.223  1.00  0.00     0.261 C 
ATOM     86  N   UNL     1       1.431   5.893  -7.263  1.00  0.00    -0.353 N 
ATOM     87  O   UNL     1       0.511   4.019  -6.475  1.00  0.00    -0.271 OA
ATOM     88  H   UNL     1       1.653   5.409  -8.091  1.00  0.00     0.163 HD
BRANCH  86  89
ATOM     89  C   UNL     1       1.616   7.327  -7.295  1.00  0.00     0.116 CG0
ATOM     90  G   UNL     1       2.767   7.855  -6.455  1.00  0.00     0.000 G0
ENDBRANCH  86  89
ENDBRANCH  80  85
ENDBRANCH  79  80
ENDBRANCH  77  79
ENDBRANCH  69  71
ENDBRANCH  68  69
ENDBRANCH   1  68
TORSDOF 16
