REMARK SMILES COc1ccc(/C=C2/SC(=S)N(NC(=O)c3ccc(C(C)(C)C)cc3)C2=O)c(C(=O)OCCOC(=O)c2ccc(-c3c4nc(c(-c5ccc(S(=O)(=O)[O-])cc5)c5ccc([nH]5)c(-c5ccc(S(=O)(=O)[O-])cc5)c5nc(c(-c6ccc(S(=O)(=O)[O-])cc6)c6ccc3[nH]6)C=C5)C=C4)cc2)c1OC
REMARK SMILES IDX 32 1 31 2 29 3 30 4 28 5 3 6 4 7 97 8 5 9 6 10 2 11 1 12
REMARK SMILES IDX 98 13 99 14 7 15 8 16 9 17 26 18 10 19 12 20 27 21 11 22
REMARK SMILES IDX 13 23 14 24 15 26 16 27 17 28 25 29 18 30 24 31 19 32 20 33
REMARK SMILES IDX 21 34 22 35 23 36 33 37 34 38 35 39 36 40 37 41 38 42 96 43
REMARK SMILES IDX 39 44 95 45 40 46 41 47 42 48 89 49 43 50 94 51 88 52 90 53
REMARK SMILES IDX 44 54 93 55 87 56 86 57 45 59 75 60 56 61 74 62 57 63 60 64
REMARK SMILES IDX 73 65 91 66 58 67 59 68 72 70 92 71 61 72 46 73 47 74 55 75
REMARK SMILES IDX 48 76 54 77 49 78 50 79 51 80 52 81 53 82 76 83 77 84 85 85
REMARK SMILES IDX 78 86 84 87 79 88 80 89 81 90 82 91 83 92 62 93 63 94 71 95
REMARK SMILES IDX 64 96 70 97 65 98 66 99 67 100 68 101 69 102
REMARK H PARENT 13 25 90 58 60 69
REMARK Flexibility Score: inf
ROOT
ATOM      1  C   UNL     1       6.200  -1.164   3.052  1.00  0.00     0.275 C 
ENDROOT
BRANCH   1   2
ATOM      2  O   UNL     1       4.827  -0.685   2.995  1.00  0.00    -0.458 OA
BRANCH   2   3
ATOM      3  C   UNL     1       3.930  -1.199   3.891  1.00  0.00     0.342 C 
ATOM      4  O   UNL     1       4.165  -2.045   4.739  1.00  0.00    -0.246 OA
BRANCH   3   5
ATOM      5  C   UNL     1       2.586  -0.599   3.706  1.00  0.00     0.113 A 
ATOM      6  C   UNL     1       0.543  -0.871   2.405  1.00  0.00     0.161 A 
ATOM      7  C   UNL     1      -0.149  -0.179   3.403  1.00  0.00     0.051 A 
ATOM      8  C   UNL     1       1.920  -1.067   2.538  1.00  0.00     0.175 A 
ATOM      9  C   UNL     1       0.511   0.330   4.543  1.00  0.00     0.013 A 
ATOM     10  C   UNL     1       1.888   0.131   4.744  1.00  0.00    -0.006 A 
BRANCH   6  11
ATOM     11  O   UNL     1      -0.207  -1.540   1.471  1.00  0.00    -0.493 OA
ATOM     12  C   UNL     1      -0.115  -1.016   0.151  1.00  0.00     0.278 C 
ENDBRANCH   6  11
BRANCH   8  13
ATOM     13  O   UNL     1       2.541  -1.938   1.664  1.00  0.00    -0.492 OA
ATOM     14  C   UNL     1       3.246  -1.280   0.610  1.00  0.00     0.278 C 
ENDBRANCH   8  13
BRANCH  10  15
ATOM     15  C   UNL     1       2.383   0.271   6.182  1.00  0.00     0.030 C 
ATOM     16  C   UNL     1       3.044   1.226   6.993  1.00  0.00     0.082 C 
ATOM     17  S   UNL     1       4.548   1.257   9.000  1.00  0.00    -0.052 SA
ATOM     18  C   UNL     1       3.167   3.004   6.188  1.00  0.00     0.285 C 
ATOM     19  C   UNL     1       5.159   3.424   8.510  1.00  0.00     0.168 C 
ATOM     20  N   UNL     1       4.325   3.991   7.062  1.00  0.00    -0.198 N 
ATOM     21  O   UNL     1       2.331   3.337   5.365  1.00  0.00    -0.266 OA
ATOM     22  S   UNL     1       6.408   4.141   9.361  1.00  0.00    -0.050 S 
BRANCH  20  23
ATOM     23  N   UNL     1       4.918   5.151   6.429  1.00  0.00    -0.255 N 
ATOM     24  C   UNL     1       5.282   5.167   5.085  1.00  0.00     0.270 C 
ATOM     25  H   UNL     1       5.071   5.959   6.970  1.00  0.00     0.192 HD
ATOM     26  O   UNL     1       6.451   5.391   4.771  1.00  0.00    -0.267 OA
BRANCH  24  27
ATOM     27  C   UNL     1       4.276   4.985   4.010  1.00  0.00     0.041 A 
ATOM     28  C   UNL     1       4.621   4.231   2.888  1.00  0.00     0.014 A 
ATOM     29  C   UNL     1       2.989   5.517   4.100  1.00  0.00     0.014 A 
ATOM     30  C   UNL     1       3.635   3.845   1.972  1.00  0.00     0.005 A 
ATOM     31  C   UNL     1       1.994   5.097   3.196  1.00  0.00     0.005 A 
ATOM     32  C   UNL     1       2.280   4.175   2.172  1.00  0.00    -0.043 A 
BRANCH  32  33
ATOM     33  C   UNL     1       1.156   3.450   1.405  1.00  0.00    -0.013 C 
ATOM     34  C   UNL     1       0.682   4.259   0.193  1.00  0.00     0.016 C 
ATOM     35  C   UNL     1       1.638   2.086   0.880  1.00  0.00     0.016 C 
ATOM     36  C   UNL     1      -0.071   3.157   2.306  1.00  0.00     0.016 C 
ENDBRANCH  32  33
ENDBRANCH  24  27
ENDBRANCH  20  23
ENDBRANCH  10  15
ENDBRANCH   3   5
ENDBRANCH   2   3
ENDBRANCH   1   2
BRANCH   1  37
ATOM     37  C   UNL     1       7.119  -0.379   4.005  1.00  0.00     0.275 C 
BRANCH  37  38
ATOM     38  O   UNL     1       6.702  -0.571   5.366  1.00  0.00    -0.458 OA
BRANCH  38  39
ATOM     39  C   UNL     1       5.656   0.230   5.579  1.00  0.00     0.338 C 
ATOM     40  O   UNL     1       5.233   1.067   4.777  1.00  0.00    -0.246 OA
BRANCH  39  41
ATOM     41  C   UNL     1       5.040   0.281   6.883  1.00  0.00     0.060 A 
ATOM     42  C   UNL     1       3.989  -0.792   7.718  1.00  0.00     0.016 A 
ATOM     43  C   UNL     1       4.744   1.982   7.078  1.00  0.00     0.016 A 
ATOM     44  C   UNL     1       2.602  -0.218   8.688  1.00  0.00     0.010 A 
ATOM     45  C   UNL     1       3.200   2.635   8.235  1.00  0.00     0.010 A 
ATOM     46  C   UNL     1       2.169   1.461   9.039  1.00  0.00    -0.014 A 
BRANCH  46  47
ATOM     47  C   UNL     1       1.351   1.849  10.304  1.00  0.00     0.031 A 
ATOM     48  C   UNL     1       0.857   3.262  10.697  1.00  0.00     0.074 A 
ATOM     49  C   UNL     1       1.189   0.912  11.272  1.00  0.00     0.049 A 
ATOM     50  N   UNL     1       0.356   3.660  11.854  1.00  0.00    -0.248 NA
ATOM     51  C   UNL     1       1.035   4.385   9.767  1.00  0.00     0.031 C 
ATOM     52  C   UNL     1       1.863  -0.377  11.313  1.00  0.00     0.029 A 
ATOM     53  N   UNL     1       0.386   0.843  12.388  1.00  0.00    -0.354 N 
ATOM     54  C   UNL     1       0.287   5.058  11.819  1.00  0.00     0.074 A 
ATOM     55  C   UNL     1       0.846   5.447  10.545  1.00  0.00     0.031 C 
ATOM     56  C   UNL     1       1.213  -1.220  12.109  1.00  0.00     0.029 A 
ATOM     57  C   UNL     1       0.302  -0.434  12.914  1.00  0.00     0.049 A 
ATOM     58  H   UNL     1      -0.081   1.620  12.772  1.00  0.00     0.167 HD
ATOM     59  C   UNL     1      -0.227   5.934  12.730  1.00  0.00     0.031 A 
ATOM     60  C   UNL     1      -0.339  -0.947  13.980  1.00  0.00     0.031 A 
ATOM     61  C   UNL     1      -0.914   5.526  13.937  1.00  0.00     0.049 A 
ATOM     62  C   UNL     1      -1.034   0.005  14.888  1.00  0.00     0.074 A 
ATOM     63  C   UNL     1      -1.603   6.314  14.848  1.00  0.00     0.029 A 
ATOM     64  N   UNL     1      -1.031   4.217  14.386  1.00  0.00    -0.354 N 
ATOM     65  N   UNL     1      -1.114   1.309  14.786  1.00  0.00    -0.248 NA
ATOM     66  C   UNL     1      -1.678  -0.564  16.073  1.00  0.00     0.031 C 
ATOM     67  C   UNL     1      -2.088   5.490  15.869  1.00  0.00     0.029 A 
ATOM     68  C   UNL     1      -1.770   4.179  15.559  1.00  0.00     0.049 A 
ATOM     69  H   UNL     1      -0.645   3.431  13.937  1.00  0.00     0.167 HD
ATOM     70  C   UNL     1      -1.819   1.722  15.902  1.00  0.00     0.074 A 
ATOM     71  C   UNL     1      -2.179   0.525  16.638  1.00  0.00     0.031 C 
ATOM     72  C   UNL     1      -2.121   2.985  16.285  1.00  0.00     0.031 A 
BRANCH  59  73
ATOM     73  C   UNL     1      -0.128   7.436  12.467  1.00  0.00    -0.014 A 
ATOM     74  C   UNL     1      -0.783   8.046  11.381  1.00  0.00     0.010 A 
ATOM     75  C   UNL     1       0.545   8.274  13.385  1.00  0.00     0.010 A 
ATOM     76  C   UNL     1      -0.718   9.433  11.183  1.00  0.00     0.020 A 
ATOM     77  C   UNL     1       0.580   9.667  13.215  1.00  0.00     0.020 A 
ATOM     78  C   UNL     1      -0.035  10.236  12.101  1.00  0.00     0.054 A 
BRANCH  78  79
ATOM     79  S   UNL     1       0.007  12.032  11.825  1.00  0.00     0.124 S 
ATOM     80  O   UNL     1       0.868  12.136  10.648  1.00  0.00    -0.237 OA
ATOM     81  O   UNL     1      -1.400  12.354  11.600  1.00  0.00    -0.237 OA
ATOM     82  O   UNL     1       0.576  12.564  13.060  1.00  0.00    -0.744 OA
ENDBRANCH  78  79
ENDBRANCH  59  73
BRANCH  60  83
ATOM     83  C   UNL     1      -0.285  -2.414  14.256  1.00  0.00    -0.014 A 
ATOM     84  C   UNL     1      -1.445  -3.198  14.132  1.00  0.00     0.010 A 
ATOM     85  C   UNL     1       0.936  -3.053  14.550  1.00  0.00     0.010 A 
ATOM     86  C   UNL     1      -1.383  -4.587  14.286  1.00  0.00     0.020 A 
ATOM     87  C   UNL     1       1.014  -4.444  14.644  1.00  0.00     0.020 A 
ATOM     88  C   UNL     1      -0.151  -5.202  14.526  1.00  0.00     0.054 A 
BRANCH  88  89
ATOM     89  S   UNL     1      -0.081  -7.010  14.643  1.00  0.00     0.124 S 
ATOM     90  O   UNL     1      -0.709  -7.252  15.938  1.00  0.00    -0.237 OA
ATOM     91  O   UNL     1      -0.851  -7.433  13.476  1.00  0.00    -0.237 OA
ATOM     92  O   UNL     1       1.349  -7.303  14.576  1.00  0.00    -0.744 OA
ENDBRANCH  88  89
ENDBRANCH  60  83
BRANCH  72  93
ATOM     93  C   UNL     1      -2.937   3.119  17.537  1.00  0.00    -0.014 A 
ATOM     94  C   UNL     1      -2.392   2.828  18.801  1.00  0.00     0.010 A 
ATOM     95  C   UNL     1      -4.276   3.536  17.439  1.00  0.00     0.010 A 
ATOM     96  C   UNL     1      -3.190   2.906  19.942  1.00  0.00     0.020 A 
ATOM     97  C   UNL     1      -5.065   3.652  18.583  1.00  0.00     0.020 A 
ATOM     98  C   UNL     1      -4.522   3.319  19.825  1.00  0.00     0.054 A 
BRANCH  98  99
ATOM     99  S   UNL     1      -5.527   3.441  21.326  1.00  0.00     0.124 S 
ATOM    100  O   UNL     1      -5.718   2.037  21.679  1.00  0.00    -0.237 OA
ATOM    101  O   UNL     1      -4.665   4.205  22.224  1.00  0.00    -0.237 OA
ATOM    102  O   UNL     1      -6.731   4.140  20.881  1.00  0.00    -0.744 OA
ENDBRANCH  98  99
ENDBRANCH  72  93
ENDBRANCH  46  47
ENDBRANCH  39  41
ENDBRANCH  38  39
ENDBRANCH  37  38
ENDBRANCH   1  37
TORSDOF 20
