REMARK SMILES Cc1ccc(C(=O)[C@@H](C)[C@H](C)C(=O)OCCOC(=O)c2ccc(-c3c4nc(c(-c5ccc(S(=O)(=O)[O-])cc5)c5ccc([nH]5)c(-c5ccc(S(=O)(=O)[O-])cc5)c5nc(c(-c6ccc(S(=O)(=O)[O-])cc6)c6ccc3[nH]6)C=C5)C=C4)cc2)cc1
REMARK SMILES IDX 15 1 14 2 12 3 13 4 10 5 11 6 8 7 9 8 6 9 7 10 5 11 1 12
REMARK SMILES IDX 2 13 3 14 81 15 4 16 80 17 16 18 17 19 18 20 19 21 20 22
REMARK SMILES IDX 21 23 79 24 22 25 78 26 23 27 24 28 25 29 72 30 26 31 77 32
REMARK SMILES IDX 71 33 73 34 27 35 76 36 70 37 69 38 28 40 58 41 39 42 57 43
REMARK SMILES IDX 40 44 43 45 56 46 74 47 41 48 42 49 55 51 75 52 44 53 29 54
REMARK SMILES IDX 30 55 38 56 31 57 37 58 32 59 33 60 34 61 35 62 36 63 59 64
REMARK SMILES IDX 60 65 68 66 61 67 67 68 62 69 63 70 64 71 65 72 66 73 45 74
REMARK SMILES IDX 46 75 54 76 47 77 53 78 48 79 49 80 50 81 51 82 52 83
REMARK H PARENT 73 39 43 50
REMARK Flexibility Score: inf
ROOT
ATOM      1  C   UNL     1      -6.139   5.932  -0.121  1.00  0.00     0.274 C 
ENDROOT
BRANCH   1   2
ATOM      2  O   UNL     1      -4.894   5.303  -0.354  1.00  0.00    -0.462 OA
BRANCH   2   3
ATOM      3  C   UNL     1      -4.678   4.432  -1.429  1.00  0.00     0.309 C 
ATOM      4  O   UNL     1      -4.449   5.300  -2.296  1.00  0.00    -0.252 OA
BRANCH   3   5
ATOM      5  C   UNL     1      -4.430   2.246  -1.376  1.00  0.00     0.106 C 
ATOM      6  C   UNL     1      -4.484   1.134   0.009  1.00  0.00     0.021 C 
BRANCH   5   7
ATOM      7  C   UNL     1      -4.638   0.851  -2.562  1.00  0.00     0.072 C 
ATOM      8  C   UNL     1      -4.197   0.852  -4.052  1.00  0.00     0.017 C 
BRANCH   7   9
ATOM      9  C   UNL     1      -5.531  -0.446  -2.347  1.00  0.00     0.166 C 
ATOM     10  O   UNL     1      -5.152  -1.531  -2.810  1.00  0.00    -0.294 OA
BRANCH   9  11
ATOM     11  C   UNL     1      -6.779  -0.517  -1.546  1.00  0.00     0.018 A 
ATOM     12  C   UNL     1     -10.178  -0.494   1.106  1.00  0.00     0.044 C 
ATOM     13  C   UNL     1      -9.021  -0.537   0.158  1.00  0.00    -0.051 A 
ATOM     14  C   UNL     1      -8.304  -1.715  -0.085  1.00  0.00     0.004 A 
ATOM     15  C   UNL     1      -8.680   0.608  -0.548  1.00  0.00     0.004 A 
ATOM     16  C   UNL     1      -7.177  -1.703  -0.921  1.00  0.00     0.012 A 
ATOM     17  C   UNL     1      -7.605   0.574  -1.423  1.00  0.00     0.012 A 
ENDBRANCH   9  11
ENDBRANCH   7   9
ENDBRANCH   5   7
ENDBRANCH   3   5
ENDBRANCH   2   3
ENDBRANCH   1   2
BRANCH   1  18
ATOM     18  C   UNL     1      -6.227   5.835   1.397  1.00  0.00     0.275 C 
BRANCH  18  19
ATOM     19  O   UNL     1      -5.610   4.649   2.069  1.00  0.00    -0.458 OA
BRANCH  19  20
ATOM     20  C   UNL     1      -4.401   4.032   1.780  1.00  0.00     0.338 C 
ATOM     21  O   UNL     1      -3.621   3.668   2.647  1.00  0.00    -0.246 OA
BRANCH  20  22
ATOM     22  C   UNL     1      -4.321   3.466   0.395  1.00  0.00     0.060 A 
ATOM     23  C   UNL     1      -2.925   3.643  -0.753  1.00  0.00     0.016 A 
ATOM     24  C   UNL     1      -5.972   3.202  -0.281  1.00  0.00     0.016 A 
ATOM     25  C   UNL     1      -3.221   3.520  -2.567  1.00  0.00     0.010 A 
ATOM     26  C   UNL     1      -6.248   3.219  -2.016  1.00  0.00     0.010 A 
ATOM     27  C   UNL     1      -4.929   3.354  -3.192  1.00  0.00    -0.014 A 
BRANCH  27  28
ATOM     28  C   UNL     1      -5.532   3.843  -4.481  1.00  0.00     0.031 A 
ATOM     29  C   UNL     1      -6.331   2.911  -5.306  1.00  0.00     0.074 A 
ATOM     30  C   UNL     1      -5.583   5.146  -4.853  1.00  0.00     0.049 A 
ATOM     31  N   UNL     1      -6.056   2.618  -6.536  1.00  0.00    -0.248 NA
ATOM     32  C   UNL     1      -7.472   2.161  -4.775  1.00  0.00     0.031 C 
ATOM     33  C   UNL     1      -6.328   5.764  -5.946  1.00  0.00     0.029 A 
ATOM     34  N   UNL     1      -4.843   6.212  -4.372  1.00  0.00    -0.354 N 
ATOM     35  C   UNL     1      -7.115   1.849  -6.975  1.00  0.00     0.074 A 
ATOM     36  C   UNL     1      -7.806   1.381  -5.802  1.00  0.00     0.031 C 
ATOM     37  C   UNL     1      -5.752   6.949  -6.236  1.00  0.00     0.029 A 
ATOM     38  C   UNL     1      -4.564   7.083  -5.402  1.00  0.00     0.049 A 
ATOM     39  H   UNL     1      -4.560   6.330  -3.437  1.00  0.00     0.167 HD
ATOM     40  C   UNL     1      -7.640   1.972  -8.223  1.00  0.00     0.031 A 
ATOM     41  C   UNL     1      -3.276   7.320  -5.788  1.00  0.00     0.031 A 
ATOM     42  C   UNL     1      -7.152   3.181  -8.867  1.00  0.00     0.049 A 
ATOM     43  C   UNL     1      -3.045   6.788  -7.188  1.00  0.00     0.074 A 
ATOM     44  C   UNL     1      -7.717   4.438  -9.015  1.00  0.00     0.029 A 
ATOM     45  N   UNL     1      -5.803   3.333  -9.124  1.00  0.00    -0.354 N 
ATOM     46  N   UNL     1      -3.909   6.054  -7.833  1.00  0.00    -0.248 NA
ATOM     47  C   UNL     1      -1.821   6.986  -7.957  1.00  0.00     0.031 C 
ATOM     48  C   UNL     1      -6.695   5.341  -9.403  1.00  0.00     0.029 A 
ATOM     49  C   UNL     1      -5.516   4.629  -9.506  1.00  0.00     0.049 A 
ATOM     50  H   UNL     1      -5.135   2.613  -9.046  1.00  0.00     0.167 HD
ATOM     51  C   UNL     1      -3.420   5.702  -9.059  1.00  0.00     0.074 A 
ATOM     52  C   UNL     1      -2.088   6.282  -9.075  1.00  0.00     0.031 C 
ATOM     53  C   UNL     1      -4.165   4.962  -9.934  1.00  0.00     0.031 A 
BRANCH  40  54
ATOM     54  C   UNL     1      -8.898   1.235  -8.614  1.00  0.00    -0.014 A 
ATOM     55  C   UNL     1      -9.857   1.849  -9.437  1.00  0.00     0.010 A 
ATOM     56  C   UNL     1      -9.173  -0.084  -8.186  1.00  0.00     0.010 A 
ATOM     57  C   UNL     1     -11.071   1.224  -9.743  1.00  0.00     0.020 A 
ATOM     58  C   UNL     1     -10.400  -0.709  -8.461  1.00  0.00     0.020 A 
ATOM     59  C   UNL     1     -11.345  -0.044  -9.237  1.00  0.00     0.054 A 
BRANCH  59  60
ATOM     60  S   UNL     1     -12.950  -0.799  -9.614  1.00  0.00     0.124 S 
ATOM     61  O   UNL     1     -13.892   0.222  -9.158  1.00  0.00    -0.237 OA
ATOM     62  O   UNL     1     -12.874  -0.984 -11.060  1.00  0.00    -0.237 OA
ATOM     63  O   UNL     1     -12.949  -2.029  -8.826  1.00  0.00    -0.744 OA
ENDBRANCH  59  60
ENDBRANCH  40  54
BRANCH  41  64
ATOM     64  C   UNL     1      -2.281   7.340  -4.660  1.00  0.00    -0.014 A 
ATOM     65  C   UNL     1      -2.446   8.338  -3.668  1.00  0.00     0.010 A 
ATOM     66  C   UNL     1      -1.453   6.245  -4.352  1.00  0.00     0.010 A 
ATOM     67  C   UNL     1      -1.933   8.179  -2.373  1.00  0.00     0.020 A 
ATOM     68  C   UNL     1      -0.915   6.094  -3.054  1.00  0.00     0.020 A 
ATOM     69  C   UNL     1      -1.209   7.032  -2.059  1.00  0.00     0.054 A 
BRANCH  69  70
ATOM     70  S   UNL     1      -0.780   6.738  -0.312  1.00  0.00     0.124 S 
ATOM     71  O   UNL     1       0.000   7.924   0.028  1.00  0.00    -0.237 OA
ATOM     72  O   UNL     1      -2.090   6.649   0.328  1.00  0.00    -0.237 OA
ATOM     73  O   UNL     1      -0.026   5.487  -0.352  1.00  0.00    -0.744 OA
ENDBRANCH  69  70
ENDBRANCH  41  64
BRANCH  53  74
ATOM     74  C   UNL     1      -3.736   4.468 -11.296  1.00  0.00    -0.014 A 
ATOM     75  C   UNL     1      -2.745   5.067 -12.079  1.00  0.00     0.010 A 
ATOM     76  C   UNL     1      -4.424   3.370 -11.878  1.00  0.00     0.010 A 
ATOM     77  C   UNL     1      -2.388   4.534 -13.326  1.00  0.00     0.020 A 
ATOM     78  C   UNL     1      -4.092   2.840 -13.122  1.00  0.00     0.020 A 
ATOM     79  C   UNL     1      -3.051   3.413 -13.830  1.00  0.00     0.054 A 
BRANCH  79  80
ATOM     80  S   UNL     1      -2.560   2.738 -15.430  1.00  0.00     0.124 S 
ATOM     81  O   UNL     1      -2.653   3.906 -16.303  1.00  0.00    -0.237 OA
ATOM     82  O   UNL     1      -1.206   2.264 -15.156  1.00  0.00    -0.237 OA
ATOM     83  O   UNL     1      -3.545   1.690 -15.689  1.00  0.00    -0.744 OA
ENDBRANCH  79  80
ENDBRANCH  53  74
ENDBRANCH  27  28
ENDBRANCH  20  22
ENDBRANCH  19  20
ENDBRANCH  18  19
ENDBRANCH   1  18
TORSDOF 17
