REMARK SMILES COc1cc(C(=O)CCC(=O)OCCOC(=O)c2ccc(-c3c4nc(c(-c5ccc(S(=O)(=O)[O-])cc5)c5ccc([nH]5)c(-c5ccc(S(=O)(=O)[O-])cc5)c5nc(c(-c6ccc(S(=O)(=O)[O-])cc6)c6ccc3[nH]6)C=C5)C=C4)cc2)cc(OC)c1OC
REMARK SMILES IDX 13 1 12 2 10 3 11 4 9 5 8 6 6 7 7 8 5 9 3 10 4 11 82 12
REMARK SMILES IDX 79 13 78 14 2 15 1 16 83 17 84 18 80 19 81 20 14 21 15 22
REMARK SMILES IDX 16 23 17 24 18 25 19 26 77 27 20 28 76 29 21 30 22 31 23 32
REMARK SMILES IDX 70 33 24 34 75 35 69 36 71 37 25 38 74 39 68 40 67 41 26 43
REMARK SMILES IDX 56 44 37 45 55 46 38 47 41 48 54 49 72 50 39 51 40 52 53 54
REMARK SMILES IDX 73 55 42 56 27 57 28 58 36 59 29 60 35 61 30 62 31 63 32 64
REMARK SMILES IDX 33 65 34 66 57 67 58 68 66 69 59 70 65 71 60 72 61 73 62 74
REMARK SMILES IDX 63 75 64 76 43 77 44 78 52 79 45 80 51 81 46 82 47 83 48 84
REMARK SMILES IDX 49 85 50 86
REMARK H PARENT 71 42 41 53
REMARK Flexibility Score: inf
ROOT
ATOM      1  C   UNL     1       2.147  -1.392   5.491  1.00  0.00     0.274 C 
ENDROOT
BRANCH   1   2
ATOM      2  O   UNL     1       1.163  -0.355   5.661  1.00  0.00    -0.462 OA
BRANCH   2   3
ATOM      3  C   UNL     1       0.649  -0.213   6.908  1.00  0.00     0.306 C 
ATOM      4  O   UNL     1       0.932  -0.916   7.869  1.00  0.00    -0.252 OA
BRANCH   3   5
ATOM      5  C   UNL     1      -0.381   0.889   6.972  1.00  0.00     0.131 C 
BRANCH   5   6
ATOM      6  C   UNL     1       0.046   2.180   6.277  1.00  0.00     0.093 C 
BRANCH   6   7
ATOM      7  C   UNL     1      -0.536   2.253   4.877  1.00  0.00     0.163 C 
ATOM      8  O   UNL     1      -1.724   2.516   4.697  1.00  0.00    -0.294 OA
BRANCH   7   9
ATOM      9  C   UNL     1       0.302   1.852   3.714  1.00  0.00     0.025 A 
ATOM     10  C   UNL     1       0.448   0.500   1.697  1.00  0.00     0.165 A 
ATOM     11  C   UNL     1      -0.307   1.083   2.723  1.00  0.00     0.062 A 
ATOM     12  C   UNL     1       1.839   0.706   1.653  1.00  0.00     0.203 A 
ATOM     13  C   UNL     1       2.438   1.558   2.602  1.00  0.00     0.165 A 
ATOM     14  C   UNL     1       1.661   2.142   3.616  1.00  0.00     0.062 A 
BRANCH  10  15
ATOM     15  O   UNL     1      -0.325  -0.274   0.871  1.00  0.00    -0.493 OA
ATOM     16  C   UNL     1       0.167  -0.569  -0.424  1.00  0.00     0.278 C 
ENDBRANCH  10  15
BRANCH  12  17
ATOM     17  O   UNL     1       2.603  -0.051   0.802  1.00  0.00    -0.490 OA
ATOM     18  C   UNL     1       3.176   0.691  -0.270  1.00  0.00     0.278 C 
ENDBRANCH  12  17
BRANCH  13  19
ATOM     19  O   UNL     1       3.748   1.958   2.592  1.00  0.00    -0.493 OA
ATOM     20  C   UNL     1       4.732   0.930   2.581  1.00  0.00     0.278 C 
ENDBRANCH  13  19
ENDBRANCH   7   9
ENDBRANCH   6   7
ENDBRANCH   5   6
ENDBRANCH   3   5
ENDBRANCH   2   3
ENDBRANCH   1   2
BRANCH   1  21
ATOM     21  C   UNL     1       3.563  -0.834   5.599  1.00  0.00     0.275 C 
BRANCH  21  22
ATOM     22  O   UNL     1       3.829  -0.316   6.910  1.00  0.00    -0.458 OA
BRANCH  22  23
ATOM     23  C   UNL     1       3.826   1.029   7.013  1.00  0.00     0.338 C 
ATOM     24  O   UNL     1       3.631   1.855   6.129  1.00  0.00    -0.246 OA
BRANCH  23  25
ATOM     25  C   UNL     1       4.111   1.407   8.392  1.00  0.00     0.060 A 
ATOM     26  C   UNL     1       3.066   1.498   9.314  1.00  0.00     0.016 A 
ATOM     27  C   UNL     1       5.422   1.731   8.742  1.00  0.00     0.016 A 
ATOM     28  C   UNL     1       3.340   1.915  10.612  1.00  0.00     0.010 A 
ATOM     29  C   UNL     1       5.698   2.115  10.051  1.00  0.00     0.010 A 
ATOM     30  C   UNL     1       4.659   2.209  10.991  1.00  0.00    -0.014 A 
BRANCH  30  31
ATOM     31  C   UNL     1       4.972   2.560  12.392  1.00  0.00     0.031 A 
ATOM     32  C   UNL     1       5.365   3.962  12.752  1.00  0.00     0.074 A 
ATOM     33  C   UNL     1       4.946   1.580  13.315  1.00  0.00     0.049 A 
ATOM     34  N   UNL     1       5.741   4.438  13.909  1.00  0.00    -0.248 NA
ATOM     35  C   UNL     1       5.348   4.957  11.667  1.00  0.00     0.031 C 
ATOM     36  C   UNL     1       4.591   0.182  13.050  1.00  0.00     0.029 A 
ATOM     37  N   UNL     1       5.233   1.602  14.653  1.00  0.00    -0.354 N 
ATOM     38  C   UNL     1       6.029   5.780  13.692  1.00  0.00     0.074 A 
ATOM     39  C   UNL     1       5.797   6.040  12.287  1.00  0.00     0.031 C 
ATOM     40  C   UNL     1       4.673  -0.516  14.193  1.00  0.00     0.029 A 
ATOM     41  C   UNL     1       5.123   0.372  15.257  1.00  0.00     0.049 A 
ATOM     42  H   UNL     1       5.492   2.420  15.137  1.00  0.00     0.167 HD
ATOM     43  C   UNL     1       6.452   6.704  14.587  1.00  0.00     0.031 A 
ATOM     44  C   UNL     1       5.375   0.002  16.526  1.00  0.00     0.031 A 
ATOM     45  C   UNL     1       6.679   6.418  15.980  1.00  0.00     0.049 A 
ATOM     46  C   UNL     1       5.833   1.051  17.499  1.00  0.00     0.074 A 
ATOM     47  C   UNL     1       7.075   7.282  16.986  1.00  0.00     0.029 A 
ATOM     48  N   UNL     1       6.532   5.167  16.563  1.00  0.00    -0.354 N 
ATOM     49  N   UNL     1       6.060   2.326  17.286  1.00  0.00    -0.248 NA
ATOM     50  C   UNL     1       6.059   0.617  18.882  1.00  0.00     0.031 C 
ATOM     51  C   UNL     1       7.207   6.544  18.168  1.00  0.00     0.029 A 
ATOM     52  C   UNL     1       6.846   5.231  17.910  1.00  0.00     0.049 A 
ATOM     53  H   UNL     1       6.247   4.353  16.088  1.00  0.00     0.167 HD
ATOM     54  C   UNL     1       6.435   2.853  18.514  1.00  0.00     0.074 A 
ATOM     55  C   UNL     1       6.386   1.761  19.468  1.00  0.00     0.031 C 
ATOM     56  C   UNL     1       6.790   4.123  18.830  1.00  0.00     0.031 A 
BRANCH  43  57
ATOM     57  C   UNL     1       6.727   8.096  14.082  1.00  0.00    -0.014 A 
ATOM     58  C   UNL     1       5.681   8.961  13.714  1.00  0.00     0.010 A 
ATOM     59  C   UNL     1       8.053   8.562  14.012  1.00  0.00     0.010 A 
ATOM     60  C   UNL     1       5.958  10.252  13.252  1.00  0.00     0.020 A 
ATOM     61  C   UNL     1       8.333   9.859  13.572  1.00  0.00     0.020 A 
ATOM     62  C   UNL     1       7.283  10.691  13.179  1.00  0.00     0.054 A 
BRANCH  62  63
ATOM     63  S   UNL     1       7.615  12.377  12.595  1.00  0.00     0.124 S 
ATOM     64  O   UNL     1       7.381  12.250  11.159  1.00  0.00    -0.237 OA
ATOM     65  O   UNL     1       6.628  13.171  13.324  1.00  0.00    -0.237 OA
ATOM     66  O   UNL     1       9.004  12.611  12.982  1.00  0.00    -0.744 OA
ENDBRANCH  62  63
ENDBRANCH  43  57
BRANCH  44  67
ATOM     67  C   UNL     1       5.198  -1.416  16.938  1.00  0.00    -0.014 A 
ATOM     68  C   UNL     1       4.139  -1.790  17.784  1.00  0.00     0.010 A 
ATOM     69  C   UNL     1       6.077  -2.408  16.464  1.00  0.00     0.010 A 
ATOM     70  C   UNL     1       3.976  -3.124  18.167  1.00  0.00     0.020 A 
ATOM     71  C   UNL     1       5.901  -3.747  16.824  1.00  0.00     0.020 A 
ATOM     72  C   UNL     1       4.859  -4.095  17.686  1.00  0.00     0.054 A 
BRANCH  72  73
ATOM     73  S   UNL     1       4.605  -5.828  18.160  1.00  0.00     0.124 S 
ATOM     74  O   UNL     1       5.123  -5.847  19.524  1.00  0.00    -0.237 OA
ATOM     75  O   UNL     1       3.159  -5.986  18.030  1.00  0.00    -0.237 OA
ATOM     76  O   UNL     1       5.395  -6.569  17.179  1.00  0.00    -0.744 OA
ENDBRANCH  72  73
ENDBRANCH  44  67
BRANCH  56  77
ATOM     77  C   UNL     1       7.118   4.394  20.271  1.00  0.00    -0.014 A 
ATOM     78  C   UNL     1       8.325   3.947  20.837  1.00  0.00     0.010 A 
ATOM     79  C   UNL     1       6.213   5.125  21.061  1.00  0.00     0.010 A 
ATOM     80  C   UNL     1       8.602   4.191  22.184  1.00  0.00     0.020 A 
ATOM     81  C   UNL     1       6.498   5.392  22.401  1.00  0.00     0.020 A 
ATOM     82  C   UNL     1       7.683   4.907  22.959  1.00  0.00     0.054 A 
BRANCH  82  83
ATOM     83  S   UNL     1       8.071   5.231  24.700  1.00  0.00     0.124 S 
ATOM     84  O   UNL     1       7.771   3.945  25.321  1.00  0.00    -0.237 OA
ATOM     85  O   UNL     1       9.486   5.593  24.654  1.00  0.00    -0.237 OA
ATOM     86  O   UNL     1       7.168   6.323  25.056  1.00  0.00    -0.744 OA
ENDBRANCH  82  83
ENDBRANCH  56  77
ENDBRANCH  30  31
ENDBRANCH  23  25
ENDBRANCH  22  23
ENDBRANCH  21  22
ENDBRANCH   1  21
TORSDOF 20
