REMARK SMILES CC1(C)Oc2ccc(NC(=O)[C@H]3CC=CC[C@@H]3C(=O)OCCOC(=O)c3ccc(-c4c5nc(c(-c6ccc(S(=O)(=O)[O-])cc6)c6ccc([nH]6)c(-c6ccc(S(=O)(=O)[O-])cc6)c6nc(c(-c7ccc(S(=O)(=O)[O-])cc7)c7ccc4[nH]7)C=C6)C=C5)cc3)cc2NC1=O
REMARK SMILES IDX 22 1 21 2 20 3 18 4 19 5 17 6 12 7 13 8 14 9 16 10 15 11
REMARK SMILES IDX 10 12 9 13 11 15 8 16 1 17 2 18 3 19 4 20 89 21 5 22 88 23
REMARK SMILES IDX 90 24 6 25 87 26 7 28 86 29 23 30 24 31 25 32 26 33 27 34
REMARK SMILES IDX 85 35 28 36 84 37 29 38 30 39 31 40 78 41 32 42 83 43 77 44
REMARK SMILES IDX 79 45 33 46 82 47 76 48 75 49 34 51 64 52 45 53 63 54 46 55
REMARK SMILES IDX 49 56 62 57 80 58 47 59 48 60 61 62 81 63 50 64 35 65 36 66
REMARK SMILES IDX 44 67 37 68 43 69 38 70 39 71 40 72 41 73 42 74 65 75 66 76
REMARK SMILES IDX 74 77 67 78 73 79 68 80 69 81 70 82 71 83 72 84 51 85 52 86
REMARK SMILES IDX 60 87 53 88 59 89 54 90 55 91 56 92 57 93 58 94
REMARK H PARENT 9 14 88 27 79 50 49 61
REMARK Flexibility Score: inf
ROOT
ATOM      1  C   UNL     1       1.660  -6.858  -4.365  1.00  0.00     0.275 C 
ENDROOT
BRANCH   1   2
ATOM      2  C   UNL     1       0.215  -7.160  -4.763  1.00  0.00     0.274 C 
BRANCH   2   3
ATOM      3  O   UNL     1      -0.247  -6.072  -5.590  1.00  0.00    -0.462 OA
BRANCH   3   4
ATOM      4  C   UNL     1      -1.326  -5.358  -5.179  1.00  0.00     0.310 C 
ATOM      5  O   UNL     1      -2.062  -5.681  -4.254  1.00  0.00    -0.252 OA
BRANCH   4   6
ATOM      6  C   UNL     1      -1.544  -4.103  -6.030  1.00  0.00     0.116 C 
ATOM      7  C   UNL     1      -2.341  -4.412  -7.325  1.00  0.00     0.097 C 
ATOM      8  C   UNL     1      -1.393  -5.184  -8.284  1.00  0.00     0.041 C 
ATOM      9  C   UNL     1      -0.047  -4.520  -8.428  1.00  0.00    -0.030 C 
ATOM     10  C   UNL     1      -0.239  -3.332  -6.243  1.00  0.00     0.043 C 
ATOM     11  C   UNL     1       0.458  -3.673  -7.520  1.00  0.00    -0.030 C 
BRANCH   7  12
ATOM     12  C   UNL     1      -2.983  -3.241  -8.151  1.00  0.00     0.228 C 
ATOM     13  N   UNL     1      -3.657  -2.168  -7.641  1.00  0.00    -0.326 N 
ATOM     14  H   UNL     1      -3.875  -1.468  -8.298  1.00  0.00     0.169 HD
ATOM     15  O   UNL     1      -2.934  -3.252  -9.390  1.00  0.00    -0.274 OA
BRANCH  13  16
ATOM     16  C   UNL     1      -4.084  -1.905  -6.346  1.00  0.00     0.043 A 
ATOM     17  C   UNL     1      -2.228  -1.429  -0.930  1.00  0.00     0.067 C 
ATOM     18  C   UNL     1      -1.990  -0.860  -2.324  1.00  0.00     0.182 C 
ATOM     19  C   UNL     1      -0.551  -0.580  -2.827  1.00  0.00     0.067 C 
ATOM     20  O   UNL     1      -2.437  -1.988  -3.048  1.00  0.00    -0.476 OA
ATOM     21  C   UNL     1      -2.672   0.520  -2.558  1.00  0.00     0.268 C 
ATOM     22  C   UNL     1      -3.550  -1.726  -3.791  1.00  0.00     0.144 A 
ATOM     23  N   UNL     1      -3.203   0.635  -3.830  1.00  0.00    -0.319 N 
ATOM     24  O   UNL     1      -2.583   1.472  -1.791  1.00  0.00    -0.270 OA
ATOM     25  C   UNL     1      -4.222  -2.863  -4.183  1.00  0.00     0.051 A 
ATOM     26  C   UNL     1      -3.589  -0.530  -4.498  1.00  0.00     0.086 A 
ATOM     27  H   UNL     1      -3.307   1.518  -4.254  1.00  0.00     0.170 HD
ATOM     28  C   UNL     1      -4.496  -2.955  -5.523  1.00  0.00     0.030 A 
ATOM     29  C   UNL     1      -3.866  -0.611  -5.841  1.00  0.00     0.056 A 
ENDBRANCH  13  16
ENDBRANCH   7  12
ENDBRANCH   4   6
ENDBRANCH   3   4
ENDBRANCH   2   3
ENDBRANCH   1   2
BRANCH   1  30
ATOM     30  O   UNL     1       1.649  -5.768  -3.417  1.00  0.00    -0.458 OA
BRANCH  30  31
ATOM     31  C   UNL     1       2.790  -5.055  -3.283  1.00  0.00     0.338 C 
ATOM     32  O   UNL     1       3.837  -5.269  -3.905  1.00  0.00    -0.246 OA
BRANCH  31  33
ATOM     33  C   UNL     1       2.630  -3.966  -2.269  1.00  0.00     0.060 A 
ATOM     34  C   UNL     1       3.732  -3.206  -1.871  1.00  0.00     0.016 A 
ATOM     35  C   UNL     1       1.397  -3.656  -1.693  1.00  0.00     0.016 A 
ATOM     36  C   UNL     1       3.575  -2.103  -0.995  1.00  0.00     0.010 A 
ATOM     37  C   UNL     1       1.265  -2.569  -0.791  1.00  0.00     0.010 A 
ATOM     38  C   UNL     1       2.314  -1.686  -0.512  1.00  0.00    -0.014 A 
BRANCH  38  39
ATOM     39  C   UNL     1       2.123  -0.311   0.113  1.00  0.00     0.031 A 
ATOM     40  C   UNL     1       1.078   0.095   1.129  1.00  0.00     0.074 A 
ATOM     41  C   UNL     1       2.630   0.798  -0.469  1.00  0.00     0.049 A 
ATOM     42  N   UNL     1       1.140   0.440   2.388  1.00  0.00    -0.248 NA
ATOM     43  C   UNL     1      -0.252   0.312   0.581  1.00  0.00     0.031 C 
ATOM     44  C   UNL     1       3.373   0.866  -1.725  1.00  0.00     0.029 A 
ATOM     45  N   UNL     1       2.557   2.110  -0.053  1.00  0.00    -0.354 N 
ATOM     46  C   UNL     1      -0.191   0.570   2.813  1.00  0.00     0.074 A 
ATOM     47  C   UNL     1      -1.029   0.377   1.653  1.00  0.00     0.031 C 
ATOM     48  C   UNL     1       3.784   2.128  -1.921  1.00  0.00     0.029 A 
ATOM     49  C   UNL     1       3.323   2.957  -0.811  1.00  0.00     0.049 A 
ATOM     50  H   UNL     1       2.012   2.408   0.711  1.00  0.00     0.167 HD
ATOM     51  C   UNL     1      -0.754   1.215   3.865  1.00  0.00     0.031 A 
ATOM     52  C   UNL     1       3.680   4.236  -0.583  1.00  0.00     0.031 A 
ATOM     53  C   UNL     1      -0.239   2.469   4.343  1.00  0.00     0.049 A 
ATOM     54  C   UNL     1       3.225   4.922   0.675  1.00  0.00     0.074 A 
ATOM     55  C   UNL     1      -0.682   3.244   5.400  1.00  0.00     0.029 A 
ATOM     56  N   UNL     1       0.670   3.239   3.631  1.00  0.00    -0.354 N 
ATOM     57  N   UNL     1       2.381   4.501   1.589  1.00  0.00    -0.248 NA
ATOM     58  C   UNL     1       3.812   6.239   0.954  1.00  0.00     0.031 C 
ATOM     59  C   UNL     1      -0.141   4.527   5.245  1.00  0.00     0.029 A 
ATOM     60  C   UNL     1       0.739   4.508   4.173  1.00  0.00     0.049 A 
ATOM     61  H   UNL     1       1.189   2.928   2.855  1.00  0.00     0.167 HD
ATOM     62  C   UNL     1       2.337   5.503   2.556  1.00  0.00     0.074 A 
ATOM     63  C   UNL     1       3.260   6.535   2.125  1.00  0.00     0.031 C 
ATOM     64  C   UNL     1       1.610   5.558   3.701  1.00  0.00     0.031 A 
BRANCH  51  65
ATOM     65  C   UNL     1      -2.100   0.714   4.361  1.00  0.00    -0.014 A 
ATOM     66  C   UNL     1      -3.243   1.536   4.430  1.00  0.00     0.010 A 
ATOM     67  C   UNL     1      -2.180  -0.580   4.913  1.00  0.00     0.010 A 
ATOM     68  C   UNL     1      -4.409   1.100   5.078  1.00  0.00     0.020 A 
ATOM     69  C   UNL     1      -3.345  -1.025   5.553  1.00  0.00     0.020 A 
ATOM     70  C   UNL     1      -4.446  -0.173   5.653  1.00  0.00     0.054 A 
BRANCH  70  71
ATOM     71  S   UNL     1      -5.938  -0.702   6.548  1.00  0.00     0.124 S 
ATOM     72  O   UNL     1      -5.899   0.135   7.744  1.00  0.00    -0.237 OA
ATOM     73  O   UNL     1      -7.006  -0.396   5.598  1.00  0.00    -0.237 OA
ATOM     74  O   UNL     1      -5.715  -2.128   6.780  1.00  0.00    -0.744 OA
ENDBRANCH  70  71
ENDBRANCH  51  65
BRANCH  52  75
ATOM     75  C   UNL     1       4.702   4.822  -1.485  1.00  0.00    -0.014 A 
ATOM     76  C   UNL     1       4.371   5.242  -2.784  1.00  0.00     0.010 A 
ATOM     77  C   UNL     1       6.054   4.756  -1.100  1.00  0.00     0.010 A 
ATOM     78  C   UNL     1       5.383   5.515  -3.708  1.00  0.00     0.020 A 
ATOM     79  C   UNL     1       7.065   5.045  -2.016  1.00  0.00     0.020 A 
ATOM     80  C   UNL     1       6.722   5.384  -3.325  1.00  0.00     0.054 A 
BRANCH  80  81
ATOM     81  S   UNL     1       8.014   5.584  -4.582  1.00  0.00     0.124 S 
ATOM     82  O   UNL     1       7.857   4.360  -5.365  1.00  0.00    -0.237 OA
ATOM     83  O   UNL     1       7.615   6.817  -5.254  1.00  0.00    -0.237 OA
ATOM     84  O   UNL     1       9.244   5.671  -3.800  1.00  0.00    -0.744 OA
ENDBRANCH  80  81
ENDBRANCH  52  75
BRANCH  64  85
ATOM     85  C   UNL     1       1.730   6.781   4.577  1.00  0.00    -0.014 A 
ATOM     86  C   UNL     1       2.235   6.636   5.883  1.00  0.00     0.010 A 
ATOM     87  C   UNL     1       1.228   8.032   4.175  1.00  0.00     0.010 A 
ATOM     88  C   UNL     1       2.211   7.704   6.780  1.00  0.00     0.020 A 
ATOM     89  C   UNL     1       1.231   9.115   5.061  1.00  0.00     0.020 A 
ATOM     90  C   UNL     1       1.700   8.936   6.366  1.00  0.00     0.054 A 
BRANCH  90  91
ATOM     91  S   UNL     1       1.661  10.309   7.551  1.00  0.00     0.124 S 
ATOM     92  O   UNL     1       0.471  10.000   8.339  1.00  0.00    -0.237 OA
ATOM     93  O   UNL     1       2.934  10.167   8.254  1.00  0.00    -0.237 OA
ATOM     94  O   UNL     1       1.559  11.491   6.699  1.00  0.00    -0.744 OA
ENDBRANCH  90  91
ENDBRANCH  64  85
ENDBRANCH  38  39
ENDBRANCH  31  33
ENDBRANCH  30  31
ENDBRANCH   1  30
TORSDOF 16
