REMARK SMILES O=C(OCCOC(=O)[C@@H]1[C@@H](C(=O)Nc2cccc([N+](=O)[O-])c2)[C@@H]2C=C[C@H]1O2)c1ccc(-c2c3nc(c(-c4ccc(S(=O)(=O)[O-])cc4)c4ccc([nH]4)c(-c4ccc(S(=O)(=O)[O-])cc4)c4nc(c(-c5ccc(S(=O)(=O)[O-])cc5)c5ccc2[nH]5)C=C4)C=C3)cc1
REMARK SMILES IDX 4 1 3 2 2 3 1 4 28 5 29 6 87 7 30 8 86 9 31 10 32 11 33 12
REMARK SMILES IDX 80 13 34 14 85 15 79 16 81 17 35 18 84 19 78 20 77 21 36 23
REMARK SMILES IDX 66 24 47 25 65 26 48 27 51 28 64 29 82 30 49 31 50 32 63 34
REMARK SMILES IDX 83 35 52 36 37 37 38 38 46 39 39 40 45 41 40 42 41 43 42 44
REMARK SMILES IDX 43 45 44 46 67 47 68 48 76 49 69 50 75 51 70 52 71 53 72 54
REMARK SMILES IDX 73 55 74 56 53 57 54 58 62 59 55 60 61 61 56 62 57 63 58 64
REMARK SMILES IDX 59 65 60 66 5 67 6 68 7 69 8 70 9 71 10 72 26 73 23 74 25 75
REMARK SMILES IDX 27 76 24 77 11 78 12 79 13 80 14 82 15 83 22 84 16 85 18 86
REMARK SMILES IDX 17 87 19 88 20 89 21 90
REMARK H PARENT 81 22 51 33 13 81
REMARK Flexibility Score: inf
ROOT
ATOM      1  C   UNL     1       4.374   0.668   1.412  1.00  0.00     0.275 C 
ENDROOT
BRANCH   1   2
ATOM      2  O   UNL     1       3.146   1.069   0.712  1.00  0.00    -0.458 OA
BRANCH   2   3
ATOM      3  C   UNL     1       2.989   2.041  -0.258  1.00  0.00     0.338 C 
ATOM      4  O   UNL     1       2.146   2.922  -0.159  1.00  0.00    -0.246 OA
BRANCH   3   5
ATOM      5  C   UNL     1       3.509   1.656  -1.631  1.00  0.00     0.060 A 
ATOM      6  C   UNL     1       4.909   0.771  -1.506  1.00  0.00     0.016 A 
ATOM      7  C   UNL     1       2.305   1.427  -2.811  1.00  0.00     0.016 A 
ATOM      8  C   UNL     1       5.286  -0.555  -2.288  1.00  0.00     0.010 A 
ATOM      9  C   UNL     1       2.472  -0.013  -3.793  1.00  0.00     0.010 A 
ATOM     10  C   UNL     1       4.208  -1.131  -3.450  1.00  0.00    -0.014 A 
BRANCH  10  11
ATOM     11  C   UNL     1       5.463  -1.877  -4.551  1.00  0.00     0.031 A 
ATOM     12  C   UNL     1       6.296  -0.965  -5.550  1.00  0.00     0.074 A 
ATOM     13  C   UNL     1       5.852  -3.176  -4.679  1.00  0.00     0.049 A 
ATOM     14  N   UNL     1       6.668  -1.201  -6.793  1.00  0.00    -0.248 NA
ATOM     15  C   UNL     1       6.702   0.374  -5.090  1.00  0.00     0.031 C 
ATOM     16  C   UNL     1       5.748  -4.284  -3.739  1.00  0.00     0.029 A 
ATOM     17  N   UNL     1       6.229  -3.828  -5.848  1.00  0.00    -0.354 N 
ATOM     18  C   UNL     1       7.194   0.003  -7.288  1.00  0.00     0.074 A 
ATOM     19  C   UNL     1       7.065   0.966  -6.221  1.00  0.00     0.031 C 
ATOM     20  C   UNL     1       5.660  -5.442  -4.409  1.00  0.00     0.029 A 
ATOM     21  C   UNL     1       5.917  -5.178  -5.816  1.00  0.00     0.049 A 
ATOM     22  H   UNL     1       6.667  -3.383  -6.609  1.00  0.00     0.167 HD
ATOM     23  C   UNL     1       7.757   0.285  -8.497  1.00  0.00     0.031 A 
ATOM     24  C   UNL     1       5.847  -6.121  -6.779  1.00  0.00     0.031 A 
ATOM     25  C   UNL     1       8.090  -0.723  -9.476  1.00  0.00     0.049 A 
ATOM     26  C   UNL     1       6.427  -5.830  -8.130  1.00  0.00     0.074 A 
ATOM     27  C   UNL     1       8.808  -0.579 -10.654  1.00  0.00     0.029 A 
ATOM     28  N   UNL     1       7.778  -2.067  -9.366  1.00  0.00    -0.354 N 
ATOM     29  N   UNL     1       6.881  -4.694  -8.596  1.00  0.00    -0.248 NA
ATOM     30  C   UNL     1       6.607  -6.972  -9.039  1.00  0.00     0.031 C 
ATOM     31  C   UNL     1       8.877  -1.825 -11.284  1.00  0.00     0.029 A 
ATOM     32  C   UNL     1       8.261  -2.756 -10.466  1.00  0.00     0.049 A 
ATOM     33  H   UNL     1       7.286  -2.473  -8.617  1.00  0.00     0.167 HD
ATOM     34  C   UNL     1       7.473  -5.001  -9.815  1.00  0.00     0.074 A 
ATOM     35  C   UNL     1       7.313  -6.424 -10.018  1.00  0.00     0.031 C 
ATOM     36  C   UNL     1       8.117  -4.173 -10.671  1.00  0.00     0.031 A 
BRANCH  23  37
ATOM     37  C   UNL     1       8.086   1.728  -8.862  1.00  0.00    -0.014 A 
ATOM     38  C   UNL     1       9.048   2.486  -8.171  1.00  0.00     0.010 A 
ATOM     39  C   UNL     1       7.482   2.307 -10.001  1.00  0.00     0.010 A 
ATOM     40  C   UNL     1       9.349   3.798  -8.564  1.00  0.00     0.020 A 
ATOM     41  C   UNL     1       7.812   3.601 -10.427  1.00  0.00     0.020 A 
ATOM     42  C   UNL     1       8.729   4.348  -9.690  1.00  0.00     0.054 A 
BRANCH  42  43
ATOM     43  S   UNL     1       9.168   6.040 -10.186  1.00  0.00     0.124 S 
ATOM     44  O   UNL     1       8.565   6.834  -9.118  1.00  0.00    -0.237 OA
ATOM     45  O   UNL     1      10.628   6.002 -10.189  1.00  0.00    -0.237 OA
ATOM     46  O   UNL     1       8.548   6.192 -11.500  1.00  0.00    -0.744 OA
ENDBRANCH  42  43
ENDBRANCH  23  37
BRANCH  24  47
ATOM     47  C   UNL     1       5.310  -7.476  -6.458  1.00  0.00    -0.014 A 
ATOM     48  C   UNL     1       6.183  -8.561  -6.275  1.00  0.00     0.010 A 
ATOM     49  C   UNL     1       3.923  -7.685  -6.324  1.00  0.00     0.010 A 
ATOM     50  C   UNL     1       5.682  -9.835  -5.994  1.00  0.00     0.020 A 
ATOM     51  C   UNL     1       3.419  -8.957  -6.023  1.00  0.00     0.020 A 
ATOM     52  C   UNL     1       4.304 -10.026  -5.867  1.00  0.00     0.054 A 
BRANCH  52  53
ATOM     53  S   UNL     1       3.700 -11.688  -5.455  1.00  0.00     0.124 S 
ATOM     54  O   UNL     1       4.049 -12.446  -6.652  1.00  0.00    -0.237 OA
ATOM     55  O   UNL     1       4.473 -12.005  -4.256  1.00  0.00    -0.237 OA
ATOM     56  O   UNL     1       2.270 -11.491  -5.231  1.00  0.00    -0.744 OA
ENDBRANCH  52  53
ENDBRANCH  24  47
BRANCH  36  57
ATOM     57  C   UNL     1       8.736  -4.775 -11.903  1.00  0.00    -0.014 A 
ATOM     58  C   UNL     1       7.937  -5.266 -12.949  1.00  0.00     0.010 A 
ATOM     59  C   UNL     1      10.136  -4.777 -12.048  1.00  0.00     0.010 A 
ATOM     60  C   UNL     1       8.527  -5.761 -14.114  1.00  0.00     0.020 A 
ATOM     61  C   UNL     1      10.729  -5.241 -13.225  1.00  0.00     0.020 A 
ATOM     62  C   UNL     1       9.919  -5.736 -14.248  1.00  0.00     0.054 A 
BRANCH  62  63
ATOM     63  S   UNL     1      10.648  -6.305 -15.808  1.00  0.00     0.124 S 
ATOM     64  O   UNL     1      10.392  -7.742 -15.758  1.00  0.00    -0.237 OA
ATOM     65  O   UNL     1       9.880  -5.563 -16.805  1.00  0.00    -0.237 OA
ATOM     66  O   UNL     1      12.053  -5.919 -15.697  1.00  0.00    -0.744 OA
ENDBRANCH  62  63
ENDBRANCH  36  57
ENDBRANCH  10  11
ENDBRANCH   3   5
ENDBRANCH   2   3
ENDBRANCH   1   2
BRANCH   1  67
ATOM     67  C   UNL     1       4.716  -0.865   1.415  1.00  0.00     0.274 C 
BRANCH  67  68
ATOM     68  O   UNL     1       4.616  -1.554   0.145  1.00  0.00    -0.462 OA
BRANCH  68  69
ATOM     69  C   UNL     1       3.334  -1.790  -0.187  1.00  0.00     0.312 C 
ATOM     70  O   UNL     1       2.422  -1.546   0.608  1.00  0.00    -0.252 OA
BRANCH  69  71
ATOM     71  C   UNL     1       2.982  -2.032  -1.630  1.00  0.00     0.147 C 
ATOM     72  C   UNL     1       3.101  -3.041  -2.922  1.00  0.00     0.129 C 
ATOM     73  C   UNL     1       3.034  -0.512  -2.208  1.00  0.00     0.157 C 
ATOM     74  C   UNL     1       2.772  -2.063  -4.513  1.00  0.00     0.155 C 
ATOM     75  C   UNL     1       4.096   0.599  -3.824  1.00  0.00     0.004 C 
ATOM     76  O   UNL     1       1.767  -1.567  -3.172  1.00  0.00    -0.365 OA
ATOM     77  C   UNL     1       3.715  -0.390  -5.202  1.00  0.00     0.004 C 
BRANCH  72  78
ATOM     78  C   UNL     1       2.258  -4.324  -2.885  1.00  0.00     0.231 C 
ATOM     79  O   UNL     1       1.755  -4.753  -3.930  1.00  0.00    -0.274 OA
ATOM     80  N   UNL     1       2.304  -5.202  -1.818  1.00  0.00    -0.325 N 
ATOM     81  H   UNL     1       2.132  -6.132  -2.092  1.00  0.00     0.169 HD
BRANCH  80  82
ATOM     82  C   UNL     1       2.537  -5.088  -0.432  1.00  0.00     0.048 A 
ATOM     83  C   UNL     1       3.404  -6.012   0.167  1.00  0.00     0.026 A 
ATOM     84  C   UNL     1       1.825  -4.227   0.405  1.00  0.00     0.111 A 
ATOM     85  C   UNL     1       3.703  -5.953   1.537  1.00  0.00     0.009 A 
ATOM     86  C   UNL     1       2.146  -4.150   1.780  1.00  0.00     0.271 A 
ATOM     87  C   UNL     1       3.109  -4.989   2.344  1.00  0.00     0.086 A 
BRANCH  86  88
ATOM     88  N   UNL     1       1.515  -3.139   2.642  1.00  0.00     0.062 N 
ATOM     89  O   UNL     1       2.192  -2.695   3.587  1.00  0.00    -0.258 OA
ATOM     90  O   UNL     1       0.342  -2.823   2.401  1.00  0.00    -0.258 OA
ENDBRANCH  86  88
ENDBRANCH  80  82
ENDBRANCH  72  78
ENDBRANCH  69  71
ENDBRANCH  68  69
ENDBRANCH  67  68
ENDBRANCH   1  67
TORSDOF 17
