REMARK SMILES CS(=O)(=O)c1ccc(-c2cc(Cl)cnc2-c2ccc(C(=O)OCCOC(=O)c3ccc(-c4c5nc(c(-c6ccc(S(=O)(=O)[O-])cc6)c6ccc([nH]6)c(-c6ccc(S(=O)(=O)[O-])cc6)c6nc(c(-c7ccc(S(=O)(=O)[O-])cc7)c7ccc4[nH]7)C=C6)C=C5)cc3)nc2)cc1
REMARK SMILES IDX 23 1 22 2 20 3 21 4 19 5 16 6 17 7 89 8 18 9 88 10 15 11
REMARK SMILES IDX 9 12 10 13 11 14 14 15 12 16 13 17 8 18 5 19 6 20 91 21 7 22
REMARK SMILES IDX 90 23 2 24 1 25 3 26 4 27 24 28 25 29 26 30 27 31 28 32
REMARK SMILES IDX 29 33 87 34 30 35 86 36 31 37 32 38 33 39 80 40 34 41 85 42
REMARK SMILES IDX 79 43 81 44 35 45 84 46 78 47 77 48 36 50 66 51 47 52 65 53
REMARK SMILES IDX 48 54 51 55 64 56 82 57 49 58 50 59 63 61 83 62 52 63 37 64
REMARK SMILES IDX 38 65 46 66 39 67 45 68 40 69 41 70 42 71 43 72 44 73 67 74
REMARK SMILES IDX 68 75 76 76 69 77 75 78 70 79 71 80 72 81 73 82 74 83 53 84
REMARK SMILES IDX 54 85 62 86 55 87 61 88 56 89 57 90 58 91 59 92 60 93
REMARK H PARENT 81 49 51 60
REMARK Flexibility Score: inf
ROOT
ATOM      1  C   UNL     1      -6.244  -3.589  -3.727  1.00  0.00     0.275 C 
ENDROOT
BRANCH   1   2
ATOM      2  O   UNL     1      -4.851  -3.686  -4.085  1.00  0.00    -0.457 OA
BRANCH   2   3
ATOM      3  C   UNL     1      -4.097  -4.437  -3.238  1.00  0.00     0.357 C 
ATOM      4  O   UNL     1      -4.491  -4.929  -2.191  1.00  0.00    -0.244 OA
BRANCH   3   5
ATOM      5  C   UNL     1      -2.733  -4.681  -3.803  1.00  0.00     0.148 A 
ATOM      6  C   UNL     1      -0.207  -5.324  -4.710  1.00  0.00     0.019 A 
ATOM      7  C   UNL     1      -0.812  -4.127  -5.115  1.00  0.00     0.014 A 
ATOM      8  C   UNL     1      -0.953  -6.161  -3.892  1.00  0.00     0.122 A 
ATOM      9  C   UNL     1      -2.100  -3.803  -4.671  1.00  0.00     0.037 A 
ATOM     10  N   UNL     1      -2.162  -5.843  -3.395  1.00  0.00    -0.249 NA
BRANCH   6  11
ATOM     11  C   UNL     1       1.196  -5.647  -4.973  1.00  0.00     0.080 A 
ATOM     12  C   UNL     1       2.228  -5.187  -4.122  1.00  0.00     0.010 A 
ATOM     13  C   UNL     1       3.535  -5.598  -4.415  1.00  0.00     0.033 A 
ATOM     14  C   UNL     1       3.766  -6.449  -5.492  1.00  0.00     0.060 A 
ATOM     15  N   UNL     1       1.410  -6.471  -6.029  1.00  0.00    -0.254 NA
ATOM     16  Cl  UNL     1       5.359  -6.972  -5.860  1.00  0.00    -0.083 Cl
ATOM     17  C   UNL     1       2.687  -6.861  -6.257  1.00  0.00     0.132 A 
BRANCH  12  18
ATOM     18  C   UNL     1       1.947  -4.317  -2.968  1.00  0.00    -0.016 A 
ATOM     19  C   UNL     1       1.089  -2.591  -0.925  1.00  0.00     0.067 A 
ATOM     20  C   UNL     1       0.834  -3.960  -0.830  1.00  0.00     0.021 A 
ATOM     21  C   UNL     1       1.815  -2.081  -2.004  1.00  0.00     0.021 A 
ATOM     22  C   UNL     1       1.278  -4.817  -1.837  1.00  0.00     0.010 A 
ATOM     23  C   UNL     1       2.239  -2.946  -3.020  1.00  0.00     0.010 A 
BRANCH  19  24
ATOM     24  S   UNL     1       0.425  -1.551   0.352  1.00  0.00     0.175 S 
ATOM     25  C   UNL     1       1.056   0.078   0.087  1.00  0.00     0.163 C 
ATOM     26  O   UNL     1       0.984  -2.021   1.604  1.00  0.00    -0.224 OA
ATOM     27  O   UNL     1      -1.007  -1.491   0.131  1.00  0.00    -0.224 OA
ENDBRANCH  19  24
ENDBRANCH  12  18
ENDBRANCH   6  11
ENDBRANCH   3   5
ENDBRANCH   2   3
ENDBRANCH   1   2
BRANCH   1  28
ATOM     28  C   UNL     1      -7.106  -4.565  -4.536  1.00  0.00     0.275 C 
BRANCH  28  29
ATOM     29  O   UNL     1      -6.841  -5.941  -4.198  1.00  0.00    -0.458 OA
BRANCH  29  30
ATOM     30  C   UNL     1      -6.001  -6.588  -5.041  1.00  0.00     0.338 C 
ATOM     31  O   UNL     1      -5.472  -6.130  -6.041  1.00  0.00    -0.246 OA
BRANCH  30  32
ATOM     32  C   UNL     1      -5.703  -7.938  -4.532  1.00  0.00     0.060 A 
ATOM     33  C   UNL     1      -4.465  -8.133  -3.930  1.00  0.00     0.016 A 
ATOM     34  C   UNL     1      -6.545  -9.025  -4.753  1.00  0.00     0.016 A 
ATOM     35  C   UNL     1      -4.028  -9.406  -3.586  1.00  0.00     0.010 A 
ATOM     36  C   UNL     1      -6.128 -10.309  -4.362  1.00  0.00     0.010 A 
ATOM     37  C   UNL     1      -4.856 -10.514  -3.793  1.00  0.00    -0.014 A 
BRANCH  37  38
ATOM     38  C   UNL     1      -4.351 -11.867  -3.435  1.00  0.00     0.031 A 
ATOM     39  C   UNL     1      -4.083 -12.890  -4.507  1.00  0.00     0.074 A 
ATOM     40  C   UNL     1      -4.069 -12.158  -2.148  1.00  0.00     0.049 A 
ATOM     41  N   UNL     1      -3.683 -14.130  -4.383  1.00  0.00    -0.248 NA
ATOM     42  C   UNL     1      -4.293 -12.465  -5.901  1.00  0.00     0.031 C 
ATOM     43  C   UNL     1      -4.226 -11.239  -1.018  1.00  0.00     0.029 A 
ATOM     44  N   UNL     1      -3.570 -13.303  -1.575  1.00  0.00    -0.354 N 
ATOM     45  C   UNL     1      -3.628 -14.645  -5.674  1.00  0.00     0.074 A 
ATOM     46  C   UNL     1      -4.044 -13.584  -6.567  1.00  0.00     0.031 C 
ATOM     47  C   UNL     1      -3.801 -11.842   0.103  1.00  0.00     0.029 A 
ATOM     48  C   UNL     1      -3.402 -13.210  -0.213  1.00  0.00     0.049 A 
ATOM     49  H   UNL     1      -3.352 -14.113  -2.091  1.00  0.00     0.167 HD
ATOM     50  C   UNL     1      -3.265 -15.886  -6.078  1.00  0.00     0.031 A 
ATOM     51  C   UNL     1      -2.999 -14.127   0.688  1.00  0.00     0.031 A 
ATOM     52  C   UNL     1      -2.828 -16.933  -5.191  1.00  0.00     0.049 A 
ATOM     53  C   UNL     1      -2.650 -15.511   0.218  1.00  0.00     0.074 A 
ATOM     54  C   UNL     1      -2.428 -18.221  -5.509  1.00  0.00     0.029 A 
ATOM     55  N   UNL     1      -2.725 -16.815  -3.813  1.00  0.00    -0.354 N 
ATOM     56  N   UNL     1      -2.628 -15.985  -1.005  1.00  0.00    -0.248 NA
ATOM     57  C   UNL     1      -2.279 -16.488   1.252  1.00  0.00     0.031 C 
ATOM     58  C   UNL     1      -2.129 -18.894  -4.320  1.00  0.00     0.029 A 
ATOM     59  C   UNL     1      -2.291 -18.011  -3.265  1.00  0.00     0.049 A 
ATOM     60  H   UNL     1      -2.931 -16.000  -3.300  1.00  0.00     0.167 HD
ATOM     61  C   UNL     1      -2.229 -17.312  -0.888  1.00  0.00     0.074 A 
ATOM     62  C   UNL     1      -1.997 -17.557   0.521  1.00  0.00     0.031 C 
ATOM     63  C   UNL     1      -2.072 -18.244  -1.861  1.00  0.00     0.031 A 
BRANCH  50  64
ATOM     64  C   UNL     1      -3.369 -16.200  -7.548  1.00  0.00    -0.014 A 
ATOM     65  C   UNL     1      -2.447 -15.685  -8.476  1.00  0.00     0.010 A 
ATOM     66  C   UNL     1      -4.383 -17.066  -7.998  1.00  0.00     0.010 A 
ATOM     67  C   UNL     1      -2.560 -16.002  -9.834  1.00  0.00     0.020 A 
ATOM     68  C   UNL     1      -4.485 -17.404  -9.350  1.00  0.00     0.020 A 
ATOM     69  C   UNL     1      -3.582 -16.857 -10.263  1.00  0.00     0.054 A 
BRANCH  69  70
ATOM     70  S   UNL     1      -3.693 -17.271 -12.026  1.00  0.00     0.124 S 
ATOM     71  O   UNL     1      -4.230 -16.036 -12.592  1.00  0.00    -0.237 OA
ATOM     72  O   UNL     1      -2.306 -17.569 -12.375  1.00  0.00    -0.237 OA
ATOM     73  O   UNL     1      -4.599 -18.416 -12.057  1.00  0.00    -0.744 OA
ENDBRANCH  69  70
ENDBRANCH  50  64
BRANCH  51  74
ATOM     74  C   UNL     1      -2.943 -13.777   2.134  1.00  0.00    -0.014 A 
ATOM     75  C   UNL     1      -1.711 -13.684   2.805  1.00  0.00     0.010 A 
ATOM     76  C   UNL     1      -4.131 -13.537   2.850  1.00  0.00     0.010 A 
ATOM     77  C   UNL     1      -1.669 -13.376   4.168  1.00  0.00     0.020 A 
ATOM     78  C   UNL     1      -4.091 -13.200   4.206  1.00  0.00     0.020 A 
ATOM     79  C   UNL     1      -2.860 -13.137   4.860  1.00  0.00     0.054 A 
BRANCH  79  80
ATOM     80  S   UNL     1      -2.783 -12.698   6.619  1.00  0.00     0.124 S 
ATOM     81  O   UNL     1      -2.524 -13.992   7.243  1.00  0.00    -0.237 OA
ATOM     82  O   UNL     1      -1.679 -11.742   6.662  1.00  0.00    -0.237 OA
ATOM     83  O   UNL     1      -4.101 -12.127   6.886  1.00  0.00    -0.744 OA
ENDBRANCH  79  80
ENDBRANCH  51  74
BRANCH  63  84
ATOM     84  C   UNL     1      -1.604 -19.608  -1.433  1.00  0.00    -0.014 A 
ATOM     85  C   UNL     1      -2.464 -20.493  -0.757  1.00  0.00     0.010 A 
ATOM     86  C   UNL     1      -0.294 -20.021  -1.734  1.00  0.00     0.010 A 
ATOM     87  C   UNL     1      -2.010 -21.752  -0.357  1.00  0.00     0.020 A 
ATOM     88  C   UNL     1       0.156 -21.289  -1.358  1.00  0.00     0.020 A 
ATOM     89  C   UNL     1      -0.700 -22.140  -0.656  1.00  0.00     0.054 A 
BRANCH  89  90
ATOM     90  S   UNL     1      -0.138 -23.789  -0.150  1.00  0.00     0.124 S 
ATOM     91  O   UNL     1       0.091 -23.606   1.281  1.00  0.00    -0.237 OA
ATOM     92  O   UNL     1      -1.273 -24.640  -0.500  1.00  0.00    -0.237 OA
ATOM     93  O   UNL     1       1.065 -24.005  -0.951  1.00  0.00    -0.744 OA
ENDBRANCH  89  90
ENDBRANCH  63  84
ENDBRANCH  37  38
ENDBRANCH  30  32
ENDBRANCH  29  30
ENDBRANCH  28  29
ENDBRANCH   1  28
TORSDOF 17
