REMARK SMILES Cn1ncc(C(=O)OCCOC(=O)c2ccc(-c3c4nc(c(-c5ccc(S(=O)(=O)[O-])cc5)c5ccc([nH]5)c(-c5ccc(S(=O)(=O)[O-])cc5)c5nc(c(-c6ccc(S(=O)(=O)[O-])cc6)c6ccc3[nH]6)C=C5)C=C4)cc2)c1C(=O)N1CCN(S(C)(=O)=O)CC1
REMARK SMILES IDX 10 1 9 2 8 3 6 4 7 5 5 6 1 7 2 8 3 9 74 10 4 11 75 12 76 13
REMARK SMILES IDX 77 14 78 15 86 16 79 17 85 18 80 19 81 20 82 21 83 22 84 23
REMARK SMILES IDX 11 24 12 25 13 26 14 27 15 28 73 29 16 30 72 31 17 32 18 33
REMARK SMILES IDX 19 34 66 35 20 36 71 37 65 38 67 39 21 40 70 41 64 42 63 43
REMARK SMILES IDX 22 45 52 46 33 47 51 48 34 49 37 50 50 51 68 52 35 53 36 54
REMARK SMILES IDX 49 56 69 57 38 58 23 59 24 60 32 61 25 62 31 63 26 64 27 65
REMARK SMILES IDX 28 66 29 67 30 68 53 69 54 70 62 71 55 72 61 73 56 74 57 75
REMARK SMILES IDX 58 76 59 77 60 78 39 79 40 80 48 81 41 82 47 83 42 84 43 85
REMARK SMILES IDX 44 86 45 87 46 88
REMARK H PARENT 67 44 37 55
REMARK Flexibility Score: inf
ROOT
ATOM      1  C   UNL     1       4.592  -3.155  -1.358  1.00  0.00     0.275 C 
ENDROOT
BRANCH   1   2
ATOM      2  C   UNL     1       3.709  -3.395  -0.134  1.00  0.00     0.275 C 
BRANCH   2   3
ATOM      3  O   UNL     1       2.519  -2.585  -0.191  1.00  0.00    -0.458 OA
BRANCH   3   4
ATOM      4  C   UNL     1       2.430  -1.586   0.733  1.00  0.00     0.342 C 
ATOM      5  O   UNL     1       3.310  -1.312   1.540  1.00  0.00    -0.246 OA
BRANCH   4   6
ATOM      6  C   UNL     1       1.243  -0.758   0.597  1.00  0.00     0.111 A 
ATOM      7  C   UNL     1      -2.196   0.350   0.417  1.00  0.00     0.174 C 
ATOM      8  N   UNL     1      -0.779   0.077   0.417  1.00  0.00    -0.262 N 
ATOM      9  N   UNL     1       0.008   1.152   0.579  1.00  0.00    -0.180 NA
ATOM     10  C   UNL     1      -0.094  -1.125   0.408  1.00  0.00     0.140 A 
ATOM     11  C   UNL     1       1.212   0.638   0.779  1.00  0.00     0.151 A 
BRANCH  10  12
ATOM     12  C   UNL     1      -0.607  -2.482   0.428  1.00  0.00     0.273 C 
ATOM     13  O   UNL     1       0.105  -3.456   0.674  1.00  0.00    -0.267 OA
ATOM     14  N   UNL     1      -1.981  -2.662   0.377  1.00  0.00    -0.335 N 
ATOM     15  C   UNL     1      -2.524  -3.638   1.316  1.00  0.00     0.136 C 
ATOM     16  C   UNL     1      -2.720  -2.546  -0.881  1.00  0.00     0.136 C 
ATOM     17  C   UNL     1      -3.987  -3.340   1.623  1.00  0.00     0.123 C 
ATOM     18  C   UNL     1      -4.227  -2.316  -0.649  1.00  0.00     0.123 C 
ATOM     19  N   UNL     1      -4.786  -3.241   0.375  1.00  0.00    -0.199 NA
BRANCH  19  20
ATOM     20  S   UNL     1      -5.769  -4.516  -0.090  1.00  0.00     0.211 S 
ATOM     21  C   UNL     1      -4.634  -5.631  -0.887  1.00  0.00     0.176 C 
ATOM     22  O   UNL     1      -6.261  -5.167   1.103  1.00  0.00    -0.213 OA
ATOM     23  O   UNL     1      -6.678  -4.025  -1.105  1.00  0.00    -0.213 OA
ENDBRANCH  19  20
ENDBRANCH  10  12
ENDBRANCH   4   6
ENDBRANCH   3   4
ENDBRANCH   2   3
ENDBRANCH   1   2
BRANCH   1  24
ATOM     24  O   UNL     1       5.053  -1.792  -1.376  1.00  0.00    -0.458 OA
BRANCH  24  25
ATOM     25  C   UNL     1       4.464  -0.995  -2.298  1.00  0.00     0.338 C 
ATOM     26  O   UNL     1       3.653  -1.314  -3.150  1.00  0.00    -0.246 OA
BRANCH  25  27
ATOM     27  C   UNL     1       4.860   0.399  -2.055  1.00  0.00     0.060 A 
ATOM     28  C   UNL     1       4.201   1.090  -1.045  1.00  0.00     0.016 A 
ATOM     29  C   UNL     1       5.750   1.065  -2.890  1.00  0.00     0.016 A 
ATOM     30  C   UNL     1       4.352   2.465  -0.908  1.00  0.00     0.010 A 
ATOM     31  C   UNL     1       5.975   2.435  -2.694  1.00  0.00     0.010 A 
ATOM     32  C   UNL     1       5.253   3.158  -1.723  1.00  0.00    -0.014 A 
BRANCH  32  33
ATOM     33  C   UNL     1       5.396   4.636  -1.590  1.00  0.00     0.031 A 
ATOM     34  C   UNL     1       5.101   5.530  -2.768  1.00  0.00     0.074 A 
ATOM     35  C   UNL     1       5.761   5.188  -0.414  1.00  0.00     0.049 A 
ATOM     36  N   UNL     1       5.327   6.811  -2.910  1.00  0.00    -0.248 NA
ATOM     37  C   UNL     1       4.483   4.897  -3.945  1.00  0.00     0.031 C 
ATOM     38  C   UNL     1       6.011   4.455   0.830  1.00  0.00     0.029 A 
ATOM     39  N   UNL     1       5.980   6.500  -0.069  1.00  0.00    -0.354 N 
ATOM     40  C   UNL     1       4.934   7.125  -4.207  1.00  0.00     0.074 A 
ATOM     41  C   UNL     1       4.461   5.899  -4.812  1.00  0.00     0.031 C 
ATOM     42  C   UNL     1       6.313   5.327   1.804  1.00  0.00     0.029 A 
ATOM     43  C   UNL     1       6.372   6.669   1.239  1.00  0.00     0.049 A 
ATOM     44  H   UNL     1       5.867   7.249  -0.699  1.00  0.00     0.167 HD
ATOM     45  C   UNL     1       4.968   8.325  -4.837  1.00  0.00     0.031 A 
ATOM     46  C   UNL     1       6.780   7.769   1.903  1.00  0.00     0.031 A 
ATOM     47  C   UNL     1       5.402   9.550  -4.217  1.00  0.00     0.049 A 
ATOM     48  C   UNL     1       6.863   9.078   1.168  1.00  0.00     0.074 A 
ATOM     49  C   UNL     1       5.466  10.818  -4.769  1.00  0.00     0.029 A 
ATOM     50  N   UNL     1       5.832   9.665  -2.903  1.00  0.00    -0.354 N 
ATOM     51  N   UNL     1       6.542   9.345  -0.075  1.00  0.00    -0.248 NA
ATOM     52  C   UNL     1       7.380  10.229   1.921  1.00  0.00     0.031 C 
ATOM     53  C   UNL     1       5.979  11.690  -3.803  1.00  0.00     0.029 A 
ATOM     54  C   UNL     1       6.181  10.977  -2.633  1.00  0.00     0.049 A 
ATOM     55  H   UNL     1       5.881   8.922  -2.258  1.00  0.00     0.167 HD
ATOM     56  C   UNL     1       6.806  10.699  -0.250  1.00  0.00     0.074 A 
ATOM     57  C   UNL     1       7.291  11.199   1.021  1.00  0.00     0.031 C 
ATOM     58  C   UNL     1       6.664  11.458  -1.364  1.00  0.00     0.031 A 
BRANCH  45  59
ATOM     59  C   UNL     1       4.569   8.364  -6.289  1.00  0.00    -0.014 A 
ATOM     60  C   UNL     1       3.229   8.225  -6.691  1.00  0.00     0.010 A 
ATOM     61  C   UNL     1       5.556   8.586  -7.268  1.00  0.00     0.010 A 
ATOM     62  C   UNL     1       2.889   8.267  -8.047  1.00  0.00     0.020 A 
ATOM     63  C   UNL     1       5.217   8.656  -8.622  1.00  0.00     0.020 A 
ATOM     64  C   UNL     1       3.886   8.478  -9.004  1.00  0.00     0.054 A 
BRANCH  64  65
ATOM     65  S   UNL     1       3.415   8.547 -10.755  1.00  0.00     0.124 S 
ATOM     66  O   UNL     1       3.137   7.143 -11.047  1.00  0.00    -0.237 OA
ATOM     67  O   UNL     1       2.250   9.428 -10.741  1.00  0.00    -0.237 OA
ATOM     68  O   UNL     1       4.599   9.096 -11.412  1.00  0.00    -0.744 OA
ENDBRANCH  64  65
ENDBRANCH  45  59
BRANCH  46  69
ATOM     69  C   UNL     1       7.204   7.664   3.327  1.00  0.00    -0.014 A 
ATOM     70  C   UNL     1       6.449   8.265   4.349  1.00  0.00     0.010 A 
ATOM     71  C   UNL     1       8.368   6.950   3.670  1.00  0.00     0.010 A 
ATOM     72  C   UNL     1       6.855   8.164   5.683  1.00  0.00     0.020 A 
ATOM     73  C   UNL     1       8.760   6.820   5.005  1.00  0.00     0.020 A 
ATOM     74  C   UNL     1       8.007   7.439   6.003  1.00  0.00     0.054 A 
BRANCH  74  75
ATOM     75  S   UNL     1       8.487   7.274   7.745  1.00  0.00     0.124 S 
ATOM     76  O   UNL     1       9.036   8.595   8.034  1.00  0.00    -0.237 OA
ATOM     77  O   UNL     1       7.218   6.959   8.395  1.00  0.00    -0.237 OA
ATOM     78  O   UNL     1       9.458   6.182   7.729  1.00  0.00    -0.744 OA
ENDBRANCH  74  75
ENDBRANCH  46  69
BRANCH  58  79
ATOM     79  C   UNL     1       7.011  12.918  -1.251  1.00  0.00    -0.014 A 
ATOM     80  C   UNL     1       8.348  13.344  -1.168  1.00  0.00     0.010 A 
ATOM     81  C   UNL     1       5.984  13.879  -1.277  1.00  0.00     0.010 A 
ATOM     82  C   UNL     1       8.651  14.706  -1.083  1.00  0.00     0.020 A 
ATOM     83  C   UNL     1       6.284  15.242  -1.218  1.00  0.00     0.020 A 
ATOM     84  C   UNL     1       7.616  15.646  -1.108  1.00  0.00     0.054 A 
BRANCH  84  85
ATOM     85  S   UNL     1       8.037  17.409  -1.040  1.00  0.00     0.124 S 
ATOM     86  O   UNL     1       8.408  17.579   0.361  1.00  0.00    -0.237 OA
ATOM     87  O   UNL     1       9.134  17.515  -1.999  1.00  0.00    -0.237 OA
ATOM     88  O   UNL     1       6.800  18.076  -1.442  1.00  0.00    -0.744 OA
ENDBRANCH  84  85
ENDBRANCH  58  79
ENDBRANCH  32  33
ENDBRANCH  25  27
ENDBRANCH  24  25
ENDBRANCH   1  24
TORSDOF 16
