REMARK SMILES Cn1ncc2c(NCCC3=CCCCC3)c(C(=O)OCCOC(=O)c3ccc(-c4c5nc(c(-c6ccc(S(=O)(=O)[O-])cc6)c6ccc([nH]6)c(-c6ccc(S(=O)(=O)[O-])cc6)c6nc(c(-c7ccc(S(=O)(=O)[O-])cc7)c7ccc4[nH]7)C=C6)C=C5)cc3)cnc21
REMARK SMILES IDX 20 1 19 2 17 3 18 4 16 5 1 6 2 7 3 8 87 9 4 10 5 11 86 12
REMARK SMILES IDX 6 13 85 14 7 15 8 17 9 18 10 19 11 20 15 21 12 22 14 23
REMARK SMILES IDX 13 24 21 25 22 26 23 27 24 28 25 29 26 30 84 31 27 32 83 33
REMARK SMILES IDX 28 34 29 35 30 36 77 37 31 38 82 39 76 40 78 41 32 42 81 43
REMARK SMILES IDX 75 44 74 45 33 47 63 48 44 49 62 50 45 51 48 52 61 53 79 54
REMARK SMILES IDX 46 55 47 56 60 58 80 59 49 60 34 61 35 62 43 63 36 64 42 65
REMARK SMILES IDX 37 66 38 67 39 68 40 69 41 70 64 71 65 72 73 73 66 74 72 75
REMARK SMILES IDX 67 76 68 77 69 78 70 79 71 80 50 81 51 82 59 83 52 84 58 85
REMARK SMILES IDX 53 86 54 87 55 88 56 89 57 90
REMARK H PARENT 7 16 78 46 48 57
REMARK Flexibility Score: inf
ROOT
ATOM      1  C   UNL     1      -3.523  -2.110   6.971  1.00  0.00     0.275 C 
ENDROOT
BRANCH   1   2
ATOM      2  O   UNL     1      -2.705  -1.695   5.857  1.00  0.00    -0.458 OA
BRANCH   2   3
ATOM      3  C   UNL     1      -1.816  -2.620   5.397  1.00  0.00     0.341 C 
ATOM      4  O   UNL     1      -1.563  -3.674   5.966  1.00  0.00    -0.246 OA
BRANCH   3   5
ATOM      5  C   UNL     1      -1.247  -2.244   4.070  1.00  0.00     0.102 A 
ATOM      6  C   UNL     1       0.829   0.269   0.103  1.00  0.00     0.176 C 
ATOM      7  N   UNL     1       0.554  -1.026   0.671  1.00  0.00    -0.250 N 
ATOM      8  N   UNL     1       1.050  -2.125   0.074  1.00  0.00    -0.179 NA
ATOM      9  C   UNL     1      -0.128  -1.286   1.827  1.00  0.00     0.159 A 
ATOM     10  C   UNL     1       0.636  -3.111   0.877  1.00  0.00     0.147 A 
ATOM     11  C   UNL     1      -0.073  -2.665   2.024  1.00  0.00     0.063 A 
ATOM     12  N   UNL     1      -0.714  -0.360   2.610  1.00  0.00    -0.236 NA
ATOM     13  C   UNL     1      -0.664  -3.218   3.194  1.00  0.00     0.063 A 
ATOM     14  C   UNL     1      -1.276  -0.897   3.711  1.00  0.00     0.131 A 
BRANCH  13  15
ATOM     15  N   UNL     1      -0.687  -4.565   3.533  1.00  0.00    -0.383 N 
ATOM     16  H   UNL     1      -1.156  -4.767   4.375  1.00  0.00     0.160 HD
BRANCH  15  17
ATOM     17  C   UNL     1      -0.135  -5.729   2.855  1.00  0.00     0.117 C 
BRANCH  17  18
ATOM     18  C   UNL     1       0.817  -6.513   3.782  1.00  0.00     0.052 C 
BRANCH  18  19
ATOM     19  C   UNL     1       0.118  -7.370   4.820  1.00  0.00    -0.072 C 
ATOM     20  C   UNL     1      -0.489  -6.830   5.890  1.00  0.00    -0.028 C 
ATOM     21  C   UNL     1       0.160  -8.866   4.611  1.00  0.00     0.031 C 
ATOM     22  C   UNL     1      -1.248  -7.613   6.912  1.00  0.00     0.027 C 
ATOM     23  C   UNL     1      -0.772  -9.659   5.534  1.00  0.00     0.005 C 
ATOM     24  C   UNL     1      -0.825  -9.076   6.943  1.00  0.00     0.004 C 
ENDBRANCH  18  19
ENDBRANCH  17  18
ENDBRANCH  15  17
ENDBRANCH  13  15
ENDBRANCH   3   5
ENDBRANCH   2   3
ENDBRANCH   1   2
BRANCH   1  25
ATOM     25  C   UNL     1      -4.800  -2.810   6.516  1.00  0.00     0.275 C 
BRANCH  25  26
ATOM     26  O   UNL     1      -4.510  -4.028   5.837  1.00  0.00    -0.458 OA
BRANCH  26  27
ATOM     27  C   UNL     1      -4.348  -3.902   4.498  1.00  0.00     0.338 C 
ATOM     28  O   UNL     1      -4.245  -2.861   3.871  1.00  0.00    -0.246 OA
BRANCH  27  29
ATOM     29  C   UNL     1      -4.521  -5.213   3.865  1.00  0.00     0.060 A 
ATOM     30  C   UNL     1      -4.506  -5.230   2.468  1.00  0.00     0.016 A 
ATOM     31  C   UNL     1      -5.037  -6.276   4.620  1.00  0.00     0.016 A 
ATOM     32  C   UNL     1      -5.235  -6.204   1.826  1.00  0.00     0.010 A 
ATOM     33  C   UNL     1      -5.790  -7.228   3.979  1.00  0.00     0.010 A 
ATOM     34  C   UNL     1      -5.949  -7.124   2.601  1.00  0.00    -0.014 A 
BRANCH  34  35
ATOM     35  C   UNL     1      -6.853  -8.014   1.917  1.00  0.00     0.031 A 
ATOM     36  C   UNL     1      -6.195  -9.213   1.365  1.00  0.00     0.074 A 
ATOM     37  C   UNL     1      -8.176  -7.793   1.839  1.00  0.00     0.049 A 
ATOM     38  N   UNL     1      -5.876  -9.431   0.134  1.00  0.00    -0.248 NA
ATOM     39  C   UNL     1      -5.681 -10.206   2.318  1.00  0.00     0.031 C 
ATOM     40  C   UNL     1      -9.009  -6.834   2.567  1.00  0.00     0.029 A 
ATOM     41  N   UNL     1      -9.077  -8.486   1.104  1.00  0.00    -0.354 N 
ATOM     42  C   UNL     1      -5.285 -10.686   0.124  1.00  0.00     0.074 A 
ATOM     43  C   UNL     1      -5.028 -11.031   1.501  1.00  0.00     0.031 C 
ATOM     44  C   UNL     1     -10.314  -7.163   2.395  1.00  0.00     0.029 A 
ATOM     45  C   UNL     1     -10.403  -8.250   1.432  1.00  0.00     0.049 A 
ATOM     46  H   UNL     1      -8.811  -9.111   0.391  1.00  0.00     0.167 HD
ATOM     47  C   UNL     1      -5.262 -11.468  -0.988  1.00  0.00     0.031 A 
ATOM     48  C   UNL     1     -11.459  -8.972   0.978  1.00  0.00     0.031 A 
ATOM     49  C   UNL     1      -5.609 -10.743  -2.179  1.00  0.00     0.049 A 
ATOM     50  C   UNL     1     -11.006  -9.649  -0.269  1.00  0.00     0.074 A 
ATOM     51  C   UNL     1      -5.061  -9.675  -2.862  1.00  0.00     0.029 A 
ATOM     52  N   UNL     1      -6.911 -10.839  -2.614  1.00  0.00    -0.354 N 
ATOM     53  N   UNL     1     -10.692  -9.012  -1.363  1.00  0.00    -0.248 NA
ATOM     54  C   UNL     1     -10.475 -11.001  -0.162  1.00  0.00     0.031 C 
ATOM     55  C   UNL     1      -6.177  -8.902  -3.298  1.00  0.00     0.029 A 
ATOM     56  C   UNL     1      -7.339  -9.567  -2.901  1.00  0.00     0.049 A 
ATOM     57  H   UNL     1      -7.438 -11.666  -2.703  1.00  0.00     0.167 HD
ATOM     58  C   UNL     1      -9.611  -9.707  -1.887  1.00  0.00     0.074 A 
ATOM     59  C   UNL     1      -9.574 -10.966  -1.147  1.00  0.00     0.031 C 
ATOM     60  C   UNL     1      -8.690  -9.092  -2.685  1.00  0.00     0.031 A 
BRANCH  47  61
ATOM     61  C   UNL     1      -5.299 -12.965  -0.907  1.00  0.00    -0.014 A 
ATOM     62  C   UNL     1      -4.989 -13.736  -2.039  1.00  0.00     0.010 A 
ATOM     63  C   UNL     1      -5.877 -13.631   0.197  1.00  0.00     0.010 A 
ATOM     64  C   UNL     1      -5.266 -15.109  -2.068  1.00  0.00     0.020 A 
ATOM     65  C   UNL     1      -6.113 -15.003   0.196  1.00  0.00     0.020 A 
ATOM     66  C   UNL     1      -5.829 -15.731  -0.950  1.00  0.00     0.054 A 
BRANCH  66  67
ATOM     67  S   UNL     1      -6.282 -17.480  -1.039  1.00  0.00     0.124 S 
ATOM     68  O   UNL     1      -7.200 -17.500  -2.174  1.00  0.00    -0.237 OA
ATOM     69  O   UNL     1      -4.987 -18.118  -1.260  1.00  0.00    -0.237 OA
ATOM     70  O   UNL     1      -6.889 -17.745   0.263  1.00  0.00    -0.744 OA
ENDBRANCH  66  67
ENDBRANCH  47  61
BRANCH  48  71
ATOM     71  C   UNL     1     -12.614  -9.482   1.764  1.00  0.00    -0.014 A 
ATOM     72  C   UNL     1     -13.643 -10.193   1.111  1.00  0.00     0.010 A 
ATOM     73  C   UNL     1     -12.543  -9.576   3.168  1.00  0.00     0.010 A 
ATOM     74  C   UNL     1     -14.489 -11.058   1.822  1.00  0.00     0.020 A 
ATOM     75  C   UNL     1     -13.392 -10.430   3.885  1.00  0.00     0.020 A 
ATOM     76  C   UNL     1     -14.330 -11.200   3.202  1.00  0.00     0.054 A 
BRANCH  76  77
ATOM     77  S   UNL     1     -15.271 -12.488   4.072  1.00  0.00     0.124 S 
ATOM     78  O   UNL     1     -16.654 -12.106   3.799  1.00  0.00    -0.237 OA
ATOM     79  O   UNL     1     -14.809 -13.706   3.413  1.00  0.00    -0.237 OA
ATOM     80  O   UNL     1     -14.852 -12.340   5.465  1.00  0.00    -0.744 OA
ENDBRANCH  76  77
ENDBRANCH  48  71
BRANCH  60  81
ATOM     81  C   UNL     1      -9.009  -7.711  -3.205  1.00  0.00    -0.014 A 
ATOM     82  C   UNL     1      -9.104  -6.567  -2.386  1.00  0.00     0.010 A 
ATOM     83  C   UNL     1      -9.068  -7.547  -4.599  1.00  0.00     0.010 A 
ATOM     84  C   UNL     1      -9.267  -5.293  -2.955  1.00  0.00     0.020 A 
ATOM     85  C   UNL     1      -9.217  -6.282  -5.170  1.00  0.00     0.020 A 
ATOM     86  C   UNL     1      -9.315  -5.160  -4.347  1.00  0.00     0.054 A 
BRANCH  86  87
ATOM     87  S   UNL     1      -9.493  -3.509  -5.084  1.00  0.00     0.124 S 
ATOM     88  O   UNL     1     -10.727  -3.015  -4.479  1.00  0.00    -0.237 OA
ATOM     89  O   UNL     1      -8.270  -2.836  -4.655  1.00  0.00    -0.237 OA
ATOM     90  O   UNL     1      -9.576  -3.774  -6.520  1.00  0.00    -0.744 OA
ENDBRANCH  86  87
ENDBRANCH  60  81
ENDBRANCH  34  35
ENDBRANCH  27  29
ENDBRANCH  26  27
ENDBRANCH  25  26
ENDBRANCH   1  25
TORSDOF 18
