REMARK SMILES CCCCCCNC(=O)Oc1cccc(-c2ccc(CC(=O)OCCOC(=O)c3ccc(-c4c5nc(c(-c6ccc(S(=O)(=O)[O-])cc6)c6ccc([nH]6)c(-c6ccc(S(=O)(=O)[O-])cc6)c6nc(c(-c7ccc(S(=O)(=O)[O-])cc7)c7ccc4[nH]7)C=C6)C=C5)cc3)cc2F)c1
REMARK SMILES IDX 20 1 19 2 16 3 17 4 90 5 18 6 89 7 91 8 15 9 11 10 12 11
REMARK SMILES IDX 92 12 13 13 14 14 10 15 8 16 7 17 9 19 6 20 5 21 4 22 3 23
REMARK SMILES IDX 2 24 1 25 21 26 22 27 23 28 24 29 25 30 26 31 27 32 28 33
REMARK SMILES IDX 29 34 30 35 88 36 31 37 87 38 32 39 33 40 34 41 81 42 35 43
REMARK SMILES IDX 86 44 80 45 82 46 36 47 85 48 79 49 78 50 37 52 67 53 48 54
REMARK SMILES IDX 66 55 49 56 52 57 65 58 83 59 50 60 51 61 64 63 84 64 53 65
REMARK SMILES IDX 38 66 39 67 47 68 40 69 46 70 41 71 42 72 43 73 44 74 45 75
REMARK SMILES IDX 68 76 69 77 77 78 70 79 76 80 71 81 72 82 73 83 74 84 75 85
REMARK SMILES IDX 54 86 55 87 63 88 56 89 62 90 57 91 58 92 59 93 60 94 61 95
REMARK H PARENT 7 18 82 51 52 62
REMARK Flexibility Score: inf
ROOT
ATOM      1  C   UNL     1      -4.557  10.251  -8.464  1.00  0.00     0.158 C 
ENDROOT
BRANCH   1   2
ATOM      2  C   UNL     1      -4.810   9.785  -7.051  1.00  0.00    -0.034 A 
ATOM      3  C   UNL     1      -5.122   8.835  -4.398  1.00  0.00     0.018 A 
ATOM      4  C   UNL     1      -4.844  10.186  -4.647  1.00  0.00     0.012 A 
ATOM      5  C   UNL     1      -5.262   7.983  -5.501  1.00  0.00     0.131 A 
ATOM      6  C   UNL     1      -4.684  10.653  -5.957  1.00  0.00     0.005 A 
ATOM      7  C   UNL     1      -5.114   8.443  -6.807  1.00  0.00     0.044 A 
ATOM      8  F   UNL     1      -5.531   6.681  -5.318  1.00  0.00    -0.206 F 
BRANCH   3   9
ATOM      9  C   UNL     1      -5.218   8.318  -3.031  1.00  0.00    -0.012 A 
ATOM     10  C   UNL     1      -4.354   6.903  -1.260  1.00  0.00     0.133 A 
ATOM     11  C   UNL     1      -5.426   7.237  -0.437  1.00  0.00     0.047 A 
ATOM     12  C   UNL     1      -4.252   7.421  -2.551  1.00  0.00     0.056 A 
ATOM     13  C   UNL     1      -6.386   8.136  -0.899  1.00  0.00     0.004 A 
ATOM     14  C   UNL     1      -6.279   8.678  -2.185  1.00  0.00     0.009 A 
BRANCH  10  15
ATOM     15  O   UNL     1      -3.452   5.934  -0.797  1.00  0.00    -0.410 OA
BRANCH  15  16
ATOM     16  C   UNL     1      -2.107   6.271  -0.813  1.00  0.00     0.412 C 
ATOM     17  N   UNL     1      -1.286   5.229  -0.476  1.00  0.00    -0.321 N 
ATOM     18  H   UNL     1      -0.321   5.422  -0.448  1.00  0.00     0.167 HD
ATOM     19  O   UNL     1      -1.638   7.369  -1.086  1.00  0.00    -0.224 OA
BRANCH  17  20
ATOM     20  C   UNL     1      -1.684   3.875  -0.157  1.00  0.00     0.119 C 
BRANCH  20  21
ATOM     21  C   UNL     1      -1.073   2.856  -1.120  1.00  0.00     0.021 C 
BRANCH  21  22
ATOM     22  C   UNL     1       0.457   2.764  -1.080  1.00  0.00     0.002 C 
BRANCH  22  23
ATOM     23  C   UNL     1       1.065   2.421   0.284  1.00  0.00    -0.000 C 
BRANCH  23  24
ATOM     24  C   UNL     1       0.588   1.105   0.905  1.00  0.00    -0.003 C 
ATOM     25  C   UNL     1       0.952  -0.118   0.079  1.00  0.00     0.004 C 
ENDBRANCH  23  24
ENDBRANCH  22  23
ENDBRANCH  21  22
ENDBRANCH  20  21
ENDBRANCH  17  20
ENDBRANCH  15  16
ENDBRANCH  10  15
ENDBRANCH   3   9
ENDBRANCH   1   2
BRANCH   1  26
ATOM     26  C   UNL     1      -5.564  11.192  -9.079  1.00  0.00     0.310 C 
ATOM     27  O   UNL     1      -5.284  11.888 -10.050  1.00  0.00    -0.252 OA
BRANCH  26  28
ATOM     28  O   UNL     1      -6.790  11.141  -8.495  1.00  0.00    -0.462 OA
BRANCH  28  29
ATOM     29  C   UNL     1      -7.782  12.022  -9.054  1.00  0.00     0.274 C 
BRANCH  29  30
ATOM     30  C   UNL     1      -7.895  13.311  -8.243  1.00  0.00     0.275 C 
BRANCH  30  31
ATOM     31  O   UNL     1      -6.641  14.015  -8.243  1.00  0.00    -0.458 OA
BRANCH  31  32
ATOM     32  C   UNL     1      -6.042  14.137  -7.038  1.00  0.00     0.338 C 
ATOM     33  O   UNL     1      -6.457  13.762  -5.956  1.00  0.00    -0.246 OA
BRANCH  32  34
ATOM     34  C   UNL     1      -4.743  14.804  -7.202  1.00  0.00     0.060 A 
ATOM     35  C   UNL     1      -3.647  14.079  -7.675  1.00  0.00     0.016 A 
ATOM     36  C   UNL     1      -4.589  16.118  -6.763  1.00  0.00     0.016 A 
ATOM     37  C   UNL     1      -2.378  14.655  -7.668  1.00  0.00     0.010 A 
ATOM     38  C   UNL     1      -3.325  16.712  -6.810  1.00  0.00     0.010 A 
ATOM     39  C   UNL     1      -2.205  15.978  -7.239  1.00  0.00    -0.014 A 
BRANCH  39  40
ATOM     40  C   UNL     1      -0.855  16.595  -7.214  1.00  0.00     0.031 A 
ATOM     41  C   UNL     1      -0.218  16.963  -5.902  1.00  0.00     0.074 A 
ATOM     42  C   UNL     1      -0.211  16.845  -8.370  1.00  0.00     0.049 A 
ATOM     43  N   UNL     1       0.885  17.630  -5.679  1.00  0.00    -0.248 NA
ATOM     44  C   UNL     1      -0.917  16.529  -4.682  1.00  0.00     0.031 C 
ATOM     45  C   UNL     1      -0.704  16.503  -9.707  1.00  0.00     0.029 A 
ATOM     46  N   UNL     1       0.995  17.456  -8.607  1.00  0.00    -0.354 N 
ATOM     47  C   UNL     1       0.997  17.727  -4.296  1.00  0.00     0.074 A 
ATOM     48  C   UNL     1      -0.157  17.059  -3.733  1.00  0.00     0.031 C 
ATOM     49  C   UNL     1       0.195  16.902 -10.620  1.00  0.00     0.029 A 
ATOM     50  C   UNL     1       1.294  17.580  -9.942  1.00  0.00     0.049 A 
ATOM     51  H   UNL     1       1.588  17.773  -7.888  1.00  0.00     0.167 HD
ATOM     52  C   UNL     1       1.971  18.319  -3.565  1.00  0.00     0.031 A 
ATOM     53  C   UNL     1       2.320  18.201 -10.556  1.00  0.00     0.031 A 
ATOM     54  C   UNL     1       3.122  18.974  -4.130  1.00  0.00     0.049 A 
ATOM     55  C   UNL     1       3.361  18.896  -9.726  1.00  0.00     0.074 A 
ATOM     56  C   UNL     1       4.172  19.591  -3.472  1.00  0.00     0.029 A 
ATOM     57  N   UNL     1       3.376  19.096  -5.488  1.00  0.00    -0.354 N 
ATOM     58  N   UNL     1       3.445  18.990  -8.420  1.00  0.00    -0.248 NA
ATOM     59  C   UNL     1       4.444  19.574 -10.451  1.00  0.00     0.031 C 
ATOM     60  C   UNL     1       5.038  20.124  -4.433  1.00  0.00     0.029 A 
ATOM     61  C   UNL     1       4.555  19.795  -5.689  1.00  0.00     0.049 A 
ATOM     62  H   UNL     1       2.803  18.738  -6.204  1.00  0.00     0.167 HD
ATOM     63  C   UNL     1       4.600  19.722  -8.167  1.00  0.00     0.074 A 
ATOM     64  C   UNL     1       5.188  20.033  -9.454  1.00  0.00     0.031 C 
ATOM     65  C   UNL     1       5.125  20.101  -6.976  1.00  0.00     0.031 A 
BRANCH  52  66
ATOM     66  C   UNL     1       1.813  18.320  -2.067  1.00  0.00    -0.014 A 
ATOM     67  C   UNL     1       2.002  17.151  -1.310  1.00  0.00     0.010 A 
ATOM     68  C   UNL     1       1.503  19.522  -1.405  1.00  0.00     0.010 A 
ATOM     69  C   UNL     1       1.845  17.175   0.080  1.00  0.00     0.020 A 
ATOM     70  C   UNL     1       1.368  19.556  -0.014  1.00  0.00     0.020 A 
ATOM     71  C   UNL     1       1.522  18.377   0.718  1.00  0.00     0.054 A 
BRANCH  71  72
ATOM     72  S   UNL     1       1.338  18.387   2.523  1.00  0.00     0.124 S 
ATOM     73  O   UNL     1       0.036  17.747   2.696  1.00  0.00    -0.237 OA
ATOM     74  O   UNL     1       2.487  17.604   2.970  1.00  0.00    -0.237 OA
ATOM     75  O   UNL     1       1.385  19.806   2.869  1.00  0.00    -0.744 OA
ENDBRANCH  71  72
ENDBRANCH  52  66
BRANCH  53  76
ATOM     76  C   UNL     1       2.389  18.217 -12.042  1.00  0.00    -0.014 A 
ATOM     77  C   UNL     1       3.357  17.457 -12.720  1.00  0.00     0.010 A 
ATOM     78  C   UNL     1       1.467  18.976 -12.787  1.00  0.00     0.010 A 
ATOM     79  C   UNL     1       3.408  17.463 -14.117  1.00  0.00     0.020 A 
ATOM     80  C   UNL     1       1.499  18.964 -14.183  1.00  0.00     0.020 A 
ATOM     81  C   UNL     1       2.476  18.214 -14.840  1.00  0.00     0.054 A 
BRANCH  81  82
ATOM     82  S   UNL     1       2.519  18.157 -16.653  1.00  0.00     0.124 S 
ATOM     83  O   UNL     1       3.657  19.019 -16.957  1.00  0.00    -0.237 OA
ATOM     84  O   UNL     1       2.713  16.734 -16.922  1.00  0.00    -0.237 OA
ATOM     85  O   UNL     1       1.212  18.682 -17.041  1.00  0.00    -0.744 OA
ENDBRANCH  81  82
ENDBRANCH  53  76
BRANCH  65  86
ATOM     86  C   UNL     1       6.418  20.870  -7.008  1.00  0.00    -0.014 A 
ATOM     87  C   UNL     1       6.451  22.221  -7.395  1.00  0.00     0.010 A 
ATOM     88  C   UNL     1       7.608  20.242  -6.599  1.00  0.00     0.010 A 
ATOM     89  C   UNL     1       7.659  22.923  -7.401  1.00  0.00     0.020 A 
ATOM     90  C   UNL     1       8.814  20.948  -6.581  1.00  0.00     0.020 A 
ATOM     91  C   UNL     1       8.834  22.281  -6.997  1.00  0.00     0.054 A 
BRANCH  91  92
ATOM     92  S   UNL     1      10.384  23.224  -6.973  1.00  0.00     0.124 S 
ATOM     93  O   UNL     1      10.728  23.276  -8.391  1.00  0.00    -0.237 OA
ATOM     94  O   UNL     1       9.980  24.495  -6.377  1.00  0.00    -0.237 OA
ATOM     95  O   UNL     1      11.271  22.409  -6.146  1.00  0.00    -0.744 OA
ENDBRANCH  91  92
ENDBRANCH  65  86
ENDBRANCH  39  40
ENDBRANCH  32  34
ENDBRANCH  31  32
ENDBRANCH  30  31
ENDBRANCH  29  30
ENDBRANCH  28  29
ENDBRANCH  26  28
ENDBRANCH   1  26
TORSDOF 23
