REMARK SMILES NS(=O)(=O)c1ccc(-n2nc(NC(=O)NCCCCCCCCCCC(=O)OCCOC(=O)c3ccc(-c4c5nc(c(-c6ccc(S(=O)(=O)[O-])cc6)c6ccc([nH]6)c(-c6ccc(S(=O)(=O)[O-])cc6)c6nc(c(-c7ccc(S(=O)(=O)[O-])cc7)c7ccc4[nH]7)C=C6)C=C5)cc3)cc2-c2ccccc2)cc1
REMARK SMILES IDX 23 1 22 2 21 3 20 4 19 5 18 6 17 7 16 8 15 9 12 10 13 11
REMARK SMILES IDX 14 13 11 15 9 16 10 17 95 18 94 19 8 20 5 21 6 22 103 23
REMARK SMILES IDX 7 24 102 25 2 26 3 27 4 28 1 29 96 32 97 33 101 34 98 35
REMARK SMILES IDX 100 36 99 37 24 38 25 39 26 40 27 41 28 42 29 43 30 44 31 45
REMARK SMILES IDX 32 46 33 47 34 48 35 49 93 50 36 51 92 52 37 53 38 54 39 55
REMARK SMILES IDX 86 56 40 57 91 58 85 59 87 60 41 61 90 62 84 63 83 64 42 66
REMARK SMILES IDX 72 67 53 68 71 69 54 70 57 71 70 72 88 73 55 74 56 75 69 77
REMARK SMILES IDX 89 78 58 79 43 80 44 81 52 82 45 83 51 84 46 85 47 86 48 87
REMARK SMILES IDX 49 88 50 89 73 90 74 91 82 92 75 93 81 94 76 95 77 96 78 97
REMARK SMILES IDX 79 98 80 99 59 100 60 101 68 102 61 103 67 104 62 105 63 106
REMARK SMILES IDX 64 107 65 108 66 109
REMARK H PARENT 12 12 15 14 1 30 1 31 87 65 57 76
REMARK Flexibility Score: inf
ROOT
ATOM      1  C   UNL     1      -4.366   3.963  -1.857  1.00  0.00     0.001 C 
ENDROOT
BRANCH   1   2
ATOM      2  C   UNL     1      -4.488   4.074  -0.337  1.00  0.00     0.000 C 
BRANCH   2   3
ATOM      3  C   UNL     1      -3.128   4.188   0.342  1.00  0.00     0.000 C 
BRANCH   3   4
ATOM      4  C   UNL     1      -2.376   5.460  -0.044  1.00  0.00     0.000 C 
BRANCH   4   5
ATOM      5  C   UNL     1      -3.135   6.758   0.251  1.00  0.00     0.000 C 
BRANCH   5   6
ATOM      6  C   UNL     1      -3.534   6.930   1.721  1.00  0.00     0.002 C 
BRANCH   6   7
ATOM      7  C   UNL     1      -2.397   6.737   2.723  1.00  0.00     0.021 C 
BRANCH   7   8
ATOM      8  C   UNL     1      -1.140   7.537   2.425  1.00  0.00     0.117 C 
BRANCH   8   9
ATOM      9  N   UNL     1      -1.250   8.959   2.659  1.00  0.00    -0.338 N 
ATOM     10  N   UNL     1       0.990   9.500   3.261  1.00  0.00    -0.291 N 
ATOM     11  C   UNL     1      -0.306   9.835   3.067  1.00  0.00     0.320 C 
ATOM     12  H   UNL     1       1.477  10.108   3.863  1.00  0.00     0.173 HD
ATOM     13  O   UNL     1      -0.676  10.968   3.393  1.00  0.00    -0.248 OA
ATOM     14  H   UNL     1      -2.141   9.344   2.497  1.00  0.00     0.165 HD
BRANCH  10  15
ATOM     15  C   UNL     1       1.752   8.463   2.770  1.00  0.00     0.157 A 
ATOM     16  N   UNL     1       2.238   6.649   1.792  1.00  0.00    -0.231 N 
ATOM     17  N   UNL     1       1.502   7.772   1.657  1.00  0.00    -0.149 NA
ATOM     18  C   UNL     1       3.284   6.849   2.685  1.00  0.00     0.076 A 
ATOM     19  C   UNL     1       2.948   8.004   3.369  1.00  0.00     0.078 A 
BRANCH  16  20
ATOM     20  C   UNL     1       1.827   5.440   1.163  1.00  0.00     0.065 A 
ATOM     21  C   UNL     1       1.020   3.062  -0.065  1.00  0.00     0.082 A 
ATOM     22  C   UNL     1       1.541   3.026   1.230  1.00  0.00     0.024 A 
ATOM     23  C   UNL     1       0.884   4.280  -0.742  1.00  0.00     0.024 A 
ATOM     24  C   UNL     1       1.954   4.214   1.838  1.00  0.00     0.030 A 
ATOM     25  C   UNL     1       1.260   5.476  -0.116  1.00  0.00     0.030 A 
BRANCH  21  26
ATOM     26  S   UNL     1       0.564   1.572  -0.902  1.00  0.00     0.238 S 
ATOM     27  O   UNL     1       1.169   1.582  -2.216  1.00  0.00    -0.207 OA
ATOM     28  O   UNL     1      -0.835   1.323  -0.675  1.00  0.00    -0.207 OA
BRANCH  26  29
ATOM     29  N   UNL     1       1.371   0.348  -0.071  1.00  0.00    -0.225 NA
ATOM     30  H   UNL     1       1.156  -0.553  -0.499  1.00  0.00     0.137 HD
ATOM     31  H   UNL     1       1.069   0.342   0.903  1.00  0.00     0.137 HD
ENDBRANCH  26  29
ENDBRANCH  21  26
ENDBRANCH  16  20
BRANCH  18  32
ATOM     32  C   UNL     1       4.444   5.969   2.775  1.00  0.00     0.000 A 
ATOM     33  C   UNL     1       5.101   5.583   1.596  1.00  0.00     0.010 A 
ATOM     34  C   UNL     1       4.877   5.454   3.999  1.00  0.00     0.010 A 
ATOM     35  C   UNL     1       6.143   4.661   1.632  1.00  0.00     0.001 A 
ATOM     36  C   UNL     1       5.926   4.532   4.034  1.00  0.00     0.001 A 
ATOM     37  C   UNL     1       6.551   4.131   2.852  1.00  0.00     0.000 A 
ENDBRANCH  18  32
ENDBRANCH  10  15
ENDBRANCH   8   9
ENDBRANCH   7   8
ENDBRANCH   6   7
ENDBRANCH   5   6
ENDBRANCH   4   5
ENDBRANCH   3   4
ENDBRANCH   2   3
ENDBRANCH   1   2
BRANCH   1  38
ATOM     38  C   UNL     1      -3.773   2.625  -2.305  1.00  0.00     0.012 C 
BRANCH  38  39
ATOM     39  C   UNL     1      -4.452   1.360  -1.764  1.00  0.00     0.123 C 
BRANCH  39  40
ATOM     40  C   UNL     1      -5.944   1.188  -1.987  1.00  0.00     0.305 C 
ATOM     41  O   UNL     1      -6.460   0.099  -2.214  1.00  0.00    -0.252 OA
BRANCH  40  42
ATOM     42  O   UNL     1      -6.640   2.342  -1.837  1.00  0.00    -0.462 OA
BRANCH  42  43
ATOM     43  C   UNL     1      -8.016   2.360  -2.257  1.00  0.00     0.274 C 
BRANCH  43  44
ATOM     44  C   UNL     1      -8.138   2.709  -3.734  1.00  0.00     0.275 C 
BRANCH  44  45
ATOM     45  O   UNL     1      -7.541   1.692  -4.536  1.00  0.00    -0.458 OA
BRANCH  45  46
ATOM     46  C   UNL     1      -6.286   1.986  -4.939  1.00  0.00     0.338 C 
ATOM     47  O   UNL     1      -5.611   2.940  -4.596  1.00  0.00    -0.246 OA
BRANCH  46  48
ATOM     48  C   UNL     1      -5.888   1.103  -6.029  1.00  0.00     0.060 A 
ATOM     49  C   UNL     1      -4.525   0.983  -6.322  1.00  0.00     0.016 A 
ATOM     50  C   UNL     1      -6.888   0.738  -6.934  1.00  0.00     0.016 A 
ATOM     51  C   UNL     1      -4.165   0.670  -7.616  1.00  0.00     0.010 A 
ATOM     52  C   UNL     1      -6.528   0.457  -8.225  1.00  0.00     0.010 A 
ATOM     53  C   UNL     1      -5.178   0.507  -8.567  1.00  0.00    -0.014 A 
BRANCH  53  54
ATOM     54  C   UNL     1      -4.817   0.274  -9.948  1.00  0.00     0.031 A 
ATOM     55  C   UNL     1      -4.321  -1.103 -10.178  1.00  0.00     0.074 A 
ATOM     56  C   UNL     1      -5.089   1.167 -10.919  1.00  0.00     0.049 A 
ATOM     57  N   UNL     1      -3.138  -1.465 -10.543  1.00  0.00    -0.248 NA
ATOM     58  C   UNL     1      -5.196  -2.220  -9.775  1.00  0.00     0.031 C 
ATOM     59  C   UNL     1      -5.845   2.420 -10.821  1.00  0.00     0.029 A 
ATOM     60  N   UNL     1      -4.844   1.072 -12.251  1.00  0.00    -0.354 N 
ATOM     61  C   UNL     1      -3.183  -2.852 -10.622  1.00  0.00     0.074 A 
ATOM     62  C   UNL     1      -4.387  -3.263  -9.948  1.00  0.00     0.031 C 
ATOM     63  C   UNL     1      -6.205   2.823 -12.063  1.00  0.00     0.029 A 
ATOM     64  C   UNL     1      -5.591   1.940 -13.041  1.00  0.00     0.049 A 
ATOM     65  H   UNL     1      -4.191   0.440 -12.627  1.00  0.00     0.167 HD
ATOM     66  C   UNL     1      -2.369  -3.545 -11.462  1.00  0.00     0.031 A 
ATOM     67  C   UNL     1      -5.739   1.875 -14.392  1.00  0.00     0.031 A 
ATOM     68  C   UNL     1      -1.261  -2.743 -11.910  1.00  0.00     0.049 A 
ATOM     69  C   UNL     1      -4.626   1.035 -14.906  1.00  0.00     0.074 A 
ATOM     70  C   UNL     1      -0.213  -2.111 -11.271  1.00  0.00     0.029 A 
ATOM     71  N   UNL     1      -1.381  -2.136 -13.139  1.00  0.00    -0.354 N 
ATOM     72  N   UNL     1      -3.372   1.387 -14.834  1.00  0.00    -0.248 NA
ATOM     73  C   UNL     1      -4.864  -0.394 -15.046  1.00  0.00     0.031 C 
ATOM     74  C   UNL     1      -0.078  -0.859 -11.938  1.00  0.00     0.029 A 
ATOM     75  C   UNL     1      -0.987  -0.828 -12.999  1.00  0.00     0.049 A 
ATOM     76  H   UNL     1      -1.694  -2.562 -13.969  1.00  0.00     0.167 HD
ATOM     77  C   UNL     1      -2.697   0.228 -14.477  1.00  0.00     0.074 A 
ATOM     78  C   UNL     1      -3.656  -0.854 -14.704  1.00  0.00     0.031 C 
ATOM     79  C   UNL     1      -1.532   0.276 -13.764  1.00  0.00     0.031 A 
BRANCH  66  80
ATOM     80  C   UNL     1      -2.809  -4.803 -12.161  1.00  0.00    -0.014 A 
ATOM     81  C   UNL     1      -1.877  -5.528 -12.926  1.00  0.00     0.010 A 
ATOM     82  C   UNL     1      -4.168  -5.163 -12.296  1.00  0.00     0.010 A 
ATOM     83  C   UNL     1      -2.293  -6.539 -13.804  1.00  0.00     0.020 A 
ATOM     84  C   UNL     1      -4.588  -6.197 -13.132  1.00  0.00     0.020 A 
ATOM     85  C   UNL     1      -3.647  -6.863 -13.902  1.00  0.00     0.054 A 
BRANCH  85  86
ATOM     86  S   UNL     1      -4.180  -8.123 -15.085  1.00  0.00     0.124 S 
ATOM     87  O   UNL     1      -3.855  -7.495 -16.362  1.00  0.00    -0.237 OA
ATOM     88  O   UNL     1      -3.353  -9.266 -14.710  1.00  0.00    -0.237 OA
ATOM     89  O   UNL     1      -5.606  -8.274 -14.806  1.00  0.00    -0.744 OA
ENDBRANCH  85  86
ENDBRANCH  66  80
BRANCH  67  90
ATOM     90  C   UNL     1      -6.955   2.162 -15.202  1.00  0.00    -0.014 A 
ATOM     91  C   UNL     1      -6.892   2.260 -16.607  1.00  0.00     0.010 A 
ATOM     92  C   UNL     1      -8.233   2.045 -14.617  1.00  0.00     0.010 A 
ATOM     93  C   UNL     1      -8.056   2.179 -17.396  1.00  0.00     0.020 A 
ATOM     94  C   UNL     1      -9.396   1.968 -15.396  1.00  0.00     0.020 A 
ATOM     95  C   UNL     1      -9.300   2.010 -16.785  1.00  0.00     0.054 A 
BRANCH  95  96
ATOM     96  S   UNL     1     -10.776   1.718 -17.809  1.00  0.00     0.124 S 
ATOM     97  O   UNL     1     -10.991   3.023 -18.428  1.00  0.00    -0.237 OA
ATOM     98  O   UNL     1     -10.335   0.657 -18.710  1.00  0.00    -0.237 OA
ATOM     99  O   UNL     1     -11.795   1.318 -16.840  1.00  0.00    -0.744 OA
ENDBRANCH  95  96
ENDBRANCH  67  90
BRANCH  79 100
ATOM    100  C   UNL     1      -0.859   1.621 -13.577  1.00  0.00    -0.014 A 
ATOM    101  C   UNL     1      -1.442   2.715 -12.903  1.00  0.00     0.010 A 
ATOM    102  C   UNL     1       0.486   1.726 -13.972  1.00  0.00     0.010 A 
ATOM    103  C   UNL     1      -0.706   3.888 -12.661  1.00  0.00     0.020 A 
ATOM    104  C   UNL     1       1.229   2.881 -13.718  1.00  0.00     0.020 A 
ATOM    105  C   UNL     1       0.628   3.962 -13.074  1.00  0.00     0.054 A 
BRANCH 105 106
ATOM    106  S   UNL     1       1.594   5.463 -12.738  1.00  0.00     0.124 S 
ATOM    107  O   UNL     1       0.964   6.449 -13.611  1.00  0.00    -0.237 OA
ATOM    108  O   UNL     1       1.390   5.670 -11.306  1.00  0.00    -0.237 OA
ATOM    109  O   UNL     1       2.958   5.091 -13.111  1.00  0.00    -0.744 OA
ENDBRANCH 105 106
ENDBRANCH  79 100
ENDBRANCH  53  54
ENDBRANCH  46  48
ENDBRANCH  45  46
ENDBRANCH  44  45
ENDBRANCH  43  44
ENDBRANCH  42  43
ENDBRANCH  40  42
ENDBRANCH  39  40
ENDBRANCH  38  39
ENDBRANCH   1  38
TORSDOF 29
