REMARK SMILES O=C1NC[C@@H](CSc2ccnc(C(=O)OCCOC(=O)c3ccc(-c4c5nc(c(-c6ccc(S(=O)(=O)[O-])cc6)c6ccc([nH]6)c(-c6ccc(S(=O)(=O)[O-])cc6)c6nc(c(-c7ccc(S(=O)(=O)[O-])cc7)c7ccc4[nH]7)C=C6)C=C5)cc3)c2)O1
REMARK SMILES IDX 16 1 15 2 13 3 14 4 12 5 8 6 9 7 81 8 10 9 11 10 7 11 6 12
REMARK SMILES IDX 5 13 1 14 2 15 3 16 82 17 4 18 17 20 18 21 19 22 20 23 21 24
REMARK SMILES IDX 22 25 80 26 23 27 79 28 24 29 25 30 26 31 73 32 27 33 78 34
REMARK SMILES IDX 72 35 74 36 28 37 77 38 71 39 70 40 29 42 59 43 40 44 58 45
REMARK SMILES IDX 41 46 44 47 57 48 75 49 42 50 43 51 56 53 76 54 45 55 30 56
REMARK SMILES IDX 31 57 39 58 32 59 38 60 33 61 34 62 35 63 36 64 37 65 60 66
REMARK SMILES IDX 61 67 69 68 62 69 68 70 63 71 64 72 65 73 66 74 67 75 46 76
REMARK SMILES IDX 47 77 55 78 48 79 54 80 49 81 50 82 51 83 52 84 53 85
REMARK H PARENT 3 19 74 41 44 52
REMARK Flexibility Score: inf
ROOT
ATOM      1  C   UNL     1       3.572  -4.734  -6.520  1.00  0.00     0.275 C 
ENDROOT
BRANCH   1   2
ATOM      2  O   UNL     1       2.899  -3.810  -5.641  1.00  0.00    -0.457 OA
BRANCH   2   3
ATOM      3  C   UNL     1       1.857  -4.351  -4.954  1.00  0.00     0.357 C 
ATOM      4  O   UNL     1       1.423  -5.482  -5.123  1.00  0.00    -0.244 OA
BRANCH   3   5
ATOM      5  C   UNL     1       1.331  -3.430  -3.895  1.00  0.00     0.149 A 
ATOM      6  C   UNL     1       0.875  -1.300  -2.919  1.00  0.00     0.011 A 
ATOM      7  C   UNL     1       0.082  -1.949  -1.977  1.00  0.00     0.035 A 
ATOM      8  C   UNL     1       1.509  -2.052  -3.913  1.00  0.00     0.051 A 
ATOM      9  C   UNL     1       0.011  -3.323  -1.994  1.00  0.00     0.113 A 
ATOM     10  N   UNL     1       0.605  -4.066  -2.936  1.00  0.00    -0.249 NA
BRANCH   6  11
ATOM     11  S   UNL     1       0.902   0.481  -2.952  1.00  0.00    -0.122 SA
BRANCH  11  12
ATOM     12  C   UNL     1       2.019   0.911  -1.553  1.00  0.00     0.122 C 
BRANCH  12  13
ATOM     13  C   UNL     1       1.472   0.939  -0.115  1.00  0.00     0.208 C 
ATOM     14  O   UNL     1      -1.799   0.433   0.881  1.00  0.00    -0.225 OA
ATOM     15  C   UNL     1      -0.601   0.402   0.671  1.00  0.00     0.407 C 
ATOM     16  N   UNL     1       0.241  -0.588   1.085  1.00  0.00    -0.318 N 
ATOM     17  O   UNL     1       0.091   1.332  -0.048  1.00  0.00    -0.443 OA
ATOM     18  C   UNL     1       1.575  -0.365   0.653  1.00  0.00     0.165 C 
ATOM     19  H   UNL     1      -0.043  -1.365   1.619  1.00  0.00     0.167 HD
ENDBRANCH  12  13
ENDBRANCH  11  12
ENDBRANCH   6  11
ENDBRANCH   3   5
ENDBRANCH   2   3
ENDBRANCH   1   2
BRANCH   1  20
ATOM     20  C   UNL     1       4.804  -5.363  -5.858  1.00  0.00     0.275 C 
BRANCH  20  21
ATOM     21  O   UNL     1       4.472  -6.268  -4.788  1.00  0.00    -0.458 OA
BRANCH  21  22
ATOM     22  C   UNL     1       4.373  -5.700  -3.562  1.00  0.00     0.338 C 
ATOM     23  O   UNL     1       4.521  -4.521  -3.284  1.00  0.00    -0.246 OA
BRANCH  22  24
ATOM     24  C   UNL     1       3.986  -6.712  -2.565  1.00  0.00     0.060 A 
ATOM     25  C   UNL     1       2.755  -6.576  -1.924  1.00  0.00     0.016 A 
ATOM     26  C   UNL     1       4.875  -7.714  -2.178  1.00  0.00     0.016 A 
ATOM     27  C   UNL     1       2.414  -7.414  -0.864  1.00  0.00     0.010 A 
ATOM     28  C   UNL     1       4.520  -8.575  -1.133  1.00  0.00     0.010 A 
ATOM     29  C   UNL     1       3.297  -8.419  -0.453  1.00  0.00    -0.014 A 
BRANCH  29  30
ATOM     30  C   UNL     1       2.977  -9.279   0.715  1.00  0.00     0.031 A 
ATOM     31  C   UNL     1       3.820  -9.187   1.958  1.00  0.00     0.074 A 
ATOM     32  C   UNL     1       1.950 -10.149   0.660  1.00  0.00     0.049 A 
ATOM     33  N   UNL     1       3.834  -9.965   3.009  1.00  0.00    -0.248 NA
ATOM     34  C   UNL     1       4.782  -8.075   2.020  1.00  0.00     0.031 C 
ATOM     35  C   UNL     1       1.013 -10.287  -0.456  1.00  0.00     0.029 A 
ATOM     36  N   UNL     1       1.531 -11.095   1.564  1.00  0.00    -0.354 N 
ATOM     37  C   UNL     1       4.832  -9.464   3.838  1.00  0.00     0.074 A 
ATOM     38  C   UNL     1       5.408  -8.322   3.162  1.00  0.00     0.031 C 
ATOM     39  C   UNL     1       0.133 -11.260  -0.173  1.00  0.00     0.029 A 
ATOM     40  C   UNL     1       0.485 -11.863   1.109  1.00  0.00     0.049 A 
ATOM     41  H   UNL     1       1.941 -11.212   2.452  1.00  0.00     0.167 HD
ATOM     42  C   UNL     1       5.233  -9.921   5.049  1.00  0.00     0.031 A 
ATOM     43  C   UNL     1      -0.095 -12.958   1.639  1.00  0.00     0.031 A 
ATOM     44  C   UNL     1       4.647 -11.057   5.713  1.00  0.00     0.049 A 
ATOM     45  C   UNL     1       0.418 -13.495   2.948  1.00  0.00     0.074 A 
ATOM     46  C   UNL     1       4.979 -11.602   6.941  1.00  0.00     0.029 A 
ATOM     47  N   UNL     1       3.605 -11.819   5.205  1.00  0.00    -0.354 N 
ATOM     48  N   UNL     1       1.383 -13.032   3.707  1.00  0.00    -0.248 NA
ATOM     49  C   UNL     1      -0.234 -14.703   3.472  1.00  0.00     0.031 C 
ATOM     50  C   UNL     1       4.175 -12.726   7.151  1.00  0.00     0.029 A 
ATOM     51  C   UNL     1       3.294 -12.840   6.087  1.00  0.00     0.049 A 
ATOM     52  H   UNL     1       3.154 -11.659   4.345  1.00  0.00     0.167 HD
ATOM     53  C   UNL     1       1.427 -13.870   4.816  1.00  0.00     0.074 A 
ATOM     54  C   UNL     1       0.393 -14.866   4.630  1.00  0.00     0.031 C 
ATOM     55  C   UNL     1       2.248 -13.814   5.894  1.00  0.00     0.031 A 
BRANCH  42  56
ATOM     56  C   UNL     1       6.393  -9.223   5.711  1.00  0.00    -0.014 A 
ATOM     57  C   UNL     1       6.269  -7.923   6.232  1.00  0.00     0.010 A 
ATOM     58  C   UNL     1       7.623  -9.895   5.841  1.00  0.00     0.010 A 
ATOM     59  C   UNL     1       7.366  -7.291   6.827  1.00  0.00     0.020 A 
ATOM     60  C   UNL     1       8.713  -9.279   6.462  1.00  0.00     0.020 A 
ATOM     61  C   UNL     1       8.583  -7.972   6.934  1.00  0.00     0.054 A 
BRANCH  61  62
ATOM     62  S   UNL     1       9.986  -7.129   7.714  1.00  0.00     0.124 S 
ATOM     63  O   UNL     1      10.347  -6.143   6.699  1.00  0.00    -0.237 OA
ATOM     64  O   UNL     1       9.395  -6.585   8.934  1.00  0.00    -0.237 OA
ATOM     65  O   UNL     1      10.963  -8.196   7.920  1.00  0.00    -0.744 OA
ENDBRANCH  61  62
ENDBRANCH  42  56
BRANCH  43  66
ATOM     66  C   UNL     1      -1.202 -13.639   0.911  1.00  0.00    -0.014 A 
ATOM     67  C   UNL     1      -2.511 -13.622   1.421  1.00  0.00     0.010 A 
ATOM     68  C   UNL     1      -0.953 -14.299  -0.307  1.00  0.00     0.010 A 
ATOM     69  C   UNL     1      -3.547 -14.264   0.735  1.00  0.00     0.020 A 
ATOM     70  C   UNL     1      -1.991 -14.915  -1.012  1.00  0.00     0.020 A 
ATOM     71  C   UNL     1      -3.280 -14.904  -0.479  1.00  0.00     0.054 A 
BRANCH  71  72
ATOM     72  S   UNL     1      -4.650 -15.688  -1.374  1.00  0.00     0.124 S 
ATOM     73  O   UNL     1      -4.920 -16.861  -0.549  1.00  0.00    -0.237 OA
ATOM     74  O   UNL     1      -5.677 -14.649  -1.351  1.00  0.00    -0.237 OA
ATOM     75  O   UNL     1      -4.084 -15.965  -2.692  1.00  0.00    -0.744 OA
ENDBRANCH  71  72
ENDBRANCH  43  66
BRANCH  55  76
ATOM     76  C   UNL     1       2.022 -14.814   6.998  1.00  0.00    -0.014 A 
ATOM     77  C   UNL     1       2.383 -16.164   6.854  1.00  0.00     0.010 A 
ATOM     78  C   UNL     1       1.513 -14.367   8.231  1.00  0.00     0.010 A 
ATOM     79  C   UNL     1       2.222 -17.053   7.921  1.00  0.00     0.020 A 
ATOM     80  C   UNL     1       1.378 -15.245   9.308  1.00  0.00     0.020 A 
ATOM     81  C   UNL     1       1.726 -16.587   9.143  1.00  0.00     0.054 A 
BRANCH  81  82
ATOM     82  S   UNL     1       1.594 -17.745  10.533  1.00  0.00     0.124 S 
ATOM     83  O   UNL     1       0.456 -18.570  10.135  1.00  0.00    -0.237 OA
ATOM     84  O   UNL     1       2.893 -18.414  10.515  1.00  0.00    -0.237 OA
ATOM     85  O   UNL     1       1.363 -16.878  11.686  1.00  0.00    -0.744 OA
ENDBRANCH  81  82
ENDBRANCH  55  76
ENDBRANCH  29  30
ENDBRANCH  22  24
ENDBRANCH  21  22
ENDBRANCH  20  21
ENDBRANCH   1  20
TORSDOF 17
