REMARK SMILES CC(=O)c1nnn(-c2ccc(C(=O)OCCOC(=O)c3ccc(-c4c5nc(c(-c6ccc(S(=O)(=O)[O-])cc6)c6ccc([nH]6)c(-c6ccc(S(=O)(=O)[O-])cc6)c6nc(c(-c7ccc(S(=O)(=O)[O-])cc7)c7ccc4[nH]7)C=C6)C=C5)cc3)cc2)c1C
REMARK SMILES IDX 16 1 15 2 14 3 12 4 13 5 11 6 8 7 9 8 81 9 10 10 80 11 7 12
REMARK SMILES IDX 4 13 5 14 82 15 6 16 83 17 2 18 1 19 3 20 17 21 18 22 19 23
REMARK SMILES IDX 20 24 21 25 79 26 22 27 78 28 23 29 24 30 25 31 72 32 26 33
REMARK SMILES IDX 77 34 71 35 73 36 27 37 76 38 70 39 69 40 28 42 58 43 39 44
REMARK SMILES IDX 57 45 40 46 43 47 56 48 74 49 41 50 42 51 55 53 75 54 44 55
REMARK SMILES IDX 29 56 30 57 38 58 31 59 37 60 32 61 33 62 34 63 35 64 36 65
REMARK SMILES IDX 59 66 60 67 68 68 61 69 67 70 62 71 63 72 64 73 65 74 66 75
REMARK SMILES IDX 45 76 46 77 54 78 47 79 53 80 48 81 49 82 50 83 51 84 52 85
REMARK H PARENT 73 41 43 52
REMARK Flexibility Score: inf
ROOT
ATOM      1  C   UNL     1       9.207   7.176  -5.229  1.00  0.00     0.275 C 
ENDROOT
BRANCH   1   2
ATOM      2  C   UNL     1       9.283   6.260  -4.016  1.00  0.00     0.275 C 
BRANCH   2   3
ATOM      3  O   UNL     1       8.057   5.532  -3.840  1.00  0.00    -0.458 OA
BRANCH   3   4
ATOM      4  C   UNL     1       7.101   6.148  -3.087  1.00  0.00     0.338 C 
ATOM      5  O   UNL     1       7.243   7.140  -2.411  1.00  0.00    -0.246 OA
BRANCH   4   6
ATOM      6  C   UNL     1       5.801   5.441  -3.247  1.00  0.00     0.060 A 
ATOM      7  C   UNL     1       3.388   4.071  -3.194  1.00  0.00     0.067 A 
ATOM      8  C   UNL     1       3.393   5.435  -2.898  1.00  0.00     0.029 A 
ATOM      9  C   UNL     1       4.544   3.430  -3.661  1.00  0.00     0.029 A 
ATOM     10  C   UNL     1       4.615   6.113  -2.900  1.00  0.00     0.018 A 
ATOM     11  C   UNL     1       5.749   4.119  -3.696  1.00  0.00     0.018 A 
BRANCH   7  12
ATOM     12  N   UNL     1       2.268   3.284  -2.862  1.00  0.00    -0.217 N 
ATOM     13  C   UNL     1       0.957   1.697  -2.139  1.00  0.00     0.151 A 
ATOM     14  N   UNL     1       0.217   2.623  -2.836  1.00  0.00    -0.126 NA
ATOM     15  C   UNL     1       2.270   2.139  -2.072  1.00  0.00     0.073 A 
ATOM     16  N   UNL     1       1.006   3.641  -3.155  1.00  0.00    -0.061 NA
ATOM     17  C   UNL     1       3.478   1.678  -1.341  1.00  0.00     0.069 C 
BRANCH  13  18
ATOM     18  C   UNL     1       0.334   0.511  -1.564  1.00  0.00     0.181 C 
ATOM     19  C   UNL     1       0.768   0.050  -0.196  1.00  0.00     0.095 C 
ATOM     20  O   UNL     1      -0.537  -0.119  -2.166  1.00  0.00    -0.293 OA
ENDBRANCH  13  18
ENDBRANCH   7  12
ENDBRANCH   4   6
ENDBRANCH   3   4
ENDBRANCH   2   3
ENDBRANCH   1   2
BRANCH   1  21
ATOM     21  O   UNL     1       8.335   8.277  -4.985  1.00  0.00    -0.458 OA
BRANCH  21  22
ATOM     22  C   UNL     1       7.059   8.099  -5.392  1.00  0.00     0.338 C 
ATOM     23  O   UNL     1       6.529   7.049  -5.720  1.00  0.00    -0.246 OA
BRANCH  22  24
ATOM     24  C   UNL     1       6.433   9.407  -5.590  1.00  0.00     0.060 A 
ATOM     25  C   UNL     1       5.084   9.422  -5.956  1.00  0.00     0.016 A 
ATOM     26  C   UNL     1       7.250  10.541  -5.711  1.00  0.00     0.016 A 
ATOM     27  C   UNL     1       4.604  10.523  -6.632  1.00  0.00     0.010 A 
ATOM     28  C   UNL     1       6.773  11.632  -6.394  1.00  0.00     0.010 A 
ATOM     29  C   UNL     1       5.485  11.571  -6.919  1.00  0.00    -0.014 A 
BRANCH  29  30
ATOM     30  C   UNL     1       5.009  12.651  -7.754  1.00  0.00     0.031 A 
ATOM     31  C   UNL     1       4.029  13.531  -7.083  1.00  0.00     0.074 A 
ATOM     32  C   UNL     1       5.518  12.893  -8.975  1.00  0.00     0.049 A 
ATOM     33  N   UNL     1       2.783  13.699  -7.373  1.00  0.00    -0.248 NA
ATOM     34  C   UNL     1       4.457  14.187  -5.837  1.00  0.00     0.031 C 
ATOM     35  C   UNL     1       6.694  12.288  -9.609  1.00  0.00     0.029 A 
ATOM     36  N   UNL     1       5.149  13.848  -9.864  1.00  0.00    -0.354 N 
ATOM     37  C   UNL     1       2.309  14.631  -6.458  1.00  0.00     0.074 A 
ATOM     38  C   UNL     1       3.322  14.760  -5.441  1.00  0.00     0.031 C 
ATOM     39  C   UNL     1       7.080  13.062 -10.650  1.00  0.00     0.029 A 
ATOM     40  C   UNL     1       6.101  14.121 -10.835  1.00  0.00     0.049 A 
ATOM     41  H   UNL     1       4.280  14.309  -9.823  1.00  0.00     0.167 HD
ATOM     42  C   UNL     1       1.219  15.403  -6.717  1.00  0.00     0.031 A 
ATOM     43  C   UNL     1       6.112  15.198 -11.661  1.00  0.00     0.031 A 
ATOM     44  C   UNL     1       0.450  14.896  -7.820  1.00  0.00     0.049 A 
ATOM     45  C   UNL     1       4.732  15.751 -11.676  1.00  0.00     0.074 A 
ATOM     46  C   UNL     1      -0.236  13.722  -8.059  1.00  0.00     0.029 A 
ATOM     47  N   UNL     1       0.649  15.482  -9.048  1.00  0.00    -0.354 N 
ATOM     48  N   UNL     1       3.707  15.115 -12.171  1.00  0.00    -0.248 NA
ATOM     49  C   UNL     1       4.407  16.809 -10.729  1.00  0.00     0.031 C 
ATOM     50  C   UNL     1       0.002  13.432  -9.433  1.00  0.00     0.029 A 
ATOM     51  C   UNL     1       0.766  14.472  -9.969  1.00  0.00     0.049 A 
ATOM     52  H   UNL     1       0.698  16.448  -9.233  1.00  0.00     0.167 HD
ATOM     53  C   UNL     1       2.657  15.396 -11.307  1.00  0.00     0.074 A 
ATOM     54  C   UNL     1       3.125  16.516 -10.494  1.00  0.00     0.031 C 
ATOM     55  C   UNL     1       1.618  14.524 -11.140  1.00  0.00     0.031 A 
BRANCH  42  56
ATOM     56  C   UNL     1       1.080  16.816  -6.217  1.00  0.00    -0.014 A 
ATOM     57  C   UNL     1      -0.122  17.510  -6.453  1.00  0.00     0.010 A 
ATOM     58  C   UNL     1       2.182  17.573  -5.766  1.00  0.00     0.010 A 
ATOM     59  C   UNL     1      -0.193  18.902  -6.306  1.00  0.00     0.020 A 
ATOM     60  C   UNL     1       2.109  18.951  -5.571  1.00  0.00     0.020 A 
ATOM     61  C   UNL     1       0.929  19.612  -5.878  1.00  0.00     0.054 A 
BRANCH  61  62
ATOM     62  S   UNL     1       0.865  21.418  -5.803  1.00  0.00     0.124 S 
ATOM     63  O   UNL     1       0.732  21.772  -7.213  1.00  0.00    -0.237 OA
ATOM     64  O   UNL     1      -0.315  21.651  -4.975  1.00  0.00    -0.237 OA
ATOM     65  O   UNL     1       2.138  21.780  -5.183  1.00  0.00    -0.744 OA
ENDBRANCH  61  62
ENDBRANCH  42  56
BRANCH  43  66
ATOM     66  C   UNL     1       7.298  15.969 -12.115  1.00  0.00    -0.014 A 
ATOM     67  C   UNL     1       7.198  16.908 -13.158  1.00  0.00     0.010 A 
ATOM     68  C   UNL     1       8.475  15.980 -11.336  1.00  0.00     0.010 A 
ATOM     69  C   UNL     1       8.213  17.858 -13.376  1.00  0.00     0.020 A 
ATOM     70  C   UNL     1       9.492  16.917 -11.551  1.00  0.00     0.020 A 
ATOM     71  C   UNL     1       9.345  17.869 -12.557  1.00  0.00     0.054 A 
BRANCH  71  72
ATOM     72  S   UNL     1      10.565  19.206 -12.728  1.00  0.00     0.124 S 
ATOM     73  O   UNL     1      11.200  18.886 -14.003  1.00  0.00    -0.237 OA
ATOM     74  O   UNL     1       9.728  20.402 -12.721  1.00  0.00    -0.237 OA
ATOM     75  O   UNL     1      11.420  19.045 -11.553  1.00  0.00    -0.744 OA
ENDBRANCH  71  72
ENDBRANCH  43  66
BRANCH  55  76
ATOM     76  C   UNL     1       1.479  13.367 -12.102  1.00  0.00    -0.014 A 
ATOM     77  C   UNL     1       2.416  12.319 -12.200  1.00  0.00     0.010 A 
ATOM     78  C   UNL     1       0.251  13.236 -12.775  1.00  0.00     0.010 A 
ATOM     79  C   UNL     1       2.126  11.169 -12.953  1.00  0.00     0.020 A 
ATOM     80  C   UNL     1      -0.049  12.088 -13.512  1.00  0.00     0.020 A 
ATOM     81  C   UNL     1       0.890  11.059 -13.598  1.00  0.00     0.054 A 
BRANCH  81  82
ATOM     82  S   UNL     1       0.477   9.532 -14.490  1.00  0.00     0.124 S 
ATOM     83  O   UNL     1       1.346   9.604 -15.662  1.00  0.00    -0.237 OA
ATOM     84  O   UNL     1       0.810   8.489 -13.524  1.00  0.00    -0.237 OA
ATOM     85  O   UNL     1      -0.952   9.669 -14.772  1.00  0.00    -0.744 OA
ENDBRANCH  81  82
ENDBRANCH  55  76
ENDBRANCH  29  30
ENDBRANCH  22  24
ENDBRANCH  21  22
ENDBRANCH   1  21
TORSDOF 16
