REMARK SMILES O=C(C[C@H](c1ccsc1)n1cccc1)OCCOC(=O)c1ccc(-c2c3nc(c(-c4ccc(S(=O)(=O)[O-])cc4)c4ccc([nH]4)c(-c4ccc(S(=O)(=O)[O-])cc4)c4nc(c(-c5ccc(S(=O)(=O)[O-])cc5)c5ccc2[nH]5)C=C4)C=C3)cc1
REMARK SMILES IDX 17 1 16 2 15 3 2 4 1 5 3 6 4 7 10 8 11 9 14 10 12 11 13 12
REMARK SMILES IDX 5 13 6 14 9 15 7 16 8 17 18 18 19 19 20 20 21 21 22 22 80 23
REMARK SMILES IDX 23 24 79 25 24 26 25 27 26 28 73 29 27 30 78 31 72 32 74 33
REMARK SMILES IDX 28 34 77 35 71 36 70 37 29 39 59 40 40 41 58 42 41 43 44 44
REMARK SMILES IDX 57 45 75 46 42 47 43 48 56 50 76 51 45 52 30 53 31 54 39 55
REMARK SMILES IDX 32 56 38 57 33 58 34 59 35 60 36 61 37 62 60 63 61 64 69 65
REMARK SMILES IDX 62 66 68 67 63 68 64 69 65 70 66 71 67 72 46 73 47 74 55 75
REMARK SMILES IDX 48 76 54 77 49 78 50 79 51 80 52 81 53 82
REMARK H PARENT 74 38 44 49
REMARK Flexibility Score: inf
ROOT
ATOM      1  C   UNL     1       6.079  -1.273   1.702  1.00  0.00     0.275 C 
ENDROOT
BRANCH   1   2
ATOM      2  C   UNL     1       6.020  -2.071   0.400  1.00  0.00     0.274 C 
BRANCH   2   3
ATOM      3  O   UNL     1       6.645  -1.439  -0.728  1.00  0.00    -0.462 OA
BRANCH   3   4
ATOM      4  C   UNL     1       6.005  -0.642  -1.615  1.00  0.00     0.308 C 
ATOM      5  O   UNL     1       6.622  -0.124  -2.545  1.00  0.00    -0.252 OA
BRANCH   4   6
ATOM      6  C   UNL     1       4.532  -0.364  -1.442  1.00  0.00     0.153 C 
BRANCH   6   7
ATOM      7  C   UNL     1       3.525  -1.422  -1.945  1.00  0.00     0.128 C 
BRANCH   7   8
ATOM      8  N   UNL     1       4.114  -2.666  -2.471  1.00  0.00    -0.346 N 
ATOM      9  C   UNL     1       4.973  -2.682  -3.554  1.00  0.00     0.086 A 
ATOM     10  C   UNL     1       3.935  -3.962  -2.063  1.00  0.00     0.086 A 
ATOM     11  C   UNL     1       5.477  -3.953  -3.697  1.00  0.00     0.019 A 
ATOM     12  C   UNL     1       4.811  -4.767  -2.760  1.00  0.00     0.019 A 
ENDBRANCH   7   8
BRANCH   7  13
ATOM     13  C   UNL     1       2.386  -1.574  -0.921  1.00  0.00    -0.014 A 
ATOM     14  C   UNL     1       2.378  -2.345   0.299  1.00  0.00     0.017 A 
ATOM     15  C   UNL     1       1.213  -0.836  -0.997  1.00  0.00     0.070 A 
ATOM     16  C   UNL     1       1.256  -2.146   1.071  1.00  0.00     0.065 A 
ATOM     17  S   UNL     1       0.171  -1.058   0.340  1.00  0.00    -0.152 S 
ENDBRANCH   7  13
ENDBRANCH   6   7
ENDBRANCH   4   6
ENDBRANCH   3   4
ENDBRANCH   2   3
ENDBRANCH   1   2
BRANCH   1  18
ATOM     18  O   UNL     1       5.742   0.103   1.532  1.00  0.00    -0.458 OA
BRANCH  18  19
ATOM     19  C   UNL     1       6.796   0.864   1.174  1.00  0.00     0.338 C 
ATOM     20  O   UNL     1       7.919   0.461   0.858  1.00  0.00    -0.246 OA
BRANCH  19  21
ATOM     21  C   UNL     1       6.470   2.284   1.247  1.00  0.00     0.060 A 
ATOM     22  C   UNL     1       7.136   3.147   0.370  1.00  0.00     0.016 A 
ATOM     23  C   UNL     1       5.692   2.766   2.306  1.00  0.00     0.016 A 
ATOM     24  C   UNL     1       7.103   4.508   0.612  1.00  0.00     0.010 A 
ATOM     25  C   UNL     1       5.691   4.125   2.570  1.00  0.00     0.010 A 
ATOM     26  C   UNL     1       6.429   4.985   1.744  1.00  0.00    -0.014 A 
BRANCH  26  27
ATOM     27  C   UNL     1       6.531   6.417   2.073  1.00  0.00     0.031 A 
ATOM     28  C   UNL     1       5.402   7.252   1.493  1.00  0.00     0.074 A 
ATOM     29  C   UNL     1       7.628   6.781   2.801  1.00  0.00     0.049 A 
ATOM     30  N   UNL     1       5.378   8.520   1.222  1.00  0.00    -0.248 NA
ATOM     31  C   UNL     1       4.140   6.581   1.084  1.00  0.00     0.031 C 
ATOM     32  C   UNL     1       8.657   5.832   3.283  1.00  0.00     0.029 A 
ATOM     33  N   UNL     1       8.113   7.981   3.278  1.00  0.00    -0.354 N 
ATOM     34  C   UNL     1       4.078   8.828   0.781  1.00  0.00     0.074 A 
ATOM     35  C   UNL     1       3.389   7.582   0.624  1.00  0.00     0.031 C 
ATOM     36  C   UNL     1       9.656   6.484   3.909  1.00  0.00     0.029 A 
ATOM     37  C   UNL     1       9.370   7.904   3.926  1.00  0.00     0.049 A 
ATOM     38  H   UNL     1       7.622   8.828   3.176  1.00  0.00     0.167 HD
ATOM     39  C   UNL     1       3.598  10.098   0.687  1.00  0.00     0.031 A 
ATOM     40  C   UNL     1      10.153   8.909   4.418  1.00  0.00     0.031 A 
ATOM     41  C   UNL     1       4.606  11.054   1.002  1.00  0.00     0.049 A 
ATOM     42  C   UNL     1       9.379  10.157   4.289  1.00  0.00     0.074 A 
ATOM     43  C   UNL     1       5.725  11.497   0.346  1.00  0.00     0.029 A 
ATOM     44  N   UNL     1       4.668  11.468   2.311  1.00  0.00    -0.354 N 
ATOM     45  N   UNL     1       8.340  10.470   5.002  1.00  0.00    -0.248 NA
ATOM     46  C   UNL     1       9.755  11.124   3.250  1.00  0.00     0.031 C 
ATOM     47  C   UNL     1       6.636  11.804   1.383  1.00  0.00     0.029 A 
ATOM     48  C   UNL     1       6.000  11.625   2.615  1.00  0.00     0.049 A 
ATOM     49  H   UNL     1       3.906  11.622   2.915  1.00  0.00     0.167 HD
ATOM     50  C   UNL     1       7.738  11.448   4.248  1.00  0.00     0.074 A 
ATOM     51  C   UNL     1       8.768  12.004   3.399  1.00  0.00     0.031 C 
ATOM     52  C   UNL     1       6.410  11.363   3.978  1.00  0.00     0.031 A 
BRANCH  39  53
ATOM     53  C   UNL     1       2.182  10.585   0.562  1.00  0.00    -0.014 A 
ATOM     54  C   UNL     1       1.993  11.932   0.169  1.00  0.00     0.010 A 
ATOM     55  C   UNL     1       1.086   9.907   1.116  1.00  0.00     0.010 A 
ATOM     56  C   UNL     1       0.803  12.611   0.434  1.00  0.00     0.020 A 
ATOM     57  C   UNL     1      -0.127  10.573   1.350  1.00  0.00     0.020 A 
ATOM     58  C   UNL     1      -0.239  11.934   1.059  1.00  0.00     0.054 A 
BRANCH  58  59
ATOM     59  S   UNL     1      -1.702  12.876   1.562  1.00  0.00     0.124 S 
ATOM     60  O   UNL     1      -1.210  13.606   2.727  1.00  0.00    -0.237 OA
ATOM     61  O   UNL     1      -1.977  13.694   0.382  1.00  0.00    -0.237 OA
ATOM     62  O   UNL     1      -2.697  11.842   1.838  1.00  0.00    -0.744 OA
ENDBRANCH  58  59
ENDBRANCH  39  53
BRANCH  40  63
ATOM     63  C   UNL     1      11.570   9.049   4.921  1.00  0.00    -0.014 A 
ATOM     64  C   UNL     1      12.509   8.015   5.031  1.00  0.00     0.010 A 
ATOM     65  C   UNL     1      12.060  10.357   5.188  1.00  0.00     0.010 A 
ATOM     66  C   UNL     1      13.878   8.287   5.253  1.00  0.00     0.020 A 
ATOM     67  C   UNL     1      13.416  10.646   5.360  1.00  0.00     0.020 A 
ATOM     68  C   UNL     1      14.328   9.604   5.366  1.00  0.00     0.054 A 
BRANCH  68  69
ATOM     69  S   UNL     1      16.100   9.993   5.378  1.00  0.00     0.124 S 
ATOM     70  O   UNL     1      16.396  10.057   6.805  1.00  0.00    -0.237 OA
ATOM     71  O   UNL     1      16.692   8.865   4.661  1.00  0.00    -0.237 OA
ATOM     72  O   UNL     1      16.164  11.268   4.665  1.00  0.00    -0.744 OA
ENDBRANCH  68  69
ENDBRANCH  40  63
BRANCH  52  73
ATOM     73  C   UNL     1       5.605  10.551   4.982  1.00  0.00    -0.014 A 
ATOM     74  C   UNL     1       5.500  10.979   6.318  1.00  0.00     0.010 A 
ATOM     75  C   UNL     1       5.026   9.310   4.652  1.00  0.00     0.010 A 
ATOM     76  C   UNL     1       4.851  10.194   7.285  1.00  0.00     0.020 A 
ATOM     77  C   UNL     1       4.370   8.519   5.608  1.00  0.00     0.020 A 
ATOM     78  C   UNL     1       4.290   8.966   6.925  1.00  0.00     0.054 A 
BRANCH  78  79
ATOM     79  S   UNL     1       3.490   7.954   8.205  1.00  0.00     0.124 S 
ATOM     80  O   UNL     1       4.553   7.780   9.192  1.00  0.00    -0.237 OA
ATOM     81  O   UNL     1       2.378   8.800   8.628  1.00  0.00    -0.237 OA
ATOM     82  O   UNL     1       3.105   6.732   7.498  1.00  0.00    -0.744 OA
ENDBRANCH  78  79
ENDBRANCH  52  73
ENDBRANCH  26  27
ENDBRANCH  19  21
ENDBRANCH  18  19
ENDBRANCH   1  18
TORSDOF 17
