REMARK SMILES O=C(N[C@@H](Cc1ccccc1)C(=O)N[C@@H](CS)C(=O)N[C@@H](CO)C(=O)OCCOC(=O)c1ccc(-c2c3nc(c(-c4ccc(S(=O)(=O)[O-])cc4)c4ccc([nH]4)c(-c4ccc(S(=O)(=O)[O-])cc4)c4nc(c(-c5ccc(S(=O)(=O)[O-])cc5)c5ccc2[nH]5)C=C4)C=C3)cc1)c1ccc(F)cc1
REMARK SMILES IDX 26 1 24 2 25 3 21 4 20 5 18 6 19 7 15 9 14 10 12 11 13 12
REMARK SMILES IDX 4 14 3 15 1 16 2 17 92 19 93 20 98 21 94 22 97 23 95 24
REMARK SMILES IDX 96 25 5 26 6 27 7 28 11 29 8 30 10 31 9 32 16 33 17 34 22 36
REMARK SMILES IDX 23 37 27 39 28 40 29 41 30 42 31 43 32 44 33 45 91 46 34 47
REMARK SMILES IDX 90 48 35 49 36 50 37 51 84 52 38 53 89 54 83 55 85 56 39 57
REMARK SMILES IDX 88 58 82 59 81 60 40 62 70 63 51 64 69 65 52 66 55 67 68 68
REMARK SMILES IDX 86 69 53 70 54 71 67 73 87 74 56 75 41 76 42 77 50 78 43 79
REMARK SMILES IDX 49 80 44 81 45 82 46 83 47 84 48 85 71 86 72 87 80 88 73 89
REMARK SMILES IDX 79 90 74 91 75 92 76 93 77 94 78 95 57 96 58 97 66 98 59 99
REMARK SMILES IDX 65 100 60 101 61 102 62 103 63 104 64 105
REMARK H PARENT 20 8 14 13 3 18 17 35 23 38 85 61 55 72
REMARK Flexibility Score: inf
ROOT
ATOM      1  O   UNL     1       4.448  -8.556  -2.142  1.00  0.00    -0.460 OA
ENDROOT
BRANCH   1   2
ATOM      2  C   UNL     1       4.778  -7.632  -3.092  1.00  0.00     0.331 C 
ATOM      3  O   UNL     1       4.581  -7.758  -4.294  1.00  0.00    -0.250 OA
BRANCH   2   4
ATOM      4  C   UNL     1       5.547  -6.445  -2.477  1.00  0.00     0.218 C 
BRANCH   4   5
ATOM      5  N   UNL     1       5.335  -6.364  -1.022  1.00  0.00    -0.339 N 
ATOM      6  C   UNL     1       4.310  -5.678  -0.429  1.00  0.00     0.244 C 
ATOM      7  O   UNL     1       3.497  -6.354   0.208  1.00  0.00    -0.273 OA
ATOM      8  H   UNL     1       5.973  -6.833  -0.437  1.00  0.00     0.164 HD
BRANCH   6   9
ATOM      9  C   UNL     1       4.095  -4.155  -0.629  1.00  0.00     0.181 C 
BRANCH   9  10
ATOM     10  N   UNL     1       5.311  -3.382  -0.869  1.00  0.00    -0.342 N 
ATOM     11  C   UNL     1       5.689  -2.149  -0.439  1.00  0.00     0.243 C 
ATOM     12  O   UNL     1       6.794  -1.757  -0.836  1.00  0.00    -0.273 OA
ATOM     13  H   UNL     1       5.972  -3.833  -1.443  1.00  0.00     0.164 HD
BRANCH  11  14
ATOM     14  C   UNL     1       4.919  -1.315   0.617  1.00  0.00     0.176 C 
BRANCH  14  15
ATOM     15  N   UNL     1       3.467  -1.228   0.445  1.00  0.00    -0.340 N 
ATOM     16  O   UNL     1       1.447  -0.273   0.312  1.00  0.00    -0.269 OA
ATOM     17  C   UNL     1       2.664  -0.129   0.263  1.00  0.00     0.251 C 
ATOM     18  H   UNL     1       2.993  -2.091   0.464  1.00  0.00     0.164 HD
BRANCH  17  19
ATOM     19  C   UNL     1       3.245   1.222   0.097  1.00  0.00     0.040 A 
ATOM     20  C   UNL     1       4.203   1.496  -0.888  1.00  0.00     0.017 A 
ATOM     21  C   UNL     1       2.805   2.240   0.953  1.00  0.00     0.017 A 
ATOM     22  C   UNL     1       4.779   2.767  -0.957  1.00  0.00     0.040 A 
ATOM     23  C   UNL     1       3.377   3.512   0.874  1.00  0.00     0.040 A 
ATOM     24  C   UNL     1       4.370   3.758  -0.069  1.00  0.00     0.123 A 
ATOM     25  F   UNL     1       4.945   4.967  -0.122  1.00  0.00    -0.207 F 
ENDBRANCH  17  19
ENDBRANCH  14  15
BRANCH  14  26
ATOM     26  C   UNL     1       5.335  -1.667   2.059  1.00  0.00     0.070 C 
BRANCH  26  27
ATOM     27  C   UNL     1       4.967  -3.046   2.548  1.00  0.00    -0.045 A 
ATOM     28  C   UNL     1       3.685  -3.310   3.051  1.00  0.00     0.004 A 
ATOM     29  C   UNL     1       5.902  -4.090   2.487  1.00  0.00     0.004 A 
ATOM     30  C   UNL     1       3.337  -4.599   3.456  1.00  0.00     0.000 A 
ATOM     31  C   UNL     1       5.556  -5.375   2.904  1.00  0.00     0.000 A 
ATOM     32  C   UNL     1       4.272  -5.630   3.382  1.00  0.00     0.000 A 
ENDBRANCH  26  27
ENDBRANCH  14  26
ENDBRANCH  11  14
ENDBRANCH   9  10
BRANCH   9  33
ATOM     33  C   UNL     1       2.974  -3.875  -1.636  1.00  0.00     0.101 C 
BRANCH  33  34
ATOM     34  S   UNL     1       3.532  -3.424  -3.317  1.00  0.00    -0.177 SA
ATOM     35  H   UNL     1       4.234  -2.261  -3.265  1.00  0.00     0.102 HD
ENDBRANCH  33  34
ENDBRANCH   9  33
ENDBRANCH   6   9
ENDBRANCH   4   5
BRANCH   4  36
ATOM     36  C   UNL     1       7.028  -6.627  -2.817  1.00  0.00     0.193 C 
BRANCH  36  37
ATOM     37  O   UNL     1       7.618  -7.676  -2.045  1.00  0.00    -0.394 OA
ATOM     38  H   UNL     1       7.556  -7.457  -1.102  1.00  0.00     0.210 HD
ENDBRANCH  36  37
ENDBRANCH   4  36
ENDBRANCH   2   4
ENDBRANCH   1   2
BRANCH   1  39
ATOM     39  C   UNL     1       3.746  -9.737  -2.587  1.00  0.00     0.274 C 
BRANCH  39  40
ATOM     40  C   UNL     1       2.369  -9.778  -1.928  1.00  0.00     0.275 C 
BRANCH  40  41
ATOM     41  O   UNL     1       1.619  -8.657  -2.418  1.00  0.00    -0.458 OA
BRANCH  41  42
ATOM     42  C   UNL     1       0.595  -8.234  -1.641  1.00  0.00     0.338 C 
ATOM     43  O   UNL     1       0.170  -8.796  -0.641  1.00  0.00    -0.246 OA
BRANCH  42  44
ATOM     44  C   UNL     1       0.074  -6.946  -2.171  1.00  0.00     0.060 A 
ATOM     45  C   UNL     1       0.762  -6.244  -3.159  1.00  0.00     0.016 A 
ATOM     46  C   UNL     1      -1.086  -6.381  -1.631  1.00  0.00     0.016 A 
ATOM     47  C   UNL     1       0.348  -4.959  -3.522  1.00  0.00     0.010 A 
ATOM     48  C   UNL     1      -1.540  -5.123  -2.071  1.00  0.00     0.010 A 
ATOM     49  C   UNL     1      -0.807  -4.361  -2.997  1.00  0.00    -0.014 A 
BRANCH  49  50
ATOM     50  C   UNL     1      -1.196  -2.952  -3.366  1.00  0.00     0.031 A 
ATOM     51  C   UNL     1      -1.635  -1.960  -2.304  1.00  0.00     0.074 A 
ATOM     52  C   UNL     1      -1.128  -2.494  -4.637  1.00  0.00     0.049 A 
ATOM     53  N   UNL     1      -2.290  -0.832  -2.445  1.00  0.00    -0.248 NA
ATOM     54  C   UNL     1      -1.316  -2.289  -0.906  1.00  0.00     0.031 C 
ATOM     55  C   UNL     1      -0.663  -3.250  -5.801  1.00  0.00     0.029 A 
ATOM     56  N   UNL     1      -1.428  -1.255  -5.162  1.00  0.00    -0.354 N 
ATOM     57  C   UNL     1      -2.548  -0.374  -1.155  1.00  0.00     0.074 A 
ATOM     58  C   UNL     1      -1.957  -1.333  -0.247  1.00  0.00     0.031 C 
ATOM     59  C   UNL     1      -0.602  -2.439  -6.865  1.00  0.00     0.029 A 
ATOM     60  C   UNL     1      -1.192  -1.154  -6.514  1.00  0.00     0.049 A 
ATOM     61  H   UNL     1      -1.779  -0.512  -4.620  1.00  0.00     0.167 HD
ATOM     62  C   UNL     1      -3.228   0.734  -0.763  1.00  0.00     0.031 A 
ATOM     63  C   UNL     1      -1.483  -0.189  -7.410  1.00  0.00     0.031 A 
ATOM     64  C   UNL     1      -3.720   1.750  -1.661  1.00  0.00     0.049 A 
ATOM     65  C   UNL     1      -2.265   1.013  -6.975  1.00  0.00     0.074 A 
ATOM     66  C   UNL     1      -4.417   2.908  -1.354  1.00  0.00     0.029 A 
ATOM     67  N   UNL     1      -3.530   1.755  -3.033  1.00  0.00    -0.354 N 
ATOM     68  N   UNL     1      -2.670   1.339  -5.773  1.00  0.00    -0.248 NA
ATOM     69  C   UNL     1      -2.678   1.949  -8.030  1.00  0.00     0.031 C 
ATOM     70  C   UNL     1      -4.679   3.595  -2.546  1.00  0.00     0.029 A 
ATOM     71  C   UNL     1      -4.105   2.888  -3.588  1.00  0.00     0.049 A 
ATOM     72  H   UNL     1      -3.056   1.056  -3.539  1.00  0.00     0.167 HD
ATOM     73  C   UNL     1      -3.409   2.505  -5.929  1.00  0.00     0.074 A 
ATOM     74  C   UNL     1      -3.361   2.849  -7.335  1.00  0.00     0.031 C 
ATOM     75  C   UNL     1      -4.080   3.213  -4.990  1.00  0.00     0.031 A 
BRANCH  62  76
ATOM     76  C   UNL     1      -3.548   0.883   0.704  1.00  0.00    -0.014 A 
ATOM     77  C   UNL     1      -2.576   1.236   1.654  1.00  0.00     0.010 A 
ATOM     78  C   UNL     1      -4.884   0.719   1.123  1.00  0.00     0.010 A 
ATOM     79  C   UNL     1      -2.927   1.387   3.001  1.00  0.00     0.020 A 
ATOM     80  C   UNL     1      -5.244   0.894   2.462  1.00  0.00     0.020 A 
ATOM     81  C   UNL     1      -4.258   1.211   3.397  1.00  0.00     0.054 A 
BRANCH  81  82
ATOM     82  S   UNL     1      -4.694   1.436   5.144  1.00  0.00     0.124 S 
ATOM     83  O   UNL     1      -4.185   0.204   5.743  1.00  0.00    -0.237 OA
ATOM     84  O   UNL     1      -3.970   2.652   5.505  1.00  0.00    -0.237 OA
ATOM     85  O   UNL     1      -6.149   1.564   5.127  1.00  0.00    -0.744 OA
ENDBRANCH  81  82
ENDBRANCH  62  76
BRANCH  63  86
ATOM     86  C   UNL     1      -1.134  -0.398  -8.843  1.00  0.00    -0.014 A 
ATOM     87  C   UNL     1      -0.107   0.344  -9.448  1.00  0.00     0.010 A 
ATOM     88  C   UNL     1      -1.786  -1.400  -9.586  1.00  0.00     0.010 A 
ATOM     89  C   UNL     1       0.285   0.064 -10.762  1.00  0.00     0.020 A 
ATOM     90  C   UNL     1      -1.374  -1.706 -10.884  1.00  0.00     0.020 A 
ATOM     91  C   UNL     1      -0.340  -0.972 -11.464  1.00  0.00     0.054 A 
BRANCH  91  92
ATOM     92  S   UNL     1       0.273  -1.422 -13.112  1.00  0.00     0.124 S 
ATOM     93  O   UNL     1      -0.376  -0.427 -13.960  1.00  0.00    -0.237 OA
ATOM     94  O   UNL     1       1.720  -1.282 -12.966  1.00  0.00    -0.237 OA
ATOM     95  O   UNL     1      -0.194  -2.796 -13.282  1.00  0.00    -0.744 OA
ENDBRANCH  91  92
ENDBRANCH  63  86
BRANCH  75  96
ATOM     96  C   UNL     1      -4.820   4.436  -5.457  1.00  0.00    -0.014 A 
ATOM     97  C   UNL     1      -6.037   4.318  -6.152  1.00  0.00     0.010 A 
ATOM     98  C   UNL     1      -4.301   5.715  -5.191  1.00  0.00     0.010 A 
ATOM     99  C   UNL     1      -6.704   5.460  -6.606  1.00  0.00     0.020 A 
ATOM    100  C   UNL     1      -4.975   6.859  -5.626  1.00  0.00     0.020 A 
ATOM    101  C   UNL     1      -6.164   6.723  -6.347  1.00  0.00     0.054 A 
BRANCH 101 102
ATOM    102  S   UNL     1      -7.050   8.192  -6.938  1.00  0.00     0.124 S 
ATOM    103  O   UNL     1      -6.742   8.178  -8.365  1.00  0.00    -0.237 OA
ATOM    104  O   UNL     1      -8.438   7.893  -6.592  1.00  0.00    -0.237 OA
ATOM    105  O   UNL     1      -6.449   9.287  -6.180  1.00  0.00    -0.744 OA
ENDBRANCH 101 102
ENDBRANCH  75  96
ENDBRANCH  49  50
ENDBRANCH  42  44
ENDBRANCH  41  42
ENDBRANCH  40  41
ENDBRANCH  39  40
ENDBRANCH   1  39
TORSDOF 26
