REMARK SMILES O=C(OCCOC(=O)c1ccc2nc(C3CCCCC3)[nH]c2c1)c1ccc(-c2c3nc(c(-c4ccc(S(=O)(=O)[O-])cc4)c4ccc([nH]4)c(-c4ccc(S(=O)(=O)[O-])cc4)c4nc(c(-c5ccc(S(=O)(=O)[O-])cc5)c5ccc2[nH]5)C=C4)C=C3)cc1
REMARK SMILES IDX 4 1 3 2 2 3 1 4 24 5 25 6 83 7 26 8 82 9 27 10 28 11 29 12
REMARK SMILES IDX 76 13 30 14 81 15 75 16 77 17 31 18 80 19 74 20 73 21 32 23
REMARK SMILES IDX 62 24 43 25 61 26 44 27 47 28 60 29 78 30 45 31 46 32 59 34
REMARK SMILES IDX 79 35 48 36 33 37 34 38 42 39 35 40 41 41 36 42 37 43 38 44
REMARK SMILES IDX 39 45 40 46 63 47 64 48 72 49 65 50 71 51 66 52 67 53 68 54
REMARK SMILES IDX 69 55 70 56 49 57 50 58 58 59 51 60 57 61 52 62 53 63 54 64
REMARK SMILES IDX 55 65 56 66 5 67 6 68 7 69 8 70 9 71 10 72 23 73 11 74 22 75
REMARK SMILES IDX 12 76 21 77 13 78 14 79 15 81 16 82 20 83 17 84 19 85 18 86
REMARK H PARENT 77 22 47 33 21 80
REMARK Flexibility Score: inf
ROOT
ATOM      1  C   UNL     1       3.981  -0.652  -1.472  1.00  0.00     0.275 C 
ENDROOT
BRANCH   1   2
ATOM      2  O   UNL     1       2.953  -1.073  -0.558  1.00  0.00    -0.458 OA
BRANCH   2   3
ATOM      3  C   UNL     1       2.815  -0.849   0.770  1.00  0.00     0.338 C 
ATOM      4  O   UNL     1       1.929  -1.446   1.382  1.00  0.00    -0.246 OA
BRANCH   3   5
ATOM      5  C   UNL     1       3.593   0.182   1.522  1.00  0.00     0.060 A 
ATOM      6  C   UNL     1       4.932   0.511   1.310  1.00  0.00     0.016 A 
ATOM      7  C   UNL     1       2.913   0.827   2.572  1.00  0.00     0.016 A 
ATOM      8  C   UNL     1       5.556   1.505   2.073  1.00  0.00     0.010 A 
ATOM      9  C   UNL     1       3.527   1.829   3.330  1.00  0.00     0.010 A 
ATOM     10  C   UNL     1       4.861   2.164   3.090  1.00  0.00    -0.014 A 
BRANCH  10  11
ATOM     11  C   UNL     1       5.592   3.070   4.004  1.00  0.00     0.031 A 
ATOM     12  C   UNL     1       6.011   2.544   5.346  1.00  0.00     0.074 A 
ATOM     13  C   UNL     1       5.925   4.316   3.620  1.00  0.00     0.049 A 
ATOM     14  N   UNL     1       6.770   3.104   6.250  1.00  0.00    -0.248 NA
ATOM     15  C   UNL     1       5.535   1.197   5.707  1.00  0.00     0.031 C 
ATOM     16  C   UNL     1       5.599   4.916   2.329  1.00  0.00     0.029 A 
ATOM     17  N   UNL     1       6.614   5.302   4.279  1.00  0.00    -0.354 N 
ATOM     18  C   UNL     1       6.891   2.167   7.267  1.00  0.00     0.074 A 
ATOM     19  C   UNL     1       6.074   1.031   6.904  1.00  0.00     0.031 C 
ATOM     20  C   UNL     1       6.054   6.180   2.300  1.00  0.00     0.029 A 
ATOM     21  C   UNL     1       6.723   6.471   3.563  1.00  0.00     0.049 A 
ATOM     22  H   UNL     1       6.993   5.184   5.180  1.00  0.00     0.167 HD
ATOM     23  C   UNL     1       7.645   2.232   8.388  1.00  0.00     0.031 A 
ATOM     24  C   UNL     1       7.313   7.638   3.889  1.00  0.00     0.031 A 
ATOM     25  C   UNL     1       8.424   3.379   8.759  1.00  0.00     0.049 A 
ATOM     26  C   UNL     1       8.066   7.724   5.189  1.00  0.00     0.074 A 
ATOM     27  C   UNL     1       9.228   3.557   9.869  1.00  0.00     0.029 A 
ATOM     28  N   UNL     1       8.482   4.555   8.025  1.00  0.00    -0.354 N 
ATOM     29  N   UNL     1       8.235   6.799   6.105  1.00  0.00    -0.248 NA
ATOM     30  C   UNL     1       8.746   8.993   5.480  1.00  0.00     0.031 C 
ATOM     31  C   UNL     1       9.741   4.859   9.826  1.00  0.00     0.029 A 
ATOM     32  C   UNL     1       9.293   5.473   8.666  1.00  0.00     0.049 A 
ATOM     33  H   UNL     1       8.014   4.713   7.173  1.00  0.00     0.167 HD
ATOM     34  C   UNL     1       9.085   7.355   7.054  1.00  0.00     0.074 A 
ATOM     35  C   UNL     1       9.387   8.700   6.604  1.00  0.00     0.031 C 
ATOM     36  C   UNL     1       9.586   6.799   8.185  1.00  0.00     0.031 A 
BRANCH  23  37
ATOM     37  C   UNL     1       7.633   1.020   9.278  1.00  0.00    -0.014 A 
ATOM     38  C   UNL     1       8.282  -0.165   8.884  1.00  0.00     0.010 A 
ATOM     39  C   UNL     1       6.929   1.047  10.493  1.00  0.00     0.010 A 
ATOM     40  C   UNL     1       8.178  -1.321   9.662  1.00  0.00     0.020 A 
ATOM     41  C   UNL     1       6.841  -0.101  11.286  1.00  0.00     0.020 A 
ATOM     42  C   UNL     1       7.444  -1.284  10.852  1.00  0.00     0.054 A 
BRANCH  42  43
ATOM     43  S   UNL     1       7.293  -2.805  11.828  1.00  0.00     0.124 S 
ATOM     44  O   UNL     1       6.313  -3.563  11.053  1.00  0.00    -0.237 OA
ATOM     45  O   UNL     1       8.653  -3.338  11.811  1.00  0.00    -0.237 OA
ATOM     46  O   UNL     1       6.827  -2.335  13.130  1.00  0.00    -0.744 OA
ENDBRANCH  42  43
ENDBRANCH  23  37
BRANCH  24  47
ATOM     47  C   UNL     1       7.258   8.794   2.952  1.00  0.00    -0.014 A 
ATOM     48  C   UNL     1       8.401   9.200   2.242  1.00  0.00     0.010 A 
ATOM     49  C   UNL     1       6.054   9.499   2.767  1.00  0.00     0.010 A 
ATOM     50  C   UNL     1       8.349  10.304   1.384  1.00  0.00     0.020 A 
ATOM     51  C   UNL     1       5.993  10.591   1.895  1.00  0.00     0.020 A 
ATOM     52  C   UNL     1       7.145  10.995   1.217  1.00  0.00     0.054 A 
BRANCH  52  53
ATOM     53  S   UNL     1       7.096  12.402   0.072  1.00  0.00     0.124 S 
ATOM     54  O   UNL     1       7.832  13.423   0.811  1.00  0.00    -0.237 OA
ATOM     55  O   UNL     1       7.769  11.870  -1.111  1.00  0.00    -0.237 OA
ATOM     56  O   UNL     1       5.667  12.658  -0.097  1.00  0.00    -0.744 OA
ENDBRANCH  52  53
ENDBRANCH  24  47
BRANCH  36  57
ATOM     57  C   UNL     1      10.561   7.622   8.979  1.00  0.00    -0.014 A 
ATOM     58  C   UNL     1      10.134   8.701   9.770  1.00  0.00     0.010 A 
ATOM     59  C   UNL     1      11.923   7.266   8.971  1.00  0.00     0.010 A 
ATOM     60  C   UNL     1      11.060   9.431  10.520  1.00  0.00     0.020 A 
ATOM     61  C   UNL     1      12.846   7.978   9.738  1.00  0.00     0.020 A 
ATOM     62  C   UNL     1      12.410   9.066  10.497  1.00  0.00     0.054 A 
BRANCH  62  63
ATOM     63  S   UNL     1      13.588   9.995  11.515  1.00  0.00     0.124 S 
ATOM     64  O   UNL     1      13.802  11.195  10.711  1.00  0.00    -0.237 OA
ATOM     65  O   UNL     1      12.852  10.195  12.761  1.00  0.00    -0.237 OA
ATOM     66  O   UNL     1      14.738   9.098  11.617  1.00  0.00    -0.744 OA
ENDBRANCH  62  63
ENDBRANCH  36  57
ENDBRANCH  10  11
ENDBRANCH   3   5
ENDBRANCH   2   3
ENDBRANCH   1   2
BRANCH   1  67
ATOM     67  C   UNL     1       3.733   0.698  -2.144  1.00  0.00     0.275 C 
BRANCH  67  68
ATOM     68  O   UNL     1       3.386   1.740  -1.223  1.00  0.00    -0.458 OA
BRANCH  68  69
ATOM     69  C   UNL     1       2.056   1.999  -1.123  1.00  0.00     0.338 C 
ATOM     70  O   UNL     1       1.151   1.429  -1.709  1.00  0.00    -0.246 OA
BRANCH  69  71
ATOM     71  C   UNL     1       1.833   3.014  -0.073  1.00  0.00     0.062 A 
ATOM     72  C   UNL     1       2.562   4.209  -0.059  1.00  0.00     0.018 A 
ATOM     73  C   UNL     1       0.886   2.716   0.921  1.00  0.00     0.044 A 
ATOM     74  C   UNL     1       2.382   5.134   0.980  1.00  0.00     0.031 A 
ATOM     75  C   UNL     1       0.793   3.622   1.980  1.00  0.00     0.066 A 
ATOM     76  C   UNL     1       1.511   4.810   2.031  1.00  0.00     0.089 A 
ATOM     77  N   UNL     1       0.097   3.597   3.161  1.00  0.00    -0.342 N 
ATOM     78  N   UNL     1       1.231   5.497   3.183  1.00  0.00    -0.233 NA
ATOM     79  C   UNL     1       0.392   4.742   3.862  1.00  0.00     0.110 A 
ATOM     80  H   UNL     1      -0.511   2.881   3.456  1.00  0.00     0.168 HD
BRANCH  79  81
ATOM     81  C   UNL     1      -0.206   5.072   5.199  1.00  0.00     0.055 C 
ATOM     82  C   UNL     1      -1.740   5.094   5.125  1.00  0.00     0.011 C 
ATOM     83  C   UNL     1       0.285   4.123   6.302  1.00  0.00     0.011 C 
ATOM     84  C   UNL     1      -2.363   5.432   6.475  1.00  0.00     0.001 C 
ATOM     85  C   UNL     1      -0.353   4.458   7.652  1.00  0.00     0.001 C 
ATOM     86  C   UNL     1      -1.877   4.484   7.567  1.00  0.00     0.000 C 
ENDBRANCH  79  81
ENDBRANCH  69  71
ENDBRANCH  68  69
ENDBRANCH  67  68
ENDBRANCH   1  67
TORSDOF 15
