REMARK SMILES O=C(OCCOC(=O)c1ccc(-c2c3nc(c(-c4ccc(S(=O)(=O)[O-])cc4)c4ccc([nH]4)c(-c4ccc(S(=O)(=O)[O-])cc4)c4nc(c(-c5ccc(S(=O)(=O)[O-])cc5)c5ccc2[nH]5)C=C4)C=C3)cc1)c1ccc(/N=C\c2ccccc2O)cc1
REMARK SMILES IDX 4 1 3 2 2 3 1 4 69 5 70 6 83 7 71 8 82 9 72 10 73 11 74 12
REMARK SMILES IDX 75 13 76 14 80 15 77 16 79 17 78 18 81 19 5 21 6 22 7 23
REMARK SMILES IDX 8 24 9 25 10 26 68 27 11 28 67 29 12 30 13 31 14 32 61 33
REMARK SMILES IDX 15 34 66 35 60 36 62 37 16 38 65 39 59 40 58 41 17 43 47 44
REMARK SMILES IDX 28 45 46 46 29 47 32 48 45 49 63 50 30 51 31 52 44 54 64 55
REMARK SMILES IDX 33 56 18 57 19 58 27 59 20 60 26 61 21 62 22 63 23 64 24 65
REMARK SMILES IDX 25 66 48 67 49 68 57 69 50 70 56 71 51 72 52 73 53 74 54 75
REMARK SMILES IDX 55 76 34 77 35 78 43 79 36 80 42 81 37 82 38 83 39 84 40 85
REMARK SMILES IDX 41 86
REMARK H PARENT 81 20 62 42 32 53
REMARK Flexibility Score: inf
ROOT
ATOM      1  C   UNL     1       4.277   0.699   1.402  1.00  0.00     0.275 C 
ENDROOT
BRANCH   1   2
ATOM      2  O   UNL     1       3.288   1.030   0.412  1.00  0.00    -0.458 OA
BRANCH   2   3
ATOM      3  C   UNL     1       3.089   0.522  -0.825  1.00  0.00     0.338 C 
ATOM      4  O   UNL     1       2.231   1.033  -1.544  1.00  0.00    -0.246 OA
BRANCH   3   5
ATOM      5  C   UNL     1       3.787  -0.694  -1.335  1.00  0.00     0.060 A 
ATOM      6  C   UNL     1       5.117  -1.045  -1.084  1.00  0.00     0.018 A 
ATOM      7  C   UNL     1       3.035  -1.526  -2.175  1.00  0.00     0.018 A 
ATOM      8  C   UNL     1       5.670  -2.210  -1.631  1.00  0.00     0.029 A 
ATOM      9  C   UNL     1       3.596  -2.682  -2.722  1.00  0.00     0.029 A 
ATOM     10  C   UNL     1       4.936  -3.002  -2.506  1.00  0.00     0.063 A 
BRANCH  10  11
ATOM     11  N   UNL     1       5.606  -4.024  -3.196  1.00  0.00    -0.256 NA
ATOM     12  C   UNL     1       5.548  -4.126  -4.496  1.00  0.00     0.123 C 
BRANCH  12  13
ATOM     13  C   UNL     1       4.852  -3.240  -5.460  1.00  0.00     0.035 A 
ATOM     14  C   UNL     1       4.017  -3.879  -6.374  1.00  0.00     0.013 A 
ATOM     15  C   UNL     1       4.872  -1.843  -5.412  1.00  0.00     0.124 A 
ATOM     16  C   UNL     1       3.115  -3.139  -7.139  1.00  0.00     0.001 A 
ATOM     17  C   UNL     1       3.935  -1.107  -6.133  1.00  0.00     0.047 A 
ATOM     18  C   UNL     1       3.037  -1.758  -6.978  1.00  0.00     0.004 A 
BRANCH  15  19
ATOM     19  O   UNL     1       5.767  -1.127  -4.666  1.00  0.00    -0.507 OA
ATOM     20  H   UNL     1       6.419  -1.572  -4.162  1.00  0.00     0.293 HD
ENDBRANCH  15  19
ENDBRANCH  12  13
ENDBRANCH  10  11
ENDBRANCH   3   5
ENDBRANCH   2   3
ENDBRANCH   1   2
BRANCH   1  21
ATOM     21  C   UNL     1       3.926  -0.495   2.289  1.00  0.00     0.275 C 
BRANCH  21  22
ATOM     22  O   UNL     1       3.618  -1.687   1.549  1.00  0.00    -0.458 OA
BRANCH  22  23
ATOM     23  C   UNL     1       2.291  -1.979   1.431  1.00  0.00     0.338 C 
ATOM     24  O   UNL     1       1.377  -1.335   1.904  1.00  0.00    -0.246 OA
BRANCH  23  25
ATOM     25  C   UNL     1       2.084  -3.158   0.540  1.00  0.00     0.060 A 
ATOM     26  C   UNL     1       0.895  -3.227  -0.204  1.00  0.00     0.016 A 
ATOM     27  C   UNL     1       3.039  -4.166   0.394  1.00  0.00     0.016 A 
ATOM     28  C   UNL     1       0.662  -4.290  -1.093  1.00  0.00     0.010 A 
ATOM     29  C   UNL     1       2.808  -5.223  -0.501  1.00  0.00     0.010 A 
ATOM     30  C   UNL     1       1.612  -5.307  -1.246  1.00  0.00    -0.014 A 
BRANCH  30  31
ATOM     31  C   UNL     1       1.340  -6.539  -2.046  1.00  0.00     0.031 A 
ATOM     32  C   UNL     1       1.063  -7.823  -1.315  1.00  0.00     0.074 A 
ATOM     33  C   UNL     1       1.331  -6.582  -3.393  1.00  0.00     0.049 A 
ATOM     34  N   UNL     1       0.878  -9.023  -1.804  1.00  0.00    -0.248 NA
ATOM     35  C   UNL     1       0.930  -7.732   0.146  1.00  0.00     0.031 C 
ATOM     36  C   UNL     1       1.389  -5.440  -4.294  1.00  0.00     0.029 A 
ATOM     37  N   UNL     1       1.299  -7.670  -4.246  1.00  0.00    -0.354 N 
ATOM     38  C   UNL     1       0.544  -9.818  -0.719  1.00  0.00     0.074 A 
ATOM     39  C   UNL     1       0.651  -8.987   0.463  1.00  0.00     0.031 C 
ATOM     40  C   UNL     1       1.498  -5.889  -5.556  1.00  0.00     0.029 A 
ATOM     41  C   UNL     1       1.557  -7.343  -5.556  1.00  0.00     0.049 A 
ATOM     42  H   UNL     1       1.109  -8.588  -3.944  1.00  0.00     0.167 HD
ATOM     43  C   UNL     1       0.129 -11.106  -0.706  1.00  0.00     0.031 A 
ATOM     44  C   UNL     1       1.844  -8.106  -6.632  1.00  0.00     0.031 A 
ATOM     45  C   UNL     1       0.051 -11.962  -1.857  1.00  0.00     0.049 A 
ATOM     46  C   UNL     1       1.689  -9.594  -6.558  1.00  0.00     0.074 A 
ATOM     47  C   UNL     1      -0.397 -13.271  -1.924  1.00  0.00     0.029 A 
ATOM     48  N   UNL     1       0.462 -11.617  -3.133  1.00  0.00    -0.354 N 
ATOM     49  N   UNL     1       1.325 -10.324  -5.535  1.00  0.00    -0.248 NA
ATOM     50  C   UNL     1       1.900 -10.353  -7.800  1.00  0.00     0.031 C 
ATOM     51  C   UNL     1      -0.189 -13.739  -3.226  1.00  0.00     0.029 A 
ATOM     52  C   UNL     1       0.327 -12.703  -3.985  1.00  0.00     0.049 A 
ATOM     53  H   UNL     1       0.799 -10.730  -3.397  1.00  0.00     0.167 HD
ATOM     54  C   UNL     1       1.163 -11.611  -6.032  1.00  0.00     0.074 A 
ATOM     55  C   UNL     1       1.531 -11.574  -7.432  1.00  0.00     0.031 C 
ATOM     56  C   UNL     1       0.687 -12.699  -5.381  1.00  0.00     0.031 A 
BRANCH  43  57
ATOM     57  C   UNL     1      -0.260 -11.658   0.633  1.00  0.00    -0.014 A 
ATOM     58  C   UNL     1      -1.433 -11.223   1.278  1.00  0.00     0.010 A 
ATOM     59  C   UNL     1       0.576 -12.589   1.270  1.00  0.00     0.010 A 
ATOM     60  C   UNL     1      -1.725 -11.657   2.571  1.00  0.00     0.020 A 
ATOM     61  C   UNL     1       0.272 -13.046   2.552  1.00  0.00     0.020 A 
ATOM     62  C   UNL     1      -0.861 -12.554   3.205  1.00  0.00     0.054 A 
BRANCH  62  63
ATOM     63  S   UNL     1      -1.232 -13.064   4.903  1.00  0.00     0.124 S 
ATOM     64  O   UNL     1      -0.865 -11.870   5.660  1.00  0.00    -0.237 OA
ATOM     65  O   UNL     1      -2.662 -13.356   4.846  1.00  0.00    -0.237 OA
ATOM     66  O   UNL     1      -0.370 -14.224   5.112  1.00  0.00    -0.744 OA
ENDBRANCH  62  63
ENDBRANCH  43  57
BRANCH  44  67
ATOM     67  C   UNL     1       2.345  -7.476  -7.883  1.00  0.00    -0.014 A 
ATOM     68  C   UNL     1       1.492  -7.203  -8.963  1.00  0.00     0.010 A 
ATOM     69  C   UNL     1       3.712  -7.157  -7.990  1.00  0.00     0.010 A 
ATOM     70  C   UNL     1       1.994  -6.596 -10.119  1.00  0.00     0.020 A 
ATOM     71  C   UNL     1       4.213  -6.531  -9.134  1.00  0.00     0.020 A 
ATOM     72  C   UNL     1       3.348  -6.251 -10.192  1.00  0.00     0.054 A 
BRANCH  72  73
ATOM     73  S   UNL     1       3.951  -5.372 -11.661  1.00  0.00     0.124 S 
ATOM     74  O   UNL     1       3.952  -6.426 -12.669  1.00  0.00    -0.237 OA
ATOM     75  O   UNL     1       2.942  -4.329 -11.832  1.00  0.00    -0.237 OA
ATOM     76  O   UNL     1       5.269  -4.892 -11.252  1.00  0.00    -0.744 OA
ENDBRANCH  72  73
ENDBRANCH  44  67
BRANCH  56  77
ATOM     77  C   UNL     1       0.441 -13.949  -6.181  1.00  0.00    -0.014 A 
ATOM     78  C   UNL     1       1.492 -14.759  -6.640  1.00  0.00     0.010 A 
ATOM     79  C   UNL     1      -0.888 -14.355  -6.412  1.00  0.00     0.010 A 
ATOM     80  C   UNL     1       1.219 -15.949  -7.323  1.00  0.00     0.020 A 
ATOM     81  C   UNL     1      -1.165 -15.556  -7.070  1.00  0.00     0.020 A 
ATOM     82  C   UNL     1      -0.108 -16.344  -7.527  1.00  0.00     0.054 A 
BRANCH  82  83
ATOM     83  S   UNL     1      -0.436 -17.933  -8.339  1.00  0.00     0.124 S 
ATOM     84  O   UNL     1      -0.108 -17.637  -9.731  1.00  0.00    -0.237 OA
ATOM     85  O   UNL     1       0.484 -18.838  -7.655  1.00  0.00    -0.237 OA
ATOM     86  O   UNL     1      -1.852 -18.174  -8.070  1.00  0.00    -0.744 OA
ENDBRANCH  82  83
ENDBRANCH  56  77
ENDBRANCH  30  31
ENDBRANCH  23  25
ENDBRANCH  22  23
ENDBRANCH  21  22
ENDBRANCH   1  21
TORSDOF 17
