REMARK SMILES COc1ccc(C(=O)N(C)CCC(=O)OCCOC(=O)c2ccc(-c3c4nc(c(-c5ccc(S(=O)(=O)[O-])cc5)c5ccc([nH]5)c(-c5ccc(S(=O)(=O)[O-])cc5)c5nc(c(-c6ccc(S(=O)(=O)[O-])cc6)c6ccc3[nH]6)C=C5)C=C4)cc2)cc1O
REMARK SMILES IDX 16 1 15 2 13 3 14 4 12 5 11 6 9 7 10 8 7 9 8 10 6 11 3 12
REMARK SMILES IDX 4 13 82 14 5 15 81 16 2 17 1 18 83 19 17 21 18 22 19 23
REMARK SMILES IDX 20 24 21 25 22 26 80 27 23 28 79 29 24 30 25 31 26 32 73 33
REMARK SMILES IDX 27 34 78 35 72 36 74 37 28 38 77 39 71 40 70 41 29 43 59 44
REMARK SMILES IDX 40 45 58 46 41 47 44 48 57 49 75 50 42 51 43 52 56 54 76 55
REMARK SMILES IDX 45 56 30 57 31 58 39 59 32 60 38 61 33 62 34 63 35 64 36 65
REMARK SMILES IDX 37 66 60 67 61 68 69 69 62 70 68 71 63 72 64 73 65 74 66 75
REMARK SMILES IDX 67 76 46 77 47 78 55 79 48 80 54 81 49 82 50 83 51 84 52 85
REMARK SMILES IDX 53 86
REMARK H PARENT 83 20 74 42 44 53
REMARK Flexibility Score: inf
ROOT
ATOM      1  C   UNL     1      -2.962   4.859   5.199  1.00  0.00     0.274 C 
ENDROOT
BRANCH   1   2
ATOM      2  O   UNL     1      -3.335   3.471   5.296  1.00  0.00    -0.462 OA
BRANCH   2   3
ATOM      3  C   UNL     1      -4.079   3.118   6.374  1.00  0.00     0.307 C 
ATOM      4  O   UNL     1      -4.288   3.825   7.351  1.00  0.00    -0.252 OA
BRANCH   3   5
ATOM      5  C   UNL     1      -4.594   1.705   6.264  1.00  0.00     0.144 C 
BRANCH   5   6
ATOM      6  C   UNL     1      -5.416   1.462   4.998  1.00  0.00     0.131 C 
BRANCH   6   7
ATOM      7  N   UNL     1      -4.619   0.840   3.930  1.00  0.00    -0.341 N 
ATOM      8  C   UNL     1      -4.520  -0.608   3.959  1.00  0.00     0.147 C 
BRANCH   7   9
ATOM      9  C   UNL     1      -4.050   1.696   2.986  1.00  0.00     0.253 C 
ATOM     10  O   UNL     1      -4.577   2.787   2.751  1.00  0.00    -0.269 OA
BRANCH   9  11
ATOM     11  C   UNL     1      -2.737   1.443   2.305  1.00  0.00     0.043 A 
ATOM     12  C   UNL     1      -0.253   1.277   0.915  1.00  0.00     0.160 A 
ATOM     13  C   UNL     1      -0.876   2.507   1.115  1.00  0.00     0.051 A 
ATOM     14  C   UNL     1      -0.875   0.142   1.437  1.00  0.00     0.158 A 
ATOM     15  C   UNL     1      -2.100   2.587   1.785  1.00  0.00     0.018 A 
ATOM     16  C   UNL     1      -2.083   0.223   2.150  1.00  0.00     0.064 A 
BRANCH  12  17
ATOM     17  O   UNL     1       0.911   1.377   0.210  1.00  0.00    -0.493 OA
ATOM     18  C   UNL     1       1.640   0.197  -0.082  1.00  0.00     0.278 C 
ENDBRANCH  12  17
BRANCH  14  19
ATOM     19  O   UNL     1      -0.382  -1.121   1.263  1.00  0.00    -0.504 OA
ATOM     20  H   UNL     1       0.420  -1.251   0.797  1.00  0.00     0.293 HD
ENDBRANCH  14  19
ENDBRANCH   9  11
ENDBRANCH   7   9
ENDBRANCH   6   7
ENDBRANCH   5   6
ENDBRANCH   3   5
ENDBRANCH   2   3
ENDBRANCH   1   2
BRANCH   1  21
ATOM     21  C   UNL     1      -4.042   5.661   4.473  1.00  0.00     0.275 C 
BRANCH  21  22
ATOM     22  O   UNL     1      -5.207   5.738   5.311  1.00  0.00    -0.458 OA
BRANCH  22  23
ATOM     23  C   UNL     1      -6.393   5.517   4.711  1.00  0.00     0.338 C 
ATOM     24  O   UNL     1      -6.621   5.338   3.524  1.00  0.00    -0.246 OA
BRANCH  23  25
ATOM     25  C   UNL     1      -7.444   5.605   5.728  1.00  0.00     0.060 A 
ATOM     26  C   UNL     1      -7.643   4.564   6.641  1.00  0.00     0.016 A 
ATOM     27  C   UNL     1      -8.272   6.728   5.729  1.00  0.00     0.016 A 
ATOM     28  C   UNL     1      -8.697   4.640   7.551  1.00  0.00     0.010 A 
ATOM     29  C   UNL     1      -9.303   6.816   6.662  1.00  0.00     0.010 A 
ATOM     30  C   UNL     1      -9.534   5.765   7.566  1.00  0.00    -0.014 A 
BRANCH  30  31
ATOM     31  C   UNL     1     -10.680   5.851   8.501  1.00  0.00     0.031 A 
ATOM     32  C   UNL     1     -12.082   5.731   7.974  1.00  0.00     0.074 A 
ATOM     33  C   UNL     1     -10.459   6.082   9.809  1.00  0.00     0.049 A 
ATOM     34  N   UNL     1     -13.217   5.896   8.604  1.00  0.00    -0.248 NA
ATOM     35  C   UNL     1     -12.226   5.387   6.550  1.00  0.00     0.031 C 
ATOM     36  C   UNL     1      -9.142   6.199  10.436  1.00  0.00     0.029 A 
ATOM     37  N   UNL     1     -11.341   6.274  10.842  1.00  0.00    -0.354 N 
ATOM     38  C   UNL     1     -14.209   5.699   7.651  1.00  0.00     0.074 A 
ATOM     39  C   UNL     1     -13.543   5.416   6.397  1.00  0.00     0.031 C 
ATOM     40  C   UNL     1      -9.302   6.446  11.747  1.00  0.00     0.029 A 
ATOM     41  C   UNL     1     -10.728   6.548  12.041  1.00  0.00     0.049 A 
ATOM     42  H   UNL     1     -12.318   6.220  10.734  1.00  0.00     0.167 HD
ATOM     43  C   UNL     1     -15.554   5.750   7.808  1.00  0.00     0.031 A 
ATOM     44  C   UNL     1     -11.257   6.872  13.237  1.00  0.00     0.031 A 
ATOM     45  C   UNL     1     -16.209   6.038   9.056  1.00  0.00     0.049 A 
ATOM     46  C   UNL     1     -12.751   6.962  13.377  1.00  0.00     0.074 A 
ATOM     47  C   UNL     1     -17.566   6.101   9.323  1.00  0.00     0.029 A 
ATOM     48  N   UNL     1     -15.554   6.314  10.247  1.00  0.00    -0.354 N 
ATOM     49  N   UNL     1     -13.676   6.764  12.467  1.00  0.00    -0.248 NA
ATOM     50  C   UNL     1     -13.273   7.318  14.703  1.00  0.00     0.031 C 
ATOM     51  C   UNL     1     -17.730   6.452  10.668  1.00  0.00     0.029 A 
ATOM     52  C   UNL     1     -16.477   6.563  11.248  1.00  0.00     0.049 A 
ATOM     53  H   UNL     1     -14.576   6.330  10.363  1.00  0.00     0.167 HD
ATOM     54  C   UNL     1     -14.890   6.955  13.117  1.00  0.00     0.074 A 
ATOM     55  C   UNL     1     -14.582   7.269  14.497  1.00  0.00     0.031 C 
ATOM     56  C   UNL     1     -16.148   6.877  12.615  1.00  0.00     0.031 A 
BRANCH  43  57
ATOM     57  C   UNL     1     -16.404   5.519   6.587  1.00  0.00    -0.014 A 
ATOM     58  C   UNL     1     -16.557   4.232   6.042  1.00  0.00     0.010 A 
ATOM     59  C   UNL     1     -17.084   6.600   5.997  1.00  0.00     0.010 A 
ATOM     60  C   UNL     1     -17.348   4.036   4.905  1.00  0.00     0.020 A 
ATOM     61  C   UNL     1     -17.893   6.404   4.873  1.00  0.00     0.020 A 
ATOM     62  C   UNL     1     -18.006   5.125   4.324  1.00  0.00     0.054 A 
BRANCH  62  63
ATOM     63  S   UNL     1     -19.040   4.841   2.861  1.00  0.00     0.124 S 
ATOM     64  O   UNL     1     -18.038   4.683   1.810  1.00  0.00    -0.237 OA
ATOM     65  O   UNL     1     -19.775   3.629   3.215  1.00  0.00    -0.237 OA
ATOM     66  O   UNL     1     -19.852   6.053   2.771  1.00  0.00    -0.744 OA
ENDBRANCH  62  63
ENDBRANCH  43  57
BRANCH  44  67
ATOM     67  C   UNL     1     -10.361   7.154  14.389  1.00  0.00    -0.014 A 
ATOM     68  C   UNL     1     -10.252   6.238  15.450  1.00  0.00     0.010 A 
ATOM     69  C   UNL     1      -9.592   8.332  14.420  1.00  0.00     0.010 A 
ATOM     70  C   UNL     1      -9.400   6.500  16.526  1.00  0.00     0.020 A 
ATOM     71  C   UNL     1      -8.722   8.586  15.483  1.00  0.00     0.020 A 
ATOM     72  C   UNL     1      -8.639   7.672  16.535  1.00  0.00     0.054 A 
BRANCH  72  73
ATOM     73  S   UNL     1      -7.492   7.965  17.911  1.00  0.00     0.124 S 
ATOM     74  O   UNL     1      -8.394   8.412  18.968  1.00  0.00    -0.237 OA
ATOM     75  O   UNL     1      -6.888   6.649  18.109  1.00  0.00    -0.237 OA
ATOM     76  O   UNL     1      -6.585   8.984  17.387  1.00  0.00    -0.744 OA
ENDBRANCH  72  73
ENDBRANCH  44  67
BRANCH  56  77
ATOM     77  C   UNL     1     -17.284   7.108  13.573  1.00  0.00    -0.014 A 
ATOM     78  C   UNL     1     -17.609   8.403  14.014  1.00  0.00     0.010 A 
ATOM     79  C   UNL     1     -18.062   6.018  14.003  1.00  0.00     0.010 A 
ATOM     80  C   UNL     1     -18.677   8.600  14.893  1.00  0.00     0.020 A 
ATOM     81  C   UNL     1     -19.143   6.214  14.864  1.00  0.00     0.020 A 
ATOM     82  C   UNL     1     -19.435   7.503  15.316  1.00  0.00     0.054 A 
BRANCH  82  83
ATOM     83  S   UNL     1     -20.841   7.785  16.427  1.00  0.00     0.124 S 
ATOM     84  O   UNL     1     -20.178   7.967  17.715  1.00  0.00    -0.237 OA
ATOM     85  O   UNL     1     -21.463   8.982  15.865  1.00  0.00    -0.237 OA
ATOM     86  O   UNL     1     -21.632   6.563  16.299  1.00  0.00    -0.744 OA
ENDBRANCH  82  83
ENDBRANCH  56  77
ENDBRANCH  30  31
ENDBRANCH  23  25
ENDBRANCH  22  23
ENDBRANCH  21  22
ENDBRANCH   1  21
TORSDOF 20
