REMARK SMILES Cc1nn(CC(=O)OCCOC(=O)c2ccc(-c3c4nc(c(-c5ccc(S(=O)(=O)[O-])cc5)c5ccc([nH]5)c(-c5ccc(S(=O)(=O)[O-])cc5)c5nc(c(-c6ccc(S(=O)(=O)[O-])cc6)c6ccc3[nH]6)C=C5)C=C4)cc2)c(C)c1NS(=O)(=O)c1cccc2cccnc12
REMARK SMILES IDX 9 1 8 2 6 3 7 4 5 5 4 6 1 7 2 8 3 9 76 10 74 11 75 12 77 13
REMARK SMILES IDX 78 15 79 16 80 17 81 18 82 19 90 20 83 21 85 22 89 23 84 24
REMARK SMILES IDX 86 25 88 26 87 27 10 28 11 29 12 30 13 31 14 32 15 33 73 34
REMARK SMILES IDX 16 35 72 36 17 37 18 38 19 39 66 40 20 41 71 42 65 43 67 44
REMARK SMILES IDX 21 45 70 46 64 47 63 48 22 50 52 51 33 52 51 53 34 54 37 55
REMARK SMILES IDX 50 56 68 57 35 58 36 59 49 61 69 62 38 63 23 64 24 65 32 66
REMARK SMILES IDX 25 67 31 68 26 69 27 70 28 71 29 72 30 73 53 74 54 75 62 76
REMARK SMILES IDX 55 77 61 78 56 79 57 80 58 81 59 82 60 83 39 84 40 85 48 86
REMARK SMILES IDX 41 87 47 88 42 89 43 90 44 91 45 92 46 93
REMARK H PARENT 77 14 67 49 37 60
REMARK Flexibility Score: inf
ROOT
ATOM      1  C   UNL     1      -3.062  -4.476   2.970  1.00  0.00     0.274 C 
ENDROOT
BRANCH   1   2
ATOM      2  O   UNL     1      -1.896  -3.627   3.131  1.00  0.00    -0.461 OA
BRANCH   2   3
ATOM      3  C   UNL     1      -0.887  -4.081   3.923  1.00  0.00     0.327 C 
ATOM      4  O   UNL     1      -0.983  -5.087   4.628  1.00  0.00    -0.250 OA
BRANCH   3   5
ATOM      5  C   UNL     1       0.411  -3.314   3.850  1.00  0.00     0.267 C 
BRANCH   5   6
ATOM      6  N   UNL     1       0.351  -2.039   3.169  1.00  0.00    -0.256 N 
ATOM      7  C   UNL     1       0.506  -0.144   0.210  1.00  0.00     0.071 C 
ATOM      8  C   UNL     1       0.261  -0.668   1.582  1.00  0.00     0.084 A 
ATOM      9  N   UNL     1       0.595  -1.941   1.853  1.00  0.00    -0.175 NA
ATOM     10  C   UNL     1      -0.152   0.018   2.776  1.00  0.00     0.093 A 
ATOM     11  C   UNL     1       0.408  -0.793   3.738  1.00  0.00     0.060 A 
ATOM     12  C   UNL     1       1.130  -0.522   4.992  1.00  0.00     0.069 C 
BRANCH  10  13
ATOM     13  N   UNL     1      -0.665   1.320   2.884  1.00  0.00    -0.276 N 
ATOM     14  H   UNL     1      -0.327   1.995   2.252  1.00  0.00     0.180 HD
BRANCH  13  15
ATOM     15  S   UNL     1      -1.835   1.827   4.031  1.00  0.00     0.264 S 
ATOM     16  O   UNL     1      -1.440   3.187   4.365  1.00  0.00    -0.201 OA
ATOM     17  O   UNL     1      -3.143   1.627   3.444  1.00  0.00    -0.201 OA
BRANCH  15  18
ATOM     18  C   UNL     1      -1.685   0.890   5.537  1.00  0.00     0.114 A 
ATOM     19  C   UNL     1      -0.952   1.482   6.587  1.00  0.00     0.024 A 
ATOM     20  C   UNL     1      -2.271  -0.370   5.695  1.00  0.00     0.091 A 
ATOM     21  C   UNL     1      -0.652   0.761   7.737  1.00  0.00     0.002 A 
ATOM     22  C   UNL     1      -1.865  -1.122   6.832  1.00  0.00     0.002 A 
ATOM     23  N   UNL     1      -3.175  -0.895   4.846  1.00  0.00    -0.255 NA
ATOM     24  C   UNL     1      -1.060  -0.561   7.831  1.00  0.00     0.010 A 
ATOM     25  C   UNL     1      -2.271  -2.455   6.958  1.00  0.00     0.012 A 
ATOM     26  C   UNL     1      -3.670  -2.128   5.092  1.00  0.00     0.112 A 
ATOM     27  C   UNL     1      -3.206  -2.967   6.082  1.00  0.00     0.021 A 
ENDBRANCH  15  18
ENDBRANCH  13  15
ENDBRANCH  10  13
ENDBRANCH   5   6
ENDBRANCH   3   5
ENDBRANCH   2   3
ENDBRANCH   1   2
BRANCH   1  28
ATOM     28  C   UNL     1      -3.002  -5.326   1.709  1.00  0.00     0.275 C 
BRANCH  28  29
ATOM     29  O   UNL     1      -1.857  -6.161   1.784  1.00  0.00    -0.458 OA
BRANCH  29  30
ATOM     30  C   UNL     1      -0.756  -5.515   1.341  1.00  0.00     0.338 C 
ATOM     31  O   UNL     1      -0.716  -4.409   0.840  1.00  0.00    -0.246 OA
BRANCH  30  32
ATOM     32  C   UNL     1       0.427  -6.361   1.489  1.00  0.00     0.060 A 
ATOM     33  C   UNL     1       1.627  -5.693   1.218  1.00  0.00     0.016 A 
ATOM     34  C   UNL     1       0.223  -7.713   1.207  1.00  0.00     0.016 A 
ATOM     35  C   UNL     1       2.449  -6.254   0.284  1.00  0.00     0.010 A 
ATOM     36  C   UNL     1       1.038  -8.265   0.261  1.00  0.00     0.010 A 
ATOM     37  C   UNL     1       2.038  -7.460  -0.278  1.00  0.00    -0.014 A 
BRANCH  37  38
ATOM     38  C   UNL     1       2.684  -7.874  -1.490  1.00  0.00     0.031 A 
ATOM     39  C   UNL     1       3.953  -8.554  -1.214  1.00  0.00     0.074 A 
ATOM     40  C   UNL     1       2.129  -7.704  -2.700  1.00  0.00     0.049 A 
ATOM     41  N   UNL     1       5.130  -8.039  -1.294  1.00  0.00    -0.248 NA
ATOM     42  C   UNL     1       3.887  -9.842  -0.511  1.00  0.00     0.031 C 
ATOM     43  C   UNL     1       0.780  -7.268  -3.067  1.00  0.00     0.029 A 
ATOM     44  N   UNL     1       2.677  -8.025  -3.891  1.00  0.00    -0.354 N 
ATOM     45  C   UNL     1       5.982  -9.027  -0.835  1.00  0.00     0.074 A 
ATOM     46  C   UNL     1       5.157  -9.978  -0.134  1.00  0.00     0.031 C 
ATOM     47  C   UNL     1       0.546  -7.619  -4.356  1.00  0.00     0.029 A 
ATOM     48  C   UNL     1       1.767  -8.176  -4.922  1.00  0.00     0.049 A 
ATOM     49  H   UNL     1       3.646  -8.143  -4.016  1.00  0.00     0.167 HD
ATOM     50  C   UNL     1       7.252  -9.146  -1.302  1.00  0.00     0.031 A 
ATOM     51  C   UNL     1       2.015  -8.820  -6.092  1.00  0.00     0.031 A 
ATOM     52  C   UNL     1       7.636  -8.011  -2.100  1.00  0.00     0.049 A 
ATOM     53  C   UNL     1       3.499  -8.863  -6.253  1.00  0.00     0.074 A 
ATOM     54  C   UNL     1       7.806  -6.665  -1.846  1.00  0.00     0.029 A 
ATOM     55  N   UNL     1       7.472  -8.129  -3.464  1.00  0.00    -0.354 N 
ATOM     56  N   UNL     1       4.220  -7.787  -6.424  1.00  0.00    -0.248 NA
ATOM     57  C   UNL     1       4.227 -10.004  -5.706  1.00  0.00     0.031 C 
ATOM     58  C   UNL     1       7.286  -6.002  -2.996  1.00  0.00     0.029 A 
ATOM     59  C   UNL     1       6.885  -6.973  -3.918  1.00  0.00     0.049 A 
ATOM     60  H   UNL     1       7.730  -8.903  -4.015  1.00  0.00     0.167 HD
ATOM     61  C   UNL     1       5.341  -7.966  -5.620  1.00  0.00     0.074 A 
ATOM     62  C   UNL     1       5.338  -9.390  -5.281  1.00  0.00     0.031 C 
ATOM     63  C   UNL     1       5.990  -6.900  -5.058  1.00  0.00     0.031 A 
BRANCH  50  64
ATOM     64  C   UNL     1       7.973 -10.459  -1.368  1.00  0.00    -0.014 A 
ATOM     65  C   UNL     1       9.338 -10.462  -1.700  1.00  0.00     0.010 A 
ATOM     66  C   UNL     1       7.304 -11.701  -1.359  1.00  0.00     0.010 A 
ATOM     67  C   UNL     1       9.984 -11.648  -2.063  1.00  0.00     0.020 A 
ATOM     68  C   UNL     1       7.949 -12.894  -1.670  1.00  0.00     0.020 A 
ATOM     69  C   UNL     1       9.278 -12.853  -2.058  1.00  0.00     0.054 A 
BRANCH  69  70
ATOM     70  S   UNL     1      10.086 -14.357  -2.648  1.00  0.00     0.124 S 
ATOM     71  O   UNL     1      10.300 -14.046  -4.058  1.00  0.00    -0.237 OA
ATOM     72  O   UNL     1      11.285 -14.408  -1.817  1.00  0.00    -0.237 OA
ATOM     73  O   UNL     1       9.101 -15.403  -2.380  1.00  0.00    -0.744 OA
ENDBRANCH  69  70
ENDBRANCH  50  64
BRANCH  51  74
ATOM     74  C   UNL     1       1.081  -9.721  -6.819  1.00  0.00    -0.014 A 
ATOM     75  C   UNL     1       1.344 -10.154  -8.132  1.00  0.00     0.010 A 
ATOM     76  C   UNL     1       0.043 -10.369  -6.117  1.00  0.00     0.010 A 
ATOM     77  C   UNL     1       0.628 -11.227  -8.698  1.00  0.00     0.020 A 
ATOM     78  C   UNL     1      -0.676 -11.434  -6.674  1.00  0.00     0.020 A 
ATOM     79  C   UNL     1      -0.366 -11.873  -7.957  1.00  0.00     0.054 A 
BRANCH  79  80
ATOM     80  S   UNL     1      -1.167 -13.364  -8.623  1.00  0.00     0.124 S 
ATOM     81  O   UNL     1      -1.988 -12.822  -9.702  1.00  0.00    -0.237 OA
ATOM     82  O   UNL     1      -0.029 -14.178  -9.041  1.00  0.00    -0.237 OA
ATOM     83  O   UNL     1      -1.914 -13.893  -7.483  1.00  0.00    -0.744 OA
ENDBRANCH  79  80
ENDBRANCH  51  74
BRANCH  63  84
ATOM     84  C   UNL     1       5.572  -5.509  -5.489  1.00  0.00    -0.014 A 
ATOM     85  C   UNL     1       4.285  -4.978  -5.258  1.00  0.00     0.010 A 
ATOM     86  C   UNL     1       6.562  -4.653  -5.998  1.00  0.00     0.010 A 
ATOM     87  C   UNL     1       3.991  -3.639  -5.562  1.00  0.00     0.020 A 
ATOM     88  C   UNL     1       6.281  -3.315  -6.287  1.00  0.00     0.020 A 
ATOM     89  C   UNL     1       4.994  -2.816  -6.081  1.00  0.00     0.054 A 
BRANCH  89  90
ATOM     90  S   UNL     1       4.622  -1.078  -6.450  1.00  0.00     0.124 S 
ATOM     91  O   UNL     1       3.737  -1.182  -7.606  1.00  0.00    -0.237 OA
ATOM     92  O   UNL     1       3.994  -0.607  -5.217  1.00  0.00    -0.237 OA
ATOM     93  O   UNL     1       5.934  -0.493  -6.727  1.00  0.00    -0.744 OA
ENDBRANCH  89  90
ENDBRANCH  63  84
ENDBRANCH  37  38
ENDBRANCH  30  32
ENDBRANCH  29  30
ENDBRANCH  28  29
ENDBRANCH   1  28
TORSDOF 18
