REMARK SMILES CC(C)CSc1cc2c(cc1Cl)C=C(C(=O)OCCOC(=O)c1ccc(-c3c4nc(c(-c5ccc(S(=O)(=O)[O-])cc5)c5ccc([nH]5)c(-c5ccc(S(=O)(=O)[O-])cc5)c5nc(c(-c6ccc(S(=O)(=O)[O-])cc6)c6ccc3[nH]6)C=C5)C=C4)cc1)[C@H](C(F)(F)F)O2
REMARK SMILES IDX 18 1 17 2 15 3 16 4 14 5 6 6 7 7 11 8 8 9 10 10 12 11 9 12
REMARK SMILES IDX 88 13 13 14 83 15 5 16 4 17 2 18 1 19 3 20 84 21 85 22 86 23
REMARK SMILES IDX 87 24 19 25 20 26 21 27 22 28 23 29 24 30 82 31 25 32 81 33
REMARK SMILES IDX 26 34 27 35 28 36 75 37 29 38 80 39 74 40 76 41 30 42 79 43
REMARK SMILES IDX 73 44 72 45 31 47 61 48 42 49 60 50 43 51 46 52 59 53 77 54
REMARK SMILES IDX 44 55 45 56 58 58 78 59 47 60 32 61 33 62 41 63 34 64 40 65
REMARK SMILES IDX 35 66 36 67 37 68 38 69 39 70 62 71 63 72 71 73 64 74 70 75
REMARK SMILES IDX 65 76 66 77 67 78 68 79 69 80 48 81 49 82 57 83 50 84 56 85
REMARK SMILES IDX 51 86 52 87 53 88 54 89 55 90
REMARK H PARENT 76 46 46 57
REMARK Flexibility Score: inf
ROOT
ATOM      1  C   UNL     1       0.280   4.031  -8.402  1.00  0.00     0.275 C 
ENDROOT
BRANCH   1   2
ATOM      2  O   UNL     1       0.027   3.557  -7.062  1.00  0.00    -0.459 OA
BRANCH   2   3
ATOM      3  C   UNL     1      -0.709   2.427  -6.964  1.00  0.00     0.338 C 
ATOM      4  O   UNL     1      -1.190   1.802  -7.891  1.00  0.00    -0.246 OA
BRANCH   3   5
ATOM      5  C   UNL     1      -0.811   1.988  -5.556  1.00  0.00     0.087 C 
ATOM      6  C   UNL     1      -1.441  -0.806  -1.415  1.00  0.00     0.030 A 
ATOM      7  C   UNL     1      -1.636   0.552  -1.723  1.00  0.00     0.063 A 
ATOM      8  C   UNL     1      -0.972  -1.666  -2.426  1.00  0.00     0.055 A 
ATOM      9  C   UNL     1      -1.353   1.046  -2.997  1.00  0.00     0.129 A 
ATOM     10  C   UNL     1      -0.727  -1.177  -3.710  1.00  0.00     0.033 A 
ATOM     11  Cl  UNL     1      -0.670  -3.350  -2.160  1.00  0.00    -0.083 Cl
ATOM     12  C   UNL     1      -0.940   0.173  -3.996  1.00  0.00     0.019 A 
ATOM     13  O   UNL     1      -1.560   2.381  -3.213  1.00  0.00    -0.475 OA
ATOM     14  C   UNL     1      -0.817   0.665  -5.352  1.00  0.00     0.027 C 
ATOM     15  C   UNL     1      -1.017   2.975  -4.438  1.00  0.00     0.316 C 
BRANCH   6  16
ATOM     16  S   UNL     1      -1.844  -1.422   0.220  1.00  0.00    -0.124 SA
BRANCH  16  17
ATOM     17  C   UNL     1      -0.989  -0.244   1.321  1.00  0.00     0.078 C 
BRANCH  17  18
ATOM     18  C   UNL     1       0.535  -0.424   1.434  1.00  0.00    -0.007 C 
ATOM     19  C   UNL     1       1.303   0.032   0.192  1.00  0.00     0.008 C 
ATOM     20  C   UNL     1       1.032   0.374   2.645  1.00  0.00     0.008 C 
ENDBRANCH  17  18
ENDBRANCH  16  17
ENDBRANCH   6  16
BRANCH  15  21
ATOM     21  C   UNL     1       0.204   3.854  -4.104  1.00  0.00     0.430 C 
ATOM     22  F   UNL     1       0.153   4.305  -2.824  1.00  0.00    -0.167 F 
ATOM     23  F   UNL     1       1.376   3.204  -4.251  1.00  0.00    -0.167 F 
ATOM     24  F   UNL     1       0.239   4.963  -4.885  1.00  0.00    -0.167 F 
ENDBRANCH  15  21
ENDBRANCH   3   5
ENDBRANCH   2   3
ENDBRANCH   1   2
BRANCH   1  25
ATOM     25  C   UNL     1       1.712   3.724  -8.841  1.00  0.00     0.275 C 
BRANCH  25  26
ATOM     26  O   UNL     1       1.895   2.307  -9.013  1.00  0.00    -0.458 OA
BRANCH  26  27
ATOM     27  C   UNL     1       2.688   1.705  -8.098  1.00  0.00     0.338 C 
ATOM     28  O   UNL     1       3.272   2.228  -7.164  1.00  0.00    -0.246 OA
BRANCH  27  29
ATOM     29  C   UNL     1       2.685   0.254  -8.329  1.00  0.00     0.060 A 
ATOM     30  C   UNL     1       3.776  -0.397  -8.895  1.00  0.00     0.016 A 
ATOM     31  C   UNL     1       1.611  -0.481  -7.838  1.00  0.00     0.016 A 
ATOM     32  C   UNL     1       3.767  -1.796  -8.975  1.00  0.00     0.010 A 
ATOM     33  C   UNL     1       1.647  -1.873  -7.825  1.00  0.00     0.010 A 
ATOM     34  C   UNL     1       2.719  -2.554  -8.411  1.00  0.00    -0.014 A 
BRANCH  34  35
ATOM     35  C   UNL     1       2.755  -4.046  -8.405  1.00  0.00     0.031 A 
ATOM     36  C   UNL     1       1.655  -4.858  -9.047  1.00  0.00     0.074 A 
ATOM     37  C   UNL     1       3.768  -4.683  -7.780  1.00  0.00     0.049 A 
ATOM     38  N   UNL     1       1.550  -6.160  -9.153  1.00  0.00    -0.248 NA
ATOM     39  C   UNL     1       0.511  -4.125  -9.616  1.00  0.00     0.031 C 
ATOM     40  C   UNL     1       4.847  -4.025  -7.040  1.00  0.00     0.029 A 
ATOM     41  N   UNL     1       4.070  -6.021  -7.681  1.00  0.00    -0.354 N 
ATOM     42  C   UNL     1       0.331  -6.397  -9.780  1.00  0.00     0.074 A 
ATOM     43  C   UNL     1      -0.299  -5.111  -9.973  1.00  0.00     0.031 C 
ATOM     44  C   UNL     1       5.733  -4.949  -6.639  1.00  0.00     0.029 A 
ATOM     45  C   UNL     1       5.267  -6.270  -7.049  1.00  0.00     0.049 A 
ATOM     46  H   UNL     1       3.486  -6.732  -8.030  1.00  0.00     0.167 HD
ATOM     47  C   UNL     1      -0.200  -7.572 -10.194  1.00  0.00     0.031 A 
ATOM     48  C   UNL     1       5.935  -7.424  -6.841  1.00  0.00     0.031 A 
ATOM     49  C   UNL     1       0.453  -8.846 -10.047  1.00  0.00     0.049 A 
ATOM     50  C   UNL     1       5.358  -8.711  -7.358  1.00  0.00     0.074 A 
ATOM     51  C   UNL     1       0.029 -10.082 -10.503  1.00  0.00     0.029 A 
ATOM     52  N   UNL     1       1.669  -9.048  -9.412  1.00  0.00    -0.354 N 
ATOM     53  N   UNL     1       4.238  -8.902  -8.013  1.00  0.00    -0.248 NA
ATOM     54  C   UNL     1       6.135  -9.937  -7.122  1.00  0.00     0.031 C 
ATOM     55  C   UNL     1       0.966 -11.039 -10.106  1.00  0.00     0.029 A 
ATOM     56  C   UNL     1       2.004 -10.391  -9.455  1.00  0.00     0.049 A 
ATOM     57  H   UNL     1       2.212  -8.343  -8.994  1.00  0.00     0.167 HD
ATOM     58  C   UNL     1       4.181 -10.266  -8.277  1.00  0.00     0.074 A 
ATOM     59  C   UNL     1       5.388 -10.851  -7.731  1.00  0.00     0.031 C 
ATOM     60  C   UNL     1       3.209 -10.965  -8.912  1.00  0.00     0.031 A 
BRANCH  47  61
ATOM     61  C   UNL     1      -1.533  -7.546 -10.901  1.00  0.00    -0.014 A 
ATOM     62  C   UNL     1      -2.653  -8.173 -10.323  1.00  0.00     0.010 A 
ATOM     63  C   UNL     1      -1.649  -7.000 -12.192  1.00  0.00     0.010 A 
ATOM     64  C   UNL     1      -3.856  -8.272 -11.029  1.00  0.00     0.020 A 
ATOM     65  C   UNL     1      -2.858  -7.070 -12.889  1.00  0.00     0.020 A 
ATOM     66  C   UNL     1      -3.948  -7.726 -12.312  1.00  0.00     0.054 A 
BRANCH  66  67
ATOM     67  S   UNL     1      -5.510  -7.871 -13.223  1.00  0.00     0.124 S 
ATOM     68  O   UNL     1      -5.472  -9.256 -13.683  1.00  0.00    -0.237 OA
ATOM     69  O   UNL     1      -6.509  -7.571 -12.200  1.00  0.00    -0.237 OA
ATOM     70  O   UNL     1      -5.387  -6.860 -14.272  1.00  0.00    -0.744 OA
ENDBRANCH  66  67
ENDBRANCH  47  61
BRANCH  48  71
ATOM     71  C   UNL     1       7.269  -7.377  -6.181  1.00  0.00    -0.014 A 
ATOM     72  C   UNL     1       7.387  -7.050  -4.817  1.00  0.00     0.010 A 
ATOM     73  C   UNL     1       8.438  -7.555  -6.943  1.00  0.00     0.010 A 
ATOM     74  C   UNL     1       8.645  -6.843  -4.244  1.00  0.00     0.020 A 
ATOM     75  C   UNL     1       9.699  -7.376  -6.366  1.00  0.00     0.020 A 
ATOM     76  C   UNL     1       9.793  -6.989  -5.028  1.00  0.00     0.054 A 
BRANCH  76  77
ATOM     77  S   UNL     1      11.412  -6.646  -4.284  1.00  0.00     0.124 S 
ATOM     78  O   UNL     1      11.433  -5.186  -4.274  1.00  0.00    -0.237 OA
ATOM     79  O   UNL     1      11.306  -7.283  -2.974  1.00  0.00    -0.237 OA
ATOM     80  O   UNL     1      12.352  -7.278  -5.206  1.00  0.00    -0.744 OA
ENDBRANCH  76  77
ENDBRANCH  48  71
BRANCH  60  81
ATOM     81  C   UNL     1       3.381 -12.453  -9.063  1.00  0.00    -0.014 A 
ATOM     82  C   UNL     1       3.581 -13.004 -10.343  1.00  0.00     0.010 A 
ATOM     83  C   UNL     1       3.186 -13.312  -7.968  1.00  0.00     0.010 A 
ATOM     84  C   UNL     1       3.540 -14.387 -10.533  1.00  0.00     0.020 A 
ATOM     85  C   UNL     1       3.169 -14.697  -8.150  1.00  0.00     0.020 A 
ATOM     86  C   UNL     1       3.318 -15.225  -9.436  1.00  0.00     0.054 A 
BRANCH  86  87
ATOM     87  S   UNL     1       3.211 -17.015  -9.708  1.00  0.00     0.124 S 
ATOM     88  O   UNL     1       1.870 -17.162 -10.265  1.00  0.00    -0.237 OA
ATOM     89  O   UNL     1       4.310 -17.266 -10.638  1.00  0.00    -0.237 OA
ATOM     90  O   UNL     1       3.398 -17.576  -8.372  1.00  0.00    -0.744 OA
ENDBRANCH  86  87
ENDBRANCH  60  81
ENDBRANCH  34  35
ENDBRANCH  27  29
ENDBRANCH  26  27
ENDBRANCH  25  26
ENDBRANCH   1  25
TORSDOF 18
