REMARK SMILES C[C@@H]1CN(c2cc(C(=O)OCCOC(=O)c3ccc(-c4c5nc(c(-c6ccc(S(=O)(=O)[O-])cc6)c6ccc([nH]6)c(-c6ccc(S(=O)(=O)[O-])cc6)c6nc(c(-c7ccc(S(=O)(=O)[O-])cc7)c7ccc4[nH]7)C=C6)C=C5)cc3)c(F)cc2F)S(=O)(=O)C1
REMARK SMILES IDX 12 1 11 2 10 3 8 4 9 5 7 6 5 7 6 8 79 9 78 10 80 11 76 12
REMARK SMILES IDX 77 13 4 14 1 15 2 16 3 17 84 18 81 19 82 20 83 21 13 22
REMARK SMILES IDX 14 23 15 24 16 25 17 26 75 27 18 28 74 29 19 30 20 31 21 32
REMARK SMILES IDX 68 33 22 34 73 35 67 36 69 37 23 38 72 39 66 40 65 41 24 43
REMARK SMILES IDX 54 44 35 45 53 46 36 47 39 48 52 49 70 50 37 51 38 52 51 54
REMARK SMILES IDX 71 55 40 56 25 57 26 58 34 59 27 60 33 61 28 62 29 63 30 64
REMARK SMILES IDX 31 65 32 66 55 67 56 68 64 69 57 70 63 71 58 72 59 73 60 74
REMARK SMILES IDX 61 75 62 76 41 77 42 78 50 79 43 80 49 81 44 82 45 83 46 84
REMARK SMILES IDX 47 85 48 86
REMARK H PARENT 69 42 39 53
REMARK Flexibility Score: inf
ROOT
ATOM      1  C   UNL     1      -3.934   6.488  -6.299  1.00  0.00     0.275 C 
ENDROOT
BRANCH   1   2
ATOM      2  C   UNL     1      -4.596   5.231  -6.866  1.00  0.00     0.275 C 
BRANCH   2   3
ATOM      3  O   UNL     1      -4.748   4.212  -5.854  1.00  0.00    -0.458 OA
BRANCH   3   4
ATOM      4  C   UNL     1      -3.956   3.116  -5.967  1.00  0.00     0.341 C 
ATOM      5  O   UNL     1      -3.109   2.921  -6.822  1.00  0.00    -0.246 OA
BRANCH   4   6
ATOM      6  C   UNL     1      -4.163   2.196  -4.828  1.00  0.00     0.098 A 
ATOM      7  C   UNL     1      -3.241   0.740  -3.111  1.00  0.00     0.088 A 
ATOM      8  C   UNL     1      -3.056   1.587  -4.205  1.00  0.00     0.048 A 
ATOM      9  C   UNL     1      -4.544   0.428  -2.712  1.00  0.00     0.150 A 
ATOM     10  C   UNL     1      -5.647   0.983  -3.355  1.00  0.00     0.081 A 
ATOM     11  F   UNL     1      -4.753  -0.419  -1.694  1.00  0.00    -0.205 F 
ATOM     12  C   UNL     1      -5.451   1.877  -4.402  1.00  0.00     0.140 A 
ATOM     13  F   UNL     1      -6.529   2.379  -5.022  1.00  0.00    -0.206 F 
BRANCH   7  14
ATOM     14  N   UNL     1      -2.145   0.120  -2.441  1.00  0.00    -0.267 N 
ATOM     15  C   UNL     1       0.802   0.141  -0.171  1.00  0.00     0.011 C 
ATOM     16  C   UNL     1       0.115  -0.007  -1.524  1.00  0.00     0.023 C 
ATOM     17  C   UNL     1      -1.148   0.883  -1.660  1.00  0.00     0.140 C 
ATOM     18  C   UNL     1      -0.311  -1.455  -1.793  1.00  0.00     0.165 C 
ATOM     19  S   UNL     1      -1.497  -1.299  -3.109  1.00  0.00     0.235 S 
ATOM     20  O   UNL     1      -2.482  -2.349  -3.052  1.00  0.00    -0.206 OA
ATOM     21  O   UNL     1      -0.810  -0.940  -4.333  1.00  0.00    -0.206 OA
ENDBRANCH   7  14
ENDBRANCH   4   6
ENDBRANCH   3   4
ENDBRANCH   2   3
ENDBRANCH   1   2
BRANCH   1  22
ATOM     22  O   UNL     1      -2.558   6.230  -5.965  1.00  0.00    -0.458 OA
BRANCH  22  23
ATOM     23  C   UNL     1      -2.336   5.967  -4.660  1.00  0.00     0.338 C 
ATOM     24  O   UNL     1      -3.145   5.981  -3.747  1.00  0.00    -0.246 OA
BRANCH  23  25
ATOM     25  C   UNL     1      -0.955   5.513  -4.464  1.00  0.00     0.060 A 
ATOM     26  C   UNL     1      -0.682   4.176  -4.721  1.00  0.00     0.016 A 
ATOM     27  C   UNL     1      -0.007   6.312  -3.835  1.00  0.00     0.016 A 
ATOM     28  C   UNL     1       0.466   3.587  -4.208  1.00  0.00     0.010 A 
ATOM     29  C   UNL     1       1.216   5.747  -3.451  1.00  0.00     0.010 A 
ATOM     30  C   UNL     1       1.447   4.363  -3.578  1.00  0.00    -0.014 A 
BRANCH  30  31
ATOM     31  C   UNL     1       2.686   3.721  -3.044  1.00  0.00     0.031 A 
ATOM     32  C   UNL     1       3.105   3.932  -1.607  1.00  0.00     0.074 A 
ATOM     33  C   UNL     1       3.438   2.929  -3.838  1.00  0.00     0.049 A 
ATOM     34  N   UNL     1       4.215   3.580  -1.009  1.00  0.00    -0.248 NA
ATOM     35  C   UNL     1       2.159   4.641  -0.731  1.00  0.00     0.031 C 
ATOM     36  C   UNL     1       3.137   2.586  -5.231  1.00  0.00     0.029 A 
ATOM     37  N   UNL     1       4.607   2.252  -3.584  1.00  0.00    -0.354 N 
ATOM     38  C   UNL     1       4.137   4.094   0.282  1.00  0.00     0.074 A 
ATOM     39  C   UNL     1       2.867   4.781   0.381  1.00  0.00     0.031 C 
ATOM     40  C   UNL     1       4.048   1.715  -5.682  1.00  0.00     0.029 A 
ATOM     41  C   UNL     1       5.071   1.533  -4.662  1.00  0.00     0.049 A 
ATOM     42  H   UNL     1       5.067   2.278  -2.714  1.00  0.00     0.167 HD
ATOM     43  C   UNL     1       5.042   4.011   1.289  1.00  0.00     0.031 A 
ATOM     44  C   UNL     1       6.214   0.845  -4.843  1.00  0.00     0.031 A 
ATOM     45  C   UNL     1       6.292   3.299   1.192  1.00  0.00     0.049 A 
ATOM     46  C   UNL     1       7.226   0.812  -3.737  1.00  0.00     0.074 A 
ATOM     47  C   UNL     1       7.262   3.128   2.165  1.00  0.00     0.029 A 
ATOM     48  N   UNL     1       6.747   2.641   0.058  1.00  0.00    -0.354 N 
ATOM     49  N   UNL     1       7.148   1.333  -2.536  1.00  0.00    -0.248 NA
ATOM     50  C   UNL     1       8.486   0.113  -4.016  1.00  0.00     0.031 C 
ATOM     51  C   UNL     1       8.331   2.423   1.600  1.00  0.00     0.029 A 
ATOM     52  C   UNL     1       7.995   2.089   0.298  1.00  0.00     0.049 A 
ATOM     53  H   UNL     1       6.255   2.576  -0.792  1.00  0.00     0.167 HD
ATOM     54  C   UNL     1       8.344   1.008  -1.907  1.00  0.00     0.074 A 
ATOM     55  C   UNL     1       9.117   0.231  -2.856  1.00  0.00     0.031 C 
ATOM     56  C   UNL     1       8.762   1.327  -0.657  1.00  0.00     0.031 A 
BRANCH  43  57
ATOM     57  C   UNL     1       4.744   4.766   2.564  1.00  0.00    -0.014 A 
ATOM     58  C   UNL     1       3.696   4.394   3.425  1.00  0.00     0.010 A 
ATOM     59  C   UNL     1       5.548   5.869   2.911  1.00  0.00     0.010 A 
ATOM     60  C   UNL     1       3.417   5.149   4.569  1.00  0.00     0.020 A 
ATOM     61  C   UNL     1       5.296   6.604   4.073  1.00  0.00     0.020 A 
ATOM     62  C   UNL     1       4.214   6.255   4.881  1.00  0.00     0.054 A 
BRANCH  62  63
ATOM     63  S   UNL     1       3.820   7.225   6.363  1.00  0.00     0.124 S 
ATOM     64  O   UNL     1       2.595   7.910   5.954  1.00  0.00    -0.237 OA
ATOM     65  O   UNL     1       3.651   6.195   7.384  1.00  0.00    -0.237 OA
ATOM     66  O   UNL     1       4.986   8.087   6.536  1.00  0.00    -0.744 OA
ENDBRANCH  62  63
ENDBRANCH  43  57
BRANCH  44  67
ATOM     67  C   UNL     1       6.467   0.167  -6.145  1.00  0.00    -0.014 A 
ATOM     68  C   UNL     1       6.474  -1.236  -6.227  1.00  0.00     0.010 A 
ATOM     69  C   UNL     1       6.648   0.921  -7.321  1.00  0.00     0.010 A 
ATOM     70  C   UNL     1       6.651  -1.871  -7.460  1.00  0.00     0.020 A 
ATOM     71  C   UNL     1       6.790   0.290  -8.559  1.00  0.00     0.020 A 
ATOM     72  C   UNL     1       6.797  -1.104  -8.620  1.00  0.00     0.054 A 
BRANCH  72  73
ATOM     73  S   UNL     1       6.942  -1.952 -10.216  1.00  0.00     0.124 S 
ATOM     74  O   UNL     1       8.281  -2.527 -10.133  1.00  0.00    -0.237 OA
ATOM     75  O   UNL     1       5.839  -2.908 -10.166  1.00  0.00    -0.237 OA
ATOM     76  O   UNL     1       6.782  -0.877 -11.192  1.00  0.00    -0.744 OA
ENDBRANCH  72  73
ENDBRANCH  44  67
BRANCH  56  77
ATOM     77  C   UNL     1      10.105   0.798  -0.227  1.00  0.00    -0.014 A 
ATOM     78  C   UNL     1      11.300   1.303  -0.768  1.00  0.00     0.010 A 
ATOM     79  C   UNL     1      10.168  -0.200   0.763  1.00  0.00     0.010 A 
ATOM     80  C   UNL     1      12.534   0.792  -0.353  1.00  0.00     0.020 A 
ATOM     81  C   UNL     1      11.400  -0.689   1.204  1.00  0.00     0.020 A 
ATOM     82  C   UNL     1      12.575  -0.200   0.631  1.00  0.00     0.054 A 
BRANCH  82  83
ATOM     83  S   UNL     1      14.189  -0.819   1.178  1.00  0.00     0.124 S 
ATOM     84  O   UNL     1      14.619  -1.608   0.027  1.00  0.00    -0.237 OA
ATOM     85  O   UNL     1      14.940   0.411   1.414  1.00  0.00    -0.237 OA
ATOM     86  O   UNL     1      13.875  -1.591   2.379  1.00  0.00    -0.744 OA
ENDBRANCH  82  83
ENDBRANCH  56  77
ENDBRANCH  30  31
ENDBRANCH  23  25
ENDBRANCH  22  23
ENDBRANCH   1  22
TORSDOF 15
