REMARK SMILES CCc1ccc(-c2cc(Cl)cc3c2O[C@H](C(F)(F)F)C(C(=O)OCCOC(=O)c2ccc(-c4c5nc(c(-c6ccc(S(=O)(=O)[O-])cc6)c6ccc([nH]6)c(-c6ccc(S(=O)(=O)[O-])cc6)c6nc(c(-c7ccc(S(=O)(=O)[O-])cc7)c7ccc4[nH]7)C=C6)C=C5)cc2)=C3)cc1
REMARK SMILES IDX 25 1 24 2 23 3 21 4 22 5 20 6 7 7 8 8 13 9 9 10 12 11 14 12
REMARK SMILES IDX 10 13 11 14 89 15 15 16 6 17 3 18 4 19 91 20 5 21 90 22 2 23
REMARK SMILES IDX 1 24 16 25 17 26 18 27 19 28 26 29 27 30 28 31 29 32 30 33
REMARK SMILES IDX 88 34 31 35 87 36 32 37 33 38 34 39 81 40 35 41 86 42 80 43
REMARK SMILES IDX 82 44 36 45 85 46 79 47 78 48 37 50 67 51 48 52 66 53 49 54
REMARK SMILES IDX 52 55 65 56 83 57 50 58 51 59 64 61 84 62 53 63 38 64 39 65
REMARK SMILES IDX 47 66 40 67 46 68 41 69 42 70 43 71 44 72 45 73 68 74 69 75
REMARK SMILES IDX 77 76 70 77 76 78 71 79 72 80 73 81 74 82 75 83 54 84 55 85
REMARK SMILES IDX 63 86 56 87 62 88 57 89 58 90 59 91 60 92 61 93
REMARK H PARENT 82 49 52 60
REMARK Flexibility Score: inf
ROOT
ATOM      1  C   UNL     1       4.700   8.457  -9.034  1.00  0.00     0.275 C 
ENDROOT
BRANCH   1   2
ATOM      2  C   UNL     1       3.955   9.643  -8.416  1.00  0.00     0.275 C 
BRANCH   2   3
ATOM      3  O   UNL     1       4.011   9.646  -6.971  1.00  0.00    -0.459 OA
BRANCH   3   4
ATOM      4  C   UNL     1       3.077  10.460  -6.419  1.00  0.00     0.338 C 
ATOM      5  O   UNL     1       2.348  11.211  -7.057  1.00  0.00    -0.246 OA
BRANCH   4   6
ATOM      6  C   UNL     1       2.923  10.277  -4.958  1.00  0.00     0.087 C 
ATOM      7  C   UNL     1       2.079   6.691  -3.155  1.00  0.00     0.026 A 
ATOM      8  C   UNL     1       1.343   5.976  -4.134  1.00  0.00     0.033 A 
ATOM      9  C   UNL     1       2.326   8.026  -3.474  1.00  0.00     0.135 A 
ATOM     10  C   UNL     1       0.763   6.565  -5.260  1.00  0.00     0.042 A 
ATOM     11  C   UNL     1       1.527   8.648  -4.465  1.00  0.00     0.019 A 
ATOM     12  O   UNL     1       3.373   8.785  -2.973  1.00  0.00    -0.475 OA
ATOM     13  Cl  UNL     1      -0.017   5.662  -6.492  1.00  0.00    -0.084 Cl
ATOM     14  C   UNL     1       0.778   7.930  -5.380  1.00  0.00     0.032 A 
ATOM     15  C   UNL     1       1.634  10.108  -4.630  1.00  0.00     0.027 C 
ATOM     16  C   UNL     1       3.968   9.675  -4.034  1.00  0.00     0.316 C 
BRANCH   7  17
ATOM     17  C   UNL     1       2.211   5.965  -1.854  1.00  0.00    -0.015 A 
ATOM     18  C   UNL     1       1.806   3.813   0.019  1.00  0.00    -0.048 A 
ATOM     19  C   UNL     1       3.023   3.974  -0.651  1.00  0.00     0.004 A 
ATOM     20  C   UNL     1       0.839   4.806  -0.167  1.00  0.00     0.004 A 
ATOM     21  C   UNL     1       3.231   5.052  -1.550  1.00  0.00     0.009 A 
ATOM     22  C   UNL     1       1.038   5.855  -1.079  1.00  0.00     0.009 A 
BRANCH  18  23
ATOM     23  C   UNL     1       1.464   2.645   0.922  1.00  0.00     0.032 C 
ATOM     24  C   UNL     1       2.319   1.389   0.834  1.00  0.00     0.009 C 
ENDBRANCH  18  23
ENDBRANCH   7  17
BRANCH  16  25
ATOM     25  C   UNL     1       4.702  10.861  -3.400  1.00  0.00     0.430 C 
ATOM     26  F   UNL     1       3.887  11.589  -2.597  1.00  0.00    -0.167 F 
ATOM     27  F   UNL     1       5.768  10.479  -2.666  1.00  0.00    -0.167 F 
ATOM     28  F   UNL     1       5.167  11.710  -4.355  1.00  0.00    -0.167 F 
ENDBRANCH  16  25
ENDBRANCH   4   6
ENDBRANCH   3   4
ENDBRANCH   2   3
ENDBRANCH   1   2
BRANCH   1  29
ATOM     29  O   UNL     1       4.232   7.204  -8.498  1.00  0.00    -0.458 OA
BRANCH  29  30
ATOM     30  C   UNL     1       4.952   6.768  -7.430  1.00  0.00     0.338 C 
ATOM     31  O   UNL     1       5.929   7.321  -6.965  1.00  0.00    -0.246 OA
BRANCH  30  32
ATOM     32  C   UNL     1       4.341   5.563  -6.803  1.00  0.00     0.060 A 
ATOM     33  C   UNL     1       4.662   5.345  -5.466  1.00  0.00     0.016 A 
ATOM     34  C   UNL     1       3.514   4.638  -7.458  1.00  0.00     0.016 A 
ATOM     35  C   UNL     1       4.140   4.238  -4.795  1.00  0.00     0.010 A 
ATOM     36  C   UNL     1       2.979   3.524  -6.762  1.00  0.00     0.010 A 
ATOM     37  C   UNL     1       3.266   3.320  -5.407  1.00  0.00    -0.014 A 
BRANCH  37  38
ATOM     38  C   UNL     1       2.840   2.136  -4.577  1.00  0.00     0.031 A 
ATOM     39  C   UNL     1       3.932   1.236  -4.069  1.00  0.00     0.074 A 
ATOM     40  C   UNL     1       1.588   1.941  -4.099  1.00  0.00     0.049 A 
ATOM     41  N   UNL     1       3.913   0.379  -3.083  1.00  0.00    -0.248 NA
ATOM     42  C   UNL     1       5.228   1.342  -4.761  1.00  0.00     0.031 C 
ATOM     43  C   UNL     1       0.419   2.719  -4.464  1.00  0.00     0.029 A 
ATOM     44  N   UNL     1       1.100   1.093  -3.120  1.00  0.00    -0.354 N 
ATOM     45  C   UNL     1       5.193  -0.151  -3.029  1.00  0.00     0.074 A 
ATOM     46  C   UNL     1       5.972   0.503  -4.060  1.00  0.00     0.031 C 
ATOM     47  C   UNL     1      -0.577   2.489  -3.593  1.00  0.00     0.029 A 
ATOM     48  C   UNL     1      -0.181   1.412  -2.694  1.00  0.00     0.049 A 
ATOM     49  H   UNL     1       1.613   0.335  -2.760  1.00  0.00     0.167 HD
ATOM     50  C   UNL     1       5.673  -1.131  -2.231  1.00  0.00     0.031 A 
ATOM     51  C   UNL     1      -0.952   0.903  -1.704  1.00  0.00     0.031 A 
ATOM     52  C   UNL     1       4.881  -1.885  -1.299  1.00  0.00     0.049 A 
ATOM     53  C   UNL     1      -0.439  -0.292  -0.935  1.00  0.00     0.074 A 
ATOM     54  C   UNL     1       5.282  -2.934  -0.492  1.00  0.00     0.029 A 
ATOM     55  N   UNL     1       3.523  -1.711  -1.085  1.00  0.00    -0.354 N 
ATOM     56  N   UNL     1       0.745  -0.854  -0.975  1.00  0.00    -0.248 NA
ATOM     57  C   UNL     1      -1.374  -0.937   0.001  1.00  0.00     0.031 C 
ATOM     58  C   UNL     1       4.152  -3.442   0.156  1.00  0.00     0.029 A 
ATOM     59  C   UNL     1       3.067  -2.642  -0.165  1.00  0.00     0.049 A 
ATOM     60  H   UNL     1       2.965  -1.028  -1.521  1.00  0.00     0.167 HD
ATOM     61  C   UNL     1       0.718  -1.875  -0.030  1.00  0.00     0.074 A 
ATOM     62  C   UNL     1      -0.609  -1.872   0.549  1.00  0.00     0.031 C 
ATOM     63  C   UNL     1       1.721  -2.703   0.353  1.00  0.00     0.031 A 
BRANCH  50  64
ATOM     64  C   UNL     1       7.104  -1.527  -2.456  1.00  0.00    -0.014 A 
ATOM     65  C   UNL     1       8.170  -0.705  -2.050  1.00  0.00     0.010 A 
ATOM     66  C   UNL     1       7.374  -2.728  -3.135  1.00  0.00     0.010 A 
ATOM     67  C   UNL     1       9.485  -1.059  -2.364  1.00  0.00     0.020 A 
ATOM     68  C   UNL     1       8.687  -3.096  -3.428  1.00  0.00     0.020 A 
ATOM     69  C   UNL     1       9.732  -2.249  -3.058  1.00  0.00     0.054 A 
BRANCH  69  70
ATOM     70  S   UNL     1      11.444  -2.676  -3.471  1.00  0.00     0.124 S 
ATOM     71  O   UNL     1      11.756  -1.696  -4.508  1.00  0.00    -0.237 OA
ATOM     72  O   UNL     1      12.136  -2.489  -2.199  1.00  0.00    -0.237 OA
ATOM     73  O   UNL     1      11.354  -4.060  -3.932  1.00  0.00    -0.744 OA
ENDBRANCH  69  70
ENDBRANCH  50  64
BRANCH  51  74
ATOM     74  C   UNL     1      -2.286   1.497  -1.344  1.00  0.00    -0.014 A 
ATOM     75  C   UNL     1      -2.520   1.993  -0.043  1.00  0.00     0.010 A 
ATOM     76  C   UNL     1      -3.351   1.533  -2.261  1.00  0.00     0.010 A 
ATOM     77  C   UNL     1      -3.773   2.494   0.333  1.00  0.00     0.020 A 
ATOM     78  C   UNL     1      -4.598   2.066  -1.903  1.00  0.00     0.020 A 
ATOM     79  C   UNL     1      -4.806   2.531  -0.603  1.00  0.00     0.054 A 
BRANCH  79  80
ATOM     80  S   UNL     1      -6.413   3.216  -0.107  1.00  0.00     0.124 S 
ATOM     81  O   UNL     1      -6.927   2.176   0.779  1.00  0.00    -0.237 OA
ATOM     82  O   UNL     1      -6.035   4.470   0.540  1.00  0.00    -0.237 OA
ATOM     83  O   UNL     1      -7.125   3.367  -1.374  1.00  0.00    -0.744 OA
ENDBRANCH  79  80
ENDBRANCH  51  74
BRANCH  63  84
ATOM     84  C   UNL     1       1.433  -3.685   1.462  1.00  0.00    -0.014 A 
ATOM     85  C   UNL     1       0.540  -4.758   1.293  1.00  0.00     0.010 A 
ATOM     86  C   UNL     1       2.107  -3.548   2.690  1.00  0.00     0.010 A 
ATOM     87  C   UNL     1       0.298  -5.649   2.344  1.00  0.00     0.020 A 
ATOM     88  C   UNL     1       1.897  -4.457   3.730  1.00  0.00     0.020 A 
ATOM     89  C   UNL     1       0.978  -5.492   3.556  1.00  0.00     0.054 A 
BRANCH  89  90
ATOM     90  S   UNL     1       0.679  -6.681   4.893  1.00  0.00     0.124 S 
ATOM     91  O   UNL     1      -0.632  -6.263   5.383  1.00  0.00    -0.237 OA
ATOM     92  O   UNL     1       0.709  -7.964   4.194  1.00  0.00    -0.237 OA
ATOM     93  O   UNL     1       1.791  -6.455   5.813  1.00  0.00    -0.744 OA
ENDBRANCH  89  90
ENDBRANCH  63  84
ENDBRANCH  37  38
ENDBRANCH  30  32
ENDBRANCH  29  30
ENDBRANCH   1  29
TORSDOF 17
