REMARK SMILES O=C(CCC(=O)N1CCc2[nH]c3ccc(F)cc3c2C1)OCCOC(=O)c1ccc(-c2c3nc(c(-c4ccc(S(=O)(=O)[O-])cc4)c4ccc([nH]4)c(-c4ccc(S(=O)(=O)[O-])cc4)c4nc(c(-c5ccc(S(=O)(=O)[O-])cc5)c5ccc2[nH]5)C=C4)C=C3)cc1
REMARK SMILES IDX 22 1 21 2 2 3 1 4 3 5 4 6 5 7 6 8 7 9 8 10 20 11 9 12 19 13
REMARK SMILES IDX 10 14 18 15 11 16 12 17 17 18 13 20 15 21 14 22 16 23 23 24
REMARK SMILES IDX 24 25 25 26 26 27 27 28 28 29 86 30 29 31 85 32 30 33 31 34
REMARK SMILES IDX 32 35 79 36 33 37 84 38 78 39 80 40 34 41 83 42 77 43 76 44
REMARK SMILES IDX 35 46 65 47 46 48 64 49 47 50 50 51 63 52 81 53 48 54 49 55
REMARK SMILES IDX 62 57 82 58 51 59 36 60 37 61 45 62 38 63 44 64 39 65 40 66
REMARK SMILES IDX 41 67 42 68 43 69 66 70 67 71 75 72 68 73 74 74 69 75 70 76
REMARK SMILES IDX 71 77 72 78 73 79 52 80 53 81 61 82 54 83 60 84 55 85 56 86
REMARK SMILES IDX 57 87 58 88 59 89
REMARK H PARENT 11 19 80 45 50 56
REMARK Flexibility Score: inf
ROOT
ATOM      1  C   UNL     1       4.815  -1.085  -0.799  1.00  0.00     0.274 C 
ENDROOT
BRANCH   1   2
ATOM      2  O   UNL     1       3.537  -0.993  -0.142  1.00  0.00    -0.462 OA
BRANCH   2   3
ATOM      3  C   UNL     1       2.842   0.151   0.029  1.00  0.00     0.306 C 
ATOM      4  O   UNL     1       1.669   0.080   0.394  1.00  0.00    -0.252 OA
BRANCH   3   5
ATOM      5  C   UNL     1       3.540   1.475  -0.116  1.00  0.00     0.132 C 
BRANCH   5   6
ATOM      6  C   UNL     1       3.918   2.109   1.188  1.00  0.00     0.112 C 
BRANCH   6   7
ATOM      7  C   UNL     1       5.010   1.332   1.832  1.00  0.00     0.223 C 
ATOM      8  O   UNL     1       6.170   1.452   1.438  1.00  0.00    -0.275 OA
BRANCH   7   9
ATOM      9  N   UNL     1       4.653   0.520   2.879  1.00  0.00    -0.338 N 
ATOM     10  C   UNL     1       3.389  -0.233   3.074  1.00  0.00     0.126 C 
ATOM     11  C   UNL     1       5.642   0.379   3.925  1.00  0.00     0.157 C 
ATOM     12  C   UNL     1       3.673  -1.766   3.013  1.00  0.00     0.075 C 
ATOM     13  C   UNL     1       5.601  -1.005   4.451  1.00  0.00     0.000 A 
ATOM     14  C   UNL     1       4.757  -2.004   4.008  1.00  0.00     0.023 A 
ATOM     15  C   UNL     1       6.201  -1.463   5.633  1.00  0.00     0.008 A 
ATOM     16  N   UNL     1       5.005  -3.131   4.735  1.00  0.00    -0.358 N 
ATOM     17  C   UNL     1       5.823  -2.796   5.801  1.00  0.00     0.046 A 
ATOM     18  C   UNL     1       6.960  -0.806   6.612  1.00  0.00     0.050 A 
ATOM     19  H   UNL     1       4.660  -4.031   4.535  1.00  0.00     0.166 HD
ATOM     20  C   UNL     1       6.218  -3.533   6.920  1.00  0.00     0.030 A 
ATOM     21  C   UNL     1       7.303  -1.516   7.749  1.00  0.00     0.123 A 
ATOM     22  C   UNL     1       6.953  -2.853   7.902  1.00  0.00     0.041 A 
ATOM     23  F   UNL     1       7.963  -0.887   8.729  1.00  0.00    -0.207 F 
ENDBRANCH   7   9
ENDBRANCH   6   7
ENDBRANCH   5   6
ENDBRANCH   3   5
ENDBRANCH   2   3
ENDBRANCH   1   2
BRANCH   1  24
ATOM     24  C   UNL     1       4.589  -1.420  -2.274  1.00  0.00     0.275 C 
BRANCH  24  25
ATOM     25  O   UNL     1       3.815  -0.365  -2.880  1.00  0.00    -0.458 OA
BRANCH  25  26
ATOM     26  C   UNL     1       2.518  -0.652  -3.181  1.00  0.00     0.338 C 
ATOM     27  O   UNL     1       2.044  -1.766  -3.355  1.00  0.00    -0.246 OA
BRANCH  26  28
ATOM     28  C   UNL     1       1.712   0.576  -2.942  1.00  0.00     0.060 A 
ATOM     29  C   UNL     1       2.276   1.844  -3.088  1.00  0.00     0.016 A 
ATOM     30  C   UNL     1       0.487   0.427  -2.269  1.00  0.00     0.016 A 
ATOM     31  C   UNL     1       1.705   2.913  -2.398  1.00  0.00     0.010 A 
ATOM     32  C   UNL     1      -0.064   1.497  -1.553  1.00  0.00     0.010 A 
ATOM     33  C   UNL     1       0.598   2.720  -1.532  1.00  0.00    -0.014 A 
BRANCH  33  34
ATOM     34  C   UNL     1       0.107   3.898  -0.785  1.00  0.00     0.031 A 
ATOM     35  C   UNL     1      -0.197   4.992  -1.737  1.00  0.00     0.074 A 
ATOM     36  C   UNL     1      -0.157   4.082   0.532  1.00  0.00     0.049 A 
ATOM     37  N   UNL     1       0.420   6.119  -1.869  1.00  0.00    -0.248 NA
ATOM     38  C   UNL     1      -1.139   4.666  -2.820  1.00  0.00     0.031 C 
ATOM     39  C   UNL     1      -0.161   3.103   1.621  1.00  0.00     0.029 A 
ATOM     40  N   UNL     1      -0.575   5.229   1.171  1.00  0.00    -0.354 N 
ATOM     41  C   UNL     1      -0.178   6.725  -2.963  1.00  0.00     0.074 A 
ATOM     42  C   UNL     1      -0.963   5.712  -3.621  1.00  0.00     0.031 C 
ATOM     43  C   UNL     1      -0.786   3.632   2.704  1.00  0.00     0.029 A 
ATOM     44  C   UNL     1      -1.113   5.026   2.443  1.00  0.00     0.049 A 
ATOM     45  H   UNL     1      -0.501   6.122   0.762  1.00  0.00     0.167 HD
ATOM     46  C   UNL     1      -0.185   8.071  -3.135  1.00  0.00     0.031 A 
ATOM     47  C   UNL     1      -1.823   5.915   3.195  1.00  0.00     0.031 A 
ATOM     48  C   UNL     1       0.819   8.730  -2.348  1.00  0.00     0.049 A 
ATOM     49  C   UNL     1      -1.510   7.274   2.699  1.00  0.00     0.074 A 
ATOM     50  C   UNL     1       2.198   8.695  -2.310  1.00  0.00     0.029 A 
ATOM     51  N   UNL     1       0.415   9.310  -1.172  1.00  0.00    -0.354 N 
ATOM     52  N   UNL     1      -0.357   7.858   2.847  1.00  0.00    -0.248 NA
ATOM     53  C   UNL     1      -2.386   7.849   1.693  1.00  0.00     0.031 C 
ATOM     54  C   UNL     1       2.539   8.855  -0.939  1.00  0.00     0.029 A 
ATOM     55  C   UNL     1       1.358   9.034  -0.215  1.00  0.00     0.049 A 
ATOM     56  H   UNL     1      -0.408   9.834  -1.038  1.00  0.00     0.167 HD
ATOM     57  C   UNL     1      -0.182   8.576   1.675  1.00  0.00     0.074 A 
ATOM     58  C   UNL     1      -1.501   8.611   1.049  1.00  0.00     0.031 C 
ATOM     59  C   UNL     1       1.066   8.839   1.192  1.00  0.00     0.031 A 
BRANCH  46  60
ATOM     60  C   UNL     1      -1.359   8.778  -3.753  1.00  0.00    -0.014 A 
ATOM     61  C   UNL     1      -2.628   8.171  -3.885  1.00  0.00     0.010 A 
ATOM     62  C   UNL     1      -1.282  10.156  -4.016  1.00  0.00     0.010 A 
ATOM     63  C   UNL     1      -3.748   8.868  -4.320  1.00  0.00     0.020 A 
ATOM     64  C   UNL     1      -2.418  10.883  -4.403  1.00  0.00     0.020 A 
ATOM     65  C   UNL     1      -3.638  10.227  -4.571  1.00  0.00     0.054 A 
BRANCH  65  66
ATOM     66  S   UNL     1      -5.136  11.111  -5.057  1.00  0.00     0.124 S 
ATOM     67  O   UNL     1      -5.385  10.562  -6.388  1.00  0.00    -0.237 OA
ATOM     68  O   UNL     1      -6.085  10.709  -4.023  1.00  0.00    -0.237 OA
ATOM     69  O   UNL     1      -4.731  12.513  -5.023  1.00  0.00    -0.744 OA
ENDBRANCH  65  66
ENDBRANCH  46  60
BRANCH  47  70
ATOM     70  C   UNL     1      -3.054   5.693   4.017  1.00  0.00    -0.014 A 
ATOM     71  C   UNL     1      -3.901   4.611   3.718  1.00  0.00     0.010 A 
ATOM     72  C   UNL     1      -3.581   6.727   4.827  1.00  0.00     0.010 A 
ATOM     73  C   UNL     1      -5.246   4.606   4.116  1.00  0.00     0.020 A 
ATOM     74  C   UNL     1      -4.931   6.728   5.230  1.00  0.00     0.020 A 
ATOM     75  C   UNL     1      -5.766   5.685   4.831  1.00  0.00     0.054 A 
BRANCH  75  76
ATOM     76  S   UNL     1      -7.560   5.737   5.127  1.00  0.00     0.124 S 
ATOM     77  O   UNL     1      -8.085   5.918   3.777  1.00  0.00    -0.237 OA
ATOM     78  O   UNL     1      -7.819   4.431   5.728  1.00  0.00    -0.237 OA
ATOM     79  O   UNL     1      -7.734   6.876   6.024  1.00  0.00    -0.744 OA
ENDBRANCH  75  76
ENDBRANCH  47  70
BRANCH  59  80
ATOM     80  C   UNL     1       2.262   8.674   2.106  1.00  0.00    -0.014 A 
ATOM     81  C   UNL     1       3.174   9.745   2.159  1.00  0.00     0.010 A 
ATOM     82  C   UNL     1       2.608   7.471   2.753  1.00  0.00     0.010 A 
ATOM     83  C   UNL     1       4.411   9.611   2.788  1.00  0.00     0.020 A 
ATOM     84  C   UNL     1       3.841   7.338   3.414  1.00  0.00     0.020 A 
ATOM     85  C   UNL     1       4.746   8.403   3.400  1.00  0.00     0.054 A 
BRANCH  85  86
ATOM     86  S   UNL     1       6.395   8.253   4.140  1.00  0.00     0.124 S 
ATOM     87  O   UNL     1       7.260   8.227   2.962  1.00  0.00    -0.237 OA
ATOM     88  O   UNL     1       6.492   9.461   4.957  1.00  0.00    -0.237 OA
ATOM     89  O   UNL     1       6.333   7.002   4.892  1.00  0.00    -0.744 OA
ENDBRANCH  85  86
ENDBRANCH  59  80
ENDBRANCH  33  34
ENDBRANCH  26  28
ENDBRANCH  25  26
ENDBRANCH  24  25
ENDBRANCH   1  24
TORSDOF 17
