REMARK SMILES COc1cc(C(=O)OCCOC(=O)c2ccc(-c3c4nc(c(-c5ccc(S(=O)(=O)[O-])cc5)c5ccc([nH]5)c(-c5ccc(S(=O)(=O)[O-])cc5)c5nc(c(-c6ccc(S(=O)(=O)[O-])cc6)c6ccc3[nH]6)C=C5)C=C4)cc2)cc(-c2cccc(N)c2)c1
REMARK SMILES IDX 10 1 9 2 8 3 6 4 7 5 5 6 3 7 4 8 83 9 75 10 74 11 2 12 1 13
REMARK SMILES IDX 76 14 77 15 82 16 78 17 80 18 79 19 81 20 11 23 12 24 13 25
REMARK SMILES IDX 14 26 15 27 73 28 16 29 72 30 17 31 18 32 19 33 66 34 20 35
REMARK SMILES IDX 71 36 65 37 67 38 21 39 70 40 64 41 63 42 22 44 52 45 33 46
REMARK SMILES IDX 51 47 34 48 37 49 50 50 68 51 35 52 36 53 49 55 69 56 38 57
REMARK SMILES IDX 23 58 24 59 32 60 25 61 31 62 26 63 27 64 28 65 29 66 30 67
REMARK SMILES IDX 53 68 54 69 62 70 55 71 61 72 56 73 57 74 58 75 59 76 60 77
REMARK SMILES IDX 39 78 40 79 48 80 41 81 47 82 42 83 43 84 44 85 45 86 46 87
REMARK H PARENT 81 21 81 22 67 43 37 54
REMARK Flexibility Score: inf
ROOT
ATOM      1  C   UNL     1      -1.805  -6.421  -4.715  1.00  0.00     0.275 C 
ENDROOT
BRANCH   1   2
ATOM      2  C   UNL     1      -1.437  -5.321  -5.709  1.00  0.00     0.275 C 
BRANCH   2   3
ATOM      3  O   UNL     1      -0.388  -4.499  -5.159  1.00  0.00    -0.458 OA
BRANCH   3   4
ATOM      4  C   UNL     1      -0.755  -3.259  -4.750  1.00  0.00     0.338 C 
ATOM      5  O   UNL     1      -1.849  -2.739  -4.890  1.00  0.00    -0.246 OA
BRANCH   4   6
ATOM      6  C   UNL     1       0.344  -2.650  -3.966  1.00  0.00     0.064 A 
ATOM      7  C   UNL     1       0.984  -1.371  -2.010  1.00  0.00     0.120 A 
ATOM      8  C   UNL     1       0.004  -1.835  -2.885  1.00  0.00     0.062 A 
ATOM      9  C   UNL     1       2.328  -1.639  -2.277  1.00  0.00     0.055 A 
ATOM     10  C   UNL     1       2.700  -2.381  -3.417  1.00  0.00    -0.014 A 
ATOM     11  C   UNL     1       1.688  -2.912  -4.237  1.00  0.00     0.024 A 
BRANCH   7  12
ATOM     12  O   UNL     1       0.487  -0.749  -0.900  1.00  0.00    -0.497 OA
ATOM     13  C   UNL     1       1.333   0.183  -0.242  1.00  0.00     0.278 C 
ENDBRANCH   7  12
BRANCH  10  14
ATOM     14  C   UNL     1       4.111  -2.582  -3.776  1.00  0.00    -0.016 A 
ATOM     15  C   UNL     1       4.591  -2.097  -5.004  1.00  0.00     0.009 A 
ATOM     16  C   UNL     1       5.010  -3.251  -2.928  1.00  0.00     0.034 A 
ATOM     17  C   UNL     1       5.924  -2.269  -5.370  1.00  0.00     0.003 A 
ATOM     18  C   UNL     1       6.344  -3.462  -3.302  1.00  0.00     0.032 A 
ATOM     19  C   UNL     1       6.796  -2.941  -4.516  1.00  0.00     0.025 A 
BRANCH  18  20
ATOM     20  N   UNL     1       7.233  -4.074  -2.432  1.00  0.00    -0.399 N 
ATOM     21  H   UNL     1       8.168  -4.217  -2.705  1.00  0.00     0.156 HD
ATOM     22  H   UNL     1       6.930  -4.364  -1.542  1.00  0.00     0.156 HD
ENDBRANCH  18  20
ENDBRANCH  10  14
ENDBRANCH   4   6
ENDBRANCH   3   4
ENDBRANCH   2   3
ENDBRANCH   1   2
BRANCH   1  23
ATOM     23  O   UNL     1      -2.397  -5.822  -3.548  1.00  0.00    -0.458 OA
BRANCH  23  24
ATOM     24  C   UNL     1      -1.942  -6.267  -2.354  1.00  0.00     0.338 C 
ATOM     25  O   UNL     1      -1.157  -7.175  -2.146  1.00  0.00    -0.246 OA
BRANCH  24  26
ATOM     26  C   UNL     1      -2.512  -5.418  -1.296  1.00  0.00     0.060 A 
ATOM     27  C   UNL     1      -1.995  -4.136  -1.131  1.00  0.00     0.016 A 
ATOM     28  C   UNL     1      -3.481  -5.902  -0.420  1.00  0.00     0.016 A 
ATOM     29  C   UNL     1      -2.429  -3.325  -0.085  1.00  0.00     0.010 A 
ATOM     30  C   UNL     1      -3.942  -5.077   0.616  1.00  0.00     0.010 A 
ATOM     31  C   UNL     1      -3.404  -3.789   0.807  1.00  0.00    -0.014 A 
BRANCH  31  32
ATOM     32  C   UNL     1      -3.773  -2.960   1.988  1.00  0.00     0.031 A 
ATOM     33  C   UNL     1      -3.366  -3.400   3.370  1.00  0.00     0.074 A 
ATOM     34  C   UNL     1      -4.406  -1.781   1.830  1.00  0.00     0.049 A 
ATOM     35  N   UNL     1      -3.605  -2.832   4.526  1.00  0.00    -0.248 NA
ATOM     36  C   UNL     1      -2.587  -4.644   3.462  1.00  0.00     0.031 C 
ATOM     37  C   UNL     1      -4.804  -1.198   0.548  1.00  0.00     0.029 A 
ATOM     38  N   UNL     1      -4.799  -0.846   2.757  1.00  0.00    -0.354 N 
ATOM     39  C   UNL     1      -3.037  -3.665   5.484  1.00  0.00     0.074 A 
ATOM     40  C   UNL     1      -2.458  -4.787   4.773  1.00  0.00     0.031 C 
ATOM     41  C   UNL     1      -5.335   0.017   0.766  1.00  0.00     0.029 A 
ATOM     42  C   UNL     1      -5.367   0.276   2.203  1.00  0.00     0.049 A 
ATOM     43  H   UNL     1      -4.684  -0.969   3.728  1.00  0.00     0.167 HD
ATOM     44  C   UNL     1      -2.994  -3.515   6.831  1.00  0.00     0.031 A 
ATOM     45  C   UNL     1      -5.862   1.388   2.783  1.00  0.00     0.031 A 
ATOM     46  C   UNL     1      -3.553  -2.397   7.545  1.00  0.00     0.049 A 
ATOM     47  C   UNL     1      -5.847   1.513   4.282  1.00  0.00     0.074 A 
ATOM     48  C   UNL     1      -3.573  -2.166   8.910  1.00  0.00     0.029 A 
ATOM     49  N   UNL     1      -4.185  -1.316   6.950  1.00  0.00    -0.354 N 
ATOM     50  N   UNL     1      -5.354   0.688   5.174  1.00  0.00    -0.248 NA
ATOM     51  C   UNL     1      -6.463   2.720   4.849  1.00  0.00     0.031 C 
ATOM     52  C   UNL     1      -4.247  -0.960   9.142  1.00  0.00     0.029 A 
ATOM     53  C   UNL     1      -4.606  -0.419   7.919  1.00  0.00     0.049 A 
ATOM     54  H   UNL     1      -4.316  -1.202   5.981  1.00  0.00     0.167 HD
ATOM     55  C   UNL     1      -5.587   1.284   6.409  1.00  0.00     0.074 A 
ATOM     56  C   UNL     1      -6.248   2.546   6.146  1.00  0.00     0.031 C 
ATOM     57  C   UNL     1      -5.279   0.827   7.649  1.00  0.00     0.031 A 
BRANCH  44  58
ATOM     58  C   UNL     1      -2.355  -4.630   7.616  1.00  0.00    -0.014 A 
ATOM     59  C   UNL     1      -0.963  -4.834   7.601  1.00  0.00     0.010 A 
ATOM     60  C   UNL     1      -3.168  -5.506   8.359  1.00  0.00     0.010 A 
ATOM     61  C   UNL     1      -0.404  -5.934   8.257  1.00  0.00     0.020 A 
ATOM     62  C   UNL     1      -2.609  -6.591   9.039  1.00  0.00     0.020 A 
ATOM     63  C   UNL     1      -1.233  -6.815   8.959  1.00  0.00     0.054 A 
BRANCH  63  64
ATOM     64  S   UNL     1      -0.493  -8.257   9.773  1.00  0.00     0.124 S 
ATOM     65  O   UNL     1      -0.295  -9.167   8.648  1.00  0.00    -0.237 OA
ATOM     66  O   UNL     1       0.728  -7.710  10.360  1.00  0.00    -0.237 OA
ATOM     67  O   UNL     1      -1.511  -8.669  10.737  1.00  0.00    -0.744 OA
ENDBRANCH  63  64
ENDBRANCH  44  58
BRANCH  45  68
ATOM     68  C   UNL     1      -6.410   2.482   1.936  1.00  0.00    -0.014 A 
ATOM     69  C   UNL     1      -5.710   3.694   1.802  1.00  0.00     0.010 A 
ATOM     70  C   UNL     1      -7.622   2.311   1.243  1.00  0.00     0.010 A 
ATOM     71  C   UNL     1      -6.210   4.714   0.987  1.00  0.00     0.020 A 
ATOM     72  C   UNL     1      -8.113   3.319   0.409  1.00  0.00     0.020 A 
ATOM     73  C   UNL     1      -7.406   4.518   0.291  1.00  0.00     0.054 A 
BRANCH  73  74
ATOM     74  S   UNL     1      -7.997   5.822  -0.825  1.00  0.00     0.124 S 
ATOM     75  O   UNL     1      -8.547   6.796   0.112  1.00  0.00    -0.237 OA
ATOM     76  O   UNL     1      -6.774   6.227  -1.515  1.00  0.00    -0.237 OA
ATOM     77  O   UNL     1      -8.976   5.135  -1.663  1.00  0.00    -0.744 OA
ENDBRANCH  73  74
ENDBRANCH  45  68
BRANCH  57  78
ATOM     78  C   UNL     1      -5.635   1.714   8.812  1.00  0.00    -0.014 A 
ATOM     79  C   UNL     1      -6.970   1.872   9.226  1.00  0.00     0.010 A 
ATOM     80  C   UNL     1      -4.618   2.396   9.503  1.00  0.00     0.010 A 
ATOM     81  C   UNL     1      -7.285   2.735  10.280  1.00  0.00     0.020 A 
ATOM     82  C   UNL     1      -4.927   3.242  10.571  1.00  0.00     0.020 A 
ATOM     83  C   UNL     1      -6.262   3.424  10.939  1.00  0.00     0.054 A 
BRANCH  83  84
ATOM     84  S   UNL     1      -6.690   4.539  12.305  1.00  0.00     0.124 S 
ATOM     85  O   UNL     1      -7.164   5.722  11.592  1.00  0.00    -0.237 OA
ATOM     86  O   UNL     1      -7.714   3.789  13.028  1.00  0.00    -0.237 OA
ATOM     87  O   UNL     1      -5.427   4.705  13.021  1.00  0.00    -0.744 OA
ENDBRANCH  83  84
ENDBRANCH  57  78
ENDBRANCH  31  32
ENDBRANCH  24  26
ENDBRANCH  23  24
ENDBRANCH   1  23
TORSDOF 17
