REMARK SMILES C[C@@H]1CCC[C@H](C)[N@H+]1Cc1cc2c(cc1Cl)C=C(C(=O)OCCOC(=O)c1ccc(-c3c4nc(c(-c5ccc(S(=O)(=O)[O-])cc5)c5ccc([nH]5)c(-c5ccc(S(=O)(=O)[O-])cc5)c5nc(c(-c6ccc(S(=O)(=O)[O-])cc6)c6ccc3[nH]6)C=C5)C=C4)cc1)[C@@H](C(F)(F)F)O2
REMARK SMILES IDX 23 1 22 2 21 3 19 4 20 5 18 6 10 7 11 8 15 9 12 10 14 11
REMARK SMILES IDX 16 12 13 13 92 14 17 15 87 16 9 17 8 18 7 19 6 20 5 21 4 22
REMARK SMILES IDX 2 23 3 25 1 26 88 27 89 28 90 29 91 30 24 31 25 32 26 33
REMARK SMILES IDX 27 34 28 35 86 36 29 37 85 38 30 39 31 40 32 41 79 42 33 43
REMARK SMILES IDX 84 44 78 45 80 46 34 47 83 48 77 49 76 50 35 52 65 53 46 54
REMARK SMILES IDX 64 55 47 56 50 57 63 58 81 59 48 60 49 61 62 63 82 64 51 65
REMARK SMILES IDX 36 66 37 67 45 68 38 69 44 70 39 71 40 72 41 73 42 74 43 75
REMARK SMILES IDX 66 76 67 77 75 78 68 79 74 80 69 81 70 82 71 83 72 84 73 85
REMARK SMILES IDX 52 86 53 87 61 88 54 89 60 90 55 91 56 92 57 93 58 94 59 95
REMARK H PARENT 8 24 80 51 50 62
REMARK Flexibility Score: inf
ROOT
ATOM      1  C   UNL     1      -5.902   8.806  -2.181  1.00  0.00     0.275 C 
ENDROOT
BRANCH   1   2
ATOM      2  C   UNL     1      -5.939   8.145  -3.562  1.00  0.00     0.275 C 
BRANCH   2   3
ATOM      3  O   UNL     1      -5.166   6.924  -3.615  1.00  0.00    -0.459 OA
BRANCH   3   4
ATOM      4  C   UNL     1      -3.951   7.048  -4.206  1.00  0.00     0.338 C 
ATOM      5  O   UNL     1      -3.476   8.075  -4.649  1.00  0.00    -0.246 OA
BRANCH   4   6
ATOM      6  C   UNL     1      -3.215   5.764  -4.210  1.00  0.00     0.087 C 
ATOM      7  C   UNL     1       0.408   2.278  -3.878  1.00  0.00     0.029 A 
ATOM      8  C   UNL     1      -1.006   2.225  -3.919  1.00  0.00     0.058 A 
ATOM      9  C   UNL     1       1.029   3.502  -4.176  1.00  0.00     0.050 A 
ATOM     10  C   UNL     1      -1.765   3.387  -4.090  1.00  0.00     0.128 A 
ATOM     11  C   UNL     1       0.273   4.667  -4.285  1.00  0.00     0.033 A 
ATOM     12  Cl  UNL     1       2.730   3.667  -4.425  1.00  0.00    -0.084 Cl
ATOM     13  C   UNL     1      -1.117   4.613  -4.203  1.00  0.00     0.019 A 
ATOM     14  O   UNL     1      -3.131   3.273  -4.061  1.00  0.00    -0.475 OA
ATOM     15  C   UNL     1      -1.880   5.842  -4.175  1.00  0.00     0.027 C 
ATOM     16  C   UNL     1      -3.917   4.454  -4.426  1.00  0.00     0.316 C 
BRANCH   7  17
ATOM     17  C   UNL     1       1.196   1.055  -3.446  1.00  0.00     0.301 C 
BRANCH  17  18
ATOM     18  N   UNL     1       1.452   0.893  -1.995  1.00  0.00    -0.327 N 
ATOM     19  C   UNL     1       0.624  -0.492  -0.119  1.00  0.00     0.075 C 
ATOM     20  C   UNL     1       0.273   0.560  -1.183  1.00  0.00     0.181 C 
ATOM     21  C   UNL     1      -0.411   1.775  -0.535  1.00  0.00     0.065 C 
ATOM     22  C   UNL     1       0.564   2.716   0.162  1.00  0.00     0.012 C 
ATOM     23  C   UNL     1       2.394   1.861  -1.406  1.00  0.00     0.181 C 
ATOM     24  H   UNL     1       1.989   0.027  -1.952  1.00  0.00     0.348 HD
ATOM     25  C   UNL     1       1.722   3.083  -0.755  1.00  0.00     0.065 C 
ATOM     26  C   UNL     1       3.358   1.186  -0.418  1.00  0.00     0.075 C 
ENDBRANCH  17  18
ENDBRANCH   7  17
BRANCH  16  27
ATOM     27  C   UNL     1      -4.371   4.366  -5.894  1.00  0.00     0.430 C 
ATOM     28  F   UNL     1      -4.992   3.193  -6.160  1.00  0.00    -0.167 F 
ATOM     29  F   UNL     1      -5.256   5.350  -6.191  1.00  0.00    -0.167 F 
ATOM     30  F   UNL     1      -3.339   4.483  -6.761  1.00  0.00    -0.167 F 
ENDBRANCH  16  27
ENDBRANCH   4   6
ENDBRANCH   3   4
ENDBRANCH   2   3
ENDBRANCH   1   2
BRANCH   1  31
ATOM     31  O   UNL     1      -4.579   9.264  -1.850  1.00  0.00    -0.458 OA
BRANCH  31  32
ATOM     32  C   UNL     1      -3.920   8.516  -0.936  1.00  0.00     0.338 C 
ATOM     33  O   UNL     1      -4.327   7.515  -0.367  1.00  0.00    -0.246 OA
BRANCH  32  34
ATOM     34  C   UNL     1      -2.544   9.011  -0.791  1.00  0.00     0.060 A 
ATOM     35  C   UNL     1      -2.155   9.812   0.277  1.00  0.00     0.016 A 
ATOM     36  C   UNL     1      -1.593   8.534  -1.687  1.00  0.00     0.016 A 
ATOM     37  C   UNL     1      -0.801  10.148   0.418  1.00  0.00     0.010 A 
ATOM     38  C   UNL     1      -0.239   8.790  -1.495  1.00  0.00     0.010 A 
ATOM     39  C   UNL     1       0.180   9.621  -0.451  1.00  0.00    -0.014 A 
BRANCH  39  40
ATOM     40  C   UNL     1       1.632   9.911  -0.259  1.00  0.00     0.031 A 
ATOM     41  C   UNL     1       2.454  10.549  -1.356  1.00  0.00     0.074 A 
ATOM     42  C   UNL     1       2.231   9.564   0.900  1.00  0.00     0.049 A 
ATOM     43  N   UNL     1       3.717  10.896  -1.338  1.00  0.00    -0.248 NA
ATOM     44  C   UNL     1       1.792  10.798  -2.648  1.00  0.00     0.031 C 
ATOM     45  C   UNL     1       1.582   8.851   2.003  1.00  0.00     0.029 A 
ATOM     46  N   UNL     1       3.510   9.781   1.357  1.00  0.00    -0.354 N 
ATOM     47  C   UNL     1       3.996  11.392  -2.608  1.00  0.00     0.074 A 
ATOM     48  C   UNL     1       2.797  11.230  -3.396  1.00  0.00     0.031 C 
ATOM     49  C   UNL     1       2.436   8.763   3.034  1.00  0.00     0.029 A 
ATOM     50  C   UNL     1       3.708   9.372   2.657  1.00  0.00     0.049 A 
ATOM     51  H   UNL     1       4.216  10.190   0.807  1.00  0.00     0.167 HD
ATOM     52  C   UNL     1       5.130  11.975  -3.065  1.00  0.00     0.031 A 
ATOM     53  C   UNL     1       4.779   9.491   3.470  1.00  0.00     0.031 A 
ATOM     54  C   UNL     1       6.305  12.184  -2.261  1.00  0.00     0.049 A 
ATOM     55  C   UNL     1       6.008  10.195   2.964  1.00  0.00     0.074 A 
ATOM     56  C   UNL     1       7.478  12.830  -2.613  1.00  0.00     0.029 A 
ATOM     57  N   UNL     1       6.451  11.776  -0.945  1.00  0.00    -0.354 N 
ATOM     58  N   UNL     1       6.220  10.726   1.784  1.00  0.00    -0.248 NA
ATOM     59  C   UNL     1       7.135  10.334   3.898  1.00  0.00     0.031 C 
ATOM     60  C   UNL     1       8.351  12.770  -1.525  1.00  0.00     0.029 A 
ATOM     61  C   UNL     1       7.698  12.146  -0.474  1.00  0.00     0.049 A 
ATOM     62  H   UNL     1       5.769  11.294  -0.423  1.00  0.00     0.167 HD
ATOM     63  C   UNL     1       7.497  11.272   1.837  1.00  0.00     0.074 A 
ATOM     64  C   UNL     1       8.002  11.030   3.172  1.00  0.00     0.031 C 
ATOM     65  C   UNL     1       8.189  11.908   0.861  1.00  0.00     0.031 A 
BRANCH  52  66
ATOM     66  C   UNL     1       5.149  12.501  -4.480  1.00  0.00    -0.014 A 
ATOM     67  C   UNL     1       6.040  11.960  -5.427  1.00  0.00     0.010 A 
ATOM     68  C   UNL     1       4.378  13.623  -4.834  1.00  0.00     0.010 A 
ATOM     69  C   UNL     1       6.182  12.552  -6.687  1.00  0.00     0.020 A 
ATOM     70  C   UNL     1       4.494  14.197  -6.103  1.00  0.00     0.020 A 
ATOM     71  C   UNL     1       5.415  13.674  -7.012  1.00  0.00     0.054 A 
BRANCH  71  72
ATOM     72  S   UNL     1       5.639  14.454  -8.635  1.00  0.00     0.124 S 
ATOM     73  O   UNL     1       6.912  15.148  -8.470  1.00  0.00    -0.237 OA
ATOM     74  O   UNL     1       5.656  13.309  -9.541  1.00  0.00    -0.237 OA
ATOM     75  O   UNL     1       4.468  15.319  -8.762  1.00  0.00    -0.744 OA
ENDBRANCH  71  72
ENDBRANCH  52  66
BRANCH  53  76
ATOM     76  C   UNL     1       4.686   8.994   4.872  1.00  0.00    -0.014 A 
ATOM     77  C   UNL     1       4.590   7.615   5.139  1.00  0.00     0.010 A 
ATOM     78  C   UNL     1       4.594   9.902   5.942  1.00  0.00     0.010 A 
ATOM     79  C   UNL     1       4.348   7.158   6.437  1.00  0.00     0.020 A 
ATOM     80  C   UNL     1       4.383   9.446   7.248  1.00  0.00     0.020 A 
ATOM     81  C   UNL     1       4.229   8.078   7.481  1.00  0.00     0.054 A 
BRANCH  81  82
ATOM     82  S   UNL     1       3.854   7.467   9.148  1.00  0.00     0.124 S 
ATOM     83  O   UNL     1       2.427   7.173   9.044  1.00  0.00    -0.237 OA
ATOM     84  O   UNL     1       4.729   6.303   9.267  1.00  0.00    -0.237 OA
ATOM     85  O   UNL     1       4.200   8.593  10.011  1.00  0.00    -0.744 OA
ENDBRANCH  81  82
ENDBRANCH  53  76
BRANCH  65  86
ATOM     86  C   UNL     1       9.579  12.400   1.170  1.00  0.00    -0.014 A 
ATOM     87  C   UNL     1       9.840  13.783   1.195  1.00  0.00     0.010 A 
ATOM     88  C   UNL     1      10.651  11.497   1.275  1.00  0.00     0.010 A 
ATOM     89  C   UNL     1      11.152  14.255   1.273  1.00  0.00     0.020 A 
ATOM     90  C   UNL     1      11.963  11.966   1.382  1.00  0.00     0.020 A 
ATOM     91  C   UNL     1      12.207  13.341   1.351  1.00  0.00     0.054 A 
BRANCH  91  92
ATOM     92  S   UNL     1      13.907  13.971   1.396  1.00  0.00     0.124 S 
ATOM     93  O   UNL     1      14.129  14.355   0.005  1.00  0.00    -0.237 OA
ATOM     94  O   UNL     1      13.816  15.076   2.347  1.00  0.00    -0.237 OA
ATOM     95  O   UNL     1      14.685  12.824   1.859  1.00  0.00    -0.744 OA
ENDBRANCH  91  92
ENDBRANCH  65  86
ENDBRANCH  39  40
ENDBRANCH  32  34
ENDBRANCH  31  32
ENDBRANCH   1  31
TORSDOF 17
