REMARK SMILES O=C(CS[C@@H]1CCS(=O)(=O)C1)Nc1nc(CC(=O)OCCOC(=O)c2ccc(-c3c4nc(c(-c5ccc(S(=O)(=O)[O-])cc5)c5ccc([nH]5)c(-c5ccc(S(=O)(=O)[O-])cc5)c5nc(c(-c6ccc(S(=O)(=O)[O-])cc6)c6ccc3[nH]6)C=C5)C=C4)cc2)cs1
REMARK SMILES IDX 20 1 19 2 17 3 18 4 16 5 15 6 13 7 14 8 86 9 85 10 12 11
REMARK SMILES IDX 1 12 2 13 3 15 4 16 5 17 6 18 11 19 7 20 8 21 9 22 10 23
REMARK SMILES IDX 21 24 22 25 23 26 24 27 25 28 26 29 84 30 27 31 83 32 28 33
REMARK SMILES IDX 29 34 30 35 77 36 31 37 82 38 76 39 78 40 32 41 81 42 75 43
REMARK SMILES IDX 74 44 33 46 63 47 44 48 62 49 45 50 48 51 61 52 79 53 46 54
REMARK SMILES IDX 47 55 60 57 80 58 49 59 34 60 35 61 43 62 36 63 42 64 37 65
REMARK SMILES IDX 38 66 39 67 40 68 41 69 64 70 65 71 73 72 66 73 72 74 67 75
REMARK SMILES IDX 68 76 69 77 70 78 71 79 50 80 51 81 59 82 52 83 58 84 53 85
REMARK SMILES IDX 54 86 55 87 56 88 57 89
REMARK H PARENT 12 14 78 45 48 56
REMARK Flexibility Score: inf
ROOT
ATOM      1  C   UNL     1       0.804   1.623   7.613  1.00  0.00     0.274 C 
ENDROOT
BRANCH   1   2
ATOM      2  O   UNL     1       0.682   1.315   6.213  1.00  0.00    -0.462 OA
BRANCH   2   3
ATOM      3  C   UNL     1      -0.582   1.167   5.731  1.00  0.00     0.312 C 
ATOM      4  O   UNL     1      -1.593   1.203   6.425  1.00  0.00    -0.252 OA
BRANCH   3   5
ATOM      5  C   UNL     1      -0.641   0.927   4.240  1.00  0.00     0.179 C 
BRANCH   5   6
ATOM      6  C   UNL     1       0.586   1.321   3.490  1.00  0.00     0.065 A 
ATOM      7  C   UNL     1       2.172   0.925   2.015  1.00  0.00     0.189 A 
ATOM      8  N   UNL     1       1.111   0.414   2.581  1.00  0.00    -0.224 NA
ATOM      9  S   UNL     1       2.710   2.415   2.642  1.00  0.00    -0.105 S 
ATOM     10  C   UNL     1       1.252   2.533   3.529  1.00  0.00     0.093 A 
BRANCH   7  11
ATOM     11  N   UNL     1       2.890   0.456   0.949  1.00  0.00    -0.301 N 
ATOM     12  O   UNL     1       1.365  -1.184   0.319  1.00  0.00    -0.274 OA
ATOM     13  C   UNL     1       2.411  -0.558   0.151  1.00  0.00     0.236 C 
ATOM     14  H   UNL     1       3.768   0.853   0.748  1.00  0.00     0.172 HD
BRANCH  13  15
ATOM     15  C   UNL     1       3.293  -0.932  -1.028  1.00  0.00     0.170 C 
BRANCH  15  16
ATOM     16  S   UNL     1       4.226   0.440  -1.784  1.00  0.00    -0.148 SA
BRANCH  16  17
ATOM     17  C   UNL     1       2.914   1.299  -2.762  1.00  0.00     0.063 C 
ATOM     18  C   UNL     1       3.562   2.398  -3.631  1.00  0.00     0.031 C 
ATOM     19  C   UNL     1       1.877   2.046  -1.931  1.00  0.00     0.151 C 
ATOM     20  C   UNL     1       3.848   3.620  -2.755  1.00  0.00     0.138 C 
ATOM     21  S   UNL     1       2.716   3.519  -1.385  1.00  0.00     0.151 S 
ATOM     22  O   UNL     1       3.495   3.194  -0.209  1.00  0.00    -0.229 OA
ATOM     23  O   UNL     1       1.792   4.630  -1.425  1.00  0.00    -0.229 OA
ENDBRANCH  16  17
ENDBRANCH  15  16
ENDBRANCH  13  15
ENDBRANCH   7  11
ENDBRANCH   5   6
ENDBRANCH   3   5
ENDBRANCH   2   3
ENDBRANCH   1   2
BRANCH   1  24
ATOM     24  C   UNL     1       0.970   3.127   7.822  1.00  0.00     0.275 C 
BRANCH  24  25
ATOM     25  O   UNL     1      -0.192   3.820   7.331  1.00  0.00    -0.458 OA
BRANCH  25  26
ATOM     26  C   UNL     1       0.040   4.755   6.384  1.00  0.00     0.338 C 
ATOM     27  O   UNL     1       1.116   5.113   5.938  1.00  0.00    -0.246 OA
BRANCH  26  28
ATOM     28  C   UNL     1      -1.238   5.308   5.915  1.00  0.00     0.060 A 
ATOM     29  C   UNL     1      -2.060   4.559   5.071  1.00  0.00     0.016 A 
ATOM     30  C   UNL     1      -1.563   6.625   6.236  1.00  0.00     0.016 A 
ATOM     31  C   UNL     1      -3.207   5.136   4.525  1.00  0.00     0.010 A 
ATOM     32  C   UNL     1      -2.738   7.184   5.729  1.00  0.00     0.010 A 
ATOM     33  C   UNL     1      -3.562   6.452   4.857  1.00  0.00    -0.014 A 
BRANCH  33  34
ATOM     34  C   UNL     1      -4.793   7.073   4.303  1.00  0.00     0.031 A 
ATOM     35  C   UNL     1      -4.694   8.256   3.378  1.00  0.00     0.074 A 
ATOM     36  C   UNL     1      -6.001   6.604   4.674  1.00  0.00     0.049 A 
ATOM     37  N   UNL     1      -5.648   9.024   2.917  1.00  0.00    -0.248 NA
ATOM     38  C   UNL     1      -3.346   8.634   2.922  1.00  0.00     0.031 C 
ATOM     39  C   UNL     1      -6.230   5.453   5.552  1.00  0.00     0.029 A 
ATOM     40  N   UNL     1      -7.265   7.050   4.377  1.00  0.00    -0.354 N 
ATOM     41  C   UNL     1      -5.016   9.997   2.150  1.00  0.00     0.074 A 
ATOM     42  C   UNL     1      -3.596   9.726   2.212  1.00  0.00     0.031 C 
ATOM     43  C   UNL     1      -7.550   5.288   5.726  1.00  0.00     0.029 A 
ATOM     44  C   UNL     1      -8.259   6.354   5.025  1.00  0.00     0.049 A 
ATOM     45  H   UNL     1      -7.443   7.795   3.759  1.00  0.00     0.167 HD
ATOM     46  C   UNL     1      -5.572  11.022   1.461  1.00  0.00     0.031 A 
ATOM     47  C   UNL     1      -9.587   6.572   5.088  1.00  0.00     0.031 A 
ATOM     48  C   UNL     1      -6.989  11.272   1.389  1.00  0.00     0.049 A 
ATOM     49  C   UNL     1     -10.174   7.739   4.341  1.00  0.00     0.074 A 
ATOM     50  C   UNL     1      -7.651  12.256   0.674  1.00  0.00     0.029 A 
ATOM     51  N   UNL     1      -7.960  10.540   2.055  1.00  0.00    -0.354 N 
ATOM     52  N   UNL     1      -9.565   8.629   3.595  1.00  0.00    -0.248 NA
ATOM     53  C   UNL     1     -11.627   7.931   4.445  1.00  0.00     0.031 C 
ATOM     54  C   UNL     1      -9.017  12.157   0.956  1.00  0.00     0.029 A 
ATOM     55  C   UNL     1      -9.213  11.072   1.795  1.00  0.00     0.049 A 
ATOM     56  H   UNL     1      -7.786   9.759   2.627  1.00  0.00     0.167 HD
ATOM     57  C   UNL     1     -10.564   9.473   3.123  1.00  0.00     0.074 A 
ATOM     58  C   UNL     1     -11.817   8.975   3.651  1.00  0.00     0.031 C 
ATOM     59  C   UNL     1     -10.453  10.565   2.326  1.00  0.00     0.031 A 
BRANCH  46  60
ATOM     60  C   UNL     1      -4.653  11.984   0.753  1.00  0.00    -0.014 A 
ATOM     61  C   UNL     1      -3.973  11.621  -0.423  1.00  0.00     0.010 A 
ATOM     62  C   UNL     1      -4.537  13.303   1.230  1.00  0.00     0.010 A 
ATOM     63  C   UNL     1      -3.179  12.555  -1.097  1.00  0.00     0.020 A 
ATOM     64  C   UNL     1      -3.765  14.246   0.545  1.00  0.00     0.020 A 
ATOM     65  C   UNL     1      -3.083  13.863  -0.610  1.00  0.00     0.054 A 
BRANCH  65  66
ATOM     66  S   UNL     1      -2.092  15.068  -1.537  1.00  0.00     0.124 S 
ATOM     67  O   UNL     1      -0.730  14.613  -1.265  1.00  0.00    -0.237 OA
ATOM     68  O   UNL     1      -2.555  14.876  -2.909  1.00  0.00    -0.237 OA
ATOM     69  O   UNL     1      -2.450  16.350  -0.935  1.00  0.00    -0.744 OA
ENDBRANCH  65  66
ENDBRANCH  46  60
BRANCH  47  70
ATOM     70  C   UNL     1     -10.446   5.697   5.932  1.00  0.00    -0.014 A 
ATOM     71  C   UNL     1     -11.391   4.835   5.350  1.00  0.00     0.010 A 
ATOM     72  C   UNL     1     -10.324   5.728   7.335  1.00  0.00     0.010 A 
ATOM     73  C   UNL     1     -12.216   4.041   6.153  1.00  0.00     0.020 A 
ATOM     74  C   UNL     1     -11.123   4.912   8.140  1.00  0.00     0.020 A 
ATOM     75  C   UNL     1     -12.077   4.086   7.544  1.00  0.00     0.054 A 
BRANCH  75  76
ATOM     76  S   UNL     1     -13.136   3.026   8.567  1.00  0.00     0.124 S 
ATOM     77  O   UNL     1     -14.420   3.714   8.486  1.00  0.00    -0.237 OA
ATOM     78  O   UNL     1     -13.060   1.742   7.875  1.00  0.00    -0.237 OA
ATOM     79  O   UNL     1     -12.489   3.059   9.877  1.00  0.00    -0.744 OA
ENDBRANCH  75  76
ENDBRANCH  47  70
BRANCH  59  80
ATOM     80  C   UNL     1     -11.724  11.276   1.945  1.00  0.00    -0.014 A 
ATOM     81  C   UNL     1     -12.437  12.048   2.879  1.00  0.00     0.010 A 
ATOM     82  C   UNL     1     -12.182  11.210   0.616  1.00  0.00     0.010 A 
ATOM     83  C   UNL     1     -13.604  12.715   2.498  1.00  0.00     0.020 A 
ATOM     84  C   UNL     1     -13.332  11.900   0.225  1.00  0.00     0.020 A 
ATOM     85  C   UNL     1     -14.045  12.637   1.173  1.00  0.00     0.054 A 
BRANCH  85  86
ATOM     86  S   UNL     1     -15.539  13.546   0.694  1.00  0.00     0.124 S 
ATOM     87  O   UNL     1     -16.594  12.741   1.304  1.00  0.00    -0.237 OA
ATOM     88  O   UNL     1     -15.323  14.860   1.296  1.00  0.00    -0.237 OA
ATOM     89  O   UNL     1     -15.505  13.524  -0.767  1.00  0.00    -0.744 OA
ENDBRANCH  85  86
ENDBRANCH  59  80
ENDBRANCH  33  34
ENDBRANCH  26  28
ENDBRANCH  25  26
ENDBRANCH  24  25
ENDBRANCH   1  24
TORSDOF 19
