REMARK SMILES CC(C)[C@@H](CCNC(=O)N1C[C@@H](C)[C@H](C)C1)CCC(=O)OCCOC(=O)c1ccc(-c2c3nc(c(-c4ccc(S(=O)(=O)[O-])cc4)c4ccc([nH]4)c(-c4ccc(S(=O)(=O)[O-])cc4)c4nc(c(-c5ccc(S(=O)(=O)[O-])cc5)c5ccc2[nH]5)C=C4)C=C3)cc1
REMARK SMILES IDX 22 1 21 2 19 3 20 4 18 5 17 6 4 7 2 8 1 9 3 10 5 11 6 12
REMARK SMILES IDX 7 13 8 14 9 16 10 17 11 18 16 19 12 20 14 21 13 22 15 23
REMARK SMILES IDX 23 24 24 25 25 26 26 27 27 28 28 29 86 30 29 31 85 32 30 33
REMARK SMILES IDX 31 34 32 35 79 36 33 37 84 38 78 39 80 40 34 41 83 42 77 43
REMARK SMILES IDX 76 44 35 46 65 47 46 48 64 49 47 50 50 51 63 52 81 53 48 54
REMARK SMILES IDX 49 55 62 57 82 58 51 59 36 60 37 61 45 62 38 63 44 64 39 65
REMARK SMILES IDX 40 66 41 67 42 68 43 69 66 70 67 71 75 72 68 73 74 74 69 75
REMARK SMILES IDX 70 76 71 77 72 78 73 79 52 80 53 81 61 82 54 83 60 84 55 85
REMARK SMILES IDX 56 86 57 87 58 88 59 89
REMARK H PARENT 7 15 80 45 50 56
REMARK Flexibility Score: inf
ROOT
ATOM      1  C   UNL     1      -1.940   4.261  -0.177  1.00  0.00     0.274 C 
ENDROOT
BRANCH   1   2
ATOM      2  O   UNL     1      -1.494   3.262   0.761  1.00  0.00    -0.462 OA
BRANCH   2   3
ATOM      3  C   UNL     1      -0.924   3.713   1.902  1.00  0.00     0.305 C 
ATOM      4  O   UNL     1      -0.770   4.897   2.179  1.00  0.00    -0.252 OA
BRANCH   3   5
ATOM      5  C   UNL     1      -0.428   2.617   2.822  1.00  0.00     0.123 C 
BRANCH   5   6
ATOM      6  C   UNL     1      -0.852   1.164   2.592  1.00  0.00     0.015 C 
BRANCH   6   7
ATOM      7  C   UNL     1      -0.487   0.430   1.276  1.00  0.00    -0.006 C 
BRANCH   7   8
ATOM      8  C   UNL     1       1.035   0.197   1.003  1.00  0.00    -0.014 C 
ATOM      9  C   UNL     1       1.256  -0.517  -0.341  1.00  0.00     0.007 C 
ATOM     10  C   UNL     1       1.878   1.476   0.981  1.00  0.00     0.007 C 
ENDBRANCH   7   8
BRANCH   7  11
ATOM     11  C   UNL     1      -1.325  -0.890   1.186  1.00  0.00     0.025 C 
BRANCH  11  12
ATOM     12  C   UNL     1      -0.907  -2.063   2.090  1.00  0.00     0.118 C 
BRANCH  12  13
ATOM     13  N   UNL     1      -1.518  -2.003   3.404  1.00  0.00    -0.338 N 
ATOM     14  C   UNL     1      -2.628  -2.624   3.869  1.00  0.00     0.317 C 
ATOM     15  H   UNL     1      -1.057  -1.426   4.055  1.00  0.00     0.165 HD
ATOM     16  O   UNL     1      -3.296  -2.022   4.710  1.00  0.00    -0.249 OA
ATOM     17  N   UNL     1      -2.951  -3.873   3.425  1.00  0.00    -0.324 N 
ATOM     18  C   UNL     1      -4.248  -4.449   3.728  1.00  0.00     0.125 C 
ATOM     19  C   UNL     1      -2.009  -4.909   3.036  1.00  0.00     0.125 C 
ATOM     20  C   UNL     1      -3.935  -5.873   4.176  1.00  0.00     0.010 C 
ATOM     21  C   UNL     1      -2.695  -6.248   3.344  1.00  0.00     0.010 C 
ATOM     22  C   UNL     1      -5.106  -6.820   3.955  1.00  0.00     0.010 C 
ATOM     23  C   UNL     1      -1.774  -7.213   4.082  1.00  0.00     0.010 C 
ENDBRANCH  12  13
ENDBRANCH  11  12
ENDBRANCH   7  11
ENDBRANCH   6   7
ENDBRANCH   5   6
ENDBRANCH   3   5
ENDBRANCH   2   3
ENDBRANCH   1   2
BRANCH   1  24
ATOM     24  C   UNL     1      -3.466   4.301  -0.266  1.00  0.00     0.275 C 
BRANCH  24  25
ATOM     25  O   UNL     1      -4.050   4.694   0.988  1.00  0.00    -0.458 OA
BRANCH  25  26
ATOM     26  C   UNL     1      -4.411   3.662   1.787  1.00  0.00     0.338 C 
ATOM     27  O   UNL     1      -4.360   2.474   1.525  1.00  0.00    -0.246 OA
BRANCH  26  28
ATOM     28  C   UNL     1      -4.739   4.175   3.125  1.00  0.00     0.060 A 
ATOM     29  C   UNL     1      -3.861   3.862   4.164  1.00  0.00     0.016 A 
ATOM     30  C   UNL     1      -5.921   4.871   3.378  1.00  0.00     0.016 A 
ATOM     31  C   UNL     1      -4.163   4.234   5.469  1.00  0.00     0.010 A 
ATOM     32  C   UNL     1      -6.224   5.247   4.693  1.00  0.00     0.010 A 
ATOM     33  C   UNL     1      -5.354   4.916   5.748  1.00  0.00    -0.014 A 
BRANCH  33  34
ATOM     34  C   UNL     1      -5.707   5.204   7.160  1.00  0.00     0.031 A 
ATOM     35  C   UNL     1      -6.796   4.414   7.832  1.00  0.00     0.074 A 
ATOM     36  C   UNL     1      -5.010   6.121   7.857  1.00  0.00     0.049 A 
ATOM     37  N   UNL     1      -7.291   4.548   9.036  1.00  0.00    -0.248 NA
ATOM     38  C   UNL     1      -7.410   3.332   7.045  1.00  0.00     0.031 C 
ATOM     39  C   UNL     1      -3.891   6.908   7.336  1.00  0.00     0.029 A 
ATOM     40  N   UNL     1      -5.128   6.531   9.161  1.00  0.00    -0.354 N 
ATOM     41  C   UNL     1      -8.296   3.594   9.140  1.00  0.00     0.074 A 
ATOM     42  C   UNL     1      -8.345   2.891   7.876  1.00  0.00     0.031 C 
ATOM     43  C   UNL     1      -3.408   7.686   8.319  1.00  0.00     0.029 A 
ATOM     44  C   UNL     1      -4.213   7.491   9.522  1.00  0.00     0.049 A 
ATOM     45  H   UNL     1      -5.805   6.172   9.780  1.00  0.00     0.167 HD
ATOM     46  C   UNL     1      -9.108   3.331  10.192  1.00  0.00     0.031 A 
ATOM     47  C   UNL     1      -4.052   8.153  10.684  1.00  0.00     0.031 A 
ATOM     48  C   UNL     1      -9.043   4.017  11.455  1.00  0.00     0.049 A 
ATOM     49  C   UNL     1      -4.980   7.859  11.830  1.00  0.00     0.074 A 
ATOM     50  C   UNL     1      -9.833   3.835  12.578  1.00  0.00     0.029 A 
ATOM     51  N   UNL     1      -8.125   5.007  11.769  1.00  0.00    -0.354 N 
ATOM     52  N   UNL     1      -5.963   6.993  11.892  1.00  0.00    -0.248 NA
ATOM     53  C   UNL     1      -4.782   8.639  13.059  1.00  0.00     0.031 C 
ATOM     54  C   UNL     1      -9.409   4.737  13.562  1.00  0.00     0.029 A 
ATOM     55  C   UNL     1      -8.331   5.452  13.064  1.00  0.00     0.049 A 
ATOM     56  H   UNL     1      -7.428   5.345  11.161  1.00  0.00     0.167 HD
ATOM     57  C   UNL     1      -6.497   7.119  13.169  1.00  0.00     0.074 A 
ATOM     58  C   UNL     1      -5.714   8.129  13.852  1.00  0.00     0.031 C 
ATOM     59  C   UNL     1      -7.546   6.464  13.723  1.00  0.00     0.031 A 
BRANCH  46  60
ATOM     60  C   UNL     1     -10.171   2.284   9.996  1.00  0.00    -0.014 A 
ATOM     61  C   UNL     1      -9.856   0.914   9.981  1.00  0.00     0.010 A 
ATOM     62  C   UNL     1     -11.511   2.682   9.837  1.00  0.00     0.010 A 
ATOM     63  C   UNL     1     -10.858  -0.038   9.769  1.00  0.00     0.020 A 
ATOM     64  C   UNL     1     -12.518   1.732   9.646  1.00  0.00     0.020 A 
ATOM     65  C   UNL     1     -12.182   0.378   9.593  1.00  0.00     0.054 A 
BRANCH  65  66
ATOM     66  S   UNL     1     -13.469  -0.873   9.325  1.00  0.00     0.124 S 
ATOM     67  O   UNL     1     -13.269  -1.214   7.919  1.00  0.00    -0.237 OA
ATOM     68  O   UNL     1     -13.113  -1.917  10.282  1.00  0.00    -0.237 OA
ATOM     69  O   UNL     1     -14.710  -0.161   9.622  1.00  0.00    -0.744 OA
ENDBRANCH  65  66
ENDBRANCH  46  60
BRANCH  47  70
ATOM     70  C   UNL     1      -2.984   9.181  10.808  1.00  0.00    -0.014 A 
ATOM     71  C   UNL     1      -1.843   8.938  11.591  1.00  0.00     0.010 A 
ATOM     72  C   UNL     1      -3.098  10.404  10.122  1.00  0.00     0.010 A 
ATOM     73  C   UNL     1      -0.836   9.904  11.691  1.00  0.00     0.020 A 
ATOM     74  C   UNL     1      -2.083  11.361  10.201  1.00  0.00     0.020 A 
ATOM     75  C   UNL     1      -0.962  11.109  10.993  1.00  0.00     0.054 A 
BRANCH  75  76
ATOM     76  S   UNL     1       0.385  12.323  11.075  1.00  0.00     0.124 S 
ATOM     77  O   UNL     1       0.130  12.972  12.357  1.00  0.00    -0.237 OA
ATOM     78  O   UNL     1       1.579  11.483  11.017  1.00  0.00    -0.237 OA
ATOM     79  O   UNL     1       0.163  13.156   9.895  1.00  0.00    -0.744 OA
ENDBRANCH  75  76
ENDBRANCH  47  70
BRANCH  59  80
ATOM     80  C   UNL     1      -7.894   6.811  15.144  1.00  0.00    -0.014 A 
ATOM     81  C   UNL     1      -8.566   8.006  15.452  1.00  0.00     0.010 A 
ATOM     82  C   UNL     1      -7.571   5.916  16.179  1.00  0.00     0.010 A 
ATOM     83  C   UNL     1      -8.879   8.318  16.777  1.00  0.00     0.020 A 
ATOM     84  C   UNL     1      -7.900   6.215  17.504  1.00  0.00     0.020 A 
ATOM     85  C   UNL     1      -8.537   7.423  17.796  1.00  0.00     0.054 A 
BRANCH  85  86
ATOM     86  S   UNL     1      -8.975   7.832  19.509  1.00  0.00     0.124 S 
ATOM     87  O   UNL     1      -7.922   8.776  19.873  1.00  0.00    -0.237 OA
ATOM     88  O   UNL     1     -10.313   8.405  19.375  1.00  0.00    -0.237 OA
ATOM     89  O   UNL     1      -8.923   6.543  20.194  1.00  0.00    -0.744 OA
ENDBRANCH  85  86
ENDBRANCH  59  80
ENDBRANCH  33  34
ENDBRANCH  26  28
ENDBRANCH  25  26
ENDBRANCH  24  25
ENDBRANCH   1  24
TORSDOF 20
