REMARK SMILES CS(=O)(=O)Nc1cc(NS(C)(=O)=O)cc(C(=O)OCCOC(=O)c2ccc(-c3c4nc(c(-c5ccc(S(=O)(=O)[O-])cc5)c5ccc([nH]5)c(-c5ccc(S(=O)(=O)[O-])cc5)c5nc(c(-c6ccc(S(=O)(=O)[O-])cc6)c6ccc3[nH]6)C=C5)C=C4)cc2)c1
REMARK SMILES IDX 20 1 19 2 18 3 16 4 17 5 15 6 6 7 7 8 84 9 8 10 14 11 5 12
REMARK SMILES IDX 2 14 1 15 3 16 4 17 9 18 10 20 11 21 12 22 13 23 21 24 22 25
REMARK SMILES IDX 23 26 24 27 25 28 83 29 26 30 82 31 27 32 28 33 29 34 76 35
REMARK SMILES IDX 30 36 81 37 75 38 77 39 31 40 80 41 74 42 73 43 32 45 62 46
REMARK SMILES IDX 43 47 61 48 44 49 47 50 60 51 78 52 45 53 46 54 59 56 79 57
REMARK SMILES IDX 48 58 33 59 34 60 42 61 35 62 41 63 36 64 37 65 38 66 39 67
REMARK SMILES IDX 40 68 63 69 64 70 72 71 65 72 71 73 66 74 67 75 68 76 69 77
REMARK SMILES IDX 70 78 49 79 50 80 58 81 51 82 57 83 52 84 53 85 54 86 55 87
REMARK SMILES IDX 56 88
REMARK H PARENT 5 13 9 19 77 44 47 55
REMARK Flexibility Score: inf
ROOT
ATOM      1  C   UNL     1       7.383   0.804  -0.375  1.00  0.00     0.275 C 
ENDROOT
BRANCH   1   2
ATOM      2  C   UNL     1       6.016   1.070   0.258  1.00  0.00     0.275 C 
BRANCH   2   3
ATOM      3  O   UNL     1       4.959   0.579  -0.589  1.00  0.00    -0.458 OA
BRANCH   3   4
ATOM      4  C   UNL     1       4.296   1.504  -1.319  1.00  0.00     0.338 C 
ATOM      5  O   UNL     1       4.431   2.715  -1.259  1.00  0.00    -0.246 OA
BRANCH   4   6
ATOM      6  C   UNL     1       3.366   0.852  -2.272  1.00  0.00     0.064 A 
ATOM      7  C   UNL     1       1.661  -0.759  -2.704  1.00  0.00     0.051 A 
ATOM      8  C   UNL     1       1.388  -0.154  -3.942  1.00  0.00     0.053 A 
ATOM      9  C   UNL     1       2.748  -0.348  -1.946  1.00  0.00     0.042 A 
ATOM     10  C   UNL     1       2.123   0.946  -4.370  1.00  0.00     0.051 A 
ATOM     11  C   UNL     1       3.015   1.513  -3.459  1.00  0.00     0.042 A 
BRANCH   7  12
ATOM     12  N   UNL     1       0.784  -1.789  -2.253  1.00  0.00    -0.284 N 
ATOM     13  H   UNL     1       0.503  -2.489  -2.886  1.00  0.00     0.180 HD
BRANCH  12  14
ATOM     14  S   UNL     1       0.218  -1.843  -0.671  1.00  0.00     0.229 S 
ATOM     15  C   UNL     1       0.420  -0.207   0.039  1.00  0.00     0.183 C 
ATOM     16  O   UNL     1       1.062  -2.753   0.074  1.00  0.00    -0.207 OA
ATOM     17  O   UNL     1      -1.204  -2.087  -0.795  1.00  0.00    -0.207 OA
ENDBRANCH  12  14
ENDBRANCH   7  12
BRANCH  10  18
ATOM     18  N   UNL     1       1.875   1.707  -5.570  1.00  0.00    -0.284 N 
ATOM     19  H   UNL     1       2.095   2.666  -5.583  1.00  0.00     0.180 HD
BRANCH  18  20
ATOM     20  S   UNL     1       1.212   0.992  -6.961  1.00  0.00     0.229 S 
ATOM     21  C   UNL     1       0.590   2.448  -7.773  1.00  0.00     0.183 C 
ATOM     22  O   UNL     1       2.324   0.474  -7.729  1.00  0.00    -0.207 OA
ATOM     23  O   UNL     1       0.074   0.175  -6.615  1.00  0.00    -0.207 OA
ENDBRANCH  18  20
ENDBRANCH  10  18
ENDBRANCH   4   6
ENDBRANCH   3   4
ENDBRANCH   2   3
ENDBRANCH   1   2
BRANCH   1  24
ATOM     24  O   UNL     1       7.606   1.657  -1.513  1.00  0.00    -0.458 OA
BRANCH  24  25
ATOM     25  C   UNL     1       7.283   1.109  -2.706  1.00  0.00     0.338 C 
ATOM     26  O   UNL     1       6.852  -0.013  -2.914  1.00  0.00    -0.246 OA
BRANCH  25  27
ATOM     27  C   UNL     1       7.383   2.117  -3.768  1.00  0.00     0.060 A 
ATOM     28  C   UNL     1       6.240   2.848  -4.069  1.00  0.00     0.016 A 
ATOM     29  C   UNL     1       8.512   2.225  -4.571  1.00  0.00     0.016 A 
ATOM     30  C   UNL     1       6.161   3.599  -5.232  1.00  0.00     0.010 A 
ATOM     31  C   UNL     1       8.475   3.079  -5.681  1.00  0.00     0.010 A 
ATOM     32  C   UNL     1       7.288   3.747  -6.045  1.00  0.00    -0.014 A 
BRANCH  32  33
ATOM     33  C   UNL     1       7.222   4.579  -7.277  1.00  0.00     0.031 A 
ATOM     34  C   UNL     1       7.583   3.972  -8.608  1.00  0.00     0.074 A 
ATOM     35  C   UNL     1       6.839   5.872  -7.211  1.00  0.00     0.049 A 
ATOM     36  N   UNL     1       7.825   4.566  -9.747  1.00  0.00    -0.248 NA
ATOM     37  C   UNL     1       7.697   2.504  -8.661  1.00  0.00     0.031 C 
ATOM     38  C   UNL     1       6.384   6.570  -6.003  1.00  0.00     0.029 A 
ATOM     39  N   UNL     1       6.776   6.839  -8.185  1.00  0.00    -0.354 N 
ATOM     40  C   UNL     1       8.166   3.554 -10.638  1.00  0.00     0.074 A 
ATOM     41  C   UNL     1       8.115   2.309  -9.905  1.00  0.00     0.031 C 
ATOM     42  C   UNL     1       6.074   7.838  -6.312  1.00  0.00     0.029 A 
ATOM     43  C   UNL     1       6.411   8.078  -7.708  1.00  0.00     0.049 A 
ATOM     44  H   UNL     1       6.973   6.663  -9.134  1.00  0.00     0.167 HD
ATOM     45  C   UNL     1       8.489   3.658 -11.949  1.00  0.00     0.031 A 
ATOM     46  C   UNL     1       6.412   9.288  -8.302  1.00  0.00     0.031 A 
ATOM     47  C   UNL     1       8.514   4.903 -12.671  1.00  0.00     0.049 A 
ATOM     48  C   UNL     1       6.880   9.392  -9.727  1.00  0.00     0.074 A 
ATOM     49  C   UNL     1       8.851   5.123 -13.995  1.00  0.00     0.029 A 
ATOM     50  N   UNL     1       8.171   6.135 -12.134  1.00  0.00    -0.354 N 
ATOM     51  N   UNL     1       7.261   8.436 -10.540  1.00  0.00    -0.248 NA
ATOM     52  C   UNL     1       6.928  10.738 -10.315  1.00  0.00     0.031 C 
ATOM     53  C   UNL     1       8.756   6.495 -14.246  1.00  0.00     0.029 A 
ATOM     54  C   UNL     1       8.293   7.119 -13.099  1.00  0.00     0.049 A 
ATOM     55  H   UNL     1       7.883   6.286 -11.205  1.00  0.00     0.167 HD
ATOM     56  C   UNL     1       7.554   9.061 -11.746  1.00  0.00     0.074 A 
ATOM     57  C   UNL     1       7.298  10.474 -11.560  1.00  0.00     0.031 C 
ATOM     58  C   UNL     1       7.995   8.514 -12.904  1.00  0.00     0.031 A 
BRANCH  45  59
ATOM     59  C   UNL     1       8.864   2.400 -12.689  1.00  0.00    -0.014 A 
ATOM     60  C   UNL     1       7.899   1.431 -13.014  1.00  0.00     0.010 A 
ATOM     61  C   UNL     1      10.188   2.221 -13.133  1.00  0.00     0.010 A 
ATOM     62  C   UNL     1       8.256   0.295 -13.748  1.00  0.00     0.020 A 
ATOM     63  C   UNL     1      10.543   1.102 -13.892  1.00  0.00     0.020 A 
ATOM     64  C   UNL     1       9.575   0.141 -14.186  1.00  0.00     0.054 A 
BRANCH  64  65
ATOM     65  S   UNL     1       9.994  -1.317 -15.181  1.00  0.00     0.124 S 
ATOM     66  O   UNL     1       9.897  -2.392 -14.197  1.00  0.00    -0.237 OA
ATOM     67  O   UNL     1       8.956  -1.310 -16.209  1.00  0.00    -0.237 OA
ATOM     68  O   UNL     1      11.344  -1.034 -15.662  1.00  0.00    -0.744 OA
ENDBRANCH  64  65
ENDBRANCH  45  59
BRANCH  46  69
ATOM     69  C   UNL     1       6.033  10.508  -7.534  1.00  0.00    -0.014 A 
ATOM     70  C   UNL     1       4.907  11.266  -7.900  1.00  0.00     0.010 A 
ATOM     71  C   UNL     1       6.821  10.942  -6.451  1.00  0.00     0.010 A 
ATOM     72  C   UNL     1       4.602  12.454  -7.228  1.00  0.00     0.020 A 
ATOM     73  C   UNL     1       6.497  12.106  -5.750  1.00  0.00     0.020 A 
ATOM     74  C   UNL     1       5.403  12.868  -6.160  1.00  0.00     0.054 A 
BRANCH  74  75
ATOM     75  S   UNL     1       4.992  14.414  -5.305  1.00  0.00     0.124 S 
ATOM     76  O   UNL     1       5.389  15.416  -6.288  1.00  0.00    -0.237 OA
ATOM     77  O   UNL     1       3.554  14.278  -5.083  1.00  0.00    -0.237 OA
ATOM     78  O   UNL     1       5.809  14.363  -4.095  1.00  0.00    -0.744 OA
ENDBRANCH  74  75
ENDBRANCH  46  69
BRANCH  58  79
ATOM     79  C   UNL     1       8.146   9.423 -14.093  1.00  0.00    -0.014 A 
ATOM     80  C   UNL     1       9.204  10.343 -14.186  1.00  0.00     0.010 A 
ATOM     81  C   UNL     1       7.258   9.282 -15.176  1.00  0.00     0.010 A 
ATOM     82  C   UNL     1       9.365  11.114 -15.340  1.00  0.00     0.020 A 
ATOM     83  C   UNL     1       7.434  10.028 -16.342  1.00  0.00     0.020 A 
ATOM     84  C   UNL     1       8.485  10.944 -16.414  1.00  0.00     0.054 A 
BRANCH  84  85
ATOM     85  S   UNL     1       8.771  11.891 -17.933  1.00  0.00     0.124 S 
ATOM     86  O   UNL     1       8.402  13.243 -17.524  1.00  0.00    -0.237 OA
ATOM     87  O   UNL     1      10.195  11.676 -18.179  1.00  0.00    -0.237 OA
ATOM     88  O   UNL     1       7.876  11.268 -18.906  1.00  0.00    -0.744 OA
ENDBRANCH  84  85
ENDBRANCH  58  79
ENDBRANCH  32  33
ENDBRANCH  25  27
ENDBRANCH  24  25
ENDBRANCH   1  24
TORSDOF 18
