REMARK SMILES O=C(OCCOC(=O)c1ccc(S(=O)(=O)Cc2cccs2)c(F)c1)c1ccc(-c2c3nc(c(-c4ccc(S(=O)(=O)[O-])cc4)c4ccc([nH]4)c(-c4ccc(S(=O)(=O)[O-])cc4)c4nc(c(-c5ccc(S(=O)(=O)[O-])cc5)c5ccc2[nH]5)C=C4)C=C3)cc1
REMARK SMILES IDX 4 1 3 2 2 3 1 4 25 5 26 6 84 7 27 8 83 9 28 10 29 11 30 12
REMARK SMILES IDX 77 13 31 14 82 15 76 16 78 17 32 18 81 19 75 20 74 21 33 23
REMARK SMILES IDX 63 24 44 25 62 26 45 27 48 28 61 29 79 30 46 31 47 32 60 34
REMARK SMILES IDX 80 35 49 36 34 37 35 38 43 39 36 40 42 41 37 42 38 43 39 44
REMARK SMILES IDX 40 45 41 46 64 47 65 48 73 49 66 50 72 51 67 52 68 53 69 54
REMARK SMILES IDX 70 55 71 56 50 57 51 58 59 59 52 60 58 61 53 62 54 63 55 64
REMARK SMILES IDX 56 65 57 66 5 67 6 68 7 69 8 70 9 71 10 72 24 73 11 74 22 75
REMARK SMILES IDX 12 76 23 77 13 78 14 79 15 80 16 81 17 82 18 83 21 84 19 85
REMARK SMILES IDX 20 86
REMARK H PARENT 78 22 48 33
REMARK Flexibility Score: inf
ROOT
ATOM      1  C   UNL     1       4.104  -0.767  -1.557  1.00  0.00     0.275 C 
ENDROOT
BRANCH   1   2
ATOM      2  O   UNL     1       2.978  -1.006  -0.696  1.00  0.00    -0.458 OA
BRANCH   2   3
ATOM      3  C   UNL     1       2.848  -0.753   0.629  1.00  0.00     0.338 C 
ATOM      4  O   UNL     1       1.966  -1.340   1.256  1.00  0.00    -0.246 OA
BRANCH   3   5
ATOM      5  C   UNL     1       3.582   0.345   1.332  1.00  0.00     0.060 A 
ATOM      6  C   UNL     1       4.893   0.752   1.083  1.00  0.00     0.016 A 
ATOM      7  C   UNL     1       2.874   1.005   2.357  1.00  0.00     0.016 A 
ATOM      8  C   UNL     1       5.461   1.816   1.791  1.00  0.00     0.010 A 
ATOM      9  C   UNL     1       3.424   2.090   3.046  1.00  0.00     0.010 A 
ATOM     10  C   UNL     1       4.734   2.486   2.778  1.00  0.00    -0.014 A 
BRANCH  10  11
ATOM     11  C   UNL     1       5.433   3.465   3.638  1.00  0.00     0.031 A 
ATOM     12  C   UNL     1       5.900   3.013   4.992  1.00  0.00     0.074 A 
ATOM     13  C   UNL     1       5.729   4.695   3.179  1.00  0.00     0.049 A 
ATOM     14  N   UNL     1       6.684   3.623   5.841  1.00  0.00    -0.248 NA
ATOM     15  C   UNL     1       5.444   1.685   5.439  1.00  0.00     0.031 C 
ATOM     16  C   UNL     1       5.347   5.224   1.869  1.00  0.00     0.029 A 
ATOM     17  N   UNL     1       6.438   5.716   3.757  1.00  0.00    -0.354 N 
ATOM     18  C   UNL     1       6.831   2.746   6.908  1.00  0.00     0.074 A 
ATOM     19  C   UNL     1       6.018   1.586   6.627  1.00  0.00     0.031 C 
ATOM     20  C   UNL     1       5.829   6.473   1.742  1.00  0.00     0.029 A 
ATOM     21  C   UNL     1       6.554   6.829   2.958  1.00  0.00     0.049 A 
ATOM     22  H   UNL     1       6.828   5.657   4.659  1.00  0.00     0.167 HD
ATOM     23  C   UNL     1       7.597   2.883   8.015  1.00  0.00     0.031 A 
ATOM     24  C   UNL     1       7.192   7.995   3.182  1.00  0.00     0.031 A 
ATOM     25  C   UNL     1       8.370   4.056   8.306  1.00  0.00     0.049 A 
ATOM     26  C   UNL     1       7.976   8.156   4.459  1.00  0.00     0.074 A 
ATOM     27  C   UNL     1       9.172   4.313   9.403  1.00  0.00     0.029 A 
ATOM     28  N   UNL     1       8.423   5.179   7.494  1.00  0.00    -0.354 N 
ATOM     29  N   UNL     1       8.158   7.290   5.429  1.00  0.00    -0.248 NA
ATOM     30  C   UNL     1       8.666   9.438   4.656  1.00  0.00     0.031 C 
ATOM     31  C   UNL     1       9.679   5.611   9.271  1.00  0.00     0.029 A 
ATOM     32  C   UNL     1       9.231   6.141   8.070  1.00  0.00     0.049 A 
ATOM     33  H   UNL     1       7.954   5.277   6.633  1.00  0.00     0.167 HD
ATOM     34  C   UNL     1       9.017   7.907   6.331  1.00  0.00     0.074 A 
ATOM     35  C   UNL     1       9.319   9.217   5.789  1.00  0.00     0.031 C 
ATOM     36  C   UNL     1       9.521   7.431   7.497  1.00  0.00     0.031 A 
BRANCH  23  37
ATOM     37  C   UNL     1       7.591   1.735   8.985  1.00  0.00    -0.014 A 
ATOM     38  C   UNL     1       8.243   0.526   8.676  1.00  0.00     0.010 A 
ATOM     39  C   UNL     1       6.887   1.846  10.197  1.00  0.00     0.010 A 
ATOM     40  C   UNL     1       8.144  -0.570   9.536  1.00  0.00     0.020 A 
ATOM     41  C   UNL     1       6.804   0.757  11.070  1.00  0.00     0.020 A 
ATOM     42  C   UNL     1       7.413  -0.451  10.722  1.00  0.00     0.054 A 
BRANCH  42  43
ATOM     43  S   UNL     1       7.273  -1.897  11.808  1.00  0.00     0.124 S 
ATOM     44  O   UNL     1       6.299  -2.717  11.092  1.00  0.00    -0.237 OA
ATOM     45  O   UNL     1       8.637  -2.419  11.829  1.00  0.00    -0.237 OA
ATOM     46  O   UNL     1       6.805  -1.335  13.073  1.00  0.00    -0.744 OA
ENDBRANCH  42  43
ENDBRANCH  23  37
BRANCH  24  47
ATOM     47  C   UNL     1       7.152   9.081   2.163  1.00  0.00    -0.014 A 
ATOM     48  C   UNL     1       8.299   9.414   1.422  1.00  0.00     0.010 A 
ATOM     49  C   UNL     1       5.961   9.794   1.931  1.00  0.00     0.010 A 
ATOM     50  C   UNL     1       8.263  10.452   0.484  1.00  0.00     0.020 A 
ATOM     51  C   UNL     1       5.915  10.817   0.979  1.00  0.00     0.020 A 
ATOM     52  C   UNL     1       7.070  11.148   0.269  1.00  0.00     0.054 A 
BRANCH  52  53
ATOM     53  S   UNL     1       7.037  12.463  -0.983  1.00  0.00     0.124 S 
ATOM     54  O   UNL     1       7.770  13.535  -0.317  1.00  0.00    -0.237 OA
ATOM     55  O   UNL     1       7.719  11.838  -2.114  1.00  0.00    -0.237 OA
ATOM     56  O   UNL     1       5.611  12.708  -1.184  1.00  0.00    -0.744 OA
ENDBRANCH  52  53
ENDBRANCH  24  47
BRANCH  36  57
ATOM     57  C   UNL     1      10.492   8.309   8.236  1.00  0.00    -0.014 A 
ATOM     58  C   UNL     1      10.058   9.440   8.949  1.00  0.00     0.010 A 
ATOM     59  C   UNL     1      11.854   7.957   8.262  1.00  0.00     0.010 A 
ATOM     60  C   UNL     1      10.978  10.222   9.652  1.00  0.00     0.020 A 
ATOM     61  C   UNL     1      12.771   8.722   8.984  1.00  0.00     0.020 A 
ATOM     62  C   UNL     1      12.329   9.859   9.663  1.00  0.00     0.054 A 
BRANCH  62  63
ATOM     63  S   UNL     1      13.499  10.861  10.619  1.00  0.00     0.124 S 
ATOM     64  O   UNL     1      13.710  12.005   9.737  1.00  0.00    -0.237 OA
ATOM     65  O   UNL     1      12.758  11.141  11.847  1.00  0.00    -0.237 OA
ATOM     66  O   UNL     1      14.652   9.979  10.784  1.00  0.00    -0.744 OA
ENDBRANCH  62  63
ENDBRANCH  36  57
ENDBRANCH  10  11
ENDBRANCH   3   5
ENDBRANCH   2   3
ENDBRANCH   1   2
BRANCH   1  67
ATOM     67  C   UNL     1       4.010   0.531  -2.362  1.00  0.00     0.275 C 
BRANCH  67  68
ATOM     68  O   UNL     1       3.535   1.640  -1.586  1.00  0.00    -0.458 OA
BRANCH  68  69
ATOM     69  C   UNL     1       2.214   1.913  -1.731  1.00  0.00     0.338 C 
ATOM     70  O   UNL     1       1.416   1.359  -2.468  1.00  0.00    -0.246 OA
BRANCH  69  71
ATOM     71  C   UNL     1       1.816   2.899  -0.716  1.00  0.00     0.063 A 
ATOM     72  C   UNL     1       2.300   4.209  -0.724  1.00  0.00     0.017 A 
ATOM     73  C   UNL     1       0.955   2.465   0.293  1.00  0.00     0.056 A 
ATOM     74  C   UNL     1       1.893   5.095   0.281  1.00  0.00     0.024 A 
ATOM     75  C   UNL     1       0.643   3.324   1.338  1.00  0.00     0.142 A 
ATOM     76  C   UNL     1       1.061   4.644   1.317  1.00  0.00     0.103 A 
ATOM     77  F   UNL     1       0.025   2.808   2.405  1.00  0.00    -0.206 F 
BRANCH  76  78
ATOM     78  S   UNL     1       0.588   5.774   2.587  1.00  0.00     0.186 S 
ATOM     79  O   UNL     1       1.645   5.685   3.579  1.00  0.00    -0.223 OA
ATOM     80  O   UNL     1       0.329   7.039   1.920  1.00  0.00    -0.223 OA
BRANCH  78  81
ATOM     81  C   UNL     1      -0.921   5.261   3.383  1.00  0.00     0.188 C 
BRANCH  81  82
ATOM     82  C   UNL     1      -2.001   4.779   2.458  1.00  0.00     0.020 A 
ATOM     83  C   UNL     1      -2.617   3.539   2.478  1.00  0.00     0.016 A 
ATOM     84  S   UNL     1      -2.696   5.787   1.263  1.00  0.00    -0.148 S 
ATOM     85  C   UNL     1      -3.574   3.382   1.438  1.00  0.00     0.012 A 
ATOM     86  C   UNL     1      -3.713   4.534   0.700  1.00  0.00     0.065 A 
ENDBRANCH  81  82
ENDBRANCH  78  81
ENDBRANCH  76  78
ENDBRANCH  69  71
ENDBRANCH  68  69
ENDBRANCH  67  68
ENDBRANCH   1  67
TORSDOF 17
