REMARK SMILES CCCOc1cccc([C@H]2CC[NH2+][C@@H]2C(=O)OCCOC(=O)c2ccc(-c3c4nc(c(-c5ccc(S(=O)(=O)[O-])cc5)c5ccc([nH]5)c(-c5ccc(S(=O)(=O)[O-])cc5)c5nc(c(-c6ccc(S(=O)(=O)[O-])cc6)c6ccc3[nH]6)C=C5)C=C4)cc2)c1
REMARK SMILES IDX 18 1 17 2 15 3 16 4 14 5 10 6 11 7 12 8 13 9 9 12 5 13 6 14
REMARK SMILES IDX 83 15 7 16 8 17 4 18 3 19 2 20 1 21 19 22 20 23 21 24 22 25
REMARK SMILES IDX 23 26 24 27 82 28 25 29 81 30 26 31 27 32 28 33 75 34 29 35
REMARK SMILES IDX 80 36 74 37 76 38 30 39 79 40 73 41 72 42 31 44 61 45 42 46
REMARK SMILES IDX 60 47 43 48 46 49 59 50 77 51 44 52 45 53 58 55 78 56 47 57
REMARK SMILES IDX 32 58 33 59 41 60 34 61 40 62 35 63 36 64 37 65 38 66 39 67
REMARK SMILES IDX 62 68 63 69 71 70 64 71 70 72 65 73 66 74 67 75 68 76 69 77
REMARK SMILES IDX 48 78 49 79 57 80 50 81 56 82 51 83 52 84 53 85 54 86 55 87
REMARK H PARENT 13 10 13 11 76 43 46 54
REMARK Flexibility Score: inf
ROOT
ATOM      1  C   UNL     1       4.483   1.860   0.818  1.00  0.00     0.274 C 
ENDROOT
BRANCH   1   2
ATOM      2  O   UNL     1       3.271   2.257   1.496  1.00  0.00    -0.458 OA
BRANCH   2   3
ATOM      3  C   UNL     1       2.123   1.610   1.124  1.00  0.00     0.365 C 
ATOM      4  O   UNL     1       2.067   0.725   0.279  1.00  0.00    -0.245 OA
BRANCH   3   5
ATOM      5  C   UNL     1       0.924   2.130   1.942  1.00  0.00     0.301 C 
ATOM      6  C   UNL     1       0.460   1.078   2.978  1.00  0.00     0.095 C 
ATOM      7  C   UNL     1      -1.052   1.034   2.766  1.00  0.00     0.076 C 
ATOM      8  C   UNL     1      -1.171   1.275   1.275  1.00  0.00     0.262 C 
ATOM      9  N   UNL     1      -0.240   2.384   1.035  1.00  0.00    -0.334 N 
ATOM     10  H   UNL     1      -0.680   3.275   1.261  1.00  0.00     0.347 HD
ATOM     11  H   UNL     1       0.046   2.434   0.057  1.00  0.00     0.347 HD
BRANCH   6  12
ATOM     12  C   UNL     1       0.910   1.240   4.417  1.00  0.00    -0.034 A 
ATOM     13  C   UNL     1       2.467   2.120   6.074  1.00  0.00     0.119 A 
ATOM     14  C   UNL     1       1.810   1.442   7.091  1.00  0.00     0.046 A 
ATOM     15  C   UNL     1       2.053   1.978   4.749  1.00  0.00     0.050 A 
ATOM     16  C   UNL     1       0.702   0.656   6.782  1.00  0.00     0.004 A 
ATOM     17  C   UNL     1       0.254   0.561   5.459  1.00  0.00     0.004 A 
BRANCH  13  18
ATOM     18  O   UNL     1       3.580   2.852   6.380  1.00  0.00    -0.494 OA
BRANCH  18  19
ATOM     19  C   UNL     1       3.369   4.261   6.209  1.00  0.00     0.229 C 
BRANCH  19  20
ATOM     20  C   UNL     1       4.005   4.767   4.909  1.00  0.00     0.038 C 
ATOM     21  C   UNL     1       2.986   5.179   3.849  1.00  0.00     0.007 C 
ENDBRANCH  19  20
ENDBRANCH  18  19
ENDBRANCH  13  18
ENDBRANCH   6  12
ENDBRANCH   3   5
ENDBRANCH   2   3
ENDBRANCH   1   2
BRANCH   1  22
ATOM     22  C   UNL     1       5.341   0.980   1.726  1.00  0.00     0.275 C 
BRANCH  22  23
ATOM     23  O   UNL     1       4.602  -0.211   2.026  1.00  0.00    -0.458 OA
BRANCH  23  24
ATOM     24  C   UNL     1       4.799  -0.753   3.250  1.00  0.00     0.338 C 
ATOM     25  O   UNL     1       5.649  -0.415   4.063  1.00  0.00    -0.246 OA
BRANCH  24  26
ATOM     26  C   UNL     1       3.798  -1.822   3.480  1.00  0.00     0.060 A 
ATOM     27  C   UNL     1       2.580  -1.812   2.803  1.00  0.00     0.016 A 
ATOM     28  C   UNL     1       4.037  -2.815   4.429  1.00  0.00     0.016 A 
ATOM     29  C   UNL     1       1.565  -2.703   3.149  1.00  0.00     0.010 A 
ATOM     30  C   UNL     1       3.066  -3.797   4.673  1.00  0.00     0.010 A 
ATOM     31  C   UNL     1       1.800  -3.739   4.059  1.00  0.00    -0.014 A 
BRANCH  31  32
ATOM     32  C   UNL     1       0.742  -4.749   4.369  1.00  0.00     0.031 A 
ATOM     33  C   UNL     1       0.377  -5.055   5.802  1.00  0.00     0.074 A 
ATOM     34  C   UNL     1       0.107  -5.416   3.380  1.00  0.00     0.049 A 
ATOM     35  N   UNL     1      -0.307  -6.063   6.283  1.00  0.00    -0.248 NA
ATOM     36  C   UNL     1       0.863  -4.120   6.830  1.00  0.00     0.031 C 
ATOM     37  C   UNL     1       0.302  -5.208   1.942  1.00  0.00     0.029 A 
ATOM     38  N   UNL     1      -0.843  -6.410   3.436  1.00  0.00    -0.354 N 
ATOM     39  C   UNL     1      -0.257  -5.932   7.668  1.00  0.00     0.074 A 
ATOM     40  C   UNL     1       0.509  -4.737   7.949  1.00  0.00     0.031 C 
ATOM     41  C   UNL     1      -0.539  -5.998   1.260  1.00  0.00     0.029 A 
ATOM     42  C   UNL     1      -1.246  -6.858   2.199  1.00  0.00     0.049 A 
ATOM     43  H   UNL     1      -1.201  -6.767   4.281  1.00  0.00     0.167 HD
ATOM     44  C   UNL     1      -0.789  -6.742   8.615  1.00  0.00     0.031 A 
ATOM     45  C   UNL     1      -2.045  -7.883   1.841  1.00  0.00     0.031 A 
ATOM     46  C   UNL     1      -1.607  -7.893   8.332  1.00  0.00     0.049 A 
ATOM     47  C   UNL     1      -2.611  -8.777   2.904  1.00  0.00     0.074 A 
ATOM     48  C   UNL     1      -2.209  -8.763   9.226  1.00  0.00     0.029 A 
ATOM     49  N   UNL     1      -1.960  -8.322   7.061  1.00  0.00    -0.354 N 
ATOM     50  N   UNL     1      -2.479  -8.691   4.205  1.00  0.00    -0.248 NA
ATOM     51  C   UNL     1      -3.407  -9.925   2.449  1.00  0.00     0.031 C 
ATOM     52  C   UNL     1      -2.897  -9.738   8.495  1.00  0.00     0.029 A 
ATOM     53  C   UNL     1      -2.761  -9.448   7.147  1.00  0.00     0.049 A 
ATOM     54  H   UNL     1      -1.681  -7.890   6.222  1.00  0.00     0.167 HD
ATOM     55  C   UNL     1      -3.175  -9.774   4.726  1.00  0.00     0.074 A 
ATOM     56  C   UNL     1      -3.748 -10.486   3.601  1.00  0.00     0.031 C 
ATOM     57  C   UNL     1      -3.318 -10.150   6.020  1.00  0.00     0.031 A 
BRANCH  44  58
ATOM     58  C   UNL     1      -0.463  -6.445  10.056  1.00  0.00    -0.014 A 
ATOM     59  C   UNL     1      -1.049  -5.367  10.740  1.00  0.00     0.010 A 
ATOM     60  C   UNL     1       0.415  -7.299  10.749  1.00  0.00     0.010 A 
ATOM     61  C   UNL     1      -0.734  -5.127  12.082  1.00  0.00     0.020 A 
ATOM     62  C   UNL     1       0.714  -7.078  12.097  1.00  0.00     0.020 A 
ATOM     63  C   UNL     1       0.150  -5.981  12.750  1.00  0.00     0.054 A 
BRANCH  63  64
ATOM     64  S   UNL     1       0.526  -5.662  14.497  1.00  0.00     0.124 S 
ATOM     65  O   UNL     1       1.446  -4.532  14.404  1.00  0.00    -0.237 OA
ATOM     66  O   UNL     1      -0.788  -5.357  15.059  1.00  0.00    -0.237 OA
ATOM     67  O   UNL     1       1.121  -6.914  14.957  1.00  0.00    -0.744 OA
ENDBRANCH  63  64
ENDBRANCH  44  58
BRANCH  45  68
ATOM     68  C   UNL     1      -2.294  -8.156   0.398  1.00  0.00    -0.014 A 
ATOM     69  C   UNL     1      -3.556  -7.908  -0.167  1.00  0.00     0.010 A 
ATOM     70  C   UNL     1      -1.255  -8.629  -0.426  1.00  0.00     0.010 A 
ATOM     71  C   UNL     1      -3.774  -8.123  -1.531  1.00  0.00     0.020 A 
ATOM     72  C   UNL     1      -1.461  -8.816  -1.795  1.00  0.00     0.020 A 
ATOM     73  C   UNL     1      -2.723  -8.569  -2.338  1.00  0.00     0.054 A 
BRANCH  73  74
ATOM     74  S   UNL     1      -2.999  -8.758  -4.122  1.00  0.00     0.124 S 
ATOM     75  O   UNL     1      -3.697 -10.037  -4.186  1.00  0.00    -0.237 OA
ATOM     76  O   UNL     1      -3.801  -7.581  -4.447  1.00  0.00    -0.237 OA
ATOM     77  O   UNL     1      -1.647  -8.751  -4.677  1.00  0.00    -0.744 OA
ENDBRANCH  73  74
ENDBRANCH  45  68
BRANCH  57  78
ATOM     78  C   UNL     1      -4.148 -11.374   6.288  1.00  0.00    -0.014 A 
ATOM     79  C   UNL     1      -3.640 -12.662   6.041  1.00  0.00     0.010 A 
ATOM     80  C   UNL     1      -5.440 -11.235   6.825  1.00  0.00     0.010 A 
ATOM     81  C   UNL     1      -4.423 -13.790   6.298  1.00  0.00     0.020 A 
ATOM     82  C   UNL     1      -6.218 -12.361   7.103  1.00  0.00     0.020 A 
ATOM     83  C   UNL     1      -5.710 -13.631   6.823  1.00  0.00     0.054 A 
BRANCH  83  84
ATOM     84  S   UNL     1      -6.699 -15.110   7.180  1.00  0.00     0.124 S 
ATOM     85  O   UNL     1      -7.145 -15.504   5.847  1.00  0.00    -0.237 OA
ATOM     86  O   UNL     1      -5.729 -16.004   7.808  1.00  0.00    -0.237 OA
ATOM     87  O   UNL     1      -7.748 -14.617   8.069  1.00  0.00    -0.744 OA
ENDBRANCH  83  84
ENDBRANCH  57  78
ENDBRANCH  31  32
ENDBRANCH  24  26
ENDBRANCH  23  24
ENDBRANCH  22  23
ENDBRANCH   1  22
TORSDOF 18
