REMARK SMILES CCn1nc(C)c(NS(=O)(=O)c2cc(C(=O)OCCOC(=O)c3ccc(-c4c5nc(c(-c6ccc(S(=O)(=O)[O-])cc6)c6ccc([nH]6)c(-c6ccc(S(=O)(=O)[O-])cc6)c6nc(c(-c7ccc(S(=O)(=O)[O-])cc7)c7ccc4[nH]7)C=C6)C=C5)cc3)cc(F)c2C)c1C
REMARK SMILES IDX 18 1 17 2 15 3 16 4 14 5 12 6 13 7 86 8 84 9 87 10 83 11
REMARK SMILES IDX 85 12 9 13 10 14 11 15 8 16 7 18 3 19 4 20 88 21 5 22 89 23
REMARK SMILES IDX 6 24 2 25 1 26 19 27 20 28 21 29 22 30 23 31 24 32 82 33
REMARK SMILES IDX 25 34 81 35 26 36 27 37 28 38 75 39 29 40 80 41 74 42 76 43
REMARK SMILES IDX 30 44 79 45 73 46 72 47 31 49 61 50 42 51 60 52 43 53 46 54
REMARK SMILES IDX 59 55 77 56 44 57 45 58 58 60 78 61 47 62 32 63 33 64 41 65
REMARK SMILES IDX 34 66 40 67 35 68 36 69 37 70 38 71 39 72 62 73 63 74 71 75
REMARK SMILES IDX 64 76 70 77 65 78 66 79 67 80 68 81 69 82 48 83 49 84 57 85
REMARK SMILES IDX 50 86 56 87 51 88 52 89 53 90 54 91 55 92
REMARK H PARENT 8 17 76 48 46 59
REMARK Flexibility Score: inf
ROOT
ATOM      1  C   UNL     1       4.815   9.142  -7.509  1.00  0.00     0.275 C 
ENDROOT
BRANCH   1   2
ATOM      2  O   UNL     1       4.135   8.024  -6.909  1.00  0.00    -0.458 OA
BRANCH   2   3
ATOM      3  C   UNL     1       3.600   8.226  -5.677  1.00  0.00     0.338 C 
ATOM      4  O   UNL     1       3.796   9.177  -4.936  1.00  0.00    -0.246 OA
BRANCH   3   5
ATOM      5  C   UNL     1       2.590   7.178  -5.405  1.00  0.00     0.064 A 
ATOM      6  C   UNL     1       1.853   4.873  -5.560  1.00  0.00     0.094 A 
ATOM      7  C   UNL     1       2.778   5.884  -5.872  1.00  0.00     0.038 A 
ATOM      8  C   UNL     1       0.640   5.178  -4.924  1.00  0.00     0.005 A 
ATOM      9  C   UNL     1       0.472   6.498  -4.480  1.00  0.00     0.128 A 
ATOM     10  C   UNL     1      -0.452   4.195  -4.620  1.00  0.00     0.049 C 
ATOM     11  C   UNL     1       1.445   7.479  -4.669  1.00  0.00     0.055 A 
ATOM     12  F   UNL     1      -0.631   6.825  -3.790  1.00  0.00    -0.207 F 
BRANCH   6  13
ATOM     13  S   UNL     1       2.452   3.239  -5.863  1.00  0.00     0.262 S 
ATOM     14  O   UNL     1       3.899   3.291  -5.903  1.00  0.00    -0.201 OA
ATOM     15  O   UNL     1       1.705   2.721  -6.990  1.00  0.00    -0.201 OA
BRANCH  13  16
ATOM     16  N   UNL     1       2.054   2.270  -4.583  1.00  0.00    -0.276 N 
ATOM     17  H   UNL     1       1.729   1.385  -4.866  1.00  0.00     0.180 HD
BRANCH  16  18
ATOM     18  C   UNL     1       2.071   2.413  -3.195  1.00  0.00     0.093 A 
ATOM     19  N   UNL     1       1.520   1.845  -1.144  1.00  0.00    -0.268 N 
ATOM     20  N   UNL     1       1.979   3.102  -1.026  1.00  0.00    -0.176 NA
ATOM     21  C   UNL     1       1.760   1.328  -2.388  1.00  0.00     0.060 A 
ATOM     22  C   UNL     1       2.331   3.462  -2.269  1.00  0.00     0.084 A 
ATOM     23  C   UNL     1       1.680  -0.102  -2.772  1.00  0.00     0.069 C 
ATOM     24  C   UNL     1       2.846   4.842  -2.420  1.00  0.00     0.071 C 
BRANCH  19  25
ATOM     25  C   UNL     1       0.682   1.347  -0.067  1.00  0.00     0.141 C 
ATOM     26  C   UNL     1       0.863  -0.102   0.339  1.00  0.00     0.029 C 
ENDBRANCH  19  25
ENDBRANCH  16  18
ENDBRANCH  13  16
ENDBRANCH   6  13
ENDBRANCH   3   5
ENDBRANCH   2   3
ENDBRANCH   1   2
BRANCH   1  27
ATOM     27  C   UNL     1       3.852  10.015  -8.306  1.00  0.00     0.275 C 
BRANCH  27  28
ATOM     28  O   UNL     1       2.941  10.678  -7.433  1.00  0.00    -0.458 OA
BRANCH  28  29
ATOM     29  C   UNL     1       1.786  10.011  -7.218  1.00  0.00     0.338 C 
ATOM     30  O   UNL     1       1.509   8.879  -7.579  1.00  0.00    -0.246 OA
BRANCH  29  31
ATOM     31  C   UNL     1       0.808  10.906  -6.602  1.00  0.00     0.060 A 
ATOM     32  C   UNL     1      -0.387  10.327  -6.157  1.00  0.00     0.016 A 
ATOM     33  C   UNL     1       0.938  12.278  -6.839  1.00  0.00     0.016 A 
ATOM     34  C   UNL     1      -1.528  11.091  -6.176  1.00  0.00     0.010 A 
ATOM     35  C   UNL     1      -0.204  13.030  -6.891  1.00  0.00     0.010 A 
ATOM     36  C   UNL     1      -1.425  12.395  -6.655  1.00  0.00    -0.014 A 
BRANCH  36  37
ATOM     37  C   UNL     1      -2.641  13.099  -6.986  1.00  0.00     0.031 A 
ATOM     38  C   UNL     1      -3.323  13.722  -5.832  1.00  0.00     0.074 A 
ATOM     39  C   UNL     1      -2.962  13.280  -8.282  1.00  0.00     0.049 A 
ATOM     40  N   UNL     1      -4.554  13.592  -5.469  1.00  0.00    -0.248 NA
ATOM     41  C   UNL     1      -2.494  14.489  -4.886  1.00  0.00     0.031 C 
ATOM     42  C   UNL     1      -2.163  12.928  -9.463  1.00  0.00     0.029 A 
ATOM     43  N   UNL     1      -3.991  13.987  -8.810  1.00  0.00    -0.354 N 
ATOM     44  C   UNL     1      -4.701  14.383  -4.334  1.00  0.00     0.074 A 
ATOM     45  C   UNL     1      -3.378  14.789  -3.938  1.00  0.00     0.031 C 
ATOM     46  C   UNL     1      -2.587  13.666 -10.512  1.00  0.00     0.029 A 
ATOM     47  C   UNL     1      -3.742  14.444 -10.097  1.00  0.00     0.049 A 
ATOM     48  H   UNL     1      -4.832  14.159  -8.328  1.00  0.00     0.167 HD
ATOM     49  C   UNL     1      -5.915  14.810  -3.898  1.00  0.00     0.031 A 
ATOM     50  C   UNL     1      -4.360  15.486 -10.711  1.00  0.00     0.031 A 
ATOM     51  C   UNL     1      -6.991  14.093  -4.521  1.00  0.00     0.049 A 
ATOM     52  C   UNL     1      -5.616  15.754  -9.960  1.00  0.00     0.074 A 
ATOM     53  C   UNL     1      -7.407  12.778  -4.493  1.00  0.00     0.029 A 
ATOM     54  N   UNL     1      -7.580  14.667  -5.624  1.00  0.00    -0.354 N 
ATOM     55  N   UNL     1      -6.615  14.914  -9.909  1.00  0.00    -0.248 NA
ATOM     56  C   UNL     1      -5.579  16.730  -8.877  1.00  0.00     0.031 C 
ATOM     57  C   UNL     1      -7.850  12.506  -5.817  1.00  0.00     0.029 A 
ATOM     58  C   UNL     1      -7.733  13.681  -6.565  1.00  0.00     0.049 A 
ATOM     59  H   UNL     1      -7.843  15.611  -5.719  1.00  0.00     0.167 HD
ATOM     60  C   UNL     1      -7.071  14.973  -8.597  1.00  0.00     0.074 A 
ATOM     61  C   UNL     1      -6.467  16.181  -8.040  1.00  0.00     0.031 C 
ATOM     62  C   UNL     1      -7.653  13.891  -7.998  1.00  0.00     0.031 A 
BRANCH  49  63
ATOM     63  C   UNL     1      -6.128  16.103  -3.164  1.00  0.00    -0.014 A 
ATOM     64  C   UNL     1      -7.406  16.388  -2.647  1.00  0.00     0.010 A 
ATOM     65  C   UNL     1      -5.196  17.161  -3.207  1.00  0.00     0.010 A 
ATOM     66  C   UNL     1      -7.757  17.689  -2.268  1.00  0.00     0.020 A 
ATOM     67  C   UNL     1      -5.521  18.450  -2.790  1.00  0.00     0.020 A 
ATOM     68  C   UNL     1      -6.816  18.716  -2.366  1.00  0.00     0.054 A 
BRANCH  68  69
ATOM     69  S   UNL     1      -7.324  20.419  -2.032  1.00  0.00     0.124 S 
ATOM     70  O   UNL     1      -8.248  20.675  -3.133  1.00  0.00    -0.237 OA
ATOM     71  O   UNL     1      -7.929  20.309  -0.708  1.00  0.00    -0.237 OA
ATOM     72  O   UNL     1      -6.070  21.166  -2.080  1.00  0.00    -0.744 OA
ENDBRANCH  68  69
ENDBRANCH  49  63
BRANCH  50  73
ATOM     73  C   UNL     1      -3.735  16.451 -11.654  1.00  0.00    -0.014 A 
ATOM     74  C   UNL     1      -4.510  17.331 -12.429  1.00  0.00     0.010 A 
ATOM     75  C   UNL     1      -2.339  16.669 -11.628  1.00  0.00     0.010 A 
ATOM     76  C   UNL     1      -3.916  18.407 -13.116  1.00  0.00     0.020 A 
ATOM     77  C   UNL     1      -1.738  17.727 -12.319  1.00  0.00     0.020 A 
ATOM     78  C   UNL     1      -2.534  18.607 -13.044  1.00  0.00     0.054 A 
BRANCH  78  79
ATOM     79  S   UNL     1      -1.793  20.085 -13.797  1.00  0.00     0.124 S 
ATOM     80  O   UNL     1      -1.917  19.804 -15.224  1.00  0.00    -0.237 OA
ATOM     81  O   UNL     1      -2.640  21.159 -13.286  1.00  0.00    -0.237 OA
ATOM     82  O   UNL     1      -0.424  20.084 -13.282  1.00  0.00    -0.744 OA
ENDBRANCH  78  79
ENDBRANCH  50  73
BRANCH  62  83
ATOM     83  C   UNL     1      -7.990  12.687  -8.851  1.00  0.00    -0.014 A 
ATOM     84  C   UNL     1      -7.011  11.915  -9.507  1.00  0.00     0.010 A 
ATOM     85  C   UNL     1      -9.306  12.197  -8.802  1.00  0.00     0.010 A 
ATOM     86  C   UNL     1      -7.342  10.690 -10.104  1.00  0.00     0.020 A 
ATOM     87  C   UNL     1      -9.639  10.968  -9.378  1.00  0.00     0.020 A 
ATOM     88  C   UNL     1      -8.656  10.221 -10.029  1.00  0.00     0.054 A 
BRANCH  88  89
ATOM     89  S   UNL     1      -9.060   8.592 -10.719  1.00  0.00     0.124 S 
ATOM     90  O   UNL     1      -8.997   8.832 -12.157  1.00  0.00    -0.237 OA
ATOM     91  O   UNL     1      -8.006   7.736 -10.177  1.00  0.00    -0.237 OA
ATOM     92  O   UNL     1     -10.397   8.315 -10.195  1.00  0.00    -0.744 OA
ENDBRANCH  88  89
ENDBRANCH  62  83
ENDBRANCH  36  37
ENDBRANCH  29  31
ENDBRANCH  28  29
ENDBRANCH  27  28
ENDBRANCH   1  27
TORSDOF 18
