REMARK SMILES Cc1cc(C[N@@H+]2C[C@@H](C(=O)OCCOC(=O)c3ccc(-c4c5nc(c(-c6ccc(S(=O)(=O)[O-])cc6)c6ccc([nH]6)c(-c6ccc(S(=O)(=O)[O-])cc6)c6nc(c(-c7ccc(S(=O)(=O)[O-])cc7)c7ccc4[nH]7)C=C6)C=C5)cc3)[C@H](C3CC3)C2)on1
REMARK SMILES IDX 13 1 12 2 11 3 9 4 10 5 8 6 6 7 7 8 81 9 77 11 5 12 4 13
REMARK SMILES IDX 1 14 2 15 3 16 83 17 82 18 78 19 79 20 80 21 14 22 15 23
REMARK SMILES IDX 16 24 17 25 18 26 76 27 19 28 75 29 20 30 21 31 22 32 69 33
REMARK SMILES IDX 23 34 74 35 68 36 70 37 24 38 73 39 67 40 66 41 25 43 55 44
REMARK SMILES IDX 36 45 54 46 37 47 40 48 53 49 71 50 38 51 39 52 52 54 72 55
REMARK SMILES IDX 41 56 26 57 27 58 35 59 28 60 34 61 29 62 30 63 31 64 32 65
REMARK SMILES IDX 33 66 56 67 57 68 65 69 58 70 64 71 59 72 60 73 61 74 62 75
REMARK SMILES IDX 63 76 42 77 43 78 51 79 44 80 50 81 45 82 46 83 47 84 48 85
REMARK SMILES IDX 49 86
REMARK H PARENT 6 10 70 42 40 53
REMARK Flexibility Score: inf
ROOT
ATOM      1  C   UNL     1      -4.751   3.843   4.138  1.00  0.00     0.275 C 
ENDROOT
BRANCH   1   2
ATOM      2  C   UNL     1      -4.482   3.765   2.631  1.00  0.00     0.274 C 
BRANCH   2   3
ATOM      3  O   UNL     1      -4.124   2.437   2.187  1.00  0.00    -0.462 OA
BRANCH   3   4
ATOM      4  C   UNL     1      -2.797   2.246   1.963  1.00  0.00     0.315 C 
ATOM      5  O   UNL     1      -1.951   3.093   2.224  1.00  0.00    -0.252 OA
BRANCH   4   6
ATOM      6  C   UNL     1      -2.440   0.902   1.346  1.00  0.00     0.163 C 
ATOM      7  N   UNL     1      -3.164  -1.274   0.665  1.00  0.00    -0.328 N 
ATOM      8  C   UNL     1      -3.593   0.131   0.715  1.00  0.00     0.278 C 
ATOM      9  C   UNL     1      -2.337  -1.483   1.857  1.00  0.00     0.267 C 
ATOM     10  H   UNL     1      -3.985  -1.879   0.674  1.00  0.00     0.348 HD
ATOM     11  C   UNL     1      -1.892  -0.092   2.366  1.00  0.00     0.067 C 
BRANCH   7  12
ATOM     12  C   UNL     1      -2.535  -1.712  -0.593  1.00  0.00     0.341 C 
BRANCH  12  13
ATOM     13  C   UNL     1      -1.198  -1.154  -0.933  1.00  0.00     0.191 A 
ATOM     14  C   UNL     1       2.349  -0.281  -1.116  1.00  0.00     0.070 C 
ATOM     15  C   UNL     1       0.887  -0.501  -1.241  1.00  0.00     0.081 A 
ATOM     16  C   UNL     1       0.099  -1.518  -0.652  1.00  0.00     0.078 A 
ATOM     17  N   UNL     1       0.123   0.375  -1.907  1.00  0.00    -0.085 NA
ATOM     18  O   UNL     1      -1.183  -0.042  -1.717  1.00  0.00    -0.355 OA
ENDBRANCH  12  13
ENDBRANCH   7  12
BRANCH  11  19
ATOM     19  C   UNL     1      -0.413  -0.088   2.679  1.00  0.00    -0.001 C 
ATOM     20  C   UNL     1       0.632   0.534   1.787  1.00  0.00     0.004 C 
ATOM     21  C   UNL     1       0.362   1.135   3.121  1.00  0.00     0.004 C 
ENDBRANCH  11  19
ENDBRANCH   4   6
ENDBRANCH   3   4
ENDBRANCH   2   3
ENDBRANCH   1   2
BRANCH   1  22
ATOM     22  O   UNL     1      -3.564   3.622   4.930  1.00  0.00    -0.458 OA
BRANCH  22  23
ATOM     23  C   UNL     1      -3.492   2.411   5.533  1.00  0.00     0.338 C 
ATOM     24  O   UNL     1      -4.345   1.532   5.484  1.00  0.00    -0.246 OA
BRANCH  23  25
ATOM     25  C   UNL     1      -2.154   2.173   6.121  1.00  0.00     0.060 A 
ATOM     26  C   UNL     1      -1.562   0.955   5.794  1.00  0.00     0.016 A 
ATOM     27  C   UNL     1      -1.478   3.048   6.976  1.00  0.00     0.016 A 
ATOM     28  C   UNL     1      -0.263   0.660   6.185  1.00  0.00     0.010 A 
ATOM     29  C   UNL     1      -0.183   2.718   7.434  1.00  0.00     0.010 A 
ATOM     30  C   UNL     1       0.449   1.540   7.001  1.00  0.00    -0.014 A 
BRANCH  30  31
ATOM     31  C   UNL     1       1.808   1.108   7.418  1.00  0.00     0.031 A 
ATOM     32  C   UNL     1       1.939   0.015   8.444  1.00  0.00     0.074 A 
ATOM     33  C   UNL     1       2.905   1.521   6.751  1.00  0.00     0.049 A 
ATOM     34  N   UNL     1       3.016  -0.576   8.894  1.00  0.00    -0.248 NA
ATOM     35  C   UNL     1       0.684  -0.504   9.011  1.00  0.00     0.031 C 
ATOM     36  C   UNL     1       2.909   2.444   5.617  1.00  0.00     0.029 A 
ATOM     37  N   UNL     1       4.228   1.176   6.903  1.00  0.00    -0.354 N 
ATOM     38  C   UNL     1       2.571  -1.531   9.799  1.00  0.00     0.074 A 
ATOM     39  C   UNL     1       1.126  -1.454   9.821  1.00  0.00     0.031 C 
ATOM     40  C   UNL     1       4.169   2.578   5.165  1.00  0.00     0.029 A 
ATOM     41  C   UNL     1       5.072   1.804   6.015  1.00  0.00     0.049 A 
ATOM     42  H   UNL     1       4.543   0.539   7.585  1.00  0.00     0.167 HD
ATOM     43  C   UNL     1       3.297  -2.378  10.566  1.00  0.00     0.031 A 
ATOM     44  C   UNL     1       6.419   1.783   5.919  1.00  0.00     0.031 A 
ATOM     45  C   UNL     1       4.735  -2.418  10.593  1.00  0.00     0.049 A 
ATOM     46  C   UNL     1       7.213   0.951   6.899  1.00  0.00     0.074 A 
ATOM     47  C   UNL     1       5.559  -3.179  11.404  1.00  0.00     0.029 A 
ATOM     48  N   UNL     1       5.565  -1.657   9.784  1.00  0.00    -0.354 N 
ATOM     49  N   UNL     1       6.783   0.107   7.807  1.00  0.00    -0.248 NA
ATOM     50  C   UNL     1       8.677   1.081   6.846  1.00  0.00     0.031 C 
ATOM     51  C   UNL     1       6.886  -2.827  11.133  1.00  0.00     0.029 A 
ATOM     52  C   UNL     1       6.891  -1.905  10.098  1.00  0.00     0.049 A 
ATOM     53  H   UNL     1       5.257  -1.031   9.089  1.00  0.00     0.167 HD
ATOM     54  C   UNL     1       7.924  -0.405   8.421  1.00  0.00     0.074 A 
ATOM     55  C   UNL     1       9.060   0.199   7.758  1.00  0.00     0.031 C 
ATOM     56  C   UNL     1       8.020  -1.292   9.444  1.00  0.00     0.031 A 
BRANCH  43  57
ATOM     57  C   UNL     1       2.535  -3.248  11.528  1.00  0.00    -0.014 A 
ATOM     58  C   UNL     1       1.784  -4.353  11.092  1.00  0.00     0.010 A 
ATOM     59  C   UNL     1       2.575  -2.942  12.901  1.00  0.00     0.010 A 
ATOM     60  C   UNL     1       1.054  -5.114  12.011  1.00  0.00     0.020 A 
ATOM     61  C   UNL     1       1.871  -3.715  13.824  1.00  0.00     0.020 A 
ATOM     62  C   UNL     1       1.100  -4.787  13.371  1.00  0.00     0.054 A 
BRANCH  62  63
ATOM     63  S   UNL     1       0.149  -5.792  14.543  1.00  0.00     0.124 S 
ATOM     64  O   UNL     1      -1.224  -5.405  14.228  1.00  0.00    -0.237 OA
ATOM     65  O   UNL     1       0.519  -7.154  14.167  1.00  0.00    -0.237 OA
ATOM     66  O   UNL     1       0.635  -5.355  15.850  1.00  0.00    -0.744 OA
ENDBRANCH  62  63
ENDBRANCH  43  57
BRANCH  44  67
ATOM     67  C   UNL     1       7.126   2.643   4.922  1.00  0.00    -0.014 A 
ATOM     68  C   UNL     1       7.938   2.086   3.918  1.00  0.00     0.010 A 
ATOM     69  C   UNL     1       7.039   4.045   5.019  1.00  0.00     0.010 A 
ATOM     70  C   UNL     1       8.665   2.911   3.050  1.00  0.00     0.020 A 
ATOM     71  C   UNL     1       7.733   4.872   4.133  1.00  0.00     0.020 A 
ATOM     72  C   UNL     1       8.555   4.300   3.162  1.00  0.00     0.054 A 
BRANCH  72  73
ATOM     73  S   UNL     1       9.479   5.353   2.008  1.00  0.00     0.124 S 
ATOM     74  O   UNL     1      10.852   5.186   2.475  1.00  0.00    -0.237 OA
ATOM     75  O   UNL     1       9.171   4.747   0.715  1.00  0.00    -0.237 OA
ATOM     76  O   UNL     1       8.903   6.679   2.220  1.00  0.00    -0.744 OA
ENDBRANCH  72  73
ENDBRANCH  44  67
BRANCH  56  77
ATOM     77  C   UNL     1       9.406  -1.692   9.891  1.00  0.00    -0.014 A 
ATOM     78  C   UNL     1      10.263  -0.783  10.537  1.00  0.00     0.010 A 
ATOM     79  C   UNL     1       9.848  -3.012   9.681  1.00  0.00     0.010 A 
ATOM     80  C   UNL     1      11.554  -1.169  10.912  1.00  0.00     0.020 A 
ATOM     81  C   UNL     1      11.124  -3.412  10.086  1.00  0.00     0.020 A 
ATOM     82  C   UNL     1      11.979  -2.481  10.679  1.00  0.00     0.054 A 
BRANCH  82  83
ATOM     83  S   UNL     1      13.656  -2.960  11.177  1.00  0.00     0.124 S 
ATOM     84  O   UNL     1      14.475  -2.283  10.176  1.00  0.00    -0.237 OA
ATOM     85  O   UNL     1      13.752  -2.427  12.534  1.00  0.00    -0.237 OA
ATOM     86  O   UNL     1      13.641  -4.418  11.086  1.00  0.00    -0.744 OA
ENDBRANCH  82  83
ENDBRANCH  56  77
ENDBRANCH  30  31
ENDBRANCH  23  25
ENDBRANCH  22  23
ENDBRANCH   1  22
TORSDOF 17
