REMARK SMILES CCOc1ccc(C(=O)N2CCC(C(=O)OCCOC(=O)c3ccc(-c4c5nc(c(-c6ccc(S(=O)(=O)[O-])cc6)c6ccc([nH]6)c(-c6ccc(S(=O)(=O)[O-])cc6)c6nc(c(-c7ccc(S(=O)(=O)[O-])cc7)c7ccc4[nH]7)C=C6)C=C5)cc3)(c3ccccc3)CC2)cc1OC
REMARK SMILES IDX 17 1 16 2 14 3 15 4 13 5 8 6 9 7 10 8 11 9 89 10 12 11 88 12
REMARK SMILES IDX 7 13 4 14 5 15 91 16 6 17 90 18 3 19 2 20 1 21 92 22 93 23
REMARK SMILES IDX 82 24 83 25 87 26 84 27 86 28 85 29 18 30 19 31 20 32 21 33
REMARK SMILES IDX 22 34 23 35 81 36 24 37 80 38 25 39 26 40 27 41 74 42 28 43
REMARK SMILES IDX 79 44 73 45 75 46 29 47 78 48 72 49 71 50 30 52 60 53 41 54
REMARK SMILES IDX 59 55 42 56 45 57 58 58 76 59 43 60 44 61 57 63 77 64 46 65
REMARK SMILES IDX 31 66 32 67 40 68 33 69 39 70 34 71 35 72 36 73 37 74 38 75
REMARK SMILES IDX 61 76 62 77 70 78 63 79 69 80 64 81 65 82 66 83 67 84 68 85
REMARK SMILES IDX 47 86 48 87 56 88 49 89 55 90 50 91 51 92 52 93 53 94 54 95
REMARK H PARENT 75 51 45 62
REMARK Flexibility Score: inf
ROOT
ATOM      1  C   UNL     1      12.656   0.430   4.887  1.00  0.00     0.274 C 
ENDROOT
BRANCH   1   2
ATOM      2  O   UNL     1      11.501   0.100   4.090  1.00  0.00    -0.461 OA
BRANCH   2   3
ATOM      3  C   UNL     1      10.851   1.134   3.481  1.00  0.00     0.316 C 
ATOM      4  O   UNL     1      11.174   2.303   3.657  1.00  0.00    -0.251 OA
BRANCH   3   5
ATOM      5  C   UNL     1       9.606   0.659   2.656  1.00  0.00     0.096 C 
ATOM      6  C   UNL     1       6.287  -2.202   2.615  1.00  0.00     0.253 C 
ATOM      7  O   UNL     1       6.525  -3.412   2.631  1.00  0.00    -0.269 OA
ATOM      8  N   UNL     1       7.317  -1.250   2.648  1.00  0.00    -0.339 N 
ATOM      9  C   UNL     1       8.525  -1.624   1.928  1.00  0.00     0.121 C 
ATOM     10  C   UNL     1       7.157   0.144   3.056  1.00  0.00     0.121 C 
ATOM     11  C   UNL     1       9.790  -0.838   2.266  1.00  0.00     0.045 C 
ATOM     12  C   UNL     1       8.425   0.732   3.652  1.00  0.00     0.045 C 
BRANCH   6  13
ATOM     13  C   UNL     1       4.861  -1.796   2.440  1.00  0.00     0.043 A 
ATOM     14  C   UNL     1       2.171  -1.236   1.826  1.00  0.00     0.161 A 
ATOM     15  C   UNL     1       2.516  -2.420   2.495  1.00  0.00     0.051 A 
ATOM     16  C   UNL     1       3.159  -0.305   1.507  1.00  0.00     0.161 A 
ATOM     17  C   UNL     1       3.853  -2.696   2.804  1.00  0.00     0.018 A 
ATOM     18  C   UNL     1       4.496  -0.632   1.760  1.00  0.00     0.064 A 
BRANCH  14  19
ATOM     19  O   UNL     1       0.862  -1.010   1.503  1.00  0.00    -0.490 OA
BRANCH  19  20
ATOM     20  C   UNL     1       0.377  -1.929   0.514  1.00  0.00     0.226 C 
ATOM     21  C   UNL     1      -0.256  -1.132  -0.614  1.00  0.00     0.049 C 
ENDBRANCH  19  20
ENDBRANCH  14  19
BRANCH  16  22
ATOM     22  O   UNL     1       3.035   0.916   0.909  1.00  0.00    -0.493 OA
ATOM     23  C   UNL     1       1.756   1.522   0.836  1.00  0.00     0.278 C 
ENDBRANCH  16  22
ENDBRANCH   6  13
BRANCH   5  24
ATOM     24  C   UNL     1       9.326   1.606   1.441  1.00  0.00    -0.031 A 
ATOM     25  C   UNL     1       9.318   3.010   1.598  1.00  0.00     0.005 A 
ATOM     26  C   UNL     1       9.036   1.133   0.147  1.00  0.00     0.005 A 
ATOM     27  C   UNL     1       9.081   3.880   0.525  1.00  0.00     0.000 A 
ATOM     28  C   UNL     1       8.748   2.000  -0.917  1.00  0.00     0.000 A 
ATOM     29  C   UNL     1       8.784   3.374  -0.733  1.00  0.00     0.000 A 
ENDBRANCH   5  24
ENDBRANCH   3   5
ENDBRANCH   2   3
ENDBRANCH   1   2
BRANCH   1  30
ATOM     30  C   UNL     1      13.933   0.096   4.124  1.00  0.00     0.275 C 
BRANCH  30  31
ATOM     31  O   UNL     1      14.011   0.916   2.946  1.00  0.00    -0.458 OA
BRANCH  31  32
ATOM     32  C   UNL     1      14.106   0.257   1.768  1.00  0.00     0.338 C 
ATOM     33  O   UNL     1      14.212  -0.944   1.594  1.00  0.00    -0.246 OA
BRANCH  32  34
ATOM     34  C   UNL     1      14.035   1.233   0.670  1.00  0.00     0.060 A 
ATOM     35  C   UNL     1      12.852   1.940   0.465  1.00  0.00     0.016 A 
ATOM     36  C   UNL     1      15.101   1.376  -0.217  1.00  0.00     0.016 A 
ATOM     37  C   UNL     1      12.708   2.755  -0.654  1.00  0.00     0.010 A 
ATOM     38  C   UNL     1      14.977   2.247  -1.306  1.00  0.00     0.010 A 
ATOM     39  C   UNL     1      13.769   2.927  -1.551  1.00  0.00    -0.014 A 
BRANCH  39  40
ATOM     40  C   UNL     1      13.589   3.750  -2.778  1.00  0.00     0.031 A 
ATOM     41  C   UNL     1      13.698   3.098  -4.131  1.00  0.00     0.074 A 
ATOM     42  C   UNL     1      13.282   5.061  -2.700  1.00  0.00     0.049 A 
ATOM     43  N   UNL     1      13.782   3.653  -5.312  1.00  0.00    -0.248 NA
ATOM     44  C   UNL     1      13.715   1.625  -4.156  1.00  0.00     0.031 C 
ATOM     45  C   UNL     1      13.043   5.809  -1.464  1.00  0.00     0.029 A 
ATOM     46  N   UNL     1      13.109   5.998  -3.691  1.00  0.00    -0.354 N 
ATOM     47  C   UNL     1      13.909   2.604  -6.215  1.00  0.00     0.074 A 
ATOM     48  C   UNL     1      13.887   1.378  -5.447  1.00  0.00     0.031 C 
ATOM     49  C   UNL     1      12.728   7.078  -1.772  1.00  0.00     0.029 A 
ATOM     50  C   UNL     1      12.828   7.258  -3.217  1.00  0.00     0.049 A 
ATOM     51  H   UNL     1      13.180   5.787  -4.650  1.00  0.00     0.167 HD
ATOM     52  C   UNL     1      14.040   2.659  -7.562  1.00  0.00     0.031 A 
ATOM     53  C   UNL     1      12.713   8.436  -3.863  1.00  0.00     0.031 A 
ATOM     54  C   UNL     1      14.040   3.877  -8.325  1.00  0.00     0.049 A 
ATOM     55  C   UNL     1      12.936   8.483  -5.351  1.00  0.00     0.074 A 
ATOM     56  C   UNL     1      14.246   4.045  -9.684  1.00  0.00     0.029 A 
ATOM     57  N   UNL     1      13.795   5.136  -7.800  1.00  0.00    -0.354 N 
ATOM     58  N   UNL     1      13.181   7.495  -6.179  1.00  0.00    -0.248 NA
ATOM     59  C   UNL     1      12.892   9.807  -5.990  1.00  0.00     0.031 C 
ATOM     60  C   UNL     1      14.148   5.410  -9.976  1.00  0.00     0.029 A 
ATOM     61  C   UNL     1      13.838   6.084  -8.806  1.00  0.00     0.049 A 
ATOM     62  H   UNL     1      13.616   5.327  -6.850  1.00  0.00     0.167 HD
ATOM     63  C   UNL     1      13.314   8.079  -7.434  1.00  0.00     0.074 A 
ATOM     64  C   UNL     1      13.097   9.500  -7.264  1.00  0.00     0.031 C 
ATOM     65  C   UNL     1      13.602   7.492  -8.621  1.00  0.00     0.031 A 
BRANCH  52  66
ATOM     66  C   UNL     1      14.243   1.361  -8.293  1.00  0.00    -0.014 A 
ATOM     67  C   UNL     1      13.172   0.482  -8.529  1.00  0.00     0.010 A 
ATOM     68  C   UNL     1      15.521   1.037  -8.784  1.00  0.00     0.010 A 
ATOM     69  C   UNL     1      13.383  -0.715  -9.220  1.00  0.00     0.020 A 
ATOM     70  C   UNL     1      15.731  -0.148  -9.493  1.00  0.00     0.020 A 
ATOM     71  C   UNL     1      14.662  -1.024  -9.694  1.00  0.00     0.054 A 
BRANCH  71  72
ATOM     72  S   UNL     1      14.906  -2.573 -10.608  1.00  0.00     0.124 S 
ATOM     73  O   UNL     1      14.880  -3.562  -9.534  1.00  0.00    -0.237 OA
ATOM     74  O   UNL     1      13.759  -2.598 -11.512  1.00  0.00    -0.237 OA
ATOM     75  O   UNL     1      16.202  -2.392 -11.256  1.00  0.00    -0.744 OA
ENDBRANCH  71  72
ENDBRANCH  52  66
BRANCH  53  76
ATOM     76  C   UNL     1      12.454   9.689  -3.100  1.00  0.00    -0.014 A 
ATOM     77  C   UNL     1      11.247  10.393  -3.256  1.00  0.00     0.010 A 
ATOM     78  C   UNL     1      13.435  10.201  -2.230  1.00  0.00     0.010 A 
ATOM     79  C   UNL     1      11.037  11.597  -2.577  1.00  0.00     0.020 A 
ATOM     80  C   UNL     1      13.216  11.387  -1.526  1.00  0.00     0.020 A 
ATOM     81  C   UNL     1      12.025  12.089  -1.719  1.00  0.00     0.054 A 
BRANCH  81  82
ATOM     82  S   UNL     1      11.730  13.637  -0.821  1.00  0.00     0.124 S 
ATOM     83  O   UNL     1      12.048  14.638  -1.834  1.00  0.00    -0.237 OA
ATOM     84  O   UNL     1      10.320  13.533  -0.454  1.00  0.00    -0.237 OA
ATOM     85  O   UNL     1      12.663  13.560   0.301  1.00  0.00    -0.744 OA
ENDBRANCH  81  82
ENDBRANCH  53  76
BRANCH  65  86
ATOM     86  C   UNL     1      13.662   8.373  -9.837  1.00  0.00    -0.014 A 
ATOM     87  C   UNL     1      14.777   9.192 -10.083  1.00  0.00     0.010 A 
ATOM     88  C   UNL     1      12.622   8.322 -10.782  1.00  0.00     0.010 A 
ATOM     89  C   UNL     1      14.844   9.959 -11.249  1.00  0.00     0.020 A 
ATOM     90  C   UNL     1      12.694   9.073 -11.958  1.00  0.00     0.020 A 
ATOM     91  C   UNL     1      13.801   9.894 -12.180  1.00  0.00     0.054 A 
BRANCH  91  92
ATOM     92  S   UNL     1      13.939  10.847 -13.718  1.00  0.00     0.124 S 
ATOM     93  O   UNL     1      13.631  12.201 -13.265  1.00  0.00    -0.237 OA
ATOM     94  O   UNL     1      15.326  10.618 -14.117  1.00  0.00    -0.237 OA
ATOM     95  O   UNL     1      12.938  10.239 -14.592  1.00  0.00    -0.744 OA
ENDBRANCH  91  92
ENDBRANCH  65  86
ENDBRANCH  39  40
ENDBRANCH  32  34
ENDBRANCH  31  32
ENDBRANCH  30  31
ENDBRANCH   1  30
TORSDOF 19
