REMARK SMILES COc1ccc([C@@H](CC(=O)OCCOC(=O)c2ccc(-c3c4nc(c(-c5ccc(S(=O)(=O)[O-])cc5)c5ccc([nH]5)c(-c5ccc(S(=O)(=O)[O-])cc5)c5nc(c(-c6ccc(S(=O)(=O)[O-])cc6)c6ccc3[nH]6)C=C5)C=C4)cc2)NC(=O)c2ccc(Cl)c([N+](=O)[O-])c2)cc1
REMARK SMILES IDX 12 1 11 2 9 3 10 4 8 5 7 6 6 7 3 8 4 9 91 10 5 11 90 12 2 13
REMARK SMILES IDX 1 14 77 15 78 16 79 18 80 19 81 20 89 21 82 22 85 23 83 24
REMARK SMILES IDX 84 25 86 26 87 27 88 28 13 29 14 30 15 31 16 32 17 33 18 34
REMARK SMILES IDX 76 35 19 36 75 37 20 38 21 39 22 40 69 41 23 42 74 43 68 44
REMARK SMILES IDX 70 45 24 46 73 47 67 48 66 49 25 51 55 52 36 53 54 54 37 55
REMARK SMILES IDX 40 56 53 57 71 58 38 59 39 60 52 62 72 63 41 64 26 65 27 66
REMARK SMILES IDX 35 67 28 68 34 69 29 70 30 71 31 72 32 73 33 74 56 75 57 76
REMARK SMILES IDX 65 77 58 78 64 79 59 80 60 81 61 82 62 83 63 84 42 85 43 86
REMARK SMILES IDX 51 87 44 88 50 89 45 90 46 91 47 92 48 93 49 94
REMARK H PARENT 77 17 70 50 40 61
REMARK Flexibility Score: inf
ROOT
ATOM      1  C   UNL     1      -1.212   3.571  -6.016  1.00  0.00     0.274 C 
ENDROOT
BRANCH   1   2
ATOM      2  O   UNL     1       0.047   3.709  -5.324  1.00  0.00    -0.462 OA
BRANCH   2   3
ATOM      3  C   UNL     1       1.046   4.333  -5.986  1.00  0.00     0.308 C 
ATOM      4  O   UNL     1       0.948   4.760  -7.132  1.00  0.00    -0.252 OA
BRANCH   3   5
ATOM      5  C   UNL     1       2.361   4.370  -5.241  1.00  0.00     0.152 C 
BRANCH   5   6
ATOM      6  C   UNL     1       2.389   4.670  -3.734  1.00  0.00     0.123 C 
BRANCH   6   7
ATOM      7  C   UNL     1       1.903   3.509  -2.880  1.00  0.00    -0.025 A 
ATOM      8  C   UNL     1       1.047   1.208  -1.517  1.00  0.00     0.118 A 
ATOM      9  C   UNL     1       0.131   2.202  -1.845  1.00  0.00     0.047 A 
ATOM     10  C   UNL     1       2.390   1.351  -1.852  1.00  0.00     0.047 A 
ATOM     11  C   UNL     1       0.562   3.359  -2.496  1.00  0.00     0.010 A 
ATOM     12  C   UNL     1       2.814   2.496  -2.529  1.00  0.00     0.010 A 
BRANCH   8  13
ATOM     13  O   UNL     1       0.567   0.061  -0.950  1.00  0.00    -0.497 OA
ATOM     14  C   UNL     1       1.054  -0.097   0.381  1.00  0.00     0.278 C 
ENDBRANCH   8  13
ENDBRANCH   6   7
BRANCH   6  15
ATOM     15  N   UNL     1       1.796   5.952  -3.367  1.00  0.00    -0.345 N 
ATOM     16  C   UNL     1       2.340   7.039  -2.731  1.00  0.00     0.252 C 
ATOM     17  H   UNL     1       0.849   6.053  -3.617  1.00  0.00     0.164 HD
ATOM     18  O   UNL     1       1.628   7.935  -2.289  1.00  0.00    -0.269 OA
BRANCH  16  19
ATOM     19  C   UNL     1       3.801   7.158  -2.556  1.00  0.00     0.046 A 
ATOM     20  C   UNL     1       4.306   7.460  -1.288  1.00  0.00     0.016 A 
ATOM     21  C   UNL     1       4.668   7.032  -3.641  1.00  0.00     0.101 A 
ATOM     22  C   UNL     1       5.688   7.557  -1.087  1.00  0.00     0.028 A 
ATOM     23  C   UNL     1       6.053   7.114  -3.425  1.00  0.00     0.288 A 
ATOM     24  C   UNL     1       6.576   7.358  -2.152  1.00  0.00     0.118 A 
ATOM     25  Cl  UNL     1       8.261   7.363  -1.776  1.00  0.00    -0.077 Cl
BRANCH  23  26
ATOM     26  N   UNL     1       6.915   6.864  -4.568  1.00  0.00     0.064 N 
ATOM     27  O   UNL     1       7.862   7.631  -4.768  1.00  0.00    -0.258 OA
ATOM     28  O   UNL     1       6.608   5.901  -5.287  1.00  0.00    -0.258 OA
ENDBRANCH  23  26
ENDBRANCH  16  19
ENDBRANCH   6  15
ENDBRANCH   5   6
ENDBRANCH   3   5
ENDBRANCH   2   3
ENDBRANCH   1   2
BRANCH   1  29
ATOM     29  C   UNL     1      -2.224   4.634  -5.582  1.00  0.00     0.275 C 
BRANCH  29  30
ATOM     30  O   UNL     1      -1.848   5.942  -6.045  1.00  0.00    -0.458 OA
BRANCH  30  31
ATOM     31  C   UNL     1      -1.109   6.661  -5.170  1.00  0.00     0.338 C 
ATOM     32  O   UNL     1      -0.777   6.323  -4.047  1.00  0.00    -0.246 OA
BRANCH  31  33
ATOM     33  C   UNL     1      -0.641   7.893  -5.819  1.00  0.00     0.060 A 
ATOM     34  C   UNL     1       0.682   7.966  -6.266  1.00  0.00     0.016 A 
ATOM     35  C   UNL     1      -1.493   8.990  -5.925  1.00  0.00     0.016 A 
ATOM     36  C   UNL     1       1.161   9.142  -6.836  1.00  0.00     0.010 A 
ATOM     37  C   UNL     1      -1.013  10.166  -6.503  1.00  0.00     0.010 A 
ATOM     38  C   UNL     1       0.315  10.250  -6.959  1.00  0.00    -0.014 A 
BRANCH  38  39
ATOM     39  C   UNL     1       0.803  11.521  -7.539  1.00  0.00     0.031 A 
ATOM     40  C   UNL     1       1.027  12.703  -6.644  1.00  0.00     0.074 A 
ATOM     41  C   UNL     1       0.983  11.625  -8.868  1.00  0.00     0.049 A 
ATOM     42  N   UNL     1       1.238  13.952  -6.965  1.00  0.00    -0.248 NA
ATOM     43  C   UNL     1       1.002  12.444  -5.195  1.00  0.00     0.031 C 
ATOM     44  C   UNL     1       0.848  10.530  -9.830  1.00  0.00     0.029 A 
ATOM     45  N   UNL     1       1.291  12.715  -9.642  1.00  0.00    -0.354 N 
ATOM     46  C   UNL     1       1.340  14.637  -5.761  1.00  0.00     0.074 A 
ATOM     47  C   UNL     1       1.163  13.664  -4.703  1.00  0.00     0.031 C 
ATOM     48  C   UNL     1       1.048  11.009 -11.069  1.00  0.00     0.029 A 
ATOM     49  C   UNL     1       1.267  12.450 -10.991  1.00  0.00     0.049 A 
ATOM     50  H   UNL     1       1.507  13.600  -9.269  1.00  0.00     0.167 HD
ATOM     51  C   UNL     1       1.552  15.960  -5.561  1.00  0.00     0.031 A 
ATOM     52  C   UNL     1       1.362  13.282 -12.046  1.00  0.00     0.031 A 
ATOM     53  C   UNL     1       1.712  16.918  -6.622  1.00  0.00     0.049 A 
ATOM     54  C   UNL     1       1.532  14.757 -11.803  1.00  0.00     0.074 A 
ATOM     55  C   UNL     1       1.918  18.283  -6.529  1.00  0.00     0.029 A 
ATOM     56  N   UNL     1       1.688  16.609  -7.975  1.00  0.00    -0.354 N 
ATOM     57  N   UNL     1       1.598  15.399 -10.660  1.00  0.00    -0.248 NA
ATOM     58  C   UNL     1       1.637  15.619 -12.988  1.00  0.00     0.031 C 
ATOM     59  C   UNL     1       1.980  18.805  -7.826  1.00  0.00     0.029 A 
ATOM     60  C   UNL     1       1.864  17.757  -8.726  1.00  0.00     0.049 A 
ATOM     61  H   UNL     1       1.563  15.705  -8.345  1.00  0.00     0.167 HD
ATOM     62  C   UNL     1       1.780  16.738 -10.989  1.00  0.00     0.074 A 
ATOM     63  C   UNL     1       1.818  16.812 -12.435  1.00  0.00     0.031 C 
ATOM     64  C   UNL     1       1.909  17.807 -10.166  1.00  0.00     0.031 A 
BRANCH  51  65
ATOM     65  C   UNL     1       1.573  16.448  -4.137  1.00  0.00    -0.014 A 
ATOM     66  C   UNL     1       2.657  16.168  -3.287  1.00  0.00     0.010 A 
ATOM     67  C   UNL     1       0.496  17.210  -3.648  1.00  0.00     0.010 A 
ATOM     68  C   UNL     1       2.643  16.605  -1.958  1.00  0.00     0.020 A 
ATOM     69  C   UNL     1       0.490  17.669  -2.328  1.00  0.00     0.020 A 
ATOM     70  C   UNL     1       1.556  17.345  -1.485  1.00  0.00     0.054 A 
BRANCH  70  71
ATOM     71  S   UNL     1       1.562  17.902   0.242  1.00  0.00     0.124 S 
ATOM     72  O   UNL     1       1.245  16.668   0.957  1.00  0.00    -0.237 OA
ATOM     73  O   UNL     1       2.926  18.395   0.417  1.00  0.00    -0.237 OA
ATOM     74  O   UNL     1       0.524  18.929   0.279  1.00  0.00    -0.744 OA
ENDBRANCH  70  71
ENDBRANCH  51  65
BRANCH  52  75
ATOM     75  C   UNL     1       1.256  12.738 -13.426  1.00  0.00    -0.014 A 
ATOM     76  C   UNL     1       2.388  12.666 -14.255  1.00  0.00     0.010 A 
ATOM     77  C   UNL     1       0.023  12.258 -13.907  1.00  0.00     0.010 A 
ATOM     78  C   UNL     1       2.288  12.132 -15.543  1.00  0.00     0.020 A 
ATOM     79  C   UNL     1      -0.075  11.700 -15.184  1.00  0.00     0.020 A 
ATOM     80  C   UNL     1       1.058  11.649 -15.999  1.00  0.00     0.054 A 
BRANCH  80  81
ATOM     81  S   UNL     1       0.965  10.899 -17.648  1.00  0.00     0.124 S 
ATOM     82  O   UNL     1       0.985  12.071 -18.517  1.00  0.00    -0.237 OA
ATOM     83  O   UNL     1       2.162  10.063 -17.686  1.00  0.00    -0.237 OA
ATOM     84  O   UNL     1      -0.297  10.162 -17.617  1.00  0.00    -0.744 OA
ENDBRANCH  80  81
ENDBRANCH  52  75
BRANCH  64  85
ATOM     85  C   UNL     1       2.156  19.147 -10.804  1.00  0.00    -0.014 A 
ATOM     86  C   UNL     1       1.119  19.864 -11.424  1.00  0.00     0.010 A 
ATOM     87  C   UNL     1       3.435  19.726 -10.713  1.00  0.00     0.010 A 
ATOM     88  C   UNL     1       1.360  21.133 -11.955  1.00  0.00     0.020 A 
ATOM     89  C   UNL     1       3.675  21.003 -11.225  1.00  0.00     0.020 A 
ATOM     90  C   UNL     1       2.637  21.696 -11.851  1.00  0.00     0.054 A 
BRANCH  90  91
ATOM     91  S   UNL     1       2.912  23.372 -12.489  1.00  0.00     0.124 S 
ATOM     92  O   UNL     1       2.974  23.142 -13.930  1.00  0.00    -0.237 OA
ATOM     93  O   UNL     1       1.732  24.094 -12.018  1.00  0.00    -0.237 OA
ATOM     94  O   UNL     1       4.170  23.777 -11.867  1.00  0.00    -0.744 OA
ENDBRANCH  90  91
ENDBRANCH  64  85
ENDBRANCH  38  39
ENDBRANCH  31  33
ENDBRANCH  30  31
ENDBRANCH  29  30
ENDBRANCH   1  29
TORSDOF 20
