REMARK SMILES CCc1cc(C(=O)c2[nH]c3cc(Cl)ccc3c2CC(=O)OCCOC(=O)c2ccc(-c3c4nc(c(-c5ccc(S(=O)(=O)[O-])cc5)c5ccc([nH]5)c(-c5ccc(S(=O)(=O)[O-])cc5)c5nc(c(-c6ccc(S(=O)(=O)[O-])cc6)c6ccc3[nH]6)C=C5)C=C4)cc2)ncc1Cl
REMARK SMILES IDX 22 1 21 2 19 3 20 4 18 5 17 6 8 7 9 8 10 9 16 11 11 12 15 13
REMARK SMILES IDX 12 14 14 15 13 16 6 17 7 18 5 19 3 20 4 21 89 22 88 23 90 24
REMARK SMILES IDX 87 25 2 26 1 27 23 28 24 29 25 30 26 31 27 32 28 33 86 34
REMARK SMILES IDX 29 35 85 36 30 37 31 38 32 39 79 40 33 41 84 42 78 43 80 44
REMARK SMILES IDX 34 45 83 46 77 47 76 48 35 50 65 51 46 52 64 53 47 54 50 55
REMARK SMILES IDX 63 56 81 57 48 58 49 59 62 61 82 62 51 63 36 64 37 65 45 66
REMARK SMILES IDX 38 67 44 68 39 69 40 70 41 71 42 72 43 73 66 74 67 75 75 76
REMARK SMILES IDX 68 77 74 78 69 79 70 80 71 81 72 82 73 83 52 84 53 85 61 86
REMARK SMILES IDX 54 87 60 88 55 89 56 90 57 91 58 92 59 93
REMARK H PARENT 9 10 80 49 50 60
REMARK Flexibility Score: inf
ROOT
ATOM      1  C   UNL     1       6.788  -5.889   4.399  1.00  0.00     0.274 C 
ENDROOT
BRANCH   1   2
ATOM      2  O   UNL     1       6.216  -4.653   3.921  1.00  0.00    -0.462 OA
BRANCH   2   3
ATOM      3  C   UNL     1       6.791  -4.106   2.821  1.00  0.00     0.310 C 
ATOM      4  O   UNL     1       7.862  -4.479   2.346  1.00  0.00    -0.252 OA
BRANCH   3   5
ATOM      5  C   UNL     1       5.925  -3.090   2.105  1.00  0.00     0.161 C 
BRANCH   5   6
ATOM      6  C   UNL     1       5.023  -2.229   2.933  1.00  0.00     0.000 A 
ATOM      7  C   UNL     1       3.671  -2.413   3.214  1.00  0.00     0.093 A 
ATOM      8  N   UNL     1       3.271  -1.358   3.999  1.00  0.00    -0.351 N 
ATOM      9  C   UNL     1       4.265  -0.423   4.107  1.00  0.00     0.048 A 
ATOM     10  H   UNL     1       2.388  -1.284   4.427  1.00  0.00     0.167 HD
ATOM     11  C   UNL     1       5.400  -0.966   3.510  1.00  0.00     0.004 A 
ATOM     12  C   UNL     1       4.240   0.846   4.695  1.00  0.00     0.047 A 
ATOM     13  C   UNL     1       6.596  -0.216   3.545  1.00  0.00     0.012 A 
ATOM     14  C   UNL     1       5.430   1.574   4.691  1.00  0.00     0.043 A 
ATOM     15  C   UNL     1       6.597   1.053   4.140  1.00  0.00     0.021 A 
ATOM     16  Cl  UNL     1       5.447   3.151   5.386  1.00  0.00    -0.084 Cl
BRANCH   7  17
ATOM     17  C   UNL     1       2.712  -3.460   2.889  1.00  0.00     0.227 C 
ATOM     18  O   UNL     1       2.227  -4.153   3.783  1.00  0.00    -0.285 OA
BRANCH  17  19
ATOM     19  C   UNL     1       2.082  -3.483   1.515  1.00  0.00     0.113 A 
ATOM     20  C   UNL     1       1.069  -2.251  -0.318  1.00  0.00    -0.026 A 
ATOM     21  C   UNL     1       1.946  -2.299   0.782  1.00  0.00     0.037 A 
ATOM     22  C   UNL     1       0.432  -3.445  -0.690  1.00  0.00     0.062 A 
ATOM     23  C   UNL     1       0.667  -4.591   0.059  1.00  0.00     0.132 A 
ATOM     24  Cl  UNL     1      -0.665  -3.536  -2.013  1.00  0.00    -0.082 Cl
ATOM     25  N   UNL     1       1.457  -4.633   1.158  1.00  0.00    -0.251 NA
BRANCH  20  26
ATOM     26  C   UNL     1       0.786  -0.962  -1.065  1.00  0.00     0.034 C 
ATOM     27  C   UNL     1       1.134   0.332  -0.336  1.00  0.00     0.009 C 
ENDBRANCH  20  26
ENDBRANCH  17  19
ENDBRANCH   7  17
ENDBRANCH   5   6
ENDBRANCH   3   5
ENDBRANCH   2   3
ENDBRANCH   1   2
BRANCH   1  28
ATOM     28  C   UNL     1       5.891  -7.085   4.048  1.00  0.00     0.275 C 
BRANCH  28  29
ATOM     29  O   UNL     1       5.871  -7.359   2.631  1.00  0.00    -0.458 OA
BRANCH  29  30
ATOM     30  C   UNL     1       4.946  -6.643   1.960  1.00  0.00     0.338 C 
ATOM     31  O   UNL     1       4.202  -5.794   2.421  1.00  0.00    -0.246 OA
BRANCH  30  32
ATOM     32  C   UNL     1       4.958  -6.893   0.523  1.00  0.00     0.060 A 
ATOM     33  C   UNL     1       5.643  -5.993  -0.297  1.00  0.00     0.016 A 
ATOM     34  C   UNL     1       4.083  -7.837  -0.014  1.00  0.00     0.016 A 
ATOM     35  C   UNL     1       5.413  -6.004  -1.667  1.00  0.00     0.010 A 
ATOM     36  C   UNL     1       3.901  -7.885  -1.396  1.00  0.00     0.010 A 
ATOM     37  C   UNL     1       4.548  -6.956  -2.228  1.00  0.00    -0.014 A 
BRANCH  37  38
ATOM     38  C   UNL     1       4.367  -7.016  -3.696  1.00  0.00     0.031 A 
ATOM     39  C   UNL     1       3.056  -6.660  -4.333  1.00  0.00     0.074 A 
ATOM     40  C   UNL     1       5.404  -7.422  -4.451  1.00  0.00     0.049 A 
ATOM     41  N   UNL     1       2.694  -6.767  -5.585  1.00  0.00    -0.248 NA
ATOM     42  C   UNL     1       2.014  -6.115  -3.449  1.00  0.00     0.031 C 
ATOM     43  C   UNL     1       6.733  -7.770  -3.940  1.00  0.00     0.029 A 
ATOM     44  N   UNL     1       5.502  -7.620  -5.802  1.00  0.00    -0.354 N 
ATOM     45  C   UNL     1       1.378  -6.322  -5.640  1.00  0.00     0.074 A 
ATOM     46  C   UNL     1       1.002  -5.957  -4.292  1.00  0.00     0.031 C 
ATOM     47  C   UNL     1       7.515  -8.133  -4.966  1.00  0.00     0.029 A 
ATOM     48  C   UNL     1       6.725  -8.105  -6.192  1.00  0.00     0.049 A 
ATOM     49  H   UNL     1       4.768  -7.433  -6.431  1.00  0.00     0.167 HD
ATOM     50  C   UNL     1       0.560  -6.231  -6.715  1.00  0.00     0.031 A 
ATOM     51  C   UNL     1       7.154  -8.526  -7.395  1.00  0.00     0.031 A 
ATOM     52  C   UNL     1       0.940  -6.615  -8.049  1.00  0.00     0.049 A 
ATOM     53  C   UNL     1       6.211  -8.487  -8.558  1.00  0.00     0.074 A 
ATOM     54  C   UNL     1       0.189  -6.564  -9.210  1.00  0.00     0.029 A 
ATOM     55  N   UNL     1       2.179  -7.132  -8.397  1.00  0.00    -0.354 N 
ATOM     56  N   UNL     1       4.968  -8.069  -8.590  1.00  0.00    -0.248 NA
ATOM     57  C   UNL     1       6.720  -8.986  -9.840  1.00  0.00     0.031 C 
ATOM     58  C   UNL     1       0.962  -7.087 -10.254  1.00  0.00     0.029 A 
ATOM     59  C   UNL     1       2.208  -7.426  -9.749  1.00  0.00     0.049 A 
ATOM     60  H   UNL     1       2.928  -7.269  -7.773  1.00  0.00     0.167 HD
ATOM     61  C   UNL     1       4.545  -8.251  -9.900  1.00  0.00     0.074 A 
ATOM     62  C   UNL     1       5.670  -8.802 -10.630  1.00  0.00     0.031 C 
ATOM     63  C   UNL     1       3.335  -7.986 -10.448  1.00  0.00     0.031 A 
BRANCH  50  64
ATOM     64  C   UNL     1      -0.841  -5.728  -6.487  1.00  0.00    -0.014 A 
ATOM     65  C   UNL     1      -1.100  -4.360  -6.289  1.00  0.00     0.010 A 
ATOM     66  C   UNL     1      -1.918  -6.632  -6.511  1.00  0.00     0.010 A 
ATOM     67  C   UNL     1      -2.409  -3.909  -6.090  1.00  0.00     0.020 A 
ATOM     68  C   UNL     1      -3.230  -6.183  -6.328  1.00  0.00     0.020 A 
ATOM     69  C   UNL     1      -3.466  -4.825  -6.104  1.00  0.00     0.054 A 
BRANCH  69  70
ATOM     70  S   UNL     1      -5.159  -4.215  -5.868  1.00  0.00     0.124 S 
ATOM     71  O   UNL     1      -5.205  -4.002  -4.424  1.00  0.00    -0.237 OA
ATOM     72  O   UNL     1      -5.184  -3.002  -6.682  1.00  0.00    -0.237 OA
ATOM     73  O   UNL     1      -5.992  -5.309  -6.363  1.00  0.00    -0.744 OA
ENDBRANCH  69  70
ENDBRANCH  50  64
BRANCH  51  74
ATOM     74  C   UNL     1       8.533  -9.060  -7.522  1.00  0.00    -0.014 A 
ATOM     75  C   UNL     1       9.543  -8.292  -8.122  1.00  0.00     0.010 A 
ATOM     76  C   UNL     1       8.856 -10.312  -6.966  1.00  0.00     0.010 A 
ATOM     77  C   UNL     1      10.858  -8.763  -8.157  1.00  0.00     0.020 A 
ATOM     78  C   UNL     1      10.173 -10.776  -6.980  1.00  0.00     0.020 A 
ATOM     79  C   UNL     1      11.165 -10.000  -7.581  1.00  0.00     0.054 A 
BRANCH  79  80
ATOM     80  S   UNL     1      12.893 -10.555  -7.548  1.00  0.00     0.124 S 
ATOM     81  O   UNL     1      13.056 -11.114  -8.885  1.00  0.00    -0.237 OA
ATOM     82  O   UNL     1      13.623  -9.317  -7.286  1.00  0.00    -0.237 OA
ATOM     83  O   UNL     1      12.915 -11.523  -6.453  1.00  0.00    -0.744 OA
ENDBRANCH  79  80
ENDBRANCH  51  74
BRANCH  63  84
ATOM     84  C   UNL     1       3.174  -8.279 -11.911  1.00  0.00    -0.014 A 
ATOM     85  C   UNL     1       2.964  -9.594 -12.361  1.00  0.00     0.010 A 
ATOM     86  C   UNL     1       3.191  -7.224 -12.839  1.00  0.00     0.010 A 
ATOM     87  C   UNL     1       2.795  -9.852 -13.723  1.00  0.00     0.020 A 
ATOM     88  C   UNL     1       3.006  -7.476 -14.200  1.00  0.00     0.020 A 
ATOM     89  C   UNL     1       2.821  -8.791 -14.634  1.00  0.00     0.054 A 
BRANCH  89  90
ATOM     90  S   UNL     1       2.554  -9.139 -16.394  1.00  0.00     0.124 S 
ATOM     91  O   UNL     1       3.869  -9.620 -16.809  1.00  0.00    -0.237 OA
ATOM     92  O   UNL     1       1.495 -10.146 -16.370  1.00  0.00    -0.237 OA
ATOM     93  O   UNL     1       2.160  -7.844 -16.944  1.00  0.00    -0.744 OA
ENDBRANCH  89  90
ENDBRANCH  63  84
ENDBRANCH  37  38
ENDBRANCH  30  32
ENDBRANCH  29  30
ENDBRANCH  28  29
ENDBRANCH   1  28
TORSDOF 18
