REMARK SMILES Cc1ccc(C(=O)OCCOC(=O)c2ccc(-c3c4nc(c(-c5ccc(S(=O)(=O)[O-])cc5)c5ccc([nH]5)c(-c5ccc(S(=O)(=O)[O-])cc5)c5nc(c(-c6ccc(S(=O)(=O)[O-])cc6)c6ccc3[nH]6)C=C5)C=C4)cc2)cc1NC(=O)Cc1ccc2ccccc2c1
REMARK SMILES IDX 9 1 8 2 6 3 7 4 5 5 1 6 2 7 3 8 75 9 4 10 74 11 76 12 77 13
REMARK SMILES IDX 78 15 79 16 80 17 81 18 89 19 82 20 88 21 83 22 87 23 84 24
REMARK SMILES IDX 86 25 85 26 10 27 11 28 12 29 13 30 14 31 15 32 73 33 16 34
REMARK SMILES IDX 72 35 17 36 18 37 19 38 66 39 20 40 71 41 65 42 67 43 21 44
REMARK SMILES IDX 70 45 64 46 63 47 22 49 52 50 33 51 51 52 34 53 37 54 50 55
REMARK SMILES IDX 68 56 35 57 36 58 49 60 69 61 38 62 23 63 24 64 32 65 25 66
REMARK SMILES IDX 31 67 26 68 27 69 28 70 29 71 30 72 53 73 54 74 62 75 55 76
REMARK SMILES IDX 61 77 56 78 57 79 58 80 59 81 60 82 39 83 40 84 48 85 41 86
REMARK SMILES IDX 47 87 42 88 43 89 44 90 45 91 46 92
REMARK H PARENT 76 14 67 48 37 59
REMARK Flexibility Score: inf
ROOT
ATOM      1  C   UNL     1      -4.414   1.940  -2.262  1.00  0.00     0.275 C 
ENDROOT
BRANCH   1   2
ATOM      2  O   UNL     1      -3.115   1.337  -2.417  1.00  0.00    -0.458 OA
BRANCH   2   3
ATOM      3  C   UNL     1      -2.414   1.259  -1.262  1.00  0.00     0.338 C 
ATOM      4  O   UNL     1      -2.753   1.730  -0.184  1.00  0.00    -0.246 OA
BRANCH   3   5
ATOM      5  C   UNL     1      -1.019   0.825  -1.446  1.00  0.00     0.062 A 
ATOM      6  C   UNL     1       2.986   0.489   0.065  1.00  0.00     0.046 C 
ATOM      7  C   UNL     1       1.603   0.678  -0.489  1.00  0.00    -0.027 A 
ATOM      8  C   UNL     1       0.806  -0.483  -0.617  1.00  0.00     0.006 A 
ATOM      9  C   UNL     1       1.041   1.919  -0.836  1.00  0.00     0.044 A 
ATOM     10  C   UNL     1      -0.533  -0.397  -1.008  1.00  0.00     0.016 A 
ATOM     11  C   UNL     1      -0.163   1.913  -1.523  1.00  0.00     0.042 A 
BRANCH   9  12
ATOM     12  N   UNL     1       1.607   3.149  -0.416  1.00  0.00    -0.326 N 
ATOM     13  C   UNL     1       0.983   4.359  -0.108  1.00  0.00     0.228 C 
ATOM     14  H   UNL     1       2.587   3.150  -0.328  1.00  0.00     0.169 HD
ATOM     15  O   UNL     1       1.701   5.308   0.214  1.00  0.00    -0.274 OA
BRANCH  13  16
ATOM     16  C   UNL     1      -0.540   4.436  -0.131  1.00  0.00     0.135 C 
BRANCH  16  17
ATOM     17  C   UNL     1      -1.315   5.671   0.264  1.00  0.00    -0.038 A 
ATOM     18  C   UNL     1      -2.601   5.487   0.800  1.00  0.00     0.005 A 
ATOM     19  C   UNL     1      -0.950   6.951  -0.160  1.00  0.00     0.013 A 
ATOM     20  C   UNL     1      -3.495   6.547   0.935  1.00  0.00     0.009 A 
ATOM     21  C   UNL     1      -1.859   8.023  -0.083  1.00  0.00    -0.018 A 
ATOM     22  C   UNL     1      -3.143   7.819   0.478  1.00  0.00    -0.018 A 
ATOM     23  C   UNL     1      -1.537   9.287  -0.596  1.00  0.00     0.009 A 
ATOM     24  C   UNL     1      -4.055   8.882   0.533  1.00  0.00     0.009 A 
ATOM     25  C   UNL     1      -2.465  10.329  -0.562  1.00  0.00     0.001 A 
ATOM     26  C   UNL     1      -3.720  10.129   0.009  1.00  0.00     0.001 A 
ENDBRANCH  16  17
ENDBRANCH  13  16
ENDBRANCH   9  12
ENDBRANCH   3   5
ENDBRANCH   2   3
ENDBRANCH   1   2
BRANCH   1  27
ATOM     27  C   UNL     1      -5.478   1.274  -3.155  1.00  0.00     0.275 C 
BRANCH  27  28
ATOM     28  O   UNL     1      -5.816  -0.116  -2.938  1.00  0.00    -0.458 OA
BRANCH  28  29
ATOM     29  C   UNL     1      -4.854  -0.916  -2.421  1.00  0.00     0.338 C 
ATOM     30  O   UNL     1      -3.910  -1.351  -3.078  1.00  0.00    -0.246 OA
BRANCH  29  31
ATOM     31  C   UNL     1      -4.962  -0.903  -0.942  1.00  0.00     0.060 A 
ATOM     32  C   UNL     1      -3.876  -1.336  -0.170  1.00  0.00     0.016 A 
ATOM     33  C   UNL     1      -5.989  -0.150  -0.364  1.00  0.00     0.016 A 
ATOM     34  C   UNL     1      -3.738  -0.906   1.144  1.00  0.00     0.010 A 
ATOM     35  C   UNL     1      -5.804   0.374   0.886  1.00  0.00     0.010 A 
ATOM     36  C   UNL     1      -4.697  -0.027   1.645  1.00  0.00    -0.014 A 
BRANCH  36  37
ATOM     37  C   UNL     1      -4.879   0.229   3.059  1.00  0.00     0.031 A 
ATOM     38  C   UNL     1      -4.208   1.344   3.745  1.00  0.00     0.074 A 
ATOM     39  C   UNL     1      -5.880  -0.543   3.540  1.00  0.00     0.049 A 
ATOM     40  N   UNL     1      -4.038   1.425   5.017  1.00  0.00    -0.248 NA
ATOM     41  C   UNL     1      -3.625   2.482   3.034  1.00  0.00     0.031 C 
ATOM     42  C   UNL     1      -6.648  -0.459   4.763  1.00  0.00     0.029 A 
ATOM     43  N   UNL     1      -6.304  -1.762   2.974  1.00  0.00    -0.354 N 
ATOM     44  C   UNL     1      -3.719   2.744   5.295  1.00  0.00     0.074 A 
ATOM     45  C   UNL     1      -3.305   3.311   4.038  1.00  0.00     0.031 C 
ATOM     46  C   UNL     1      -7.131  -1.690   5.030  1.00  0.00     0.029 A 
ATOM     47  C   UNL     1      -6.546  -2.605   4.047  1.00  0.00     0.049 A 
ATOM     48  H   UNL     1      -6.408  -1.970   2.017  1.00  0.00     0.167 HD
ATOM     49  C   UNL     1      -4.082   3.265   6.503  1.00  0.00     0.031 A 
ATOM     50  C   UNL     1      -5.671  -3.623   4.314  1.00  0.00     0.031 A 
ATOM     51  C   UNL     1      -4.714   2.224   7.312  1.00  0.00     0.049 A 
ATOM     52  C   UNL     1      -5.042  -3.376   5.665  1.00  0.00     0.074 A 
ATOM     53  C   UNL     1      -6.050   1.910   7.502  1.00  0.00     0.029 A 
ATOM     54  N   UNL     1      -3.981   1.105   7.689  1.00  0.00    -0.354 N 
ATOM     55  N   UNL     1      -4.704  -2.197   6.119  1.00  0.00    -0.248 NA
ATOM     56  C   UNL     1      -4.880  -4.441   6.646  1.00  0.00     0.031 C 
ATOM     57  C   UNL     1      -6.120   0.544   7.875  1.00  0.00     0.029 A 
ATOM     58  C   UNL     1      -4.830   0.037   7.911  1.00  0.00     0.049 A 
ATOM     59  H   UNL     1      -3.001   1.077   7.784  1.00  0.00     0.167 HD
ATOM     60  C   UNL     1      -4.449  -2.308   7.463  1.00  0.00     0.074 A 
ATOM     61  C   UNL     1      -4.511  -3.738   7.729  1.00  0.00     0.031 C 
ATOM     62  C   UNL     1      -4.300  -1.252   8.315  1.00  0.00     0.031 A 
BRANCH  49  63
ATOM     63  C   UNL     1      -4.243   4.746   6.801  1.00  0.00    -0.014 A 
ATOM     64  C   UNL     1      -5.198   5.137   7.768  1.00  0.00     0.010 A 
ATOM     65  C   UNL     1      -3.550   5.793   6.163  1.00  0.00     0.010 A 
ATOM     66  C   UNL     1      -5.513   6.478   8.023  1.00  0.00     0.020 A 
ATOM     67  C   UNL     1      -3.862   7.149   6.404  1.00  0.00     0.020 A 
ATOM     68  C   UNL     1      -4.855   7.481   7.324  1.00  0.00     0.054 A 
BRANCH  68  69
ATOM     69  S   UNL     1      -5.314   9.204   7.655  1.00  0.00     0.124 S 
ATOM     70  O   UNL     1      -6.722   9.235   7.262  1.00  0.00    -0.237 OA
ATOM     71  O   UNL     1      -5.062   9.329   9.088  1.00  0.00    -0.237 OA
ATOM     72  O   UNL     1      -4.418   9.977   6.798  1.00  0.00    -0.744 OA
ENDBRANCH  68  69
ENDBRANCH  49  63
BRANCH  50  73
ATOM     73  C   UNL     1      -4.978  -4.252   3.134  1.00  0.00    -0.014 A 
ATOM     74  C   UNL     1      -5.779  -4.760   2.081  1.00  0.00     0.010 A 
ATOM     75  C   UNL     1      -3.596  -4.143   2.901  1.00  0.00     0.010 A 
ATOM     76  C   UNL     1      -5.245  -5.045   0.817  1.00  0.00     0.020 A 
ATOM     77  C   UNL     1      -3.048  -4.448   1.635  1.00  0.00     0.020 A 
ATOM     78  C   UNL     1      -3.881  -4.870   0.594  1.00  0.00     0.054 A 
BRANCH  78  79
ATOM     79  S   UNL     1      -3.259  -4.984  -1.118  1.00  0.00     0.124 S 
ATOM     80  O   UNL     1      -3.078  -6.421  -1.289  1.00  0.00    -0.237 OA
ATOM     81  O   UNL     1      -4.356  -4.391  -1.880  1.00  0.00    -0.237 OA
ATOM     82  O   UNL     1      -2.032  -4.190  -1.077  1.00  0.00    -0.744 OA
ENDBRANCH  78  79
ENDBRANCH  50  73
BRANCH  62  83
ATOM     83  C   UNL     1      -3.749  -1.352   9.709  1.00  0.00    -0.014 A 
ATOM     84  C   UNL     1      -2.868  -2.365  10.109  1.00  0.00     0.010 A 
ATOM     85  C   UNL     1      -3.982  -0.290  10.617  1.00  0.00     0.010 A 
ATOM     86  C   UNL     1      -2.305  -2.361  11.388  1.00  0.00     0.020 A 
ATOM     87  C   UNL     1      -3.380  -0.247  11.872  1.00  0.00     0.020 A 
ATOM     88  C   UNL     1      -2.568  -1.304  12.261  1.00  0.00     0.054 A 
BRANCH  88  89
ATOM     89  S   UNL     1      -1.793  -1.291  13.891  1.00  0.00     0.124 S 
ATOM     90  O   UNL     1      -2.699  -2.145  14.655  1.00  0.00    -0.237 OA
ATOM     91  O   UNL     1      -0.472  -1.856  13.626  1.00  0.00    -0.237 OA
ATOM     92  O   UNL     1      -1.796   0.121  14.264  1.00  0.00    -0.744 OA
ENDBRANCH  88  89
ENDBRANCH  62  83
ENDBRANCH  36  37
ENDBRANCH  29  31
ENDBRANCH  28  29
ENDBRANCH  27  28
ENDBRANCH   1  27
TORSDOF 17
