REMARK SMILES CC[C@@H]1SC[C@@H](C(=O)OCCOC(=O)c2ccc(-c3c4nc(c(-c5ccc(S(=O)(=O)[O-])cc5)c5ccc([nH]5)c(-c5ccc(S(=O)(=O)[O-])cc5)c5nc(c(-c6ccc(S(=O)(=O)[O-])cc6)c6ccc3[nH]6)C=C5)C=C4)cc2)N1C(=O)NC1C(C)(C)C1(C)C
REMARK SMILES IDX 11 1 10 2 9 3 7 4 8 5 6 6 3 7 4 8 75 9 5 10 2 11 1 12 76 13
REMARK SMILES IDX 77 14 78 15 79 17 80 18 83 19 81 20 82 21 84 22 85 23 12 24
REMARK SMILES IDX 13 25 14 26 15 27 16 28 74 29 17 30 73 31 18 32 19 33 20 34
REMARK SMILES IDX 67 35 21 36 72 37 66 38 68 39 22 40 71 41 65 42 64 43 23 45
REMARK SMILES IDX 53 46 34 47 52 48 35 49 38 50 51 51 69 52 36 53 37 54 50 56
REMARK SMILES IDX 70 57 39 58 24 59 25 60 33 61 26 62 32 63 27 64 28 65 29 66
REMARK SMILES IDX 30 67 31 68 54 69 55 70 63 71 56 72 62 73 57 74 58 75 59 76
REMARK SMILES IDX 60 77 61 78 40 79 41 80 49 81 42 82 48 83 43 84 44 85 45 86
REMARK SMILES IDX 46 87 47 88
REMARK H PARENT 78 16 68 44 38 55
REMARK Flexibility Score: inf
ROOT
ATOM      1  C   UNL     1       3.722   0.092   3.217  1.00  0.00     0.275 C 
ENDROOT
BRANCH   1   2
ATOM      2  C   UNL     1       2.426   0.895   3.221  1.00  0.00     0.274 C 
BRANCH   2   3
ATOM      3  O   UNL     1       2.223   1.557   1.957  1.00  0.00    -0.461 OA
BRANCH   3   4
ATOM      4  C   UNL     1       2.573   2.876   1.906  1.00  0.00     0.329 C 
ATOM      5  O   UNL     1       3.033   3.502   2.856  1.00  0.00    -0.250 OA
BRANCH   4   6
ATOM      6  C   UNL     1       2.297   3.534   0.533  1.00  0.00     0.208 C 
ATOM      7  C   UNL     1       0.262   2.524  -0.208  1.00  0.00     0.145 C 
ATOM      8  S   UNL     1      -0.253   4.226   0.281  1.00  0.00    -0.134 SA
ATOM      9  N   UNL     1       1.698   2.645  -0.499  1.00  0.00    -0.298 N 
ATOM     10  C   UNL     1       1.406   4.750   0.743  1.00  0.00     0.109 C 
BRANCH   7  11
ATOM     11  C   UNL     1      -0.813   1.996  -1.144  1.00  0.00     0.033 C 
ATOM     12  C   UNL     1      -1.051   0.503  -0.895  1.00  0.00     0.007 C 
ENDBRANCH   7  11
BRANCH   9  13
ATOM     13  C   UNL     1       2.637   1.937  -1.196  1.00  0.00     0.319 C 
ATOM     14  O   UNL     1       3.831   2.021  -0.864  1.00  0.00    -0.249 OA
ATOM     15  N   UNL     1       2.456   1.160  -2.277  1.00  0.00    -0.334 N 
ATOM     16  H   UNL     1       3.267   0.646  -2.497  1.00  0.00     0.165 HD
BRANCH  15  17
ATOM     17  C   UNL     1       1.406   0.888  -3.182  1.00  0.00     0.096 C 
ATOM     18  C   UNL     1       1.384   1.361  -4.623  1.00  0.00    -0.007 C 
ATOM     19  C   UNL     1       1.478  -0.141  -4.301  1.00  0.00    -0.007 C 
ATOM     20  C   UNL     1       0.083   1.962  -5.109  1.00  0.00     0.014 C 
ATOM     21  C   UNL     1       2.583   2.039  -5.249  1.00  0.00     0.014 C 
ATOM     22  C   UNL     1       2.755  -0.904  -4.571  1.00  0.00     0.014 C 
ATOM     23  C   UNL     1       0.254  -1.018  -4.498  1.00  0.00     0.014 C 
ENDBRANCH  15  17
ENDBRANCH   9  13
ENDBRANCH   4   6
ENDBRANCH   3   4
ENDBRANCH   2   3
ENDBRANCH   1   2
BRANCH   1  24
ATOM     24  O   UNL     1       4.822   0.966   2.930  1.00  0.00    -0.458 OA
BRANCH  24  25
ATOM     25  C   UNL     1       5.530   0.671   1.816  1.00  0.00     0.338 C 
ATOM     26  O   UNL     1       5.411  -0.311   1.098  1.00  0.00    -0.246 OA
BRANCH  25  27
ATOM     27  C   UNL     1       6.555   1.706   1.627  1.00  0.00     0.060 A 
ATOM     28  C   UNL     1       6.186   3.001   1.259  1.00  0.00     0.016 A 
ATOM     29  C   UNL     1       7.899   1.364   1.753  1.00  0.00     0.016 A 
ATOM     30  C   UNL     1       7.160   3.952   0.968  1.00  0.00     0.010 A 
ATOM     31  C   UNL     1       8.877   2.330   1.510  1.00  0.00     0.010 A 
ATOM     32  C   UNL     1       8.515   3.623   1.090  1.00  0.00    -0.014 A 
BRANCH  32  33
ATOM     33  C   UNL     1       9.564   4.600   0.707  1.00  0.00     0.031 A 
ATOM     34  C   UNL     1      10.422   4.323  -0.497  1.00  0.00     0.074 A 
ATOM     35  C   UNL     1       9.746   5.724   1.426  1.00  0.00     0.049 A 
ATOM     36  N   UNL     1      11.504   4.937  -0.899  1.00  0.00    -0.248 NA
ATOM     37  C   UNL     1      10.009   3.203  -1.360  1.00  0.00     0.031 C 
ATOM     38  C   UNL     1       8.938   6.139   2.575  1.00  0.00     0.029 A 
ATOM     39  N   UNL     1      10.680   6.722   1.298  1.00  0.00    -0.354 N 
ATOM     40  C   UNL     1      11.919   4.261  -2.040  1.00  0.00     0.074 A 
ATOM     41  C   UNL     1      10.980   3.183  -2.262  1.00  0.00     0.031 C 
ATOM     42  C   UNL     1       9.411   7.306   3.044  1.00  0.00     0.029 A 
ATOM     43  C   UNL     1      10.590   7.687   2.273  1.00  0.00     0.049 A 
ATOM     44  H   UNL     1      11.349   6.745   0.576  1.00  0.00     0.167 HD
ATOM     45  C   UNL     1      12.988   4.518  -2.831  1.00  0.00     0.031 A 
ATOM     46  C   UNL     1      11.393   8.734   2.542  1.00  0.00     0.031 A 
ATOM     47  C   UNL     1      13.909   5.601  -2.612  1.00  0.00     0.049 A 
ATOM     48  C   UNL     1      12.609   8.962   1.685  1.00  0.00     0.074 A 
ATOM     49  C   UNL     1      15.043   5.929  -3.335  1.00  0.00     0.029 A 
ATOM     50  N   UNL     1      13.790   6.546  -1.604  1.00  0.00    -0.354 N 
ATOM     51  N   UNL     1      13.026   8.277   0.647  1.00  0.00    -0.248 NA
ATOM     52  C   UNL     1      13.468  10.100   2.042  1.00  0.00     0.031 C 
ATOM     53  C   UNL     1      15.625   7.056  -2.747  1.00  0.00     0.029 A 
ATOM     54  C   UNL     1      14.829   7.456  -1.685  1.00  0.00     0.049 A 
ATOM     55  H   UNL     1      13.072   6.566  -0.930  1.00  0.00     0.167 HD
ATOM     56  C   UNL     1      14.184   8.912   0.216  1.00  0.00     0.074 A 
ATOM     57  C   UNL     1      14.392  10.047   1.092  1.00  0.00     0.031 C 
ATOM     58  C   UNL     1      15.007   8.585  -0.810  1.00  0.00     0.031 A 
BRANCH  45  59
ATOM     59  C   UNL     1      13.234   3.598  -3.995  1.00  0.00    -0.014 A 
ATOM     60  C   UNL     1      12.443   3.669  -5.155  1.00  0.00     0.010 A 
ATOM     61  C   UNL     1      14.306   2.688  -3.949  1.00  0.00     0.010 A 
ATOM     62  C   UNL     1      12.707   2.830  -6.242  1.00  0.00     0.020 A 
ATOM     63  C   UNL     1      14.587   1.864  -5.042  1.00  0.00     0.020 A 
ATOM     64  C   UNL     1      13.778   1.932  -6.178  1.00  0.00     0.054 A 
BRANCH  64  65
ATOM     65  S   UNL     1      14.126   0.887  -7.620  1.00  0.00     0.124 S 
ATOM     66  O   UNL     1      13.050  -0.099  -7.544  1.00  0.00    -0.237 OA
ATOM     67  O   UNL     1      14.035   1.830  -8.731  1.00  0.00    -0.237 OA
ATOM     68  O   UNL     1      15.465   0.367  -7.356  1.00  0.00    -0.744 OA
ENDBRANCH  64  65
ENDBRANCH  45  59
BRANCH  46  69
ATOM     69  C   UNL     1      11.113   9.615   3.709  1.00  0.00    -0.014 A 
ATOM     70  C   UNL     1      10.714  10.950   3.524  1.00  0.00     0.010 A 
ATOM     71  C   UNL     1      11.273   9.124   5.018  1.00  0.00     0.010 A 
ATOM     72  C   UNL     1      10.512  11.788   4.626  1.00  0.00     0.020 A 
ATOM     73  C   UNL     1      11.044   9.950   6.122  1.00  0.00     0.020 A 
ATOM     74  C   UNL     1      10.684  11.283   5.918  1.00  0.00     0.054 A 
BRANCH  74  75
ATOM     75  S   UNL     1      10.401  12.376   7.338  1.00  0.00     0.124 S 
ATOM     76  O   UNL     1      11.642  13.143   7.381  1.00  0.00    -0.237 OA
ATOM     77  O   UNL     1       9.210  13.121   6.937  1.00  0.00    -0.237 OA
ATOM     78  O   UNL     1      10.198  11.446   8.447  1.00  0.00    -0.744 OA
ENDBRANCH  74  75
ENDBRANCH  46  69
BRANCH  58  79
ATOM     79  C   UNL     1      16.178   9.491  -1.069  1.00  0.00    -0.014 A 
ATOM     80  C   UNL     1      17.313   9.466  -0.241  1.00  0.00     0.010 A 
ATOM     81  C   UNL     1      16.160  10.343  -2.189  1.00  0.00     0.010 A 
ATOM     82  C   UNL     1      18.401  10.301  -0.512  1.00  0.00     0.020 A 
ATOM     83  C   UNL     1      17.254  11.162  -2.475  1.00  0.00     0.020 A 
ATOM     84  C   UNL     1      18.363  11.146  -1.626  1.00  0.00     0.054 A 
BRANCH  84  85
ATOM     85  S   UNL     1      19.803  12.189  -1.984  1.00  0.00     0.124 S 
ATOM     86  O   UNL     1      19.652  13.260  -1.004  1.00  0.00    -0.237 OA
ATOM     87  O   UNL     1      20.924  11.281  -1.756  1.00  0.00    -0.237 OA
ATOM     88  O   UNL     1      19.604  12.585  -3.377  1.00  0.00    -0.744 OA
ENDBRANCH  84  85
ENDBRANCH  58  79
ENDBRANCH  32  33
ENDBRANCH  25  27
ENDBRANCH  24  25
ENDBRANCH   1  24
TORSDOF 17
