REMARK SMILES COc1ccc(CNC(=O)[C@H]2CC(C)=C(C)C[C@@H]2C(=O)OCCOC(=O)c2ccc(-c3c4nc(c(-c5ccc(S(=O)(=O)[O-])cc5)c5ccc([nH]5)c(-c5ccc(S(=O)(=O)[O-])cc5)c5nc(c(-c6ccc(S(=O)(=O)[O-])cc6)c6ccc3[nH]6)C=C5)C=C4)cc2)cc1OC
REMARK SMILES IDX 22 1 21 2 19 3 20 4 18 5 11 6 12 7 13 8 17 9 14 10 15 11
REMARK SMILES IDX 16 12 9 13 8 14 10 16 7 17 6 18 3 19 4 20 88 21 5 22 87 23
REMARK SMILES IDX 2 24 1 25 89 26 90 27 23 28 24 29 25 30 26 31 27 32 28 33
REMARK SMILES IDX 86 34 29 35 85 36 30 37 31 38 32 39 79 40 33 41 84 42 78 43
REMARK SMILES IDX 80 44 34 45 83 46 77 47 76 48 35 50 65 51 46 52 64 53 47 54
REMARK SMILES IDX 50 55 63 56 81 57 48 58 49 59 62 61 82 62 51 63 36 64 37 65
REMARK SMILES IDX 45 66 38 67 44 68 39 69 40 70 41 71 42 72 43 73 66 74 67 75
REMARK SMILES IDX 75 76 68 77 74 78 69 79 70 80 71 81 72 82 73 83 52 84 53 85
REMARK SMILES IDX 61 86 54 87 60 88 55 89 56 90 57 91 58 92 59 93
REMARK H PARENT 8 15 80 49 50 60
REMARK Flexibility Score: inf
ROOT
ATOM      1  C   UNL     1       1.526   1.692  11.882  1.00  0.00     0.274 C 
ENDROOT
BRANCH   1   2
ATOM      2  O   UNL     1       1.056   2.204  10.617  1.00  0.00    -0.462 OA
BRANCH   2   3
ATOM      3  C   UNL     1       1.303   1.403   9.550  1.00  0.00     0.310 C 
ATOM      4  O   UNL     1       1.806   0.286   9.635  1.00  0.00    -0.252 OA
BRANCH   3   5
ATOM      5  C   UNL     1       1.033   2.039   8.193  1.00  0.00     0.116 C 
ATOM      6  C   UNL     1       0.548   3.485   8.167  1.00  0.00     0.097 C 
ATOM      7  C   UNL     1      -0.985   3.599   8.221  1.00  0.00     0.045 C 
ATOM      8  C   UNL     1      -1.709   2.691   7.260  1.00  0.00    -0.074 C 
ATOM      9  C   UNL     1       0.202   1.073   7.321  1.00  0.00     0.046 C 
ATOM     10  C   UNL     1      -3.074   3.179   6.845  1.00  0.00     0.039 C 
ATOM     11  C   UNL     1      -1.159   1.531   6.852  1.00  0.00    -0.073 C 
ATOM     12  C   UNL     1      -1.854   0.578   5.910  1.00  0.00     0.039 C 
BRANCH   6  13
ATOM     13  C   UNL     1       1.060   4.434   7.071  1.00  0.00     0.224 C 
ATOM     14  N   UNL     1       1.604   4.103   5.879  1.00  0.00    -0.352 N 
ATOM     15  H   UNL     1       1.484   4.809   5.204  1.00  0.00     0.163 HD
ATOM     16  O   UNL     1       0.911   5.654   7.244  1.00  0.00    -0.275 OA
BRANCH  14  17
ATOM     17  C   UNL     1       2.320   2.957   5.358  1.00  0.00     0.151 C 
BRANCH  17  18
ATOM     18  C   UNL     1       1.894   2.529   3.981  1.00  0.00    -0.025 A 
ATOM     19  C   UNL     1       1.190   1.499   1.453  1.00  0.00     0.160 A 
ATOM     20  C   UNL     1       0.221   2.079   2.286  1.00  0.00     0.051 A 
ATOM     21  C   UNL     1       2.523   1.442   1.872  1.00  0.00     0.161 A 
ATOM     22  C   UNL     1       0.566   2.575   3.547  1.00  0.00     0.009 A 
ATOM     23  C   UNL     1       2.854   1.953   3.133  1.00  0.00     0.056 A 
BRANCH  19  24
ATOM     24  O   UNL     1       0.828   1.076   0.202  1.00  0.00    -0.493 OA
ATOM     25  C   UNL     1      -0.120   0.008   0.250  1.00  0.00     0.278 C 
ENDBRANCH  19  24
BRANCH  21  26
ATOM     26  O   UNL     1       3.610   0.945   1.205  1.00  0.00    -0.493 OA
ATOM     27  C   UNL     1       3.379   0.097   0.090  1.00  0.00     0.278 C 
ENDBRANCH  21  26
ENDBRANCH  17  18
ENDBRANCH  14  17
ENDBRANCH   6  13
ENDBRANCH   3   5
ENDBRANCH   2   3
ENDBRANCH   1   2
BRANCH   1  28
ATOM     28  C   UNL     1       0.404   1.039  12.684  1.00  0.00     0.275 C 
BRANCH  28  29
ATOM     29  O   UNL     1      -0.202  -0.019  11.923  1.00  0.00    -0.458 OA
BRANCH  29  30
ATOM     30  C   UNL     1      -1.536   0.092  11.729  1.00  0.00     0.338 C 
ATOM     31  O   UNL     1      -2.271   0.949  12.200  1.00  0.00    -0.246 OA
BRANCH  30  32
ATOM     32  C   UNL     1      -2.032  -0.966  10.824  1.00  0.00     0.060 A 
ATOM     33  C   UNL     1      -1.311  -1.333   9.692  1.00  0.00     0.016 A 
ATOM     34  C   UNL     1      -3.308  -1.490  11.021  1.00  0.00     0.016 A 
ATOM     35  C   UNL     1      -1.925  -2.080   8.683  1.00  0.00     0.010 A 
ATOM     36  C   UNL     1      -3.868  -2.351  10.068  1.00  0.00     0.010 A 
ATOM     37  C   UNL     1      -3.218  -2.603   8.846  1.00  0.00    -0.014 A 
BRANCH  37  38
ATOM     38  C   UNL     1      -3.922  -3.330   7.737  1.00  0.00     0.031 A 
ATOM     39  C   UNL     1      -5.335  -2.939   7.345  1.00  0.00     0.074 A 
ATOM     40  C   UNL     1      -3.329  -4.325   7.042  1.00  0.00     0.049 A 
ATOM     41  N   UNL     1      -6.202  -3.593   6.611  1.00  0.00    -0.248 NA
ATOM     42  C   UNL     1      -5.848  -1.663   7.870  1.00  0.00     0.031 C 
ATOM     43  C   UNL     1      -1.962  -4.810   7.231  1.00  0.00     0.029 A 
ATOM     44  N   UNL     1      -3.806  -5.098   6.006  1.00  0.00    -0.354 N 
ATOM     45  C   UNL     1      -7.391  -2.872   6.689  1.00  0.00     0.074 A 
ATOM     46  C   UNL     1      -7.124  -1.713   7.513  1.00  0.00     0.031 C 
ATOM     47  C   UNL     1      -1.679  -5.722   6.288  1.00  0.00     0.029 A 
ATOM     48  C   UNL     1      -2.880  -5.981   5.502  1.00  0.00     0.049 A 
ATOM     49  H   UNL     1      -4.724  -5.024   5.659  1.00  0.00     0.167 HD
ATOM     50  C   UNL     1      -8.598  -3.156   6.140  1.00  0.00     0.031 A 
ATOM     51  C   UNL     1      -2.982  -6.926   4.546  1.00  0.00     0.031 A 
ATOM     52  C   UNL     1      -8.843  -4.242   5.227  1.00  0.00     0.049 A 
ATOM     53  C   UNL     1      -4.312  -7.193   3.903  1.00  0.00     0.074 A 
ATOM     54  C   UNL     1     -10.031  -4.597   4.608  1.00  0.00     0.029 A 
ATOM     55  N   UNL     1      -7.877  -5.119   4.763  1.00  0.00    -0.354 N 
ATOM     56  N   UNL     1      -5.457  -6.586   4.098  1.00  0.00    -0.248 NA
ATOM     57  C   UNL     1      -4.369  -8.300   2.937  1.00  0.00     0.031 C 
ATOM     58  C   UNL     1      -9.785  -5.701   3.782  1.00  0.00     0.029 A 
ATOM     59  C   UNL     1      -8.437  -6.008   3.862  1.00  0.00     0.049 A 
ATOM     60  H   UNL     1      -6.931  -5.111   5.035  1.00  0.00     0.167 HD
ATOM     61  C   UNL     1      -6.374  -7.248   3.290  1.00  0.00     0.074 A 
ATOM     62  C   UNL     1      -5.644  -8.275   2.576  1.00  0.00     0.031 C 
ATOM     63  C   UNL     1      -7.707  -7.034   3.166  1.00  0.00     0.031 A 
BRANCH  50  64
ATOM     64  C   UNL     1      -9.770  -2.308   6.558  1.00  0.00    -0.014 A 
ATOM     65  C   UNL     1      -9.960  -1.004   6.072  1.00  0.00     0.010 A 
ATOM     66  C   UNL     1     -10.726  -2.859   7.433  1.00  0.00     0.010 A 
ATOM     67  C   UNL     1     -11.064  -0.250   6.488  1.00  0.00     0.020 A 
ATOM     68  C   UNL     1     -11.842  -2.119   7.831  1.00  0.00     0.020 A 
ATOM     69  C   UNL     1     -11.993  -0.810   7.370  1.00  0.00     0.054 A 
BRANCH  69  70
ATOM     70  S   UNL     1     -13.428   0.176   7.884  1.00  0.00     0.124 S 
ATOM     71  O   UNL     1     -12.848   1.035   8.913  1.00  0.00    -0.237 OA
ATOM     72  O   UNL     1     -13.817   0.852   6.649  1.00  0.00    -0.237 OA
ATOM     73  O   UNL     1     -14.378  -0.823   8.367  1.00  0.00    -0.744 OA
ENDBRANCH  69  70
ENDBRANCH  50  64
BRANCH  51  74
ATOM     74  C   UNL     1      -1.787  -7.730   4.171  1.00  0.00    -0.014 A 
ATOM     75  C   UNL     1      -1.157  -7.524   2.932  1.00  0.00     0.010 A 
ATOM     76  C   UNL     1      -1.254  -8.678   5.063  1.00  0.00     0.010 A 
ATOM     77  C   UNL     1      -0.009  -8.246   2.593  1.00  0.00     0.020 A 
ATOM     78  C   UNL     1      -0.091  -9.381   4.740  1.00  0.00     0.020 A 
ATOM     79  C   UNL     1       0.521  -9.164   3.503  1.00  0.00     0.054 A 
BRANCH  79  80
ATOM     80  S   UNL     1       2.069 -10.020   3.097  1.00  0.00     0.124 S 
ATOM     81  O   UNL     1       1.594 -11.133   2.282  1.00  0.00    -0.237 OA
ATOM     82  O   UNL     1       2.828  -8.993   2.388  1.00  0.00    -0.237 OA
ATOM     83  O   UNL     1       2.605 -10.383   4.407  1.00  0.00    -0.744 OA
ENDBRANCH  79  80
ENDBRANCH  51  74
BRANCH  63  84
ATOM     84  C   UNL     1      -8.453  -7.923   2.211  1.00  0.00    -0.014 A 
ATOM     85  C   UNL     1      -8.764  -9.251   2.557  1.00  0.00     0.010 A 
ATOM     86  C   UNL     1      -8.848  -7.427   0.957  1.00  0.00     0.010 A 
ATOM     87  C   UNL     1      -9.419 -10.082   1.644  1.00  0.00     0.020 A 
ATOM     88  C   UNL     1      -9.519  -8.250   0.049  1.00  0.00     0.020 A 
ATOM     89  C   UNL     1      -9.782  -9.579   0.391  1.00  0.00     0.054 A 
BRANCH  89  90
ATOM     90  S   UNL     1     -10.632 -10.671  -0.783  1.00  0.00     0.124 S 
ATOM     91  O   UNL     1      -9.522 -11.445  -1.333  1.00  0.00    -0.237 OA
ATOM     92  O   UNL     1     -11.554 -11.415   0.072  1.00  0.00    -0.237 OA
ATOM     93  O   UNL     1     -11.269  -9.744  -1.715  1.00  0.00    -0.744 OA
ENDBRANCH  89  90
ENDBRANCH  63  84
ENDBRANCH  37  38
ENDBRANCH  30  32
ENDBRANCH  29  30
ENDBRANCH  28  29
ENDBRANCH   1  28
TORSDOF 19
