REMARK SMILES CC(C)c1ccc([C@]2(C(=O)OCCOC(=O)c3ccc(-c4c5nc(c(-c6ccc(S(=O)(=O)[O-])cc6)c6ccc([nH]6)c(-c6ccc(S(=O)(=O)[O-])cc6)c6nc(c(-c7ccc(S(=O)(=O)[O-])cc7)c7ccc4[nH]7)C=C6)C=C5)cc3)CCC[C@@H]2C)cc1
REMARK SMILES IDX 13 1 12 2 11 3 9 4 10 5 8 6 77 7 80 8 78 9 79 10 81 11 7 12
REMARK SMILES IDX 4 13 5 14 83 15 6 16 82 17 2 18 1 19 3 20 14 21 15 22 16 23
REMARK SMILES IDX 17 24 18 25 76 26 19 27 75 28 20 29 21 30 22 31 69 32 23 33
REMARK SMILES IDX 74 34 68 35 70 36 24 37 73 38 67 39 66 40 25 42 55 43 36 44
REMARK SMILES IDX 54 45 37 46 40 47 53 48 71 49 38 50 39 51 52 53 72 54 41 55
REMARK SMILES IDX 26 56 27 57 35 58 28 59 34 60 29 61 30 62 31 63 32 64 33 65
REMARK SMILES IDX 56 66 57 67 65 68 58 69 64 70 59 71 60 72 61 73 62 74 63 75
REMARK SMILES IDX 42 76 43 77 51 78 44 79 50 80 45 81 46 82 47 83 48 84 49 85
REMARK H PARENT 70 41 40 52
REMARK Flexibility Score: inf
ROOT
ATOM      1  C   UNL     1      -6.668  -1.583   3.319  1.00  0.00     0.275 C 
ENDROOT
BRANCH   1   2
ATOM      2  C   UNL     1      -7.134  -0.152   3.082  1.00  0.00     0.274 C 
BRANCH   2   3
ATOM      3  O   UNL     1      -6.702   0.298   1.783  1.00  0.00    -0.461 OA
BRANCH   3   4
ATOM      4  C   UNL     1      -5.766   1.289   1.746  1.00  0.00     0.316 C 
ATOM      5  O   UNL     1      -5.277   1.796   2.750  1.00  0.00    -0.251 OA
BRANCH   4   6
ATOM      6  C   UNL     1      -5.464   1.778   0.296  1.00  0.00     0.095 C 
ATOM      7  C   UNL     1      -6.240   0.968  -0.776  1.00  0.00     0.024 C 
ATOM      8  C   UNL     1      -6.141   3.182   0.152  1.00  0.00     0.008 C 
ATOM      9  C   UNL     1      -7.661   1.537  -0.814  1.00  0.00     0.002 C 
ATOM     10  C   UNL     1      -7.629   2.833  -0.010  1.00  0.00     0.005 C 
ATOM     11  C   UNL     1      -5.677   4.020  -1.048  1.00  0.00     0.009 C 
BRANCH   6  12
ATOM     12  C   UNL     1      -3.942   1.781   0.080  1.00  0.00    -0.030 A 
ATOM     13  C   UNL     1      -1.100   1.798  -0.273  1.00  0.00    -0.045 A 
ATOM     14  C   UNL     1      -1.741   2.760   0.521  1.00  0.00     0.004 A 
ATOM     15  C   UNL     1      -1.900   0.822  -0.876  1.00  0.00     0.004 A 
ATOM     16  C   UNL     1      -3.131   2.749   0.698  1.00  0.00     0.005 A 
ATOM     17  C   UNL     1      -3.292   0.805  -0.692  1.00  0.00     0.005 A 
BRANCH  13  18
ATOM     18  C   UNL     1       0.422   1.821  -0.377  1.00  0.00     0.013 C 
ATOM     19  C   UNL     1       1.050   0.575  -1.009  1.00  0.00     0.012 C 
ATOM     20  C   UNL     1       0.911   3.060  -1.133  1.00  0.00     0.012 C 
ENDBRANCH  13  18
ENDBRANCH   6  12
ENDBRANCH   4   6
ENDBRANCH   3   4
ENDBRANCH   2   3
ENDBRANCH   1   2
BRANCH   1  21
ATOM     21  O   UNL     1      -5.234  -1.592   3.410  1.00  0.00    -0.458 OA
BRANCH  21  22
ATOM     22  C   UNL     1      -4.583  -2.299   2.461  1.00  0.00     0.338 C 
ATOM     23  O   UNL     1      -5.070  -3.015   1.600  1.00  0.00    -0.246 OA
BRANCH  22  24
ATOM     24  C   UNL     1      -3.139  -2.067   2.604  1.00  0.00     0.060 A 
ATOM     25  C   UNL     1      -2.639  -0.776   2.471  1.00  0.00     0.016 A 
ATOM     26  C   UNL     1      -2.268  -3.146   2.760  1.00  0.00     0.016 A 
ATOM     27  C   UNL     1      -1.264  -0.574   2.401  1.00  0.00     0.010 A 
ATOM     28  C   UNL     1      -0.884  -2.923   2.774  1.00  0.00     0.010 A 
ATOM     29  C   UNL     1      -0.361  -1.639   2.542  1.00  0.00    -0.014 A 
BRANCH  29  30
ATOM     30  C   UNL     1       1.103  -1.409   2.354  1.00  0.00     0.031 A 
ATOM     31  C   UNL     1       1.861  -2.152   1.277  1.00  0.00     0.074 A 
ATOM     32  C   UNL     1       1.752  -0.466   3.071  1.00  0.00     0.049 A 
ATOM     33  N   UNL     1       3.144  -2.139   1.011  1.00  0.00    -0.248 NA
ATOM     34  C   UNL     1       1.075  -3.006   0.369  1.00  0.00     0.031 C 
ATOM     35  C   UNL     1       1.149   0.388   4.097  1.00  0.00     0.029 A 
ATOM     36  N   UNL     1       3.061  -0.045   3.022  1.00  0.00    -0.354 N 
ATOM     37  C   UNL     1       3.321  -3.002  -0.064  1.00  0.00     0.074 A 
ATOM     38  C   UNL     1       2.017  -3.529  -0.402  1.00  0.00     0.031 C 
ATOM     39  C   UNL     1       2.063   1.269   4.530  1.00  0.00     0.029 A 
ATOM     40  C   UNL     1       3.342   0.986   3.888  1.00  0.00     0.049 A 
ATOM     41  H   UNL     1       3.733  -0.444   2.424  1.00  0.00     0.167 HD
ATOM     42  C   UNL     1       4.461  -3.328  -0.720  1.00  0.00     0.031 A 
ATOM     43  C   UNL     1       4.500   1.615   4.171  1.00  0.00     0.031 A 
ATOM     44  C   UNL     1       5.761  -2.795  -0.415  1.00  0.00     0.049 A 
ATOM     45  C   UNL     1       5.767   1.171   3.498  1.00  0.00     0.074 A 
ATOM     46  C   UNL     1       6.978  -3.106  -0.998  1.00  0.00     0.029 A 
ATOM     47  N   UNL     1       6.014  -1.827   0.543  1.00  0.00    -0.354 N 
ATOM     48  N   UNL     1       5.927   0.273   2.557  1.00  0.00    -0.248 NA
ATOM     49  C   UNL     1       7.015   1.804   3.951  1.00  0.00     0.031 C 
ATOM     50  C   UNL     1       7.973  -2.350  -0.367  1.00  0.00     0.029 A 
ATOM     51  C   UNL     1       7.368  -1.540   0.579  1.00  0.00     0.049 A 
ATOM     52  H   UNL     1       5.331  -1.406   1.114  1.00  0.00     0.167 HD
ATOM     53  C   UNL     1       7.295   0.221   2.316  1.00  0.00     0.074 A 
ATOM     54  C   UNL     1       7.914   1.202   3.183  1.00  0.00     0.031 C 
ATOM     55  C   UNL     1       7.977  -0.579   1.461  1.00  0.00     0.031 A 
BRANCH  42  56
ATOM     56  C   UNL     1       4.357  -4.353  -1.816  1.00  0.00    -0.014 A 
ATOM     57  C   UNL     1       3.874  -4.010  -3.091  1.00  0.00     0.010 A 
ATOM     58  C   UNL     1       4.780  -5.671  -1.571  1.00  0.00     0.010 A 
ATOM     59  C   UNL     1       3.787  -4.979  -4.094  1.00  0.00     0.020 A 
ATOM     60  C   UNL     1       4.711  -6.638  -2.577  1.00  0.00     0.020 A 
ATOM     61  C   UNL     1       4.200  -6.290  -3.828  1.00  0.00     0.054 A 
BRANCH  61  62
ATOM     62  S   UNL     1       4.092  -7.528  -5.150  1.00  0.00     0.124 S 
ATOM     63  O   UNL     1       2.662  -7.826  -5.166  1.00  0.00    -0.237 OA
ATOM     64  O   UNL     1       4.595  -6.803  -6.314  1.00  0.00    -0.237 OA
ATOM     65  O   UNL     1       4.949  -8.613  -4.678  1.00  0.00    -0.744 OA
ENDBRANCH  61  62
ENDBRANCH  42  56
BRANCH  43  66
ATOM     66  C   UNL     1       4.523   2.688   5.202  1.00  0.00    -0.014 A 
ATOM     67  C   UNL     1       4.727   4.030   4.840  1.00  0.00     0.010 A 
ATOM     68  C   UNL     1       4.314   2.367   6.557  1.00  0.00     0.010 A 
ATOM     69  C   UNL     1       4.714   5.034   5.814  1.00  0.00     0.020 A 
ATOM     70  C   UNL     1       4.274   3.369   7.528  1.00  0.00     0.020 A 
ATOM     71  C   UNL     1       4.483   4.697   7.151  1.00  0.00     0.054 A 
BRANCH  71  72
ATOM     72  S   UNL     1       4.378   6.014   8.396  1.00  0.00     0.124 S 
ATOM     73  O   UNL     1       5.782   6.225   8.731  1.00  0.00    -0.237 OA
ATOM     74  O   UNL     1       3.731   7.100   7.666  1.00  0.00    -0.237 OA
ATOM     75  O   UNL     1       3.563   5.413   9.451  1.00  0.00    -0.744 OA
ENDBRANCH  71  72
ENDBRANCH  43  66
BRANCH  55  76
ATOM     76  C   UNL     1       9.472  -0.436   1.429  1.00  0.00    -0.014 A 
ATOM     77  C   UNL     1      10.265  -0.986   2.452  1.00  0.00     0.010 A 
ATOM     78  C   UNL     1      10.094   0.217   0.351  1.00  0.00     0.010 A 
ATOM     79  C   UNL     1      11.656  -0.861   2.412  1.00  0.00     0.020 A 
ATOM     80  C   UNL     1      11.486   0.328   0.298  1.00  0.00     0.020 A 
ATOM     81  C   UNL     1      12.258  -0.200   1.336  1.00  0.00     0.054 A 
BRANCH  81  82
ATOM     82  S   UNL     1      14.067  -0.078   1.284  1.00  0.00     0.124 S 
ATOM     83  O   UNL     1      14.325   1.011   2.221  1.00  0.00    -0.237 OA
ATOM     84  O   UNL     1      14.495  -1.403   1.727  1.00  0.00    -0.237 OA
ATOM     85  O   UNL     1      14.351   0.223  -0.118  1.00  0.00    -0.744 OA
ENDBRANCH  81  82
ENDBRANCH  55  76
ENDBRANCH  29  30
ENDBRANCH  22  24
ENDBRANCH  21  22
ENDBRANCH   1  21
TORSDOF 16
