REMARK SMILES C[N@H+](CCC(=O)Nc1sccc1C#N)CC(=O)OCCOC(=O)c1ccc(-c2c3nc(c(-c4ccc(S(=O)(=O)[O-])cc4)c4ccc([nH]4)c(-c4ccc(S(=O)(=O)[O-])cc4)c4nc(c(-c5ccc(S(=O)(=O)[O-])cc5)c5ccc2[nH]5)C=C4)C=C3)cc1
REMARK SMILES IDX 18 1 16 2 17 3 15 4 2 5 1 6 3 8 4 9 5 10 6 11 7 12 8 14 9 15
REMARK SMILES IDX 12 16 10 17 11 18 13 19 14 20 19 21 20 22 21 23 22 24 23 25
REMARK SMILES IDX 24 26 25 27 83 28 26 29 82 30 27 31 28 32 29 33 76 34 30 35
REMARK SMILES IDX 81 36 75 37 77 38 31 39 80 40 74 41 73 42 32 44 62 45 43 46
REMARK SMILES IDX 61 47 44 48 47 49 60 50 78 51 45 52 46 53 59 55 79 56 48 57
REMARK SMILES IDX 33 58 34 59 42 60 35 61 41 62 36 63 37 64 38 65 39 66 40 67
REMARK SMILES IDX 63 68 64 69 72 70 65 71 71 72 66 73 67 74 68 75 69 76 70 77
REMARK SMILES IDX 49 78 50 79 58 80 51 81 57 82 52 83 53 84 54 85 55 86 56 87
REMARK H PARENT 2 7 7 13 77 43 47 54
REMARK Flexibility Score: inf
ROOT
ATOM      1  O   UNL     1      -1.192  -1.868   2.260  1.00  0.00    -0.458 OA
ENDROOT
BRANCH   1   2
ATOM      2  C   UNL     1      -0.163  -0.980   2.251  1.00  0.00     0.361 C 
ATOM      3  O   UNL     1       0.495  -0.660   3.232  1.00  0.00    -0.245 OA
BRANCH   2   4
ATOM      4  C   UNL     1       0.113  -0.492   0.846  1.00  0.00     0.386 C 
BRANCH   4   5
ATOM      5  N   UNL     1      -1.112   0.028   0.222  1.00  0.00    -0.328 N 
ATOM      6  C   UNL     1      -1.017  -0.164  -1.228  1.00  0.00     0.333 C 
ATOM      7  H   UNL     1      -1.898  -0.502   0.597  1.00  0.00     0.348 HD
BRANCH   5   8
ATOM      8  C   UNL     1      -1.419   1.426   0.567  1.00  0.00     0.272 C 
BRANCH   8   9
ATOM      9  C   UNL     1      -1.699   1.791   2.027  1.00  0.00     0.161 C 
BRANCH   9  10
ATOM     10  C   UNL     1      -0.725   2.136   3.153  1.00  0.00     0.230 C 
ATOM     11  O   UNL     1      -1.227   2.251   4.287  1.00  0.00    -0.274 OA
ATOM     12  N   UNL     1       0.620   2.242   3.124  1.00  0.00    -0.316 N 
ATOM     13  H   UNL     1       1.023   2.230   4.023  1.00  0.00     0.170 HD
BRANCH  12  14
ATOM     14  C   UNL     1       1.549   2.363   2.131  1.00  0.00     0.113 A 
ATOM     15  S   UNL     1       3.013   1.584   2.550  1.00  0.00    -0.125 S 
ATOM     16  C   UNL     1       1.663   3.003   0.921  1.00  0.00     0.087 A 
ATOM     17  C   UNL     1       3.577   1.662   0.939  1.00  0.00     0.068 A 
ATOM     18  C   UNL     1       2.802   2.523   0.190  1.00  0.00     0.033 A 
BRANCH  16  19
ATOM     19  C   UNL     1       0.788   4.037   0.462  1.00  0.00     0.102 C 
ATOM     20  N   UNL     1       0.075   4.869   0.086  1.00  0.00    -0.192 NA
ENDBRANCH  16  19
ENDBRANCH  12  14
ENDBRANCH   9  10
ENDBRANCH   8   9
ENDBRANCH   5   8
ENDBRANCH   4   5
ENDBRANCH   2   4
ENDBRANCH   1   2
BRANCH   1  21
ATOM     21  C   UNL     1      -1.368  -2.585   3.484  1.00  0.00     0.274 C 
BRANCH  21  22
ATOM     22  C   UNL     1      -0.566  -3.884   3.427  1.00  0.00     0.275 C 
BRANCH  22  23
ATOM     23  O   UNL     1       0.853  -3.625   3.527  1.00  0.00    -0.458 OA
BRANCH  23  24
ATOM     24  C   UNL     1       1.535  -3.651   2.357  1.00  0.00     0.338 C 
ATOM     25  O   UNL     1       1.077  -3.894   1.250  1.00  0.00    -0.246 OA
BRANCH  24  26
ATOM     26  C   UNL     1       2.955  -3.295   2.539  1.00  0.00     0.060 A 
ATOM     27  C   UNL     1       3.323  -2.095   3.140  1.00  0.00     0.016 A 
ATOM     28  C   UNL     1       3.928  -4.086   1.927  1.00  0.00     0.016 A 
ATOM     29  C   UNL     1       4.640  -1.638   3.027  1.00  0.00     0.010 A 
ATOM     30  C   UNL     1       5.267  -3.677   1.929  1.00  0.00     0.010 A 
ATOM     31  C   UNL     1       5.644  -2.424   2.443  1.00  0.00    -0.014 A 
BRANCH  31  32
ATOM     32  C   UNL     1       7.070  -1.966   2.350  1.00  0.00     0.031 A 
ATOM     33  C   UNL     1       7.830  -2.103   1.047  1.00  0.00     0.074 A 
ATOM     34  C   UNL     1       7.721  -1.470   3.425  1.00  0.00     0.049 A 
ATOM     35  N   UNL     1       9.123  -2.119   0.836  1.00  0.00    -0.248 NA
ATOM     36  C   UNL     1       7.028  -2.263  -0.178  1.00  0.00     0.031 C 
ATOM     37  C   UNL     1       7.131  -1.191   4.737  1.00  0.00     0.029 A 
ATOM     38  N   UNL     1       9.046  -1.129   3.589  1.00  0.00    -0.354 N 
ATOM     39  C   UNL     1       9.289  -2.376  -0.523  1.00  0.00     0.074 A 
ATOM     40  C   UNL     1       7.963  -2.495  -1.091  1.00  0.00     0.031 C 
ATOM     41  C   UNL     1       8.071  -0.701   5.554  1.00  0.00     0.029 A 
ATOM     42  C   UNL     1       9.359  -0.771   4.881  1.00  0.00     0.049 A 
ATOM     43  H   UNL     1       9.703  -1.139   2.856  1.00  0.00     0.167 HD
ATOM     44  C   UNL     1      10.442  -2.516  -1.225  1.00  0.00     0.031 A 
ATOM     45  C   UNL     1      10.544  -0.614   5.504  1.00  0.00     0.031 A 
ATOM     46  C   UNL     1      11.756  -2.347  -0.654  1.00  0.00     0.049 A 
ATOM     47  C   UNL     1      11.810  -0.851   4.737  1.00  0.00     0.074 A 
ATOM     48  C   UNL     1      12.988  -2.453  -1.279  1.00  0.00     0.029 A 
ATOM     49  N   UNL     1      12.011  -2.020   0.670  1.00  0.00    -0.354 N 
ATOM     50  N   UNL     1      11.957  -1.188   3.478  1.00  0.00    -0.248 NA
ATOM     51  C   UNL     1      13.069  -0.703   5.478  1.00  0.00     0.031 C 
ATOM     52  C   UNL     1      13.986  -2.247  -0.321  1.00  0.00     0.029 A 
ATOM     53  C   UNL     1      13.377  -1.940   0.884  1.00  0.00     0.049 A 
ATOM     54  H   UNL     1      11.322  -1.867   1.356  1.00  0.00     0.167 HD
ATOM     55  C   UNL     1      13.328  -1.273   3.271  1.00  0.00     0.074 A 
ATOM     56  C   UNL     1      13.964  -0.933   4.528  1.00  0.00     0.031 C 
ATOM     57  C   UNL     1      13.999  -1.603   2.140  1.00  0.00     0.031 A 
BRANCH  44  58
ATOM     58  C   UNL     1      10.353  -2.923  -2.679  1.00  0.00    -0.014 A 
ATOM     59  C   UNL     1       9.872  -2.050  -3.671  1.00  0.00     0.010 A 
ATOM     60  C   UNL     1      10.836  -4.189  -3.067  1.00  0.00     0.010 A 
ATOM     61  C   UNL     1       9.842  -2.448  -5.013  1.00  0.00     0.020 A 
ATOM     62  C   UNL     1      10.838  -4.579  -4.411  1.00  0.00     0.020 A 
ATOM     63  C   UNL     1      10.326  -3.710  -5.374  1.00  0.00     0.054 A 
BRANCH  63  64
ATOM     64  S   UNL     1      10.302  -4.186  -7.126  1.00  0.00     0.124 S 
ATOM     65  O   UNL     1       8.873  -4.366  -7.369  1.00  0.00    -0.237 OA
ATOM     66  O   UNL     1      10.909  -3.029  -7.779  1.00  0.00    -0.237 OA
ATOM     67  O   UNL     1      11.098  -5.410  -7.166  1.00  0.00    -0.744 OA
ENDBRANCH  63  64
ENDBRANCH  44  58
BRANCH  45  68
ATOM     68  C   UNL     1      10.572  -0.311   6.963  1.00  0.00    -0.014 A 
ATOM     69  C   UNL     1      11.024   0.934   7.431  1.00  0.00     0.010 A 
ATOM     70  C   UNL     1      10.098  -1.259   7.893  1.00  0.00     0.010 A 
ATOM     71  C   UNL     1      11.001   1.226   8.798  1.00  0.00     0.020 A 
ATOM     72  C   UNL     1      10.035  -0.956   9.254  1.00  0.00     0.020 A 
ATOM     73  C   UNL     1      10.496   0.283   9.700  1.00  0.00     0.054 A 
BRANCH  73  74
ATOM     74  S   UNL     1      10.399   0.716  11.458  1.00  0.00     0.124 S 
ATOM     75  O   UNL     1      11.802   0.667  11.859  1.00  0.00    -0.237 OA
ATOM     76  O   UNL     1       9.797   2.046  11.422  1.00  0.00    -0.237 OA
ATOM     77  O   UNL     1       9.548  -0.329  12.022  1.00  0.00    -0.744 OA
ENDBRANCH  73  74
ENDBRANCH  45  68
BRANCH  57  78
ATOM     78  C   UNL     1      15.502  -1.558   2.198  1.00  0.00    -0.014 A 
ATOM     79  C   UNL     1      16.239  -2.517   2.915  1.00  0.00     0.010 A 
ATOM     80  C   UNL     1      16.188  -0.549   1.498  1.00  0.00     0.010 A 
ATOM     81  C   UNL     1      17.633  -2.443   2.964  1.00  0.00     0.020 A 
ATOM     82  C   UNL     1      17.583  -0.490   1.518  1.00  0.00     0.020 A 
ATOM     83  C   UNL     1      18.296  -1.429   2.265  1.00  0.00     0.054 A 
BRANCH  83  84
ATOM     84  S   UNL     1      20.108  -1.374   2.319  1.00  0.00     0.124 S 
ATOM     85  O   UNL     1      20.357  -0.924   3.686  1.00  0.00    -0.237 OA
ATOM     86  O   UNL     1      20.478  -2.758   2.035  1.00  0.00    -0.237 OA
ATOM     87  O   UNL     1      20.457  -0.414   1.275  1.00  0.00    -0.744 OA
ENDBRANCH  83  84
ENDBRANCH  57  78
ENDBRANCH  31  32
ENDBRANCH  24  26
ENDBRANCH  23  24
ENDBRANCH  22  23
ENDBRANCH  21  22
ENDBRANCH   1  21
TORSDOF 20
