REMARK SMILES NC(=O)[C@@H]1CCC[N@@H+]1[C@H](C(=O)OCCOC(=O)c1ccc(-c2c3nc(c(-c4ccc(S(=O)(=O)[O-])cc4)c4ccc([nH]4)c(-c4ccc(S(=O)(=O)[O-])cc4)c4nc(c(-c5ccc(S(=O)(=O)[O-])cc5)c5ccc2[nH]5)C=C4)C=C3)cc1)c1c[nH]c2cc(NC(=O)c3ccccc3)ccc12
REMARK SMILES IDX 13 1 12 2 10 3 11 4 9 5 8 6 4 7 5 8 6 9 7 10 2 12 1 13 3 16
REMARK SMILES IDX 78 17 79 18 95 19 80 20 81 21 94 22 82 24 93 25 83 26 84 27
REMARK SMILES IDX 85 28 86 30 87 31 88 32 92 33 89 34 91 35 90 36 14 37 15 38
REMARK SMILES IDX 16 39 17 40 18 41 19 42 77 43 20 44 76 45 21 46 22 47 23 48
REMARK SMILES IDX 70 49 24 50 75 51 69 52 71 53 25 54 74 55 68 56 67 57 26 59
REMARK SMILES IDX 56 60 37 61 55 62 38 63 41 64 54 65 72 66 39 67 40 68 53 70
REMARK SMILES IDX 73 71 42 72 27 73 28 74 36 75 29 76 35 77 30 78 31 79 32 80
REMARK SMILES IDX 33 81 34 82 57 83 58 84 66 85 59 86 65 87 60 88 61 89 62 90
REMARK SMILES IDX 63 91 64 92 43 93 44 94 52 95 45 96 51 97 46 98 47 99 48 100
REMARK SMILES IDX 49 101 50 102
REMARK H PARENT 8 11 1 14 1 15 80 23 84 29 71 58 41 69
REMARK Flexibility Score: inf
ROOT
ATOM      1  C   UNL     1       2.529  -0.976  -2.799  1.00  0.00     0.274 C 
ENDROOT
BRANCH   1   2
ATOM      2  O   UNL     1       3.559  -1.587  -1.985  1.00  0.00    -0.457 OA
BRANCH   2   3
ATOM      3  C   UNL     1       3.666  -1.221  -0.667  1.00  0.00     0.370 C 
ATOM      4  O   UNL     1       2.860  -0.459  -0.131  1.00  0.00    -0.245 OA
BRANCH   3   5
ATOM      5  C   UNL     1       4.930  -1.832   0.090  1.00  0.00     0.329 C 
BRANCH   5   6
ATOM      6  N   UNL     1       4.633  -2.552   1.357  1.00  0.00    -0.309 N 
ATOM      7  C   UNL     1       3.969  -3.871   1.364  1.00  0.00     0.275 C 
ATOM      8  C   UNL     1       3.299  -4.029   2.729  1.00  0.00     0.081 C 
ATOM      9  C   UNL     1       3.799  -2.832   3.509  1.00  0.00     0.068 C 
ATOM     10  C   UNL     1       4.021  -1.775   2.434  1.00  0.00     0.264 C 
ATOM     11  H   UNL     1       5.624  -2.734   1.522  1.00  0.00     0.349 HD
BRANCH   7  12
ATOM     12  C   UNL     1       2.965  -4.051   0.260  1.00  0.00     0.275 C 
ATOM     13  N   UNL     1       1.933  -3.162   0.224  1.00  0.00    -0.365 N 
ATOM     14  H   UNL     1       1.246  -3.233  -0.478  1.00  0.00     0.159 HD
ATOM     15  H   UNL     1       1.874  -2.449   0.899  1.00  0.00     0.159 HD
ATOM     16  O   UNL     1       3.094  -4.935  -0.577  1.00  0.00    -0.268 OA
ENDBRANCH   7  12
ENDBRANCH   5   6
BRANCH   5  17
ATOM     17  C   UNL     1       5.885  -2.529  -0.886  1.00  0.00     0.046 A 
ATOM     18  C   UNL     1       6.610  -1.858  -1.872  1.00  0.00     0.094 A 
ATOM     19  C   UNL     1       6.047  -3.888  -1.311  1.00  0.00     0.009 A 
ATOM     20  N   UNL     1       6.157  -2.490  -3.010  1.00  0.00    -0.361 N 
ATOM     21  C   UNL     1       5.980  -3.811  -2.698  1.00  0.00     0.048 A 
ATOM     22  C   UNL     1       6.151  -5.176  -0.762  1.00  0.00     0.013 A 
ATOM     23  H   UNL     1       5.992  -2.069  -3.885  1.00  0.00     0.166 HD
ATOM     24  C   UNL     1       5.744  -4.908  -3.528  1.00  0.00     0.052 A 
ATOM     25  C   UNL     1       5.990  -6.301  -1.601  1.00  0.00     0.027 A 
ATOM     26  C   UNL     1       5.675  -6.172  -2.963  1.00  0.00     0.043 A 
BRANCH  26  27
ATOM     27  N   UNL     1       5.367  -7.348  -3.682  1.00  0.00    -0.322 N 
ATOM     28  C   UNL     1       4.684  -7.645  -4.851  1.00  0.00     0.255 C 
ATOM     29  H   UNL     1       5.724  -8.155  -3.245  1.00  0.00     0.170 HD
ATOM     30  O   UNL     1       4.620  -8.826  -5.203  1.00  0.00    -0.269 OA
BRANCH  28  31
ATOM     31  C   UNL     1       3.865  -6.686  -5.633  1.00  0.00     0.040 A 
ATOM     32  C   UNL     1       2.475  -6.886  -5.681  1.00  0.00     0.014 A 
ATOM     33  C   UNL     1       4.418  -5.649  -6.381  1.00  0.00     0.014 A 
ATOM     34  C   UNL     1       1.638  -5.941  -6.283  1.00  0.00     0.001 A 
ATOM     35  C   UNL     1       3.583  -4.687  -6.966  1.00  0.00     0.001 A 
ATOM     36  C   UNL     1       2.195  -4.816  -6.889  1.00  0.00     0.000 A 
ENDBRANCH  28  31
ENDBRANCH  26  27
ENDBRANCH   5  17
ENDBRANCH   3   5
ENDBRANCH   2   3
ENDBRANCH   1   2
BRANCH   1  37
ATOM     37  C   UNL     1       2.028  -1.938  -3.884  1.00  0.00     0.275 C 
BRANCH  37  38
ATOM     38  O   UNL     1       1.262  -3.008  -3.292  1.00  0.00    -0.458 OA
BRANCH  38  39
ATOM     39  C   UNL     1       1.855  -4.223  -3.324  1.00  0.00     0.338 C 
ATOM     40  O   UNL     1       2.943  -4.440  -3.870  1.00  0.00    -0.246 OA
BRANCH  39  41
ATOM     41  C   UNL     1       1.128  -5.251  -2.543  1.00  0.00     0.060 A 
ATOM     42  C   UNL     1       0.170  -4.849  -1.629  1.00  0.00     0.016 A 
ATOM     43  C   UNL     1       1.623  -6.563  -2.463  1.00  0.00     0.016 A 
ATOM     44  C   UNL     1      -0.009  -5.634  -0.493  1.00  0.00     0.010 A 
ATOM     45  C   UNL     1       1.209  -7.446  -1.459  1.00  0.00     0.010 A 
ATOM     46  C   UNL     1       0.439  -6.970  -0.400  1.00  0.00    -0.014 A 
BRANCH  46  47
ATOM     47  C   UNL     1       0.076  -7.820   0.784  1.00  0.00     0.031 A 
ATOM     48  C   UNL     1       1.057  -8.766   1.458  1.00  0.00     0.074 A 
ATOM     49  C   UNL     1      -1.180  -7.733   1.278  1.00  0.00     0.049 A 
ATOM     50  N   UNL     1       0.803  -9.742   2.300  1.00  0.00    -0.248 NA
ATOM     51  C   UNL     1       2.491  -8.624   1.150  1.00  0.00     0.031 C 
ATOM     52  C   UNL     1      -2.242  -6.868   0.750  1.00  0.00     0.029 A 
ATOM     53  N   UNL     1      -1.783  -8.352   2.345  1.00  0.00    -0.354 N 
ATOM     54  C   UNL     1       2.020 -10.373   2.560  1.00  0.00     0.074 A 
ATOM     55  C   UNL     1       3.023  -9.656   1.800  1.00  0.00     0.031 C 
ATOM     56  C   UNL     1      -3.295  -6.894   1.566  1.00  0.00     0.029 A 
ATOM     57  C   UNL     1      -3.096  -7.976   2.509  1.00  0.00     0.049 A 
ATOM     58  H   UNL     1      -1.325  -8.998   2.930  1.00  0.00     0.167 HD
ATOM     59  C   UNL     1       2.263 -11.456   3.345  1.00  0.00     0.031 A 
ATOM     60  C   UNL     1      -4.104  -8.513   3.218  1.00  0.00     0.031 A 
ATOM     61  C   UNL     1       1.245 -12.124   4.128  1.00  0.00     0.049 A 
ATOM     62  C   UNL     1      -3.836  -9.748   4.005  1.00  0.00     0.074 A 
ATOM     63  C   UNL     1       1.378 -13.228   4.957  1.00  0.00     0.029 A 
ATOM     64  N   UNL     1      -0.087 -11.740   4.199  1.00  0.00    -0.354 N 
ATOM     65  N   UNL     1      -2.708 -10.399   4.142  1.00  0.00    -0.248 NA
ATOM     66  C   UNL     1      -4.979 -10.337   4.705  1.00  0.00     0.031 C 
ATOM     67  C   UNL     1       0.120 -13.540   5.484  1.00  0.00     0.029 A 
ATOM     68  C   UNL     1      -0.786 -12.592   5.041  1.00  0.00     0.049 A 
ATOM     69  H   UNL     1      -0.479 -10.974   3.720  1.00  0.00     0.167 HD
ATOM     70  C   UNL     1      -3.004 -11.484   4.950  1.00  0.00     0.074 A 
ATOM     71  C   UNL     1      -4.410 -11.379   5.294  1.00  0.00     0.031 C 
ATOM     72  C   UNL     1      -2.186 -12.480   5.363  1.00  0.00     0.031 A 
BRANCH  59  73
ATOM     73  C   UNL     1       3.660 -12.043   3.386  1.00  0.00    -0.014 A 
ATOM     74  C   UNL     1       4.718 -11.410   4.064  1.00  0.00     0.010 A 
ATOM     75  C   UNL     1       3.885 -13.326   2.843  1.00  0.00     0.010 A 
ATOM     76  C   UNL     1       5.969 -12.035   4.179  1.00  0.00     0.020 A 
ATOM     77  C   UNL     1       5.125 -13.966   2.977  1.00  0.00     0.020 A 
ATOM     78  C   UNL     1       6.164 -13.310   3.636  1.00  0.00     0.054 A 
BRANCH  78  79
ATOM     79  S   UNL     1       7.782 -14.114   3.841  1.00  0.00     0.124 S 
ATOM     80  O   UNL     1       8.630 -13.319   2.957  1.00  0.00    -0.237 OA
ATOM     81  O   UNL     1       8.041 -13.954   5.270  1.00  0.00    -0.237 OA
ATOM     82  O   UNL     1       7.547 -15.489   3.406  1.00  0.00    -0.744 OA
ENDBRANCH  78  79
ENDBRANCH  59  73
BRANCH  60  83
ATOM     83  C   UNL     1      -5.476  -7.957   3.053  1.00  0.00    -0.014 A 
ATOM     84  C   UNL     1      -6.105  -7.265   4.097  1.00  0.00     0.010 A 
ATOM     85  C   UNL     1      -6.114  -8.037   1.797  1.00  0.00     0.010 A 
ATOM     86  C   UNL     1      -7.343  -6.652   3.884  1.00  0.00     0.020 A 
ATOM     87  C   UNL     1      -7.324  -7.385   1.567  1.00  0.00     0.020 A 
ATOM     88  C   UNL     1      -7.937  -6.705   2.618  1.00  0.00     0.054 A 
BRANCH  88  89
ATOM     89  S   UNL     1      -9.496  -5.823   2.338  1.00  0.00     0.124 S 
ATOM     90  O   UNL     1     -10.461  -6.708   2.982  1.00  0.00    -0.237 OA
ATOM     91  O   UNL     1      -9.262  -4.545   3.007  1.00  0.00    -0.237 OA
ATOM     92  O   UNL     1      -9.588  -5.745   0.882  1.00  0.00    -0.744 OA
ENDBRANCH  88  89
ENDBRANCH  60  83
BRANCH  72  93
ATOM     93  C   UNL     1      -2.798 -13.502   6.278  1.00  0.00    -0.014 A 
ATOM     94  C   UNL     1      -3.715 -14.454   5.797  1.00  0.00     0.010 A 
ATOM     95  C   UNL     1      -2.463 -13.492   7.643  1.00  0.00     0.010 A 
ATOM     96  C   UNL     1      -4.325 -15.348   6.679  1.00  0.00     0.020 A 
ATOM     97  C   UNL     1      -3.048 -14.405   8.522  1.00  0.00     0.020 A 
ATOM     98  C   UNL     1      -3.990 -15.315   8.036  1.00  0.00     0.054 A 
BRANCH  98  99
ATOM     99  S   UNL     1      -4.785 -16.495   9.159  1.00  0.00     0.124 S 
ATOM    100  O   UNL     1      -6.137 -15.954   9.261  1.00  0.00    -0.237 OA
ATOM    101  O   UNL     1      -4.665 -17.757   8.433  1.00  0.00    -0.237 OA
ATOM    102  O   UNL     1      -3.985 -16.406  10.378  1.00  0.00    -0.744 OA
ENDBRANCH  98  99
ENDBRANCH  72  93
ENDBRANCH  46  47
ENDBRANCH  39  41
ENDBRANCH  38  39
ENDBRANCH  37  38
ENDBRANCH   1  37
TORSDOF 19
