REMARK SMILES O=C(OCCOC(=O)[C@H](c1c[nH]c2cc(F)ccc12)[NH+]1CCN(c2ccccc2)CC1)c1ccc(-c2c3nc(c(-c4ccc(S(=O)(=O)[O-])cc4)c4ccc([nH]4)c(-c4ccc(S(=O)(=O)[O-])cc4)c4nc(c(-c5ccc(S(=O)(=O)[O-])cc5)c5ccc2[nH]5)C=C4)C=C3)cc1
REMARK SMILES IDX 4 1 3 2 2 3 1 4 32 5 33 6 91 7 34 8 90 9 35 10 36 11 37 12
REMARK SMILES IDX 84 13 38 14 89 15 83 16 85 17 39 18 88 19 82 20 81 21 40 23
REMARK SMILES IDX 70 24 51 25 69 26 52 27 55 28 68 29 86 30 53 31 54 32 67 34
REMARK SMILES IDX 87 35 56 36 41 37 42 38 50 39 43 40 49 41 44 42 45 43 46 44
REMARK SMILES IDX 47 45 48 46 71 47 72 48 80 49 73 50 79 51 74 52 75 53 76 54
REMARK SMILES IDX 77 55 78 56 57 57 58 58 66 59 59 60 65 61 60 62 61 63 62 64
REMARK SMILES IDX 63 65 64 66 5 67 6 68 7 69 8 70 9 71 20 72 21 73 31 74 22 76
REMARK SMILES IDX 30 77 23 78 24 79 25 80 29 81 26 82 28 83 27 84 10 85 11 86
REMARK SMILES IDX 19 87 12 88 13 89 18 90 14 92 17 93 15 94 16 95
REMARK H PARENT 85 22 55 33 20 75 12 91
REMARK Flexibility Score: inf
ROOT
ATOM      1  C   UNL     1       5.020  -2.733   3.904  1.00  0.00     0.275 C 
ENDROOT
BRANCH   1   2
ATOM      2  O   UNL     1       5.923  -1.775   3.392  1.00  0.00    -0.458 OA
BRANCH   2   3
ATOM      3  C   UNL     1       5.410  -0.891   2.506  1.00  0.00     0.338 C 
ATOM      4  O   UNL     1       5.781   0.264   2.576  1.00  0.00    -0.246 OA
BRANCH   3   5
ATOM      5  C   UNL     1       4.423  -1.393   1.440  1.00  0.00     0.060 A 
ATOM      6  C   UNL     1       3.160  -2.031   1.601  1.00  0.00     0.016 A 
ATOM      7  C   UNL     1       4.705  -0.924   0.189  1.00  0.00     0.016 A 
ATOM      8  C   UNL     1       2.181  -2.091   0.615  1.00  0.00     0.010 A 
ATOM      9  C   UNL     1       3.649  -0.817  -0.716  1.00  0.00     0.010 A 
ATOM     10  C   UNL     1       2.349  -1.349  -0.526  1.00  0.00    -0.014 A 
BRANCH  10  11
ATOM     11  C   UNL     1       1.196  -1.104  -1.463  1.00  0.00     0.031 A 
ATOM     12  C   UNL     1       1.511  -0.888  -2.925  1.00  0.00     0.074 A 
ATOM     13  C   UNL     1      -0.087  -0.899  -1.048  1.00  0.00     0.049 A 
ATOM     14  N   UNL     1       0.783  -0.313  -3.843  1.00  0.00    -0.248 NA
ATOM     15  C   UNL     1       2.885  -1.185  -3.377  1.00  0.00     0.031 C 
ATOM     16  C   UNL     1      -0.587  -0.849   0.340  1.00  0.00     0.029 A 
ATOM     17  N   UNL     1      -1.231  -0.632  -1.777  1.00  0.00    -0.354 N 
ATOM     18  C   UNL     1       1.681  -0.029  -4.862  1.00  0.00     0.074 A 
ATOM     19  C   UNL     1       2.999  -0.301  -4.353  1.00  0.00     0.031 C 
ATOM     20  C   UNL     1      -1.916  -0.638   0.349  1.00  0.00     0.029 A 
ATOM     21  C   UNL     1      -2.380  -0.490  -1.020  1.00  0.00     0.049 A 
ATOM     22  H   UNL     1      -1.228  -0.550  -2.758  1.00  0.00     0.167 HD
ATOM     23  C   UNL     1       1.444   0.285  -6.153  1.00  0.00     0.031 A 
ATOM     24  C   UNL     1      -3.660  -0.266  -1.387  1.00  0.00     0.031 A 
ATOM     25  C   UNL     1       0.119   0.326  -6.692  1.00  0.00     0.049 A 
ATOM     26  C   UNL     1      -3.955  -0.115  -2.856  1.00  0.00     0.074 A 
ATOM     27  C   UNL     1      -0.270   0.390  -8.014  1.00  0.00     0.029 A 
ATOM     28  N   UNL     1      -1.032   0.253  -5.924  1.00  0.00    -0.354 N 
ATOM     29  N   UNL     1      -3.112  -0.016  -3.856  1.00  0.00    -0.248 NA
ATOM     30  C   UNL     1      -5.369  -0.084  -3.256  1.00  0.00     0.031 C 
ATOM     31  C   UNL     1      -1.667   0.398  -8.045  1.00  0.00     0.029 A 
ATOM     32  C   UNL     1      -2.138   0.257  -6.747  1.00  0.00     0.049 A 
ATOM     33  H   UNL     1      -1.057   0.206  -4.941  1.00  0.00     0.167 HD
ATOM     34  C   UNL     1      -3.891   0.029  -5.005  1.00  0.00     0.074 A 
ATOM     35  C   UNL     1      -5.271  -0.061  -4.578  1.00  0.00     0.031 C 
ATOM     36  C   UNL     1      -3.499   0.130  -6.298  1.00  0.00     0.031 A 
BRANCH  23  37
ATOM     37  C   UNL     1       2.631   0.477  -7.064  1.00  0.00    -0.014 A 
ATOM     38  C   UNL     1       3.592  -0.539  -7.247  1.00  0.00     0.010 A 
ATOM     39  C   UNL     1       2.788   1.688  -7.756  1.00  0.00     0.010 A 
ATOM     40  C   UNL     1       4.728  -0.318  -8.023  1.00  0.00     0.020 A 
ATOM     41  C   UNL     1       3.890   1.889  -8.593  1.00  0.00     0.020 A 
ATOM     42  C   UNL     1       4.864   0.894  -8.700  1.00  0.00     0.054 A 
BRANCH  42  43
ATOM     43  S   UNL     1       6.313   1.117  -9.763  1.00  0.00     0.124 S 
ATOM     44  O   UNL     1       7.385   1.268  -8.782  1.00  0.00    -0.237 OA
ATOM     45  O   UNL     1       6.336  -0.127 -10.528  1.00  0.00    -0.237 OA
ATOM     46  O   UNL     1       5.996   2.316 -10.533  1.00  0.00    -0.744 OA
ENDBRANCH  42  43
ENDBRANCH  23  37
BRANCH  24  47
ATOM     47  C   UNL     1      -4.781  -0.296  -0.394  1.00  0.00    -0.014 A 
ATOM     48  C   UNL     1      -5.666  -1.395  -0.384  1.00  0.00     0.010 A 
ATOM     49  C   UNL     1      -5.011   0.755   0.510  1.00  0.00     0.010 A 
ATOM     50  C   UNL     1      -6.771  -1.425   0.472  1.00  0.00     0.020 A 
ATOM     51  C   UNL     1      -6.101   0.714   1.396  1.00  0.00     0.020 A 
ATOM     52  C   UNL     1      -6.981  -0.371   1.362  1.00  0.00     0.054 A 
BRANCH  52  53
ATOM     53  S   UNL     1      -8.402  -0.463   2.492  1.00  0.00     0.124 S 
ATOM     54  O   UNL     1      -9.532  -0.347   1.576  1.00  0.00    -0.237 OA
ATOM     55  O   UNL     1      -8.222  -1.774   3.111  1.00  0.00    -0.237 OA
ATOM     56  O   UNL     1      -8.203   0.674   3.387  1.00  0.00    -0.744 OA
ENDBRANCH  52  53
ENDBRANCH  24  47
BRANCH  36  57
ATOM     57  C   UNL     1      -4.559   0.048  -7.359  1.00  0.00    -0.014 A 
ATOM     58  C   UNL     1      -5.487   1.083  -7.557  1.00  0.00     0.010 A 
ATOM     59  C   UNL     1      -4.560  -1.058  -8.229  1.00  0.00     0.010 A 
ATOM     60  C   UNL     1      -6.419   0.997  -8.592  1.00  0.00     0.020 A 
ATOM     61  C   UNL     1      -5.461  -1.127  -9.289  1.00  0.00     0.020 A 
ATOM     62  C   UNL     1      -6.394  -0.104  -9.455  1.00  0.00     0.054 A 
BRANCH  62  63
ATOM     63  S   UNL     1      -7.577  -0.159 -10.826  1.00  0.00     0.124 S 
ATOM     64  O   UNL     1      -8.844  -0.354 -10.126  1.00  0.00    -0.237 OA
ATOM     65  O   UNL     1      -7.398   1.149 -11.451  1.00  0.00    -0.237 OA
ATOM     66  O   UNL     1      -7.128  -1.294 -11.628  1.00  0.00    -0.744 OA
ENDBRANCH  62  63
ENDBRANCH  36  57
ENDBRANCH  10  11
ENDBRANCH   3   5
ENDBRANCH   2   3
ENDBRANCH   1   2
BRANCH   1  67
ATOM     67  C   UNL     1       3.787  -2.051   4.594  1.00  0.00     0.274 C 
BRANCH  67  68
ATOM     68  O   UNL     1       3.344  -0.837   3.808  1.00  0.00    -0.457 OA
BRANCH  68  69
ATOM     69  C   UNL     1       2.911   0.379   4.192  1.00  0.00     0.370 C 
ATOM     70  O   UNL     1       2.671   0.566   5.390  1.00  0.00    -0.245 OA
BRANCH  69  71
ATOM     71  C   UNL     1       2.550   1.521   3.026  1.00  0.00     0.328 C 
BRANCH  71  72
ATOM     72  N   UNL     1       2.814   2.801   3.735  1.00  0.00    -0.316 N 
ATOM     73  C   UNL     1       3.898   3.677   3.277  1.00  0.00     0.284 C 
ATOM     74  C   UNL     1       1.612   3.574   4.052  1.00  0.00     0.284 C 
ATOM     75  H   UNL     1       3.203   2.406   4.591  1.00  0.00     0.349 HD
ATOM     76  C   UNL     1       3.525   4.661   2.150  1.00  0.00     0.178 C 
ATOM     77  C   UNL     1       1.124   4.501   2.918  1.00  0.00     0.178 C 
ATOM     78  N   UNL     1       2.240   5.295   2.425  1.00  0.00    -0.360 N 
BRANCH  78  79
ATOM     79  C   UNL     1       2.099   6.534   1.849  1.00  0.00     0.037 A 
ATOM     80  C   UNL     1       2.035   6.717   0.464  1.00  0.00     0.026 A 
ATOM     81  C   UNL     1       2.329   7.632   2.678  1.00  0.00     0.026 A 
ATOM     82  C   UNL     1       2.283   7.976  -0.083  1.00  0.00     0.002 A 
ATOM     83  C   UNL     1       2.591   8.883   2.138  1.00  0.00     0.002 A 
ATOM     84  C   UNL     1       2.586   9.051   0.755  1.00  0.00     0.000 A 
ENDBRANCH  78  79
ENDBRANCH  71  72
BRANCH  71  85
ATOM     85  C   UNL     1       2.954   1.677   1.478  1.00  0.00     0.046 A 
ATOM     86  C   UNL     1       4.215   1.902   0.916  1.00  0.00     0.094 A 
ATOM     87  C   UNL     1       2.052   2.006   0.325  1.00  0.00     0.009 A 
ATOM     88  N   UNL     1       4.138   2.250  -0.410  1.00  0.00    -0.361 N 
ATOM     89  C   UNL     1       2.834   2.316  -0.805  1.00  0.00     0.049 A 
ATOM     90  C   UNL     1       0.653   2.132   0.129  1.00  0.00     0.014 A 
ATOM     91  H   UNL     1       4.913   2.426  -0.992  1.00  0.00     0.166 HD
ATOM     92  C   UNL     1       2.327   2.650  -2.073  1.00  0.00     0.065 A 
ATOM     93  C   UNL     1       0.120   2.475  -1.136  1.00  0.00     0.040 A 
ATOM     94  C   UNL     1       0.952   2.712  -2.216  1.00  0.00     0.125 A 
ATOM     95  F   UNL     1       0.430   3.018  -3.412  1.00  0.00    -0.207 F 
ENDBRANCH  71  85
ENDBRANCH  69  71
ENDBRANCH  68  69
ENDBRANCH  67  68
ENDBRANCH   1  67
TORSDOF 17
