REMARK SMILES Cc1[nH]c(=O)sc1S(=O)(=O)NC1(CC(=O)OCCOC(=O)c2ccc(-c3c4nc(c(-c5ccc(S(=O)(=O)[O-])cc5)c5ccc([nH]5)c(-c5ccc(S(=O)(=O)[O-])cc5)c5nc(c(-c6ccc(S(=O)(=O)[O-])cc6)c6ccc3[nH]6)C=C5)C=C4)cc2)CCC1
REMARK SMILES IDX 17 1 16 2 14 3 15 4 13 5 12 6 82 7 84 8 83 9 11 10 8 12 9 13
REMARK SMILES IDX 10 14 7 15 1 16 2 17 3 18 4 19 6 21 5 22 18 23 19 24 20 25
REMARK SMILES IDX 21 26 22 27 23 28 81 29 24 30 80 31 25 32 26 33 27 34 74 35
REMARK SMILES IDX 28 36 79 37 73 38 75 39 29 40 78 41 72 42 71 43 30 45 60 46
REMARK SMILES IDX 41 47 59 48 42 49 45 50 58 51 76 52 43 53 44 54 57 56 77 57
REMARK SMILES IDX 46 58 31 59 32 60 40 61 33 62 39 63 34 64 35 65 36 66 37 67
REMARK SMILES IDX 38 68 61 69 62 70 70 71 63 72 69 73 64 74 65 75 66 76 67 77
REMARK SMILES IDX 68 78 47 79 48 80 56 81 49 82 55 83 50 84 51 85 52 86 53 87
REMARK SMILES IDX 54 88
REMARK H PARENT 11 11 3 20 75 44 45 55
REMARK Flexibility Score: inf
ROOT
ATOM      1  C   UNL     1      -0.109   5.718  -0.411  1.00  0.00     0.274 C 
ENDROOT
BRANCH   1   2
ATOM      2  O   UNL     1      -0.669   4.389  -0.487  1.00  0.00    -0.462 OA
BRANCH   2   3
ATOM      3  C   UNL     1       0.205   3.387  -0.767  1.00  0.00     0.307 C 
ATOM      4  O   UNL     1       1.403   3.550  -0.981  1.00  0.00    -0.252 OA
BRANCH   3   5
ATOM      5  C   UNL     1      -0.461   2.049  -0.943  1.00  0.00     0.146 C 
BRANCH   5   6
ATOM      6  C   UNL     1      -1.403   1.488   0.146  1.00  0.00     0.044 C 
ATOM      7  C   UNL     1      -2.158   0.222  -0.384  1.00  0.00     0.024 C 
ATOM      8  C   UNL     1      -2.798   2.174   0.222  1.00  0.00     0.024 C 
ATOM      9  C   UNL     1      -3.311   1.144  -0.804  1.00  0.00     0.004 C 
BRANCH   6  10
ATOM     10  N   UNL     1      -0.667   1.290   1.448  1.00  0.00    -0.204 NA
ATOM     11  H   UNL     1       0.297   1.105   1.171  1.00  0.00     0.142 HD
BRANCH  10  12
ATOM     12  S   UNL     1      -0.979   0.159   2.688  1.00  0.00     0.252 S 
ATOM     13  O   UNL     1      -2.422   0.064   2.771  1.00  0.00    -0.206 OA
ATOM     14  O   UNL     1      -0.232   0.646   3.827  1.00  0.00    -0.206 OA
BRANCH  12  15
ATOM     15  C   UNL     1      -0.321  -1.384   2.230  1.00  0.00     0.158 A 
ATOM     16  C   UNL     1       1.444  -0.638   0.475  1.00  0.00     0.067 C 
ATOM     17  C   UNL     1       0.647  -1.580   1.311  1.00  0.00     0.046 A 
ATOM     18  N   UNL     1       0.934  -2.917   1.130  1.00  0.00    -0.315 N 
ATOM     19  C   UNL     1       0.244  -3.818   1.901  1.00  0.00     0.305 A 
ATOM     20  H   UNL     1       1.607  -3.212   0.475  1.00  0.00     0.170 HD
ATOM     21  S   UNL     1      -0.849  -2.912   2.928  1.00  0.00    -0.061 S 
ATOM     22  O   UNL     1       0.349  -5.025   1.857  1.00  0.00    -0.257 OA
ENDBRANCH  12  15
ENDBRANCH  10  12
ENDBRANCH   6  10
ENDBRANCH   5   6
ENDBRANCH   3   5
ENDBRANCH   2   3
ENDBRANCH   1   2
BRANCH   1  23
ATOM     23  C   UNL     1       0.333   6.109   0.996  1.00  0.00     0.275 C 
BRANCH  23  24
ATOM     24  O   UNL     1       1.478   5.374   1.430  1.00  0.00    -0.458 OA
BRANCH  24  25
ATOM     25  C   UNL     1       1.153   4.232   2.069  1.00  0.00     0.338 C 
ATOM     26  O   UNL     1       0.066   3.672   2.054  1.00  0.00    -0.246 OA
BRANCH  25  27
ATOM     27  C   UNL     1       2.184   3.853   3.028  1.00  0.00     0.060 A 
ATOM     28  C   UNL     1       2.157   2.542   3.503  1.00  0.00     0.016 A 
ATOM     29  C   UNL     1       2.808   4.884   3.731  1.00  0.00     0.016 A 
ATOM     30  C   UNL     1       2.538   2.304   4.805  1.00  0.00     0.010 A 
ATOM     31  C   UNL     1       3.206   4.643   5.022  1.00  0.00     0.010 A 
ATOM     32  C   UNL     1       2.982   3.381   5.575  1.00  0.00    -0.014 A 
BRANCH  32  33
ATOM     33  C   UNL     1       3.425   3.133   6.934  1.00  0.00     0.031 A 
ATOM     34  C   UNL     1       4.686   2.347   6.939  1.00  0.00     0.074 A 
ATOM     35  C   UNL     1       2.845   3.723   8.000  1.00  0.00     0.049 A 
ATOM     36  N   UNL     1       4.867   1.140   7.360  1.00  0.00    -0.248 NA
ATOM     37  C   UNL     1       5.824   2.879   6.158  1.00  0.00     0.031 C 
ATOM     38  C   UNL     1       1.748   4.699   7.998  1.00  0.00     0.029 A 
ATOM     39  N   UNL     1       3.192   3.679   9.314  1.00  0.00    -0.354 N 
ATOM     40  C   UNL     1       6.214   0.876   7.137  1.00  0.00     0.074 A 
ATOM     41  C   UNL     1       6.668   1.849   6.183  1.00  0.00     0.031 C 
ATOM     42  C   UNL     1       1.711   5.339   9.192  1.00  0.00     0.029 A 
ATOM     43  C   UNL     1       2.684   4.729  10.082  1.00  0.00     0.049 A 
ATOM     44  H   UNL     1       3.756   2.967   9.693  1.00  0.00     0.167 HD
ATOM     45  C   UNL     1       6.931   0.122   8.015  1.00  0.00     0.031 A 
ATOM     46  C   UNL     1       3.083   5.093  11.332  1.00  0.00     0.031 A 
ATOM     47  C   UNL     1       6.061  -0.625   8.885  1.00  0.00     0.049 A 
ATOM     48  C   UNL     1       3.816   3.936  11.896  1.00  0.00     0.074 A 
ATOM     49  C   UNL     1       5.131  -1.630   8.723  1.00  0.00     0.029 A 
ATOM     50  N   UNL     1       5.802  -0.031  10.096  1.00  0.00    -0.354 N 
ATOM     51  N   UNL     1       3.248   2.798  12.175  1.00  0.00    -0.248 NA
ATOM     52  C   UNL     1       5.260   3.889  11.732  1.00  0.00     0.031 C 
ATOM     53  C   UNL     1       4.114  -1.358   9.684  1.00  0.00     0.029 A 
ATOM     54  C   UNL     1       4.499  -0.252  10.445  1.00  0.00     0.049 A 
ATOM     55  H   UNL     1       6.455   0.477  10.630  1.00  0.00     0.167 HD
ATOM     56  C   UNL     1       4.168   1.841  11.777  1.00  0.00     0.074 A 
ATOM     57  C   UNL     1       5.430   2.567  11.638  1.00  0.00     0.031 C 
ATOM     58  C   UNL     1       3.745   0.626  11.318  1.00  0.00     0.031 A 
BRANCH  45  59
ATOM     59  C   UNL     1       8.348   0.472   8.421  1.00  0.00    -0.014 A 
ATOM     60  C   UNL     1       9.001  -0.351   9.360  1.00  0.00     0.010 A 
ATOM     61  C   UNL     1       8.948   1.721   8.149  1.00  0.00     0.010 A 
ATOM     62  C   UNL     1      10.155   0.079  10.028  1.00  0.00     0.020 A 
ATOM     63  C   UNL     1      10.119   2.143   8.778  1.00  0.00     0.020 A 
ATOM     64  C   UNL     1      10.701   1.329   9.736  1.00  0.00     0.054 A 
BRANCH  64  65
ATOM     65  S   UNL     1      12.151   1.905  10.651  1.00  0.00     0.124 S 
ATOM     66  O   UNL     1      11.623   2.029  12.005  1.00  0.00    -0.237 OA
ATOM     67  O   UNL     1      13.101   0.818  10.434  1.00  0.00    -0.237 OA
ATOM     68  O   UNL     1      12.492   3.164   9.992  1.00  0.00    -0.744 OA
ENDBRANCH  64  65
ENDBRANCH  45  59
BRANCH  46  69
ATOM     69  C   UNL     1       3.173   6.443  11.955  1.00  0.00    -0.014 A 
ATOM     70  C   UNL     1       3.370   6.595  13.345  1.00  0.00     0.010 A 
ATOM     71  C   UNL     1       3.384   7.577  11.146  1.00  0.00     0.010 A 
ATOM     72  C   UNL     1       3.827   7.810  13.893  1.00  0.00     0.020 A 
ATOM     73  C   UNL     1       3.837   8.791  11.684  1.00  0.00     0.020 A 
ATOM     74  C   UNL     1       4.081   8.896  13.053  1.00  0.00     0.054 A 
BRANCH  74  75
ATOM     75  S   UNL     1       4.852  10.401  13.732  1.00  0.00     0.124 S 
ATOM     76  O   UNL     1       3.774  10.969  14.537  1.00  0.00    -0.237 OA
ATOM     77  O   UNL     1       5.986   9.870  14.482  1.00  0.00    -0.237 OA
ATOM     78  O   UNL     1       5.208  11.172  12.542  1.00  0.00    -0.744 OA
ENDBRANCH  74  75
ENDBRANCH  46  69
BRANCH  58  79
ATOM     79  C   UNL     1       2.320   0.219  11.613  1.00  0.00    -0.014 A 
ATOM     80  C   UNL     1       1.175   0.866  11.107  1.00  0.00     0.010 A 
ATOM     81  C   UNL     1       2.151  -0.960  12.358  1.00  0.00     0.010 A 
ATOM     82  C   UNL     1      -0.108   0.356  11.372  1.00  0.00     0.020 A 
ATOM     83  C   UNL     1       0.883  -1.482  12.607  1.00  0.00     0.020 A 
ATOM     84  C   UNL     1      -0.243  -0.815  12.126  1.00  0.00     0.054 A 
BRANCH  84  85
ATOM     85  S   UNL     1      -1.895  -1.487  12.467  1.00  0.00     0.124 S 
ATOM     86  O   UNL     1      -2.465  -0.488  13.367  1.00  0.00    -0.237 OA
ATOM     87  O   UNL     1      -2.500  -1.558  11.140  1.00  0.00    -0.237 OA
ATOM     88  O   UNL     1      -1.622  -2.786  13.083  1.00  0.00    -0.744 OA
ENDBRANCH  84  85
ENDBRANCH  58  79
ENDBRANCH  32  33
ENDBRANCH  25  27
ENDBRANCH  24  25
ENDBRANCH  23  24
ENDBRANCH   1  23
TORSDOF 18
