REMARK SMILES COc1cc(Br)c(OC)c(C(=O)NCCC(=O)OCCOC(=O)c2ccc(-c3c4nc(c(-c5ccc(S(=O)(=O)[O-])cc5)c5ccc([nH]5)c(-c5ccc(S(=O)(=O)[O-])cc5)c5nc(c(-c6ccc(S(=O)(=O)[O-])cc6)c6ccc3[nH]6)C=C5)C=C4)cc2)c1
REMARK SMILES IDX 19 1 18 2 16 3 17 4 15 5 14 6 13 7 11 8 12 9 10 11 3 12 4 13
REMARK SMILES IDX 84 14 5 15 6 16 7 17 2 18 1 19 8 20 9 21 20 22 21 23 22 24
REMARK SMILES IDX 23 25 24 26 25 27 83 28 26 29 82 30 27 31 28 32 29 33 76 34
REMARK SMILES IDX 30 35 81 36 75 37 77 38 31 39 80 40 74 41 73 42 32 44 62 45
REMARK SMILES IDX 43 46 61 47 44 48 47 49 60 50 78 51 45 52 46 53 59 55 79 56
REMARK SMILES IDX 48 57 33 58 34 59 42 60 35 61 41 62 36 63 37 64 38 65 39 66
REMARK SMILES IDX 40 67 63 68 64 69 72 70 65 71 71 72 66 73 67 74 68 75 69 76
REMARK SMILES IDX 70 77 49 78 50 79 58 80 51 81 57 82 52 83 53 84 54 85 55 86
REMARK SMILES IDX 56 87
REMARK H PARENT 13 10 77 43 47 54
REMARK Flexibility Score: inf
ROOT
ATOM      1  C   UNL     1      -6.381  -4.281  -4.157  1.00  0.00     0.274 C 
ENDROOT
BRANCH   1   2
ATOM      2  O   UNL     1      -5.026  -3.898  -3.845  1.00  0.00    -0.462 OA
BRANCH   2   3
ATOM      3  C   UNL     1      -4.865  -2.630  -3.385  1.00  0.00     0.307 C 
ATOM      4  O   UNL     1      -5.776  -1.840  -3.171  1.00  0.00    -0.252 OA
BRANCH   3   5
ATOM      5  C   UNL     1      -3.413  -2.256  -3.239  1.00  0.00     0.144 C 
BRANCH   5   6
ATOM      6  C   UNL     1      -2.641  -3.153  -2.286  1.00  0.00     0.128 C 
BRANCH   6   7
ATOM      7  N   UNL     1      -1.957  -4.255  -2.950  1.00  0.00    -0.351 N 
ATOM      8  C   UNL     1      -0.624  -4.549  -3.127  1.00  0.00     0.255 C 
ATOM      9  O   UNL     1      -0.325  -5.566  -3.752  1.00  0.00    -0.269 OA
ATOM     10  H   UNL     1      -2.567  -4.918  -3.349  1.00  0.00     0.163 HD
BRANCH   8  11
ATOM     11  C   UNL     1       0.455  -3.690  -2.569  1.00  0.00     0.086 A 
ATOM     12  C   UNL     1       1.336  -2.362  -0.748  1.00  0.00     0.121 A 
ATOM     13  C   UNL     1       2.478  -2.071  -1.486  1.00  0.00     0.066 A 
ATOM     14  C   UNL     1       0.373  -3.235  -1.246  1.00  0.00     0.064 A 
ATOM     15  C   UNL     1       2.610  -2.579  -2.778  1.00  0.00     0.064 A 
ATOM     16  Br  UNL     1       4.170  -2.074  -3.741  1.00  0.00    -0.047 Br
ATOM     17  C   UNL     1       1.599  -3.382  -3.333  1.00  0.00     0.146 A 
BRANCH  12  18
ATOM     18  O   UNL     1       1.107  -1.810   0.483  1.00  0.00    -0.497 OA
ATOM     19  C   UNL     1       1.106  -0.378   0.417  1.00  0.00     0.278 C 
ENDBRANCH  12  18
BRANCH  17  20
ATOM     20  O   UNL     1       1.659  -3.760  -4.652  1.00  0.00    -0.495 OA
ATOM     21  C   UNL     1       2.558  -4.852  -4.860  1.00  0.00     0.278 C 
ENDBRANCH  17  20
ENDBRANCH   8  11
ENDBRANCH   6   7
ENDBRANCH   5   6
ENDBRANCH   3   5
ENDBRANCH   2   3
ENDBRANCH   1   2
BRANCH   1  22
ATOM     22  C   UNL     1      -7.027  -5.121  -3.053  1.00  0.00     0.275 C 
BRANCH  22  23
ATOM     23  O   UNL     1      -7.258  -4.361  -1.853  1.00  0.00    -0.458 OA
BRANCH  23  24
ATOM     24  C   UNL     1      -6.276  -4.448  -0.930  1.00  0.00     0.338 C 
ATOM     25  O   UNL     1      -5.245  -5.103  -1.016  1.00  0.00    -0.246 OA
BRANCH  24  26
ATOM     26  C   UNL     1      -6.539  -3.538   0.195  1.00  0.00     0.060 A 
ATOM     27  C   UNL     1      -5.593  -2.546   0.467  1.00  0.00     0.016 A 
ATOM     28  C   UNL     1      -7.635  -3.723   1.042  1.00  0.00     0.016 A 
ATOM     29  C   UNL     1      -5.717  -1.758   1.608  1.00  0.00     0.010 A 
ATOM     30  C   UNL     1      -7.765  -2.919   2.182  1.00  0.00     0.010 A 
ATOM     31  C   UNL     1      -6.793  -1.950   2.486  1.00  0.00    -0.014 A 
BRANCH  31  32
ATOM     32  C   UNL     1      -6.853  -1.167   3.746  1.00  0.00     0.031 A 
ATOM     33  C   UNL     1      -6.510  -1.821   5.056  1.00  0.00     0.074 A 
ATOM     34  C   UNL     1      -7.165   0.141   3.711  1.00  0.00     0.049 A 
ATOM     35  N   UNL     1      -6.474  -1.297   6.256  1.00  0.00    -0.248 NA
ATOM     36  C   UNL     1      -6.159  -3.248   5.011  1.00  0.00     0.031 C 
ATOM     37  C   UNL     1      -7.476   0.903   2.501  1.00  0.00     0.029 A 
ATOM     38  N   UNL     1      -7.255   1.065   4.722  1.00  0.00    -0.354 N 
ATOM     39  C   UNL     1      -6.111  -2.331   7.110  1.00  0.00     0.074 A 
ATOM     40  C   UNL     1      -5.961  -3.518   6.293  1.00  0.00     0.031 C 
ATOM     41  C   UNL     1      -7.693   2.185   2.837  1.00  0.00     0.029 A 
ATOM     42  C   UNL     1      -7.576   2.327   4.286  1.00  0.00     0.049 A 
ATOM     43  H   UNL     1      -7.103   0.843   5.669  1.00  0.00     0.167 HD
ATOM     44  C   UNL     1      -5.916  -2.299   8.451  1.00  0.00     0.031 A 
ATOM     45  C   UNL     1      -7.759   3.471   4.975  1.00  0.00     0.031 A 
ATOM     46  C   UNL     1      -6.071  -1.124   9.268  1.00  0.00     0.049 A 
ATOM     47  C   UNL     1      -7.600   3.469   6.470  1.00  0.00     0.074 A 
ATOM     48  C   UNL     1      -5.882  -0.991  10.633  1.00  0.00     0.029 A 
ATOM     49  N   UNL     1      -6.461   0.120   8.796  1.00  0.00    -0.354 N 
ATOM     50  N   UNL     1      -7.247   2.483   7.259  1.00  0.00    -0.248 NA
ATOM     51  C   UNL     1      -7.865   4.737   7.165  1.00  0.00     0.031 C 
ATOM     52  C   UNL     1      -6.198   0.325  10.992  1.00  0.00     0.029 A 
ATOM     53  C   UNL     1      -6.541   1.022   9.845  1.00  0.00     0.049 A 
ATOM     54  H   UNL     1      -6.653   0.332   7.854  1.00  0.00     0.167 HD
ATOM     55  C   UNL     1      -7.224   3.018   8.543  1.00  0.00     0.074 A 
ATOM     56  C   UNL     1      -7.593   4.414   8.422  1.00  0.00     0.031 C 
ATOM     57  C   UNL     1      -6.917   2.407   9.714  1.00  0.00     0.031 A 
BRANCH  44  58
ATOM     58  C   UNL     1      -5.553  -3.598   9.119  1.00  0.00    -0.014 A 
ATOM     59  C   UNL     1      -4.276  -4.167   8.963  1.00  0.00     0.010 A 
ATOM     60  C   UNL     1      -6.510  -4.267   9.904  1.00  0.00     0.010 A 
ATOM     61  C   UNL     1      -3.982  -5.410   9.530  1.00  0.00     0.020 A 
ATOM     62  C   UNL     1      -6.212  -5.499  10.492  1.00  0.00     0.020 A 
ATOM     63  C   UNL     1      -4.958  -6.076  10.278  1.00  0.00     0.054 A 
BRANCH  63  64
ATOM     64  S   UNL     1      -4.569  -7.703  10.979  1.00  0.00     0.124 S 
ATOM     65  O   UNL     1      -4.713  -8.572   9.814  1.00  0.00    -0.237 OA
ATOM     66  O   UNL     1      -3.204  -7.529  11.468  1.00  0.00    -0.237 OA
ATOM     67  O   UNL     1      -5.580  -7.881  12.019  1.00  0.00    -0.744 OA
ENDBRANCH  63  64
ENDBRANCH  44  58
BRANCH  45  68
ATOM     68  C   UNL     1      -8.098   4.720   4.245  1.00  0.00    -0.014 A 
ATOM     69  C   UNL     1      -7.134   5.731   4.088  1.00  0.00     0.010 A 
ATOM     70  C   UNL     1      -9.371   4.889   3.671  1.00  0.00     0.010 A 
ATOM     71  C   UNL     1      -7.437   6.890   3.368  1.00  0.00     0.020 A 
ATOM     72  C   UNL     1      -9.670   6.037   2.932  1.00  0.00     0.020 A 
ATOM     73  C   UNL     1      -8.702   7.032   2.789  1.00  0.00     0.054 A 
BRANCH  73  74
ATOM     74  S   UNL     1      -9.046   8.506   1.788  1.00  0.00     0.124 S 
ATOM     75  O   UNL     1      -9.246   9.528   2.810  1.00  0.00    -0.237 OA
ATOM     76  O   UNL     1      -7.829   8.638   0.990  1.00  0.00    -0.237 OA
ATOM     77  O   UNL     1     -10.238   8.132   1.030  1.00  0.00    -0.744 OA
ENDBRANCH  73  74
ENDBRANCH  45  68
BRANCH  57  78
ATOM     78  C   UNL     1      -6.939   3.252  10.959  1.00  0.00    -0.014 A 
ATOM     79  C   UNL     1      -8.153   3.639  11.554  1.00  0.00     0.010 A 
ATOM     80  C   UNL     1      -5.726   3.627  11.565  1.00  0.00     0.010 A 
ATOM     81  C   UNL     1      -8.152   4.412  12.719  1.00  0.00     0.020 A 
ATOM     82  C   UNL     1      -5.722   4.382  12.740  1.00  0.00     0.020 A 
ATOM     83  C   UNL     1      -6.937   4.782  13.302  1.00  0.00     0.054 A 
BRANCH  83  84
ATOM     84  S   UNL     1      -6.958   5.752  14.836  1.00  0.00     0.124 S 
ATOM     85  O   UNL     1      -7.256   7.093  14.343  1.00  0.00    -0.237 OA
ATOM     86  O   UNL     1      -8.022   5.115  15.608  1.00  0.00    -0.237 OA
ATOM     87  O   UNL     1      -5.612   5.571  15.377  1.00  0.00    -0.744 OA
ENDBRANCH  83  84
ENDBRANCH  57  78
ENDBRANCH  31  32
ENDBRANCH  24  26
ENDBRANCH  23  24
ENDBRANCH  22  23
ENDBRANCH   1  22
TORSDOF 19
