REMARK SMILES C[C@@H]1CC[N@@H+]1[C@@H]1CCC[C@@H]1C(=O)OCCOC(=O)c1ccc(-c2c3nc(c(-c4ccc(S(=O)(=O)[O-])cc4)c4ccc([nH]4)c(-c4ccc(S(=O)(=O)[O-])cc4)c4nc(c(-c5ccc(S(=O)(=O)[O-])cc5)c5ccc2[nH]5)C=C4)C=C3)cc1
REMARK SMILES IDX 15 1 14 2 13 3 11 4 12 5 10 6 6 7 7 8 8 9 9 10 5 11 1 12
REMARK SMILES IDX 2 13 3 14 4 15 16 17 17 18 18 19 19 20 20 21 78 22 21 23
REMARK SMILES IDX 77 24 22 25 23 26 24 27 71 28 25 29 76 30 70 31 72 32 26 33
REMARK SMILES IDX 75 34 69 35 68 36 27 38 57 39 38 40 56 41 39 42 42 43 55 44
REMARK SMILES IDX 73 45 40 46 41 47 54 49 74 50 43 51 28 52 29 53 37 54 30 55
REMARK SMILES IDX 36 56 31 57 32 58 33 59 34 60 35 61 58 62 59 63 67 64 60 65
REMARK SMILES IDX 66 66 61 67 62 68 63 69 64 70 65 71 44 72 45 73 53 74 46 75
REMARK SMILES IDX 52 76 47 77 48 78 49 79 50 80 51 81
REMARK H PARENT 5 16 72 37 42 48
REMARK Flexibility Score: inf
ROOT
ATOM      1  C   UNL     1       3.022   2.002  -1.176  1.00  0.00     0.275 C 
ENDROOT
BRANCH   1   2
ATOM      2  C   UNL     1       3.228   1.932   0.351  1.00  0.00     0.274 C 
BRANCH   2   3
ATOM      3  O   UNL     1       3.446   0.573   0.756  1.00  0.00    -0.462 OA
BRANCH   3   4
ATOM      4  C   UNL     1       2.828   0.111   1.883  1.00  0.00     0.315 C 
ATOM      5  O   UNL     1       2.284   0.796   2.737  1.00  0.00    -0.252 OA
BRANCH   4   6
ATOM      6  C   UNL     1       2.903  -1.398   1.895  1.00  0.00     0.157 C 
ATOM      7  C   UNL     1       1.726  -2.039   1.148  1.00  0.00     0.198 C 
ATOM      8  C   UNL     1       0.748  -2.514   2.271  1.00  0.00     0.066 C 
ATOM      9  C   UNL     1       1.451  -2.354   3.607  1.00  0.00     0.007 C 
ATOM     10  C   UNL     1       2.892  -2.007   3.298  1.00  0.00     0.022 C 
BRANCH   7  11
ATOM     11  N   UNL     1       1.399  -1.295  -0.125  1.00  0.00    -0.329 N 
ATOM     12  C   UNL     1      -0.296   0.886   1.003  1.00  0.00     0.075 C 
ATOM     13  C   UNL     1      -0.022   0.026  -0.215  1.00  0.00     0.186 C 
ATOM     14  C   UNL     1      -1.113  -0.999  -1.655  1.00  0.00     0.126 C 
ATOM     15  C   UNL     1       0.638  -2.534  -1.486  1.00  0.00     0.268 C 
ATOM     16  H   UNL     1       2.311  -0.853  -0.239  1.00  0.00     0.348 HD
ENDBRANCH   7  11
ENDBRANCH   4   6
ENDBRANCH   3   4
ENDBRANCH   2   3
ENDBRANCH   1   2
BRANCH   1  17
ATOM     17  O   UNL     1       1.863   1.269  -1.612  1.00  0.00    -0.458 OA
BRANCH  17  18
ATOM     18  C   UNL     1       1.990  -0.026  -2.009  1.00  0.00     0.338 C 
ATOM     19  O   UNL     1       3.020  -0.515  -2.453  1.00  0.00    -0.246 OA
BRANCH  18  20
ATOM     20  C   UNL     1       0.585  -0.865  -1.893  1.00  0.00     0.060 A 
ATOM     21  C   UNL     1      -0.452  -1.865  -0.363  1.00  0.00     0.016 A 
ATOM     22  C   UNL     1       0.194  -1.390  -3.404  1.00  0.00     0.016 A 
ATOM     23  C   UNL     1      -1.392  -3.068  -0.709  1.00  0.00     0.010 A 
ATOM     24  C   UNL     1      -0.926  -2.499  -3.470  1.00  0.00     0.010 A 
ATOM     25  C   UNL     1      -1.659  -3.288  -2.208  1.00  0.00    -0.014 A 
BRANCH  25  26
ATOM     26  C   UNL     1      -2.783  -4.225  -2.455  1.00  0.00     0.031 A 
ATOM     27  C   UNL     1      -2.596  -5.299  -3.471  1.00  0.00     0.074 A 
ATOM     28  C   UNL     1      -3.899  -4.130  -1.688  1.00  0.00     0.049 A 
ATOM     29  N   UNL     1      -3.465  -6.171  -3.887  1.00  0.00    -0.248 NA
ATOM     30  C   UNL     1      -1.288  -5.382  -4.146  1.00  0.00     0.031 C 
ATOM     31  C   UNL     1      -4.157  -3.113  -0.650  1.00  0.00     0.029 A 
ATOM     32  N   UNL     1      -5.001  -4.935  -1.584  1.00  0.00    -0.354 N 
ATOM     33  C   UNL     1      -2.835  -6.849  -4.919  1.00  0.00     0.074 A 
ATOM     34  C   UNL     1      -1.534  -6.258  -5.105  1.00  0.00     0.031 C 
ATOM     35  C   UNL     1      -5.221  -3.450   0.080  1.00  0.00     0.029 A 
ATOM     36  C   UNL     1      -5.858  -4.572  -0.565  1.00  0.00     0.049 A 
ATOM     37  H   UNL     1      -5.167  -5.701  -2.180  1.00  0.00     0.167 HD
ATOM     38  C   UNL     1      -3.317  -7.886  -5.630  1.00  0.00     0.031 A 
ATOM     39  C   UNL     1      -7.068  -5.041  -0.222  1.00  0.00     0.031 A 
ATOM     40  C   UNL     1      -4.605  -8.460  -5.367  1.00  0.00     0.049 A 
ATOM     41  C   UNL     1      -7.593  -6.151  -1.067  1.00  0.00     0.074 A 
ATOM     42  C   UNL     1      -5.217  -9.521  -6.000  1.00  0.00     0.029 A 
ATOM     43  N   UNL     1      -5.475  -8.013  -4.378  1.00  0.00    -0.354 N 
ATOM     44  N   UNL     1      -6.989  -6.773  -2.053  1.00  0.00    -0.248 NA
ATOM     45  C   UNL     1      -8.949  -6.614  -0.779  1.00  0.00     0.031 C 
ATOM     46  C   UNL     1      -6.495  -9.657  -5.455  1.00  0.00     0.029 A 
ATOM     47  C   UNL     1      -6.642  -8.750  -4.413  1.00  0.00     0.049 A 
ATOM     48  H   UNL     1      -5.288  -7.280  -3.748  1.00  0.00     0.167 HD
ATOM     49  C   UNL     1      -7.891  -7.717  -2.503  1.00  0.00     0.074 A 
ATOM     50  C   UNL     1      -9.061  -7.608  -1.648  1.00  0.00     0.031 C 
ATOM     51  C   UNL     1      -7.773  -8.588  -3.534  1.00  0.00     0.031 A 
BRANCH  38  52
ATOM     52  C   UNL     1      -2.484  -8.400  -6.768  1.00  0.00    -0.014 A 
ATOM     53  C   UNL     1      -1.246  -9.036  -6.564  1.00  0.00     0.010 A 
ATOM     54  C   UNL     1      -2.972  -8.252  -8.078  1.00  0.00     0.010 A 
ATOM     55  C   UNL     1      -0.509  -9.508  -7.652  1.00  0.00     0.020 A 
ATOM     56  C   UNL     1      -2.259  -8.758  -9.165  1.00  0.00     0.020 A 
ATOM     57  C   UNL     1      -1.030  -9.383  -8.943  1.00  0.00     0.054 A 
BRANCH  57  58
ATOM     58  S   UNL     1      -0.105 -10.103 -10.323  1.00  0.00     0.124 S 
ATOM     59  O   UNL     1       1.091  -9.266 -10.358  1.00  0.00    -0.237 OA
ATOM     60  O   UNL     1       0.102 -11.478  -9.876  1.00  0.00    -0.237 OA
ATOM     61  O   UNL     1      -1.005  -9.950 -11.464  1.00  0.00    -0.744 OA
ENDBRANCH  57  58
ENDBRANCH  38  52
BRANCH  39  62
ATOM     62  C   UNL     1      -7.861  -4.400   0.866  1.00  0.00    -0.014 A 
ATOM     63  C   UNL     1      -8.257  -5.122   2.003  1.00  0.00     0.010 A 
ATOM     64  C   UNL     1      -8.213  -3.037   0.775  1.00  0.00     0.010 A 
ATOM     65  C   UNL     1      -9.012  -4.505   3.008  1.00  0.00     0.020 A 
ATOM     66  C   UNL     1      -8.922  -2.403   1.797  1.00  0.00     0.020 A 
ATOM     67  C   UNL     1      -9.336  -3.148   2.898  1.00  0.00     0.054 A 
BRANCH  67  68
ATOM     68  S   UNL     1     -10.302  -2.369   4.220  1.00  0.00     0.124 S 
ATOM     69  O   UNL     1     -11.593  -3.035   4.083  1.00  0.00    -0.237 OA
ATOM     70  O   UNL     1      -9.533  -2.714   5.412  1.00  0.00    -0.237 OA
ATOM     71  O   UNL     1     -10.289  -0.952   3.865  1.00  0.00    -0.744 OA
ENDBRANCH  67  68
ENDBRANCH  39  62
BRANCH  51  72
ATOM     72  C   UNL     1      -8.934  -9.508  -3.744  1.00  0.00    -0.014 A 
ATOM     73  C   UNL     1     -10.172  -9.023  -4.196  1.00  0.00     0.010 A 
ATOM     74  C   UNL     1      -8.758 -10.884  -3.519  1.00  0.00     0.010 A 
ATOM     75  C   UNL     1     -11.236  -9.901  -4.375  1.00  0.00     0.020 A 
ATOM     76  C   UNL     1      -9.803 -11.771  -3.752  1.00  0.00     0.020 A 
ATOM     77  C   UNL     1     -11.039 -11.270  -4.162  1.00  0.00     0.054 A 
BRANCH  77  78
ATOM     78  S   UNL     1     -12.423 -12.392  -4.466  1.00  0.00     0.124 S 
ATOM     79  O   UNL     1     -13.349 -12.026  -3.398  1.00  0.00    -0.237 OA
ATOM     80  O   UNL     1     -12.838 -12.019  -5.816  1.00  0.00    -0.237 OA
ATOM     81  O   UNL     1     -11.826 -13.720  -4.345  1.00  0.00    -0.744 OA
ENDBRANCH  77  78
ENDBRANCH  51  72
ENDBRANCH  25  26
ENDBRANCH  18  20
ENDBRANCH  17  18
ENDBRANCH   1  17
TORSDOF 15
