REMARK SMILES CCCCCCNC(=O)Oc1cccc(-c2ccc([C@@H](C)C(=O)OCCOC(=O)c3ccc(-c4c5nc(c(-c6ccc(S(=O)(=O)[O-])cc6)c6ccc([nH]6)c(-c6ccc(S(=O)(=O)[O-])cc6)c6nc(c(-c7ccc(S(=O)(=O)[O-])cc7)c7ccc4[nH]7)C=C6)C=C5)cc3)cc2N)c1
REMARK SMILES IDX 20 1 21 2 19 3 16 4 17 5 91 6 18 7 90 8 15 9 11 10 12 11
REMARK SMILES IDX 93 12 13 13 14 14 10 15 8 16 7 17 9 19 6 20 5 21 4 22 3 23
REMARK SMILES IDX 2 24 1 25 92 26 22 29 23 30 24 31 25 32 26 33 27 34 28 35
REMARK SMILES IDX 29 36 30 37 31 38 89 39 32 40 88 41 33 42 34 43 35 44 82 45
REMARK SMILES IDX 36 46 87 47 81 48 83 49 37 50 86 51 80 52 79 53 38 55 68 56
REMARK SMILES IDX 49 57 67 58 50 59 53 60 66 61 84 62 51 63 52 64 65 66 85 67
REMARK SMILES IDX 54 68 39 69 40 70 48 71 41 72 47 73 42 74 43 75 44 76 45 77
REMARK SMILES IDX 46 78 69 79 70 80 78 81 71 82 77 83 72 84 73 85 74 86 75 87
REMARK SMILES IDX 76 88 55 89 56 90 64 91 57 92 63 93 58 94 59 95 60 96 61 97
REMARK SMILES IDX 62 98
REMARK H PARENT 7 18 92 27 92 28 83 54 53 65
REMARK Flexibility Score: inf
ROOT
ATOM      1  C   UNL     1      -4.549 -12.250  -6.514  1.00  0.00     0.126 C 
ATOM      2  C   UNL     1      -5.736 -12.875  -7.244  1.00  0.00     0.025 C 
ENDROOT
BRANCH   1   3
ATOM      3  C   UNL     1      -4.633 -10.732  -6.461  1.00  0.00    -0.032 A 
ATOM      4  C   UNL     1      -4.823  -7.899  -6.279  1.00  0.00     0.005 A 
ATOM      5  C   UNL     1      -4.790  -8.558  -7.524  1.00  0.00     0.011 A 
ATOM      6  C   UNL     1      -4.736  -8.679  -5.105  1.00  0.00     0.040 A 
ATOM      7  C   UNL     1      -4.700  -9.949  -7.615  1.00  0.00     0.005 A 
ATOM      8  C   UNL     1      -4.669 -10.078  -5.216  1.00  0.00     0.030 A 
BRANCH   4   9
ATOM      9  C   UNL     1      -4.947  -6.428  -6.256  1.00  0.00    -0.013 A 
ATOM     10  C   UNL     1      -4.120  -4.234  -5.631  1.00  0.00     0.133 A 
ATOM     11  C   UNL     1      -5.245  -3.623  -6.180  1.00  0.00     0.047 A 
ATOM     12  C   UNL     1      -3.962  -5.620  -5.663  1.00  0.00     0.056 A 
ATOM     13  C   UNL     1      -6.218  -4.409  -6.790  1.00  0.00     0.004 A 
ATOM     14  C   UNL     1      -6.070  -5.798  -6.823  1.00  0.00     0.009 A 
BRANCH  10  15
ATOM     15  O   UNL     1      -3.232  -3.411  -4.918  1.00  0.00    -0.410 OA
BRANCH  15  16
ATOM     16  C   UNL     1      -1.887  -3.457  -5.253  1.00  0.00     0.412 C 
ATOM     17  N   UNL     1      -1.105  -2.691  -4.433  1.00  0.00    -0.321 N 
ATOM     18  H   UNL     1      -0.138  -2.700  -4.616  1.00  0.00     0.167 HD
ATOM     19  O   UNL     1      -1.399  -4.081  -6.187  1.00  0.00    -0.224 OA
BRANCH  17  20
ATOM     20  C   UNL     1      -1.544  -1.868  -3.322  1.00  0.00     0.119 C 
BRANCH  20  21
ATOM     21  C   UNL     1      -0.919  -2.293  -1.995  1.00  0.00     0.021 C 
BRANCH  21  22
ATOM     22  C   UNL     1       0.610  -2.186  -1.931  1.00  0.00     0.002 C 
BRANCH  22  23
ATOM     23  C   UNL     1       1.193  -0.798  -2.222  1.00  0.00    -0.000 C 
BRANCH  23  24
ATOM     24  C   UNL     1       0.707   0.328  -1.306  1.00  0.00    -0.003 C 
ATOM     25  C   UNL     1       1.085   0.125   0.153  1.00  0.00     0.004 C 
ENDBRANCH  23  24
ENDBRANCH  22  23
ENDBRANCH  21  22
ENDBRANCH  20  21
ENDBRANCH  17  20
ENDBRANCH  15  16
ENDBRANCH  10  15
ENDBRANCH   4   9
BRANCH   6  26
ATOM     26  N   UNL     1      -4.881  -8.130  -3.829  1.00  0.00    -0.398 N 
ATOM     27  H   UNL     1      -4.932  -7.154  -3.716  1.00  0.00     0.156 HD
ATOM     28  H   UNL     1      -4.934  -8.720  -3.043  1.00  0.00     0.156 HD
ENDBRANCH   6  26
ENDBRANCH   1   3
BRANCH   1  29
ATOM     29  C   UNL     1      -3.246 -12.832  -7.050  1.00  0.00     0.313 C 
ATOM     30  O   UNL     1      -2.822 -13.924  -6.684  1.00  0.00    -0.252 OA
BRANCH  29  31
ATOM     31  O   UNL     1      -2.649 -12.063  -7.998  1.00  0.00    -0.462 OA
BRANCH  31  32
ATOM     32  C   UNL     1      -1.390 -12.534  -8.516  1.00  0.00     0.274 C 
BRANCH  32  33
ATOM     33  C   UNL     1      -0.211 -11.798  -7.875  1.00  0.00     0.275 C 
BRANCH  33  34
ATOM     34  O   UNL     1      -0.061 -12.157  -6.490  1.00  0.00    -0.458 OA
BRANCH  34  35
ATOM     35  C   UNL     1      -0.635 -11.298  -5.616  1.00  0.00     0.338 C 
ATOM     36  O   UNL     1      -1.203 -10.252  -5.873  1.00  0.00    -0.246 OA
BRANCH  35  37
ATOM     37  C   UNL     1      -0.584 -11.864  -4.261  1.00  0.00     0.060 A 
ATOM     38  C   UNL     1      -1.791 -12.218  -3.654  1.00  0.00     0.016 A 
ATOM     39  C   UNL     1       0.618 -11.952  -3.558  1.00  0.00     0.016 A 
ATOM     40  C   UNL     1      -1.808 -12.641  -2.329  1.00  0.00     0.010 A 
ATOM     41  C   UNL     1       0.601 -12.386  -2.229  1.00  0.00     0.010 A 
ATOM     42  C   UNL     1      -0.614 -12.713  -1.601  1.00  0.00    -0.014 A 
BRANCH  42  43
ATOM     43  C   UNL     1      -0.657 -13.076  -0.165  1.00  0.00     0.031 A 
ATOM     44  C   UNL     1      -0.466 -12.015   0.882  1.00  0.00     0.074 A 
ATOM     45  C   UNL     1      -0.900 -14.349   0.197  1.00  0.00     0.049 A 
ATOM     46  N   UNL     1      -0.446 -12.135   2.184  1.00  0.00    -0.248 NA
ATOM     47  C   UNL     1      -0.270 -10.639   0.399  1.00  0.00     0.031 C 
ATOM     48  C   UNL     1      -1.135 -15.460  -0.727  1.00  0.00     0.029 A 
ATOM     49  N   UNL     1      -0.991 -14.922   1.441  1.00  0.00    -0.354 N 
ATOM     50  C   UNL     1      -0.216 -10.856   2.678  1.00  0.00     0.074 A 
ATOM     51  C   UNL     1      -0.087  -9.979   1.534  1.00  0.00     0.031 C 
ATOM     52  C   UNL     1      -1.344 -16.581  -0.017  1.00  0.00     0.029 A 
ATOM     53  C   UNL     1      -1.223 -16.275   1.406  1.00  0.00     0.049 A 
ATOM     54  H   UNL     1      -0.899 -14.411   2.277  1.00  0.00     0.167 HD
ATOM     55  C   UNL     1      -0.123 -10.450   3.967  1.00  0.00     0.031 A 
ATOM     56  C   UNL     1      -1.307 -17.174   2.406  1.00  0.00     0.031 A 
ATOM     57  C   UNL     1      -0.246 -11.326   5.102  1.00  0.00     0.049 A 
ATOM     58  C   UNL     1      -1.165 -16.707   3.828  1.00  0.00     0.074 A 
ATOM     59  C   UNL     1      -0.175 -11.009   6.448  1.00  0.00     0.029 A 
ATOM     60  N   UNL     1      -0.464 -12.694   5.025  1.00  0.00    -0.354 N 
ATOM     61  N   UNL     1      -0.959 -15.491   4.278  1.00  0.00    -0.248 NA
ATOM     62  C   UNL     1      -1.271 -17.730   4.877  1.00  0.00     0.031 C 
ATOM     63  C   UNL     1      -0.309 -12.192   7.183  1.00  0.00     0.029 A 
ATOM     64  C   UNL     1      -0.510 -13.239   6.297  1.00  0.00     0.049 A 
ATOM     65  H   UNL     1      -0.569 -13.202   4.189  1.00  0.00     0.167 HD
ATOM     66  C   UNL     1      -0.925 -15.602   5.663  1.00  0.00     0.074 A 
ATOM     67  C   UNL     1      -1.148 -16.999   5.977  1.00  0.00     0.031 C 
ATOM     68  C   UNL     1      -0.726 -14.633   6.591  1.00  0.00     0.031 A 
BRANCH  55  69
ATOM     69  C   UNL     1       0.167  -8.993   4.208  1.00  0.00    -0.014 A 
ATOM     70  C   UNL     1      -0.816  -8.009   3.996  1.00  0.00     0.010 A 
ATOM     71  C   UNL     1       1.442  -8.602   4.655  1.00  0.00     0.010 A 
ATOM     72  C   UNL     1      -0.513  -6.657   4.177  1.00  0.00     0.020 A 
ATOM     73  C   UNL     1       1.742  -7.252   4.859  1.00  0.00     0.020 A 
ATOM     74  C   UNL     1       0.768  -6.286   4.596  1.00  0.00     0.054 A 
BRANCH  74  75
ATOM     75  S   UNL     1       1.143  -4.524   4.809  1.00  0.00     0.124 S 
ATOM     76  O   UNL     1       1.297  -4.080   3.425  1.00  0.00    -0.237 OA
ATOM     77  O   UNL     1      -0.043  -4.021   5.499  1.00  0.00    -0.237 OA
ATOM     78  O   UNL     1       2.369  -4.524   5.604  1.00  0.00    -0.744 OA
ENDBRANCH  74  75
ENDBRANCH  55  69
BRANCH  56  79
ATOM     79  C   UNL     1      -1.515 -18.610   2.085  1.00  0.00    -0.014 A 
ATOM     80  C   UNL     1      -2.752 -19.231   2.329  1.00  0.00     0.010 A 
ATOM     81  C   UNL     1      -0.478 -19.356   1.494  1.00  0.00     0.010 A 
ATOM     82  C   UNL     1      -2.947 -20.574   1.992  1.00  0.00     0.020 A 
ATOM     83  C   UNL     1      -0.677 -20.692   1.134  1.00  0.00     0.020 A 
ATOM     84  C   UNL     1      -1.909 -21.295   1.393  1.00  0.00     0.054 A 
BRANCH  84  85
ATOM     85  S   UNL     1      -2.206 -23.014   0.893  1.00  0.00     0.124 S 
ATOM     86  O   UNL     1      -2.108 -23.721   2.166  1.00  0.00    -0.237 OA
ATOM     87  O   UNL     1      -3.542 -22.950   0.306  1.00  0.00    -0.237 OA
ATOM     88  O   UNL     1      -1.129 -23.282  -0.058  1.00  0.00    -0.744 OA
ENDBRANCH  84  85
ENDBRANCH  56  79
BRANCH  68  89
ATOM     89  C   UNL     1      -0.762 -15.048   8.037  1.00  0.00    -0.014 A 
ATOM     90  C   UNL     1       0.313 -15.743   8.619  1.00  0.00     0.010 A 
ATOM     91  C   UNL     1      -1.864 -14.693   8.835  1.00  0.00     0.010 A 
ATOM     92  C   UNL     1       0.273 -16.101   9.969  1.00  0.00     0.020 A 
ATOM     93  C   UNL     1      -1.898 -15.030  10.191  1.00  0.00     0.020 A 
ATOM     94  C   UNL     1      -0.834 -15.745  10.746  1.00  0.00     0.054 A 
BRANCH  94  95
ATOM     95  S   UNL     1      -0.847 -16.181  12.507  1.00  0.00     0.124 S 
ATOM     96  O   UNL     1      -1.183 -17.602  12.465  1.00  0.00    -0.237 OA
ATOM     97  O   UNL     1       0.517 -15.870  12.928  1.00  0.00    -0.237 OA
ATOM     98  O   UNL     1      -1.878 -15.313  13.070  1.00  0.00    -0.744 OA
ENDBRANCH  94  95
ENDBRANCH  68  89
ENDBRANCH  42  43
ENDBRANCH  35  37
ENDBRANCH  34  35
ENDBRANCH  33  34
ENDBRANCH  32  33
ENDBRANCH  31  32
ENDBRANCH  29  31
ENDBRANCH   1  29
TORSDOF 24
