REMARK SMILES O=C(CCCN1C(=O)C(=O)/C(=C(/[O-])c2ccc(Cl)cc2)[C@@H]1c1ccccc1[N+](=O)[O-])OCCOC(=O)c1ccc(-c2c3nc(c(-c4ccc(S(=O)(=O)[O-])cc4)c4ccc([nH]4)c(-c4ccc(S(=O)(=O)[O-])cc4)c4nc(c(-c5ccc(S(=O)(=O)[O-])cc5)c5ccc2[nH]5)C=C4)C=C3)cc1
REMARK SMILES IDX 32 1 31 2 2 3 1 4 3 5 4 6 5 7 6 8 7 9 21 10 8 11 9 12 11 13
REMARK SMILES IDX 10 14 12 15 13 16 22 17 23 18 27 19 24 20 26 21 25 22 28 23
REMARK SMILES IDX 29 24 30 25 14 26 15 27 20 28 16 29 19 30 17 31 18 32 33 33
REMARK SMILES IDX 34 34 35 35 36 36 37 37 38 38 96 39 39 40 95 41 40 42 41 43
REMARK SMILES IDX 42 44 89 45 43 46 94 47 88 48 90 49 44 50 93 51 87 52 86 53
REMARK SMILES IDX 45 55 75 56 56 57 74 58 57 59 60 60 73 61 91 62 58 63 59 64
REMARK SMILES IDX 72 66 92 67 61 68 46 69 47 70 55 71 48 72 54 73 49 74 50 75
REMARK SMILES IDX 51 76 52 77 53 78 76 79 77 80 85 81 78 82 84 83 79 84 80 85
REMARK SMILES IDX 81 86 82 87 83 88 62 89 63 90 71 91 64 92 70 93 65 94 66 95
REMARK SMILES IDX 67 96 68 97 69 98
REMARK H PARENT 90 54 60 65
REMARK Flexibility Score: inf
ROOT
ATOM      1  C   UNL     1       3.480   1.426   1.055  1.00  0.00     0.274 C 
ENDROOT
BRANCH   1   2
ATOM      2  O   UNL     1       2.238   1.004   0.460  1.00  0.00    -0.462 OA
BRANCH   2   3
ATOM      3  C   UNL     1       2.177   0.205  -0.634  1.00  0.00     0.305 C 
ATOM      4  O   UNL     1       1.319   0.383  -1.494  1.00  0.00    -0.252 OA
BRANCH   3   5
ATOM      5  C   UNL     1       3.096  -0.998  -0.690  1.00  0.00     0.124 C 
BRANCH   5   6
ATOM      6  C   UNL     1       4.048  -1.024  -1.870  1.00  0.00     0.033 C 
BRANCH   6   7
ATOM      7  C   UNL     1       5.161   0.000  -1.752  1.00  0.00     0.121 C 
BRANCH   7   8
ATOM      8  N   UNL     1       6.236  -0.221  -0.772  1.00  0.00    -0.324 N 
ATOM      9  C   UNL     1       7.016   0.870  -0.411  1.00  0.00     0.295 C 
ATOM     10  C   UNL     1       6.691  -1.477  -0.143  1.00  0.00     0.157 C 
ATOM     11  O   UNL     1       6.833   2.039  -0.679  1.00  0.00    -0.265 OA
ATOM     12  C   UNL     1       8.117   0.369   0.506  1.00  0.00     0.248 C 
ATOM     13  C   UNL     1       7.774  -1.036   0.853  1.00  0.00     0.025 C 
ATOM     14  O   UNL     1       9.024   1.061   0.913  1.00  0.00    -0.283 OA
ATOM     15  C   UNL     1       8.301  -1.646   1.937  1.00  0.00    -0.092 C 
ATOM     16  O   UNL     1       7.875  -2.866   2.412  1.00  0.00    -0.872 OA
BRANCH  10  17
ATOM     17  C   UNL     1       7.130  -2.637  -1.047  1.00  0.00     0.057 A 
ATOM     18  C   UNL     1       7.196  -3.923  -0.456  1.00  0.00     0.013 A 
ATOM     19  C   UNL     1       7.465  -2.602  -2.416  1.00  0.00     0.275 A 
ATOM     20  C   UNL     1       7.560  -5.073  -1.170  1.00  0.00     0.001 A 
ATOM     21  C   UNL     1       7.755  -3.764  -3.160  1.00  0.00     0.086 A 
ATOM     22  C   UNL     1       7.811  -4.999  -2.530  1.00  0.00     0.007 A 
BRANCH  19  23
ATOM     23  N   UNL     1       7.613  -1.367  -3.157  1.00  0.00     0.063 N 
ATOM     24  O   UNL     1       6.956  -1.253  -4.200  1.00  0.00    -0.258 OA
ATOM     25  O   UNL     1       8.403  -0.531  -2.701  1.00  0.00    -0.258 OA
ENDBRANCH  19  23
ENDBRANCH  10  17
BRANCH  15  26
ATOM     26  C   UNL     1       9.450  -1.141   2.712  1.00  0.00    -0.033 A 
ATOM     27  C   UNL     1       9.297  -0.178   3.718  1.00  0.00     0.009 A 
ATOM     28  C   UNL     1      10.734  -1.631   2.427  1.00  0.00     0.009 A 
ATOM     29  C   UNL     1      10.417   0.322   4.394  1.00  0.00     0.021 A 
ATOM     30  C   UNL     1      11.852  -1.136   3.106  1.00  0.00     0.021 A 
ATOM     31  C   UNL     1      11.689  -0.152   4.078  1.00  0.00     0.041 A 
ATOM     32  Cl  UNL     1      13.068   0.484   4.889  1.00  0.00    -0.084 Cl
ENDBRANCH  15  26
ENDBRANCH   7   8
ENDBRANCH   6   7
ENDBRANCH   5   6
ENDBRANCH   3   5
ENDBRANCH   2   3
ENDBRANCH   1   2
BRANCH   1  33
ATOM     33  C   UNL     1       3.781   0.801   2.421  1.00  0.00     0.275 C 
BRANCH  33  34
ATOM     34  O   UNL     1       3.569  -0.619   2.430  1.00  0.00    -0.458 OA
BRANCH  34  35
ATOM     35  C   UNL     1       2.275  -0.971   2.663  1.00  0.00     0.338 C 
ATOM     36  O   UNL     1       1.373  -0.228   3.007  1.00  0.00    -0.246 OA
BRANCH  35  37
ATOM     37  C   UNL     1       2.063  -2.373   2.248  1.00  0.00     0.060 A 
ATOM     38  C   UNL     1       0.895  -2.673   1.535  1.00  0.00     0.016 A 
ATOM     39  C   UNL     1       2.984  -3.380   2.553  1.00  0.00     0.016 A 
ATOM     40  C   UNL     1       0.613  -3.991   1.182  1.00  0.00     0.010 A 
ATOM     41  C   UNL     1       2.698  -4.702   2.199  1.00  0.00     0.010 A 
ATOM     42  C   UNL     1       1.488  -5.019   1.555  1.00  0.00    -0.014 A 
BRANCH  42  43
ATOM     43  C   UNL     1       1.036  -6.430   1.460  1.00  0.00     0.031 A 
ATOM     44  C   UNL     1       0.498  -7.093   2.702  1.00  0.00     0.074 A 
ATOM     45  C   UNL     1       1.056  -7.099   0.294  1.00  0.00     0.049 A 
ATOM     46  N   UNL     1       0.020  -8.300   2.856  1.00  0.00    -0.248 NA
ATOM     47  C   UNL     1       0.504  -6.286   3.934  1.00  0.00     0.031 C 
ATOM     48  C   UNL     1       1.512  -6.560  -0.986  1.00  0.00     0.029 A 
ATOM     49  N   UNL     1       0.672  -8.385   0.001  1.00  0.00    -0.354 N 
ATOM     50  C   UNL     1      -0.336  -8.396   4.197  1.00  0.00     0.074 A 
ATOM     51  C   UNL     1       0.027  -7.143   4.823  1.00  0.00     0.031 C 
ATOM     52  C   UNL     1       1.379  -7.509  -1.930  1.00  0.00     0.029 A 
ATOM     53  C   UNL     1       0.854  -8.729  -1.318  1.00  0.00     0.049 A 
ATOM     54  H   UNL     1       0.302  -9.002   0.672  1.00  0.00     0.167 HD
ATOM     55  C   UNL     1      -0.924  -9.426   4.850  1.00  0.00     0.031 A 
ATOM     56  C   UNL     1       0.629  -9.896  -1.955  1.00  0.00     0.031 A 
ATOM     57  C   UNL     1      -1.268 -10.679   4.233  1.00  0.00     0.049 A 
ATOM     58  C   UNL     1       0.050 -11.060  -1.189  1.00  0.00     0.074 A 
ATOM     59  C   UNL     1      -1.880 -11.779   4.808  1.00  0.00     0.029 A 
ATOM     60  N   UNL     1      -1.020 -11.005   2.909  1.00  0.00    -0.354 N 
ATOM     61  N   UNL     1      -0.317 -11.120   0.069  1.00  0.00    -0.248 NA
ATOM     62  C   UNL     1      -0.154 -12.311  -1.935  1.00  0.00     0.031 C 
ATOM     63  C   UNL     1      -1.937 -12.796   3.849  1.00  0.00     0.029 A 
ATOM     64  C   UNL     1      -1.432 -12.303   2.657  1.00  0.00     0.049 A 
ATOM     65  H   UNL     1      -0.612 -10.402   2.245  1.00  0.00     0.167 HD
ATOM     66  C   UNL     1      -0.825 -12.403   0.256  1.00  0.00     0.074 A 
ATOM     67  C   UNL     1      -0.730 -13.080  -1.020  1.00  0.00     0.031 C 
ATOM     68  C   UNL     1      -1.328 -12.969   1.382  1.00  0.00     0.031 A 
BRANCH  55  69
ATOM     69  C   UNL     1      -1.197  -9.250   6.321  1.00  0.00    -0.014 A 
ATOM     70  C   UNL     1      -2.181  -8.355   6.780  1.00  0.00     0.010 A 
ATOM     71  C   UNL     1      -0.477 -10.015   7.256  1.00  0.00     0.010 A 
ATOM     72  C   UNL     1      -2.408  -8.197   8.150  1.00  0.00     0.020 A 
ATOM     73  C   UNL     1      -0.723  -9.882   8.625  1.00  0.00     0.020 A 
ATOM     74  C   UNL     1      -1.675  -8.960   9.064  1.00  0.00     0.054 A 
BRANCH  74  75
ATOM     75  S   UNL     1      -2.000  -8.743  10.835  1.00  0.00     0.124 S 
ATOM     76  O   UNL     1      -1.440  -7.416  11.082  1.00  0.00    -0.237 OA
ATOM     77  O   UNL     1      -3.456  -8.833  10.905  1.00  0.00    -0.237 OA
ATOM     78  O   UNL     1      -1.278  -9.849  11.459  1.00  0.00    -0.744 OA
ENDBRANCH  74  75
ENDBRANCH  55  69
BRANCH  56  79
ATOM     79  C   UNL     1       0.964 -10.032  -3.401  1.00  0.00    -0.014 A 
ATOM     80  C   UNL     1      -0.045 -10.200  -4.366  1.00  0.00     0.010 A 
ATOM     81  C   UNL     1       2.308 -10.006  -3.818  1.00  0.00     0.010 A 
ATOM     82  C   UNL     1       0.283 -10.355  -5.716  1.00  0.00     0.020 A 
ATOM     83  C   UNL     1       2.638 -10.129  -5.170  1.00  0.00     0.020 A 
ATOM     84  C   UNL     1       1.624 -10.314  -6.110  1.00  0.00     0.054 A 
BRANCH  84  85
ATOM     85  S   UNL     1       2.025 -10.463  -7.874  1.00  0.00     0.124 S 
ATOM     86  O   UNL     1       1.734 -11.869  -8.134  1.00  0.00    -0.237 OA
ATOM     87  O   UNL     1       1.111  -9.501  -8.485  1.00  0.00    -0.237 OA
ATOM     88  O   UNL     1       3.438 -10.094  -7.933  1.00  0.00    -0.744 OA
ENDBRANCH  84  85
ENDBRANCH  56  79
BRANCH  68  89
ATOM     89  C   UNL     1      -1.845 -14.382   1.288  1.00  0.00    -0.014 A 
ATOM     90  C   UNL     1      -0.974 -15.473   1.119  1.00  0.00     0.010 A 
ATOM     91  C   UNL     1      -3.224 -14.627   1.439  1.00  0.00     0.010 A 
ATOM     92  C   UNL     1      -1.474 -16.777   1.069  1.00  0.00     0.020 A 
ATOM     93  C   UNL     1      -3.724 -15.932   1.423  1.00  0.00     0.020 A 
ATOM     94  C   UNL     1      -2.846 -16.999   1.224  1.00  0.00     0.054 A 
BRANCH  94  95
ATOM     95  S   UNL     1      -3.463 -18.705   1.202  1.00  0.00     0.124 S 
ATOM     96  O   UNL     1      -3.309 -19.066  -0.204  1.00  0.00    -0.237 OA
ATOM     97  O   UNL     1      -2.558 -19.382   2.127  1.00  0.00    -0.237 OA
ATOM     98  O   UNL     1      -4.843 -18.582   1.667  1.00  0.00    -0.744 OA
ENDBRANCH  94  95
ENDBRANCH  68  89
ENDBRANCH  42  43
ENDBRANCH  35  37
ENDBRANCH  34  35
ENDBRANCH  33  34
ENDBRANCH   1  33
TORSDOF 20
