REMARK SMILES O=C(OCCOC(=O)c1cccc(S(=O)(=O)Nc2ccccc2N2CCOCC2)c1)c1ccc(-c2c3nc(c(-c4ccc(S(=O)(=O)[O-])cc4)c4ccc([nH]4)c(-c4ccc(S(=O)(=O)[O-])cc4)c4nc(c(-c5ccc(S(=O)(=O)[O-])cc5)c5ccc2[nH]5)C=C4)C=C3)cc1
REMARK SMILES IDX 5 1 4 2 3 3 2 4 1 5 31 6 32 7 90 8 33 9 89 10 34 11 35 12
REMARK SMILES IDX 36 13 83 14 37 15 88 16 82 17 84 18 38 19 87 20 81 21 80 22
REMARK SMILES IDX 39 24 69 25 50 26 68 27 51 28 54 29 67 30 85 31 52 32 53 33
REMARK SMILES IDX 66 35 86 36 55 37 40 38 41 39 49 40 42 41 48 42 43 43 44 44
REMARK SMILES IDX 45 45 46 46 47 47 70 48 71 49 79 50 72 51 78 52 73 53 74 54
REMARK SMILES IDX 75 55 76 56 77 57 56 58 57 59 65 60 58 61 64 62 59 63 60 64
REMARK SMILES IDX 61 65 62 66 63 67 6 68 7 69 8 70 9 71 10 72 30 73 11 74
REMARK SMILES IDX 13 75 12 76 14 77 15 78 16 79 17 80 18 82 19 83 23 84 20 85
REMARK SMILES IDX 22 86 21 87 24 88 25 89 29 90 26 91 28 92 27 93
REMARK H PARENT 84 23 54 34 17 81
REMARK Flexibility Score: inf
ROOT
ATOM      1  C   UNL     1       3.797   1.501   0.495  1.00  0.00     0.275 C 
ENDROOT
BRANCH   1   2
ATOM      2  C   UNL     1       4.177   1.143  -0.940  1.00  0.00     0.275 C 
BRANCH   2   3
ATOM      3  O   UNL     1       3.263   0.256  -1.616  1.00  0.00    -0.458 OA
BRANCH   3   4
ATOM      4  C   UNL     1       3.198  -1.097  -1.594  1.00  0.00     0.338 C 
ATOM      5  O   UNL     1       2.371  -1.677  -2.296  1.00  0.00    -0.246 OA
BRANCH   4   6
ATOM      6  C   UNL     1       4.012  -1.921  -0.657  1.00  0.00     0.060 A 
ATOM      7  C   UNL     1       5.376  -1.738  -0.422  1.00  0.00     0.016 A 
ATOM      8  C   UNL     1       3.362  -2.994  -0.025  1.00  0.00     0.016 A 
ATOM      9  C   UNL     1       6.056  -2.549   0.495  1.00  0.00     0.010 A 
ATOM     10  C   UNL     1       4.037  -3.807   0.891  1.00  0.00     0.010 A 
ATOM     11  C   UNL     1       5.395  -3.592   1.154  1.00  0.00    -0.014 A 
BRANCH  11  12
ATOM     12  C   UNL     1       6.160  -4.556   1.980  1.00  0.00     0.031 A 
ATOM     13  C   UNL     1       6.571  -5.865   1.380  1.00  0.00     0.074 A 
ATOM     14  C   UNL     1       6.548  -4.272   3.236  1.00  0.00     0.049 A 
ATOM     15  N   UNL     1       7.330  -6.793   1.902  1.00  0.00    -0.248 NA
ATOM     16  C   UNL     1       6.126  -6.141   0.005  1.00  0.00     0.031 C 
ATOM     17  C   UNL     1       6.317  -3.013   3.932  1.00  0.00     0.029 A 
ATOM     18  N   UNL     1       7.196  -5.055   4.165  1.00  0.00    -0.354 N 
ATOM     19  C   UNL     1       7.558  -7.697   0.880  1.00  0.00     0.074 A 
ATOM     20  C   UNL     1       6.750  -7.282  -0.248  1.00  0.00     0.031 C 
ATOM     21  C   UNL     1       6.720  -3.155   5.206  1.00  0.00     0.029 A 
ATOM     22  C   UNL     1       7.210  -4.501   5.419  1.00  0.00     0.049 A 
ATOM     23  H   UNL     1       7.607  -5.924   3.950  1.00  0.00     0.167 HD
ATOM     24  C   UNL     1       8.434  -8.727   0.855  1.00  0.00     0.031 A 
ATOM     25  C   UNL     1       7.545  -5.006   6.621  1.00  0.00     0.031 A 
ATOM     26  C   UNL     1       9.186  -9.185   1.990  1.00  0.00     0.049 A 
ATOM     27  C   UNL     1       8.243  -6.326   6.666  1.00  0.00     0.074 A 
ATOM     28  C   UNL     1      10.113 -10.209   2.057  1.00  0.00     0.029 A 
ATOM     29  N   UNL     1       9.068  -8.668   3.272  1.00  0.00    -0.354 N 
ATOM     30  N   UNL     1       8.540  -7.119   5.667  1.00  0.00    -0.248 NA
ATOM     31  C   UNL     1       8.740  -6.772   7.972  1.00  0.00     0.031 C 
ATOM     32  C   UNL     1      10.524 -10.340   3.391  1.00  0.00     0.029 A 
ATOM     33  C   UNL     1       9.879  -9.374   4.145  1.00  0.00     0.049 A 
ATOM     34  H   UNL     1       8.493  -7.910   3.524  1.00  0.00     0.167 HD
ATOM     35  C   UNL     1       9.340  -8.113   6.207  1.00  0.00     0.074 A 
ATOM     36  C   UNL     1       9.441  -7.845   7.629  1.00  0.00     0.031 C 
ATOM     37  C   UNL     1       9.976  -9.118   5.560  1.00  0.00     0.031 A 
BRANCH  24  38
ATOM     38  C   UNL     1       8.648  -9.368  -0.482  1.00  0.00    -0.014 A 
ATOM     39  C   UNL     1       9.398  -8.690  -1.462  1.00  0.00     0.010 A 
ATOM     40  C   UNL     1       8.081 -10.615  -0.782  1.00  0.00     0.010 A 
ATOM     41  C   UNL     1       9.543  -9.230  -2.739  1.00  0.00     0.020 A 
ATOM     42  C   UNL     1       8.237 -11.166  -2.057  1.00  0.00     0.020 A 
ATOM     43  C   UNL     1       8.951 -10.461  -3.032  1.00  0.00     0.054 A 
BRANCH  43  44
ATOM     44  S   UNL     1       9.140 -11.134  -4.704  1.00  0.00     0.124 S 
ATOM     45  O   UNL     1       8.225 -10.294  -5.471  1.00  0.00    -0.237 OA
ATOM     46  O   UNL     1      10.560 -10.925  -4.976  1.00  0.00    -0.237 OA
ATOM     47  O   UNL     1       8.735 -12.530  -4.562  1.00  0.00    -0.744 OA
ENDBRANCH  43  44
ENDBRANCH  24  38
BRANCH  25  48
ATOM     48  C   UNL     1       7.236  -4.258   7.870  1.00  0.00    -0.014 A 
ATOM     49  C   UNL     1       8.223  -3.531   8.554  1.00  0.00     0.010 A 
ATOM     50  C   UNL     1       5.926  -4.287   8.387  1.00  0.00     0.010 A 
ATOM     51  C   UNL     1       7.910  -2.863   9.743  1.00  0.00     0.020 A 
ATOM     52  C   UNL     1       5.605  -3.606   9.566  1.00  0.00     0.020 A 
ATOM     53  C   UNL     1       6.605  -2.908  10.245  1.00  0.00     0.054 A 
BRANCH  53  54
ATOM     54  S   UNL     1       6.224  -2.008  11.775  1.00  0.00     0.124 S 
ATOM     55  O   UNL     1       6.841  -2.857  12.789  1.00  0.00    -0.237 OA
ATOM     56  O   UNL     1       6.872  -0.719  11.548  1.00  0.00    -0.237 OA
ATOM     57  O   UNL     1       4.764  -1.965  11.793  1.00  0.00    -0.744 OA
ENDBRANCH  53  54
ENDBRANCH  25  48
BRANCH  37  58
ATOM     58  C   UNL     1      10.906  -9.960   6.382  1.00  0.00    -0.014 A 
ATOM     59  C   UNL     1      10.420 -10.910   7.295  1.00  0.00     0.010 A 
ATOM     60  C   UNL     1      12.294  -9.779   6.243  1.00  0.00     0.010 A 
ATOM     61  C   UNL     1      11.309 -11.639   8.088  1.00  0.00     0.020 A 
ATOM     62  C   UNL     1      13.186 -10.523   7.016  1.00  0.00     0.020 A 
ATOM     63  C   UNL     1      12.686 -11.435   7.949  1.00  0.00     0.054 A 
BRANCH  63  64
ATOM     64  S   UNL     1      13.829 -12.402   8.971  1.00  0.00     0.124 S 
ATOM     65  O   UNL     1      13.801 -11.668  10.233  1.00  0.00    -0.237 OA
ATOM     66  O   UNL     1      13.204 -13.723   8.998  1.00  0.00    -0.237 OA
ATOM     67  O   UNL     1      15.089 -12.333   8.235  1.00  0.00    -0.744 OA
ENDBRANCH  63  64
ENDBRANCH  37  58
ENDBRANCH  11  12
ENDBRANCH   4   6
ENDBRANCH   3   4
ENDBRANCH   2   3
ENDBRANCH   1   2
BRANCH   1  68
ATOM     68  O   UNL     1       3.508   0.350   1.297  1.00  0.00    -0.458 OA
BRANCH  68  69
ATOM     69  C   UNL     1       2.191   0.073   1.422  1.00  0.00     0.338 C 
ATOM     70  O   UNL     1       1.267   0.709   0.914  1.00  0.00    -0.246 OA
BRANCH  69  71
ATOM     71  C   UNL     1       1.955  -1.130   2.245  1.00  0.00     0.061 A 
ATOM     72  C   UNL     1       0.786  -1.862   1.989  1.00  0.00     0.016 A 
ATOM     73  C   UNL     1       2.785  -1.462   3.327  1.00  0.00     0.038 A 
ATOM     74  C   UNL     1       0.435  -2.919   2.818  1.00  0.00     0.002 A 
ATOM     75  C   UNL     1       2.344  -2.407   4.247  1.00  0.00     0.088 A 
ATOM     76  C   UNL     1       1.195  -3.169   3.958  1.00  0.00     0.022 A 
BRANCH  75  77
ATOM     77  S   UNL     1       3.002  -2.634   5.891  1.00  0.00     0.261 S 
ATOM     78  O   UNL     1       1.849  -2.659   6.773  1.00  0.00    -0.201 OA
ATOM     79  O   UNL     1       3.810  -3.829   5.795  1.00  0.00    -0.201 OA
BRANCH  77  80
ATOM     80  N   UNL     1       4.034  -1.422   6.453  1.00  0.00    -0.278 N 
ATOM     81  H   UNL     1       4.522  -1.598   7.289  1.00  0.00     0.180 HD
BRANCH  80  82
ATOM     82  C   UNL     1       4.258  -0.159   5.815  1.00  0.00     0.072 A 
ATOM     83  C   UNL     1       5.580   0.174   5.492  1.00  0.00     0.029 A 
ATOM     84  C   UNL     1       3.207   0.719   5.471  1.00  0.00     0.061 A 
ATOM     85  C   UNL     1       5.864   1.262   4.673  1.00  0.00     0.002 A 
ATOM     86  C   UNL     1       3.512   1.801   4.628  1.00  0.00     0.028 A 
ATOM     87  C   UNL     1       4.824   2.055   4.211  1.00  0.00     0.002 A 
BRANCH  84  88
ATOM     88  N   UNL     1       1.931   0.510   5.971  1.00  0.00    -0.365 N 
ATOM     89  C   UNL     1       1.796   0.744   7.428  1.00  0.00     0.145 C 
ATOM     90  C   UNL     1       0.716   0.805   5.214  1.00  0.00     0.145 C 
ATOM     91  C   UNL     1       0.536   0.055   7.975  1.00  0.00     0.181 C 
ATOM     92  C   UNL     1      -0.433  -0.009   5.825  1.00  0.00     0.181 C 
ATOM     93  O   UNL     1      -0.640   0.367   7.198  1.00  0.00    -0.378 OA
ENDBRANCH  84  88
ENDBRANCH  80  82
ENDBRANCH  77  80
ENDBRANCH  75  77
ENDBRANCH  69  71
ENDBRANCH  68  69
ENDBRANCH   1  68
TORSDOF 18
