REMARK SMILES CCC[C@]1(C(=O)OCCOC(=O)c2ccc(-c3c4nc(c(-c5ccc(S(=O)(=O)[O-])cc5)c5ccc([nH]5)c(-c5ccc(S(=O)(=O)[O-])cc5)c5nc(c(-c6ccc(S(=O)(=O)[O-])cc6)c6ccc3[nH]6)C=C5)C=C4)cc2)CCCN(C(=O)c2ccc(NS(=O)(=O)CC)cc2)C1
REMARK SMILES IDX 8 1 7 2 5 3 6 4 4 5 73 6 91 7 74 8 76 9 75 10 3 11 2 12 1 13
REMARK SMILES IDX 77 14 78 15 79 16 80 17 90 18 81 19 89 20 82 21 83 22 84 24
REMARK SMILES IDX 85 25 86 26 87 27 88 28 9 29 10 30 11 31 12 32 13 33 14 34
REMARK SMILES IDX 72 35 15 36 71 37 16 38 17 39 18 40 65 41 19 42 70 43 64 44
REMARK SMILES IDX 66 45 20 46 69 47 63 48 62 49 21 51 51 52 32 53 50 54 33 55
REMARK SMILES IDX 36 56 49 57 67 58 34 59 35 60 48 62 68 63 37 64 22 65 23 66
REMARK SMILES IDX 31 67 24 68 30 69 25 70 26 71 27 72 28 73 29 74 52 75 53 76
REMARK SMILES IDX 61 77 54 78 60 79 55 80 56 81 57 82 58 83 59 84 38 85 39 86
REMARK SMILES IDX 47 87 40 88 46 89 41 90 42 91 43 92 44 93 45 94
REMARK H PARENT 83 23 66 50 36 61
REMARK Flexibility Score: inf
ROOT
ATOM      1  C   UNL     1      -0.139   2.665  -5.995  1.00  0.00     0.274 C 
ENDROOT
BRANCH   1   2
ATOM      2  O   UNL     1      -0.431   1.899  -4.807  1.00  0.00    -0.462 OA
BRANCH   2   3
ATOM      3  C   UNL     1       0.598   1.785  -3.930  1.00  0.00     0.314 C 
ATOM      4  O   UNL     1       1.690   2.322  -4.096  1.00  0.00    -0.252 OA
BRANCH   3   5
ATOM      5  C   UNL     1       0.295   0.906  -2.696  1.00  0.00     0.086 C 
ATOM      6  C   UNL     1      -1.116   0.292  -2.693  1.00  0.00     0.022 C 
ATOM      7  C   UNL     1       1.331  -0.217  -2.861  1.00  0.00     0.138 C 
ATOM      8  C   UNL     1      -1.273  -0.885  -1.723  1.00  0.00     0.023 C 
ATOM      9  N   UNL     1       1.184  -1.296  -1.903  1.00  0.00    -0.338 N 
ATOM     10  C   UNL     1      -0.138  -1.903  -1.797  1.00  0.00     0.120 C 
BRANCH   5  11
ATOM     11  C   UNL     1       0.555   1.864  -1.494  1.00  0.00     0.020 C 
BRANCH  11  12
ATOM     12  C   UNL     1      -0.012   1.695  -0.084  1.00  0.00    -0.002 C 
ATOM     13  C   UNL     1       0.747   0.742   0.811  1.00  0.00     0.004 C 
ENDBRANCH  11  12
ENDBRANCH   5  11
BRANCH   9  14
ATOM     14  C   UNL     1       2.361  -1.869  -1.435  1.00  0.00     0.253 C 
ATOM     15  O   UNL     1       3.471  -1.652  -1.915  1.00  0.00    -0.269 OA
BRANCH  14  16
ATOM     16  C   UNL     1       2.331  -2.650  -0.193  1.00  0.00     0.040 A 
ATOM     17  C   UNL     1       2.764  -1.991   0.956  1.00  0.00     0.016 A 
ATOM     18  C   UNL     1       2.069  -4.016  -0.168  1.00  0.00     0.016 A 
ATOM     19  C   UNL     1       2.910  -2.686   2.149  1.00  0.00     0.027 A 
ATOM     20  C   UNL     1       2.266  -4.720   1.027  1.00  0.00     0.027 A 
ATOM     21  C   UNL     1       2.695  -4.061   2.191  1.00  0.00     0.049 A 
BRANCH  21  22
ATOM     22  N   UNL     1       3.167  -4.855   3.279  1.00  0.00    -0.284 N 
ATOM     23  H   UNL     1       3.640  -5.693   3.074  1.00  0.00     0.180 HD
BRANCH  22  24
ATOM     24  S   UNL     1       2.957  -4.438   4.883  1.00  0.00     0.232 S 
ATOM     25  O   UNL     1       1.623  -3.906   5.045  1.00  0.00    -0.207 OA
ATOM     26  O   UNL     1       3.365  -5.624   5.613  1.00  0.00    -0.207 OA
BRANCH  24  27
ATOM     27  C   UNL     1       4.156  -3.149   5.246  1.00  0.00     0.156 C 
ATOM     28  C   UNL     1       5.476  -3.270   4.512  1.00  0.00     0.023 C 
ENDBRANCH  24  27
ENDBRANCH  22  24
ENDBRANCH  21  22
ENDBRANCH  14  16
ENDBRANCH   9  14
ENDBRANCH   3   5
ENDBRANCH   2   3
ENDBRANCH   1   2
BRANCH   1  29
ATOM     29  C   UNL     1      -0.680   4.089  -5.898  1.00  0.00     0.275 C 
BRANCH  29  30
ATOM     30  O   UNL     1      -0.031   4.822  -4.842  1.00  0.00    -0.458 OA
BRANCH  30  31
ATOM     31  C   UNL     1      -0.820   5.105  -3.781  1.00  0.00     0.338 C 
ATOM     32  O   UNL     1      -1.997   4.809  -3.645  1.00  0.00    -0.246 OA
BRANCH  31  33
ATOM     33  C   UNL     1      -0.077   5.816  -2.724  1.00  0.00     0.060 A 
ATOM     34  C   UNL     1       0.968   5.172  -2.071  1.00  0.00     0.016 A 
ATOM     35  C   UNL     1      -0.599   6.998  -2.201  1.00  0.00     0.016 A 
ATOM     36  C   UNL     1       1.327   5.580  -0.786  1.00  0.00     0.010 A 
ATOM     37  C   UNL     1      -0.111   7.496  -0.987  1.00  0.00     0.010 A 
ATOM     38  C   UNL     1       0.795   6.748  -0.214  1.00  0.00    -0.014 A 
BRANCH  38  39
ATOM     39  C   UNL     1       1.118   7.139   1.198  1.00  0.00     0.031 A 
ATOM     40  C   UNL     1       0.009   7.457   2.184  1.00  0.00     0.074 A 
ATOM     41  C   UNL     1       2.395   7.187   1.634  1.00  0.00     0.049 A 
ATOM     42  N   UNL     1       0.089   8.004   3.373  1.00  0.00    -0.248 NA
ATOM     43  C   UNL     1      -1.369   7.143   1.772  1.00  0.00     0.031 C 
ATOM     44  C   UNL     1       3.584   6.872   0.837  1.00  0.00     0.029 A 
ATOM     45  N   UNL     1       2.909   7.499   2.871  1.00  0.00    -0.354 N 
ATOM     46  C   UNL     1      -1.223   8.181   3.806  1.00  0.00     0.074 A 
ATOM     47  C   UNL     1      -2.080   7.676   2.756  1.00  0.00     0.031 C 
ATOM     48  C   UNL     1       4.671   6.928   1.620  1.00  0.00     0.029 A 
ATOM     49  C   UNL     1       4.278   7.394   2.944  1.00  0.00     0.049 A 
ATOM     50  H   UNL     1       2.348   7.772   3.633  1.00  0.00     0.167 HD
ATOM     51  C   UNL     1      -1.676   8.719   4.966  1.00  0.00     0.031 A 
ATOM     52  C   UNL     1       5.139   7.678   3.941  1.00  0.00     0.031 A 
ATOM     53  C   UNL     1      -0.829   9.144   6.051  1.00  0.00     0.049 A 
ATOM     54  C   UNL     1       4.617   8.246   5.228  1.00  0.00     0.074 A 
ATOM     55  C   UNL     1      -1.197   9.696   7.267  1.00  0.00     0.029 A 
ATOM     56  N   UNL     1       0.552   9.030   6.068  1.00  0.00    -0.354 N 
ATOM     57  N   UNL     1       3.378   8.504   5.571  1.00  0.00    -0.248 NA
ATOM     58  C   UNL     1       5.614   8.582   6.254  1.00  0.00     0.031 C 
ATOM     59  C   UNL     1      -0.035   9.937   8.010  1.00  0.00     0.029 A 
ATOM     60  C   UNL     1       1.051   9.496   7.273  1.00  0.00     0.049 A 
ATOM     61  H   UNL     1       1.097   8.671   5.331  1.00  0.00     0.167 HD
ATOM     62  C   UNL     1       3.447   9.033   6.854  1.00  0.00     0.074 A 
ATOM     63  C   UNL     1       4.845   9.028   7.237  1.00  0.00     0.031 C 
ATOM     64  C   UNL     1       2.443   9.492   7.641  1.00  0.00     0.031 A 
BRANCH  51  65
ATOM     65  C   UNL     1      -3.164   8.921   5.109  1.00  0.00    -0.014 A 
ATOM     66  C   UNL     1      -4.042   7.847   5.331  1.00  0.00     0.010 A 
ATOM     67  C   UNL     1      -3.686  10.229   5.055  1.00  0.00     0.010 A 
ATOM     68  C   UNL     1      -5.418   8.070   5.449  1.00  0.00     0.020 A 
ATOM     69  C   UNL     1      -5.057  10.459   5.199  1.00  0.00     0.020 A 
ATOM     70  C   UNL     1      -5.918   9.375   5.374  1.00  0.00     0.054 A 
BRANCH  70  71
ATOM     71  S   UNL     1      -7.705   9.643   5.539  1.00  0.00     0.124 S 
ATOM     72  O   UNL     1      -8.192   9.241   4.222  1.00  0.00    -0.237 OA
ATOM     73  O   UNL     1      -8.066   8.754   6.640  1.00  0.00    -0.237 OA
ATOM     74  O   UNL     1      -7.815  11.070   5.835  1.00  0.00    -0.744 OA
ENDBRANCH  70  71
ENDBRANCH  51  65
BRANCH  52  75
ATOM     75  C   UNL     1       6.599   7.473   3.735  1.00  0.00    -0.014 A 
ATOM     76  C   UNL     1       7.277   6.441   4.408  1.00  0.00     0.010 A 
ATOM     77  C   UNL     1       7.312   8.293   2.841  1.00  0.00     0.010 A 
ATOM     78  C   UNL     1       8.643   6.236   4.193  1.00  0.00     0.020 A 
ATOM     79  C   UNL     1       8.670   8.071   2.601  1.00  0.00     0.020 A 
ATOM     80  C   UNL     1       9.330   7.050   3.287  1.00  0.00     0.054 A 
BRANCH  80  81
ATOM     81  S   UNL     1      11.084   6.721   2.960  1.00  0.00     0.124 S 
ATOM     82  O   UNL     1      11.728   7.348   4.110  1.00  0.00    -0.237 OA
ATOM     83  O   UNL     1      11.135   5.262   2.924  1.00  0.00    -0.237 OA
ATOM     84  O   UNL     1      11.317   7.376   1.675  1.00  0.00    -0.744 OA
ENDBRANCH  80  81
ENDBRANCH  52  75
BRANCH  64  85
ATOM     85  C   UNL     1       2.824   9.999   9.004  1.00  0.00    -0.014 A 
ATOM     86  C   UNL     1       3.466  11.240   9.163  1.00  0.00     0.010 A 
ATOM     87  C   UNL     1       2.532   9.224  10.140  1.00  0.00     0.010 A 
ATOM     88  C   UNL     1       3.853  11.675  10.433  1.00  0.00     0.020 A 
ATOM     89  C   UNL     1       2.898   9.666  11.413  1.00  0.00     0.020 A 
ATOM     90  C   UNL     1       3.576  10.880  11.550  1.00  0.00     0.054 A 
BRANCH  90  91
ATOM     91  S   UNL     1       4.083  11.463  13.191  1.00  0.00     0.124 S 
ATOM     92  O   UNL     1       5.509  11.151  13.195  1.00  0.00    -0.237 OA
ATOM     93  O   UNL     1       3.751  12.885  13.148  1.00  0.00    -0.237 OA
ATOM     94  O   UNL     1       3.267  10.668  14.106  1.00  0.00    -0.744 OA
ENDBRANCH  90  91
ENDBRANCH  64  85
ENDBRANCH  38  39
ENDBRANCH  31  33
ENDBRANCH  30  31
ENDBRANCH  29  30
ENDBRANCH   1  29
TORSDOF 21
