REMARK SMILES CCc1cc(S(F)(F)(F)(F)F)cc2c1O[C@@H](C(F)(F)F)C(C(=O)OCCOC(=O)c1ccc(-c3c4nc(c(-c5ccc(S(=O)(=O)[O-])cc5)c5ccc([nH]5)c(-c5ccc(S(=O)(=O)[O-])cc5)c5nc(c(-c6ccc(S(=O)(=O)[O-])cc6)c6ccc3[nH]6)C=C5)C=C4)cc1)=C2
REMARK SMILES IDX 26 1 25 2 24 3 22 4 23 5 21 6 3 7 4 8 14 9 5 10 13 11 15 12
REMARK SMILES IDX 12 13 90 14 16 15 2 16 1 17 6 18 7 19 8 20 9 21 10 22 11 23
REMARK SMILES IDX 17 24 18 25 19 26 20 27 27 28 28 29 29 30 30 31 31 32 89 33
REMARK SMILES IDX 32 34 88 35 33 36 34 37 35 38 82 39 36 40 87 41 81 42 83 43
REMARK SMILES IDX 37 44 86 45 80 46 79 47 38 49 68 50 49 51 67 52 50 53 53 54
REMARK SMILES IDX 66 55 84 56 51 57 52 58 65 60 85 61 54 62 39 63 40 64 48 65
REMARK SMILES IDX 41 66 47 67 42 68 43 69 44 70 45 71 46 72 69 73 70 74 78 75
REMARK SMILES IDX 71 76 77 77 72 78 73 79 74 80 75 81 76 82 55 83 56 84 64 85
REMARK SMILES IDX 57 86 63 87 58 88 59 89 60 90 61 91 62 92
REMARK H PARENT 83 48 53 59
REMARK Flexibility Score: inf
ROOT
ATOM      1  C   UNL     1      -0.687  10.341  -2.988  1.00  0.00     0.275 C 
ENDROOT
BRANCH   1   2
ATOM      2  C   UNL     1       0.770   9.909  -2.960  1.00  0.00     0.275 C 
BRANCH   2   3
ATOM      3  O   UNL     1       0.843   8.492  -2.922  1.00  0.00    -0.459 OA
BRANCH   3   4
ATOM      4  C   UNL     1       0.253   7.779  -1.844  1.00  0.00     0.338 C 
ATOM      5  O   UNL     1      -0.340   8.411  -0.914  1.00  0.00    -0.246 OA
BRANCH   4   6
ATOM      6  C   UNL     1       0.331   6.262  -1.803  1.00  0.00     0.087 C 
ATOM      7  C   UNL     1       0.934   2.152  -1.364  1.00  0.00    -0.004 A 
ATOM      8  C   UNL     1       1.394   1.404  -2.433  1.00  0.00     0.032 A 
ATOM      9  C   UNL     1       0.795   3.510  -1.520  1.00  0.00     0.131 A 
ATOM     10  C   UNL     1       1.712   2.000  -3.625  1.00  0.00     0.108 A 
ATOM     11  C   UNL     1       1.089   4.143  -2.715  1.00  0.00     0.019 A 
ATOM     12  O   UNL     1       0.447   4.253  -0.419  1.00  0.00    -0.475 OA
ATOM     13  C   UNL     1       1.553   3.363  -3.767  1.00  0.00     0.036 A 
ATOM     14  C   UNL     1       0.946   5.588  -2.767  1.00  0.00     0.027 C 
ATOM     15  C   UNL     1      -0.296   5.481  -0.656  1.00  0.00     0.316 C 
BRANCH   7  16
ATOM     16  C   UNL     1       0.427   1.506  -0.085  1.00  0.00     0.036 C 
ATOM     17  C   UNL     1       0.934   0.075  -0.005  1.00  0.00     0.009 C 
ENDBRANCH   7  16
BRANCH  10  18
ATOM     18  S   UNL     1       2.335   1.006  -5.003  1.00  0.00     0.310 S 
ATOM     19  F   UNL     1       3.818   0.762  -4.496  1.00  0.00    -0.094 F 
ATOM     20  F   UNL     1       2.873   2.288  -5.744  1.00  0.00    -0.094 F 
ATOM     21  F   UNL     1       2.676   0.119  -6.234  1.00  0.00    -0.094 F 
ATOM     22  F   UNL     1       1.923  -0.287  -4.196  1.00  0.00    -0.094 F 
ATOM     23  F   UNL     1       2.090   1.877  -3.707  1.00  0.00    -0.094 F 
ENDBRANCH  10  18
BRANCH  15  24
ATOM     24  C   UNL     1      -0.259   6.334   0.602  1.00  0.00     0.430 C 
ATOM     25  F   UNL     1      -0.939   7.458   0.397  1.00  0.00    -0.167 F 
ATOM     26  F   UNL     1      -0.808   5.661   1.610  1.00  0.00    -0.167 F 
ATOM     27  F   UNL     1       1.003   6.628   0.902  1.00  0.00    -0.167 F 
ENDBRANCH  15  24
ENDBRANCH   4   6
ENDBRANCH   3   4
ENDBRANCH   2   3
ENDBRANCH   1   2
BRANCH   1  28
ATOM     28  O   UNL     1      -1.345   9.865  -1.823  1.00  0.00    -0.458 OA
BRANCH  28  29
ATOM     29  C   UNL     1      -1.405   8.470  -1.562  1.00  0.00     0.338 C 
ATOM     30  O   UNL     1      -0.871   7.649  -2.371  1.00  0.00    -0.246 OA
BRANCH  29  31
ATOM     31  C   UNL     1      -2.109   7.960  -0.315  1.00  0.00     0.060 A 
ATOM     32  C   UNL     1      -1.567   6.917   0.417  1.00  0.00     0.016 A 
ATOM     33  C   UNL     1      -3.291   8.480  -0.004  1.00  0.00     0.016 A 
ATOM     34  C   UNL     1      -2.487   6.293   1.293  1.00  0.00     0.010 A 
ATOM     35  C   UNL     1      -4.080   7.896   0.958  1.00  0.00     0.010 A 
ATOM     36  C   UNL     1      -3.632   6.825   1.680  1.00  0.00    -0.014 A 
BRANCH  36  37
ATOM     37  C   UNL     1      -4.409   6.277   2.866  1.00  0.00     0.031 A 
ATOM     38  C   UNL     1      -5.702   5.819   2.606  1.00  0.00     0.074 A 
ATOM     39  C   UNL     1      -3.786   6.178   4.098  1.00  0.00     0.049 A 
ATOM     40  N   UNL     1      -6.529   5.197   3.448  1.00  0.00    -0.248 NA
ATOM     41  C   UNL     1      -6.380   5.954   1.308  1.00  0.00     0.031 C 
ATOM     42  C   UNL     1      -2.478   6.630   4.365  1.00  0.00     0.029 A 
ATOM     43  N   UNL     1      -4.292   5.642   5.261  1.00  0.00    -0.354 N 
ATOM     44  C   UNL     1      -7.673   4.894   2.831  1.00  0.00     0.074 A 
ATOM     45  C   UNL     1      -7.596   5.383   1.448  1.00  0.00     0.031 C 
ATOM     46  C   UNL     1      -2.206   6.382   5.673  1.00  0.00     0.029 A 
ATOM     47  C   UNL     1      -3.337   5.769   6.245  1.00  0.00     0.049 A 
ATOM     48  H   UNL     1      -5.183   5.239   5.370  1.00  0.00     0.167 HD
ATOM     49  C   UNL     1      -8.777   4.229   3.368  1.00  0.00     0.031 A 
ATOM     50  C   UNL     1      -3.428   5.380   7.572  1.00  0.00     0.031 A 
ATOM     51  C   UNL     1      -8.852   3.802   4.684  1.00  0.00     0.049 A 
ATOM     52  C   UNL     1      -4.556   4.767   8.124  1.00  0.00     0.074 A 
ATOM     53  C   UNL     1      -9.954   3.123   5.239  1.00  0.00     0.029 A 
ATOM     54  N   UNL     1      -7.906   3.951   5.674  1.00  0.00    -0.354 N 
ATOM     55  N   UNL     1      -5.684   4.430   7.497  1.00  0.00    -0.248 NA
ATOM     56  C   UNL     1      -4.676   4.381   9.536  1.00  0.00     0.031 C 
ATOM     57  C   UNL     1      -9.681   2.875   6.547  1.00  0.00     0.029 A 
ATOM     58  C   UNL     1      -8.404   3.395   6.832  1.00  0.00     0.049 A 
ATOM     59  H   UNL     1      -7.026   4.380   5.572  1.00  0.00     0.167 HD
ATOM     60  C   UNL     1      -6.526   3.845   8.351  1.00  0.00     0.074 A 
ATOM     61  C   UNL     1      -5.894   3.811   9.676  1.00  0.00     0.031 C 
ATOM     62  C   UNL     1      -7.796   3.334   8.076  1.00  0.00     0.031 A 
BRANCH  49  63
ATOM     63  C   UNL     1      -9.964   3.959   2.457  1.00  0.00    -0.014 A 
ATOM     64  C   UNL     1      -9.793   3.178   1.326  1.00  0.00     0.010 A 
ATOM     65  C   UNL     1     -11.150   4.467   2.771  1.00  0.00     0.010 A 
ATOM     66  C   UNL     1     -10.883   3.228   0.425  1.00  0.00     0.020 A 
ATOM     67  C   UNL     1     -12.208   4.360   1.901  1.00  0.00     0.020 A 
ATOM     68  C   UNL     1     -12.093   3.653   0.737  1.00  0.00     0.054 A 
BRANCH  68  69
ATOM     69  S   UNL     1     -13.524   3.317  -0.320  1.00  0.00     0.124 S 
ATOM     70  O   UNL     1     -13.290   3.928  -1.704  1.00  0.00    -0.237 OA
ATOM     71  O   UNL     1     -13.714   1.805  -0.456  1.00  0.00    -0.237 OA
ATOM     72  O   UNL     1     -14.923   4.008   0.378  1.00  0.00    -0.744 OA
ENDBRANCH  68  69
ENDBRANCH  49  63
BRANCH  50  73
ATOM     73  C   UNL     1      -2.235   5.636   8.478  1.00  0.00    -0.014 A 
ATOM     74  C   UNL     1      -1.617   4.570   9.110  1.00  0.00     0.010 A 
ATOM     75  C   UNL     1      -1.813   6.882   8.658  1.00  0.00     0.010 A 
ATOM     76  C   UNL     1      -0.734   4.952  10.147  1.00  0.00     0.020 A 
ATOM     77  C   UNL     1      -0.849   7.166   9.595  1.00  0.00     0.020 A 
ATOM     78  C   UNL     1      -0.237   6.166  10.299  1.00  0.00     0.054 A 
BRANCH  78  79
ATOM     79  S   UNL     1       1.178   6.489  11.380  1.00  0.00     0.124 S 
ATOM     80  O   UNL     1       0.830   6.078  12.813  1.00  0.00    -0.237 OA
ATOM     81  O   UNL     1       2.385   5.681  10.897  1.00  0.00    -0.237 OA
ATOM     82  O   UNL     1       1.557   8.156  11.341  1.00  0.00    -0.744 OA
ENDBRANCH  78  79
ENDBRANCH  50  73
BRANCH  62  83
ATOM     83  C   UNL     1      -8.560   2.672   9.212  1.00  0.00    -0.014 A 
ATOM     84  C   UNL     1      -8.786   3.339  10.404  1.00  0.00     0.010 A 
ATOM     85  C   UNL     1      -8.903   1.398   9.059  1.00  0.00     0.010 A 
ATOM     86  C   UNL     1      -9.121   2.488  11.483  1.00  0.00     0.020 A 
ATOM     87  C   UNL     1      -9.352   0.662  10.129  1.00  0.00     0.020 A 
ATOM     88  C   UNL     1      -9.543   1.243  11.352  1.00  0.00     0.054 A 
BRANCH  88  89
ATOM     89  S   UNL     1     -10.331   0.354  12.718  1.00  0.00     0.124 S 
ATOM     90  O   UNL     1      -9.359   0.267  13.898  1.00  0.00    -0.237 OA
ATOM     91  O   UNL     1     -11.594   1.102  13.152  1.00  0.00    -0.237 OA
ATOM     92  O   UNL     1     -10.749  -1.222  12.206  1.00  0.00    -0.744 OA
ENDBRANCH  88  89
ENDBRANCH  62  83
ENDBRANCH  36  37
ENDBRANCH  29  31
ENDBRANCH  28  29
ENDBRANCH   1  28
TORSDOF 17
