REMARK SMILES Cc1ccc(C)c([C@@H](C)[C@](C)(O)C(=O)OCCOC(=O)c2ccc(-c3c4nc(c(-c5ccc(S(=O)(=O)[O-])cc5)c5ccc([nH]5)c(-c5ccc(S(=O)(=O)[O-])cc5)c5nc(c(-c6ccc(S(=O)(=O)[O-])cc6)c6ccc3[nH]6)C=C5)C=C4)cc2)c1
REMARK SMILES IDX 17 1 16 2 15 3 13 4 14 5 10 6 11 7 8 8 9 9 7 10 1 11 2 12
REMARK SMILES IDX 3 13 81 14 4 15 5 16 6 17 12 18 18 20 19 21 20 22 21 23
REMARK SMILES IDX 22 24 80 25 23 26 79 27 24 28 25 29 26 30 73 31 27 32 78 33
REMARK SMILES IDX 72 34 74 35 28 36 77 37 71 38 70 39 29 41 59 42 40 43 58 44
REMARK SMILES IDX 41 45 44 46 57 47 75 48 42 49 43 50 56 52 76 53 45 54 30 55
REMARK SMILES IDX 31 56 39 57 32 58 38 59 33 60 34 61 35 62 36 63 37 64 60 65
REMARK SMILES IDX 61 66 69 67 62 68 68 69 63 70 64 71 65 72 66 73 67 74 46 75
REMARK SMILES IDX 47 76 55 77 48 78 54 79 49 80 50 81 51 82 52 83 53 84
REMARK H PARENT 12 19 74 40 44 51
REMARK Flexibility Score: inf
ROOT
ATOM      1  C   UNL     1      -6.229  -0.301  -0.252  1.00  0.00     0.275 C 
ENDROOT
BRANCH   1   2
ATOM      2  C   UNL     1      -4.702  -0.439  -0.053  1.00  0.00     0.274 C 
BRANCH   2   3
ATOM      3  O   UNL     1      -3.928   0.778  -0.001  1.00  0.00    -0.460 OA
BRANCH   3   4
ATOM      4  C   UNL     1      -2.574   0.573   0.084  1.00  0.00     0.338 C 
ATOM      5  O   UNL     1      -2.056  -0.460  -0.328  1.00  0.00    -0.249 OA
BRANCH   4   6
ATOM      6  C   UNL     1      -1.749   1.825   0.611  1.00  0.00     0.165 C 
ATOM      7  C   UNL     1      -0.653   2.054  -0.477  1.00  0.00     0.055 C 
BRANCH   6   8
ATOM      8  C   UNL     1      -1.212   1.762   2.165  1.00  0.00     0.059 C 
ATOM      9  C   UNL     1       0.328   1.867   2.286  1.00  0.00     0.016 C 
BRANCH   8  10
ATOM     10  C   UNL     1      -1.808   0.726   3.216  1.00  0.00    -0.039 A 
ATOM     11  C   UNL     1      -4.278   0.140   7.040  1.00  0.00     0.044 C 
ATOM     12  C   UNL     1      -3.279  -0.050   5.957  1.00  0.00    -0.051 A 
ATOM     13  C   UNL     1      -2.575  -1.692   5.803  1.00  0.00     0.004 A 
ATOM     14  C   UNL     1      -2.883   1.189   4.686  1.00  0.00     0.007 A 
ATOM     15  C   UNL     1      -1.573  -2.145   4.334  1.00  0.00     0.004 A 
ATOM     16  C   UNL     1      -1.211  -0.945   3.069  1.00  0.00    -0.048 A 
ATOM     17  C   UNL     1      -0.396  -1.404   1.893  1.00  0.00     0.044 C 
ENDBRANCH   8  10
ENDBRANCH   6   8
BRANCH   6  18
ATOM     18  O   UNL     1      -2.501   3.065   0.559  1.00  0.00    -0.378 OA
ATOM     19  H   UNL     1      -2.860   3.188  -0.334  1.00  0.00     0.212 HD
ENDBRANCH   6  18
ENDBRANCH   4   6
ENDBRANCH   3   4
ENDBRANCH   2   3
ENDBRANCH   1   2
BRANCH   1  20
ATOM     20  O   UNL     1      -6.712   0.997  -0.644  1.00  0.00    -0.458 OA
BRANCH  20  21
ATOM     21  C   UNL     1      -6.579   2.109   0.127  1.00  0.00     0.338 C 
ATOM     22  O   UNL     1      -6.507   3.221  -0.389  1.00  0.00    -0.246 OA
BRANCH  21  23
ATOM     23  C   UNL     1      -6.275   1.909   1.572  1.00  0.00     0.060 A 
ATOM     24  C   UNL     1      -5.123   2.509   1.946  1.00  0.00     0.016 A 
ATOM     25  C   UNL     1      -6.750   0.898   2.406  1.00  0.00     0.016 A 
ATOM     26  C   UNL     1      -4.255   1.711   2.677  1.00  0.00     0.010 A 
ATOM     27  C   UNL     1      -5.854   0.174   3.253  1.00  0.00     0.010 A 
ATOM     28  C   UNL     1      -4.465   0.381   3.204  1.00  0.00    -0.014 A 
BRANCH  28  29
ATOM     29  C   UNL     1      -3.237  -0.768   3.945  1.00  0.00     0.031 A 
ATOM     30  C   UNL     1      -1.448  -0.163   5.039  1.00  0.00     0.074 A 
ATOM     31  C   UNL     1      -4.021  -2.078   3.844  1.00  0.00     0.049 A 
ATOM     32  N   UNL     1      -0.453  -0.821   5.751  1.00  0.00    -0.248 NA
ATOM     33  C   UNL     1      -0.840   1.382   5.556  1.00  0.00     0.031 C 
ATOM     34  C   UNL     1      -5.123  -2.517   2.930  1.00  0.00     0.029 A 
ATOM     35  N   UNL     1      -4.029  -3.306   4.588  1.00  0.00    -0.354 N 
ATOM     36  C   UNL     1      -0.236  -0.183   6.991  1.00  0.00     0.074 A 
ATOM     37  C   UNL     1      -0.399   1.205   6.796  1.00  0.00     0.031 C 
ATOM     38  C   UNL     1      -5.840  -3.566   3.405  1.00  0.00     0.029 A 
ATOM     39  C   UNL     1      -5.216  -4.051   4.603  1.00  0.00     0.049 A 
ATOM     40  H   UNL     1      -3.228  -3.614   5.071  1.00  0.00     0.167 HD
ATOM     41  C   UNL     1      -0.120  -0.899   8.146  1.00  0.00     0.031 A 
ATOM     42  C   UNL     1      -5.654  -4.978   5.514  1.00  0.00     0.031 A 
ATOM     43  C   UNL     1       0.364  -2.226   7.885  1.00  0.00     0.049 A 
ATOM     44  C   UNL     1      -4.543  -5.247   6.456  1.00  0.00     0.074 A 
ATOM     45  C   UNL     1       1.451  -2.664   7.160  1.00  0.00     0.029 A 
ATOM     46  N   UNL     1      -0.451  -3.312   8.093  1.00  0.00    -0.354 N 
ATOM     47  N   UNL     1      -3.425  -5.824   6.133  1.00  0.00    -0.248 NA
ATOM     48  C   UNL     1      -4.548  -4.563   7.739  1.00  0.00     0.031 C 
ATOM     49  C   UNL     1       1.043  -3.887   6.587  1.00  0.00     0.029 A 
ATOM     50  C   UNL     1      -0.208  -4.238   7.100  1.00  0.00     0.049 A 
ATOM     51  H   UNL     1      -1.099  -3.412   8.827  1.00  0.00     0.167 HD
ATOM     52  C   UNL     1      -2.477  -5.269   6.975  1.00  0.00     0.074 A 
ATOM     53  C   UNL     1      -3.239  -4.573   8.004  1.00  0.00     0.031 C 
ATOM     54  C   UNL     1      -1.168  -5.212   6.604  1.00  0.00     0.031 A 
BRANCH  41  55
ATOM     55  C   UNL     1      -0.632  -0.482   9.503  1.00  0.00    -0.014 A 
ATOM     56  C   UNL     1      -0.039  -1.020  10.659  1.00  0.00     0.010 A 
ATOM     57  C   UNL     1      -1.860   0.195   9.673  1.00  0.00     0.010 A 
ATOM     58  C   UNL     1      -0.656  -0.924  11.916  1.00  0.00     0.020 A 
ATOM     59  C   UNL     1      -2.501   0.277  10.925  1.00  0.00     0.020 A 
ATOM     60  C   UNL     1      -1.893  -0.292  12.041  1.00  0.00     0.054 A 
BRANCH  60  61
ATOM     61  S   UNL     1      -2.698  -0.273  13.672  1.00  0.00     0.124 S 
ATOM     62  O   UNL     1      -2.734  -1.691  14.018  1.00  0.00    -0.237 OA
ATOM     63  O   UNL     1      -1.774   0.542  14.457  1.00  0.00    -0.237 OA
ATOM     64  O   UNL     1      -3.998   0.339  13.411  1.00  0.00    -0.744 OA
ENDBRANCH  60  61
ENDBRANCH  41  55
BRANCH  42  65
ATOM     65  C   UNL     1      -7.037  -5.469   5.868  1.00  0.00    -0.014 A 
ATOM     66  C   UNL     1      -7.256  -6.592   6.712  1.00  0.00     0.010 A 
ATOM     67  C   UNL     1      -8.153  -4.654   5.615  1.00  0.00     0.010 A 
ATOM     68  C   UNL     1      -8.510  -6.838   7.323  1.00  0.00     0.020 A 
ATOM     69  C   UNL     1      -9.402  -4.892   6.215  1.00  0.00     0.020 A 
ATOM     70  C   UNL     1      -9.574  -5.966   7.086  1.00  0.00     0.054 A 
BRANCH  70  71
ATOM     71  S   UNL     1     -11.142  -6.148   8.005  1.00  0.00     0.124 S 
ATOM     72  O   UNL     1     -11.709  -7.363   7.428  1.00  0.00    -0.237 OA
ATOM     73  O   UNL     1     -10.694  -6.256   9.391  1.00  0.00    -0.237 OA
ATOM     74  O   UNL     1     -11.867  -4.918   7.688  1.00  0.00    -0.744 OA
ENDBRANCH  70  71
ENDBRANCH  42  65
BRANCH  54  75
ATOM     75  C   UNL     1      -0.709  -6.096   5.450  1.00  0.00    -0.014 A 
ATOM     76  C   UNL     1      -1.269  -6.096   4.156  1.00  0.00     0.010 A 
ATOM     77  C   UNL     1       0.445  -6.874   5.665  1.00  0.00     0.010 A 
ATOM     78  C   UNL     1      -0.696  -6.853   3.119  1.00  0.00     0.020 A 
ATOM     79  C   UNL     1       1.038  -7.604   4.633  1.00  0.00     0.020 A 
ATOM     80  C   UNL     1       0.458  -7.600   3.366  1.00  0.00     0.054 A 
BRANCH  80  81
ATOM     81  S   UNL     1       1.219  -8.550   2.020  1.00  0.00     0.124 S 
ATOM     82  O   UNL     1       0.218  -9.581   1.757  1.00  0.00    -0.237 OA
ATOM     83  O   UNL     1       1.384  -7.549   0.970  1.00  0.00    -0.237 OA
ATOM     84  O   UNL     1       2.469  -9.039   2.602  1.00  0.00    -0.744 OA
ENDBRANCH  80  81
ENDBRANCH  54  75
ENDBRANCH  28  29
ENDBRANCH  21  23
ENDBRANCH  20  21
ENDBRANCH   1  20
TORSDOF 17
