REMARK SMILES CC[C@](C)(NC(=O)N1CCC[C@@H]1C)C(=O)OCCOC(=O)c1ccc(-c2c3nc(c(-c4ccc(S(=O)(=O)[O-])cc4)c4ccc([nH]4)c(-c4ccc(S(=O)(=O)[O-])cc4)c4nc(c(-c5ccc(S(=O)(=O)[O-])cc5)c5ccc2[nH]5)C=C4)C=C3)cc1
REMARK SMILES IDX 18 1 17 2 16 3 14 4 15 5 3 6 4 7 2 8 1 9 5 10 6 11 7 13 8 14
REMARK SMILES IDX 9 15 12 16 10 17 11 18 13 19 19 20 20 21 21 22 22 23 23 24
REMARK SMILES IDX 81 25 24 26 80 27 25 28 26 29 27 30 74 31 28 32 79 33 73 34
REMARK SMILES IDX 75 35 29 36 78 37 72 38 71 39 30 41 60 42 41 43 59 44 42 45
REMARK SMILES IDX 45 46 58 47 76 48 43 49 44 50 57 52 77 53 46 54 31 55 32 56
REMARK SMILES IDX 40 57 33 58 39 59 34 60 35 61 36 62 37 63 38 64 61 65 62 66
REMARK SMILES IDX 70 67 63 68 69 69 64 70 65 71 66 72 67 73 68 74 47 75 48 76
REMARK SMILES IDX 56 77 49 78 55 79 50 80 51 81 52 82 53 83 54 84
REMARK H PARENT 5 12 75 40 45 51
REMARK Flexibility Score: inf
ROOT
ATOM      1  C   UNL     1       5.217  -0.116  -1.614  1.00  0.00     0.275 C 
ENDROOT
BRANCH   1   2
ATOM      2  C   UNL     1       4.338  -1.304  -2.000  1.00  0.00     0.274 C 
BRANCH   2   3
ATOM      3  O   UNL     1       3.159  -0.854  -2.702  1.00  0.00    -0.460 OA
BRANCH   3   4
ATOM      4  C   UNL     1       2.012  -0.742  -1.977  1.00  0.00     0.331 C 
ATOM      5  O   UNL     1       1.912  -1.118  -0.813  1.00  0.00    -0.249 OA
BRANCH   4   6
ATOM      6  C   UNL     1       0.803  -0.210  -2.813  1.00  0.00     0.136 C 
ATOM      7  C   UNL     1       0.075   0.854  -1.978  1.00  0.00     0.047 C 
BRANCH   6   8
ATOM      8  C   UNL     1      -0.087  -1.469  -3.014  1.00  0.00     0.037 C 
ATOM      9  C   UNL     1      -1.548  -1.190  -3.337  1.00  0.00     0.007 C 
ENDBRANCH   6   8
BRANCH   6  10
ATOM     10  N   UNL     1       1.238   0.313  -4.131  1.00  0.00    -0.322 N 
ATOM     11  C   UNL     1       1.647   1.589  -4.393  1.00  0.00     0.318 C 
ATOM     12  H   UNL     1       1.231  -0.318  -4.887  1.00  0.00     0.166 HD
ATOM     13  O   UNL     1       1.021   2.563  -3.987  1.00  0.00    -0.249 OA
BRANCH  11  14
ATOM     14  N   UNL     1       2.796   1.713  -5.147  1.00  0.00    -0.322 N 
ATOM     15  C   UNL     1       3.323   3.051  -5.395  1.00  0.00     0.122 C 
ATOM     16  C   UNL     1       3.839   0.708  -5.361  1.00  0.00     0.083 C 
ATOM     17  C   UNL     1       4.835   2.887  -5.429  1.00  0.00     0.024 C 
ATOM     18  C   UNL     1       5.014   1.482  -5.975  1.00  0.00     0.027 C 
ATOM     19  C   UNL     1       3.461  -0.477  -6.236  1.00  0.00     0.031 C 
ENDBRANCH  11  14
ENDBRANCH   6  10
ENDBRANCH   4   6
ENDBRANCH   3   4
ENDBRANCH   2   3
ENDBRANCH   1   2
BRANCH   1  20
ATOM     20  O   UNL     1       4.491   0.720  -0.702  1.00  0.00    -0.458 OA
BRANCH  20  21
ATOM     21  C   UNL     1       4.366   2.022  -1.037  1.00  0.00     0.338 C 
ATOM     22  O   UNL     1       4.902   2.598  -1.975  1.00  0.00    -0.246 OA
BRANCH  21  23
ATOM     23  C   UNL     1       3.500   2.687  -0.050  1.00  0.00     0.060 A 
ATOM     24  C   UNL     1       2.310   2.084   0.351  1.00  0.00     0.016 A 
ATOM     25  C   UNL     1       3.860   3.930   0.470  1.00  0.00     0.016 A 
ATOM     26  C   UNL     1       1.453   2.733   1.227  1.00  0.00     0.010 A 
ATOM     27  C   UNL     1       3.061   4.524   1.452  1.00  0.00     0.010 A 
ATOM     28  C   UNL     1       1.853   3.924   1.846  1.00  0.00    -0.014 A 
BRANCH  28  29
ATOM     29  C   UNL     1       1.041   4.456   2.970  1.00  0.00     0.031 A 
ATOM     30  C   UNL     1       0.427   5.824   2.907  1.00  0.00     0.074 A 
ATOM     31  C   UNL     1       0.850   3.667   4.049  1.00  0.00     0.049 A 
ATOM     32  N   UNL     1      -0.235   6.467   3.835  1.00  0.00    -0.248 NA
ATOM     33  C   UNL     1       0.589   6.576   1.654  1.00  0.00     0.031 C 
ATOM     34  C   UNL     1       1.403   2.317   4.218  1.00  0.00     0.029 A 
ATOM     35  N   UNL     1       0.120   3.863   5.193  1.00  0.00    -0.354 N 
ATOM     36  C   UNL     1      -0.532   7.713   3.296  1.00  0.00     0.074 A 
ATOM     37  C   UNL     1       0.028   7.739   1.961  1.00  0.00     0.031 C 
ATOM     38  C   UNL     1       0.931   1.782   5.352  1.00  0.00     0.029 A 
ATOM     39  C   UNL     1       0.124   2.778   6.039  1.00  0.00     0.049 A 
ATOM     40  H   UNL     1      -0.360   4.699   5.390  1.00  0.00     0.167 HD
ATOM     41  C   UNL     1      -1.206   8.740   3.870  1.00  0.00     0.031 A 
ATOM     42  C   UNL     1      -0.436   2.607   7.251  1.00  0.00     0.031 A 
ATOM     43  C   UNL     1      -1.766   8.689   5.197  1.00  0.00     0.049 A 
ATOM     44  C   UNL     1      -1.194   3.752   7.851  1.00  0.00     0.074 A 
ATOM     45  C   UNL     1      -2.437   9.681   5.891  1.00  0.00     0.029 A 
ATOM     46  N   UNL     1      -1.737   7.575   6.024  1.00  0.00    -0.354 N 
ATOM     47  N   UNL     1      -1.411   4.945   7.348  1.00  0.00    -0.248 NA
ATOM     48  C   UNL     1      -1.771   3.538   9.182  1.00  0.00     0.031 C 
ATOM     49  C   UNL     1      -2.790   9.174   7.148  1.00  0.00     0.029 A 
ATOM     50  C   UNL     1      -2.380   7.853   7.219  1.00  0.00     0.049 A 
ATOM     51  H   UNL     1      -1.320   6.713   5.795  1.00  0.00     0.167 HD
ATOM     52  C   UNL     1      -2.141   5.630   8.308  1.00  0.00     0.074 A 
ATOM     53  C   UNL     1      -2.365   4.703   9.401  1.00  0.00     0.031 C 
ATOM     54  C   UNL     1      -2.572   6.915   8.296  1.00  0.00     0.031 A 
BRANCH  41  55
ATOM     55  C   UNL     1      -1.337  10.015   3.078  1.00  0.00    -0.014 A 
ATOM     56  C   UNL     1      -2.204  10.104   1.974  1.00  0.00     0.010 A 
ATOM     57  C   UNL     1      -0.600  11.151   3.460  1.00  0.00     0.010 A 
ATOM     58  C   UNL     1      -2.304  11.294   1.246  1.00  0.00     0.020 A 
ATOM     59  C   UNL     1      -0.714  12.350   2.748  1.00  0.00     0.020 A 
ATOM     60  C   UNL     1      -1.553  12.408   1.634  1.00  0.00     0.054 A 
BRANCH  60  61
ATOM     61  S   UNL     1      -1.710  13.945   0.681  1.00  0.00     0.124 S 
ATOM     62  O   UNL     1      -0.944  13.634  -0.522  1.00  0.00    -0.237 OA
ATOM     63  O   UNL     1      -3.154  14.063   0.493  1.00  0.00    -0.237 OA
ATOM     64  O   UNL     1      -1.116  14.956   1.553  1.00  0.00    -0.744 OA
ENDBRANCH  60  61
ENDBRANCH  41  55
BRANCH  42  65
ATOM     65  C   UNL     1      -0.251   1.323   7.980  1.00  0.00    -0.014 A 
ATOM     66  C   UNL     1      -1.328   0.441   8.174  1.00  0.00     0.010 A 
ATOM     67  C   UNL     1       1.025   0.954   8.447  1.00  0.00     0.010 A 
ATOM     68  C   UNL     1      -1.135  -0.779   8.831  1.00  0.00     0.020 A 
ATOM     69  C   UNL     1       1.228  -0.277   9.075  1.00  0.00     0.020 A 
ATOM     70  C   UNL     1       0.143  -1.131   9.275  1.00  0.00     0.054 A 
BRANCH  70  71
ATOM     71  S   UNL     1       0.393  -2.746  10.065  1.00  0.00     0.124 S 
ATOM     72  O   UNL     1      -0.080  -2.495  11.422  1.00  0.00    -0.237 OA
ATOM     73  O   UNL     1      -0.442  -3.632   9.257  1.00  0.00    -0.237 OA
ATOM     74  O   UNL     1       1.831  -2.969   9.932  1.00  0.00    -0.744 OA
ENDBRANCH  70  71
ENDBRANCH  42  65
BRANCH  54  75
ATOM     75  C   UNL     1      -3.335   7.373   9.507  1.00  0.00    -0.014 A 
ATOM     76  C   UNL     1      -2.673   7.628  10.721  1.00  0.00     0.010 A 
ATOM     77  C   UNL     1      -4.727   7.546   9.428  1.00  0.00     0.010 A 
ATOM     78  C   UNL     1      -3.400   8.003  11.852  1.00  0.00     0.020 A 
ATOM     79  C   UNL     1      -5.454   7.945  10.552  1.00  0.00     0.020 A 
ATOM     80  C   UNL     1      -4.787   8.150  11.762  1.00  0.00     0.054 A 
BRANCH  80  81
ATOM     81  S   UNL     1      -5.713   8.643  13.241  1.00  0.00     0.124 S 
ATOM     82  O   UNL     1      -5.782   7.389  13.987  1.00  0.00    -0.237 OA
ATOM     83  O   UNL     1      -4.864   9.677  13.826  1.00  0.00    -0.237 OA
ATOM     84  O   UNL     1      -6.987   9.121  12.707  1.00  0.00    -0.744 OA
ENDBRANCH  80  81
ENDBRANCH  54  75
ENDBRANCH  28  29
ENDBRANCH  21  23
ENDBRANCH  20  21
ENDBRANCH   1  20
TORSDOF 17
