REMARK SMILES CN1C(=O)/C(=C\c2cccc(Cl)c2)Sc2ccc(C(=O)OCCOC(=O)c3ccc(-c4c5nc(c(-c6ccc(S(=O)(=O)[O-])cc6)c6ccc([nH]6)c(-c6ccc(S(=O)(=O)[O-])cc6)c6nc(c(-c7ccc(S(=O)(=O)[O-])cc7)c7ccc4[nH]7)C=C6)C=C5)cc3)cc21
REMARK SMILES IDX 23 1 22 2 21 3 19 4 20 5 18 6 1 7 2 8 3 9 88 10 4 11 5 12
REMARK SMILES IDX 15 13 87 14 6 15 14 16 16 17 17 18 7 19 8 20 13 21 9 22
REMARK SMILES IDX 11 23 10 24 12 25 24 26 25 27 26 28 27 29 28 30 86 31 29 32
REMARK SMILES IDX 85 33 30 34 31 35 32 36 79 37 33 38 84 39 78 40 80 41 34 42
REMARK SMILES IDX 83 43 77 44 76 45 35 47 65 48 46 49 64 50 47 51 50 52 63 53
REMARK SMILES IDX 81 54 48 55 49 56 62 58 82 59 51 60 36 61 37 62 45 63 38 64
REMARK SMILES IDX 44 65 39 66 40 67 41 68 42 69 43 70 66 71 67 72 75 73 68 74
REMARK SMILES IDX 74 75 69 76 70 77 71 78 72 79 73 80 52 81 53 82 61 83 54 84
REMARK SMILES IDX 60 85 55 86 56 87 57 88 58 89 59 90
REMARK H PARENT 80 46 50 57
REMARK Flexibility Score: inf
ROOT
ATOM      1  C   UNL     1       7.466  -3.658  -1.835  1.00  0.00     0.275 C 
ENDROOT
BRANCH   1   2
ATOM      2  C   UNL     1       6.941  -4.451  -0.635  1.00  0.00     0.275 C 
BRANCH   2   3
ATOM      3  O   UNL     1       5.511  -4.646  -0.701  1.00  0.00    -0.458 OA
BRANCH   3   4
ATOM      4  C   UNL     1       4.771  -3.874   0.135  1.00  0.00     0.338 C 
ATOM      5  O   UNL     1       5.193  -3.043   0.917  1.00  0.00    -0.246 OA
BRANCH   4   6
ATOM      6  C   UNL     1       3.316  -4.093  -0.083  1.00  0.00     0.062 A 
ATOM      7  C   UNL     1       0.875  -0.571  -0.194  1.00  0.00     0.153 C 
ATOM      8  N   UNL     1       0.280  -1.895  -0.246  1.00  0.00    -0.310 N 
ATOM      9  C   UNL     1      -1.057  -1.932  -0.624  1.00  0.00     0.264 C 
ATOM     10  C   UNL     1       1.081  -3.081  -0.169  1.00  0.00     0.058 A 
ATOM     11  O   UNL     1      -1.620  -1.021  -1.226  1.00  0.00    -0.268 OA
ATOM     12  C   UNL     1      -1.809  -3.122  -0.145  1.00  0.00     0.078 C 
ATOM     13  C   UNL     1       0.545  -4.350  -0.459  1.00  0.00     0.036 A 
ATOM     14  C   UNL     1       2.455  -2.999   0.097  1.00  0.00     0.043 A 
ATOM     15  C   UNL     1      -2.877  -2.976   0.661  1.00  0.00     0.029 C 
ATOM     16  S   UNL     1      -1.208  -4.659  -0.634  1.00  0.00    -0.082 SA
ATOM     17  C   UNL     1       1.404  -5.458  -0.604  1.00  0.00     0.018 A 
ATOM     18  C   UNL     1       2.788  -5.327  -0.450  1.00  0.00     0.017 A 
BRANCH  15  19
ATOM     19  C   UNL     1      -3.397  -1.680   1.124  1.00  0.00    -0.023 A 
ATOM     20  C   UNL     1      -4.167  -0.883   0.266  1.00  0.00     0.008 A 
ATOM     21  C   UNL     1      -3.086  -1.204   2.402  1.00  0.00     0.028 A 
ATOM     22  C   UNL     1      -4.599   0.384   0.665  1.00  0.00     0.002 A 
ATOM     23  C   UNL     1      -3.534   0.059   2.801  1.00  0.00     0.041 A 
ATOM     24  C   UNL     1      -4.283   0.856   1.937  1.00  0.00     0.020 A 
ATOM     25  Cl  UNL     1      -3.151   0.640   4.375  1.00  0.00    -0.084 Cl
ENDBRANCH  15  19
ENDBRANCH   4   6
ENDBRANCH   3   4
ENDBRANCH   2   3
ENDBRANCH   1   2
BRANCH   1  26
ATOM     26  O   UNL     1       7.099  -2.270  -1.739  1.00  0.00    -0.458 OA
BRANCH  26  27
ATOM     27  C   UNL     1       6.072  -1.885  -2.529  1.00  0.00     0.338 C 
ATOM     28  O   UNL     1       5.452  -2.568  -3.326  1.00  0.00    -0.246 OA
BRANCH  27  29
ATOM     29  C   UNL     1       5.694  -0.506  -2.186  1.00  0.00     0.060 A 
ATOM     30  C   UNL     1       6.214   0.598  -2.852  1.00  0.00     0.016 A 
ATOM     31  C   UNL     1       4.697  -0.340  -1.231  1.00  0.00     0.016 A 
ATOM     32  C   UNL     1       5.723   1.875  -2.539  1.00  0.00     0.010 A 
ATOM     33  C   UNL     1       4.163   0.917  -0.971  1.00  0.00     0.010 A 
ATOM     34  C   UNL     1       4.672   2.047  -1.613  1.00  0.00    -0.014 A 
BRANCH  34  35
ATOM     35  C   UNL     1       4.060   3.383  -1.358  1.00  0.00     0.031 A 
ATOM     36  C   UNL     1       4.025   3.984   0.027  1.00  0.00     0.074 A 
ATOM     37  C   UNL     1       3.466   4.038  -2.377  1.00  0.00     0.049 A 
ATOM     38  N   UNL     1       3.571   5.154   0.402  1.00  0.00    -0.248 NA
ATOM     39  C   UNL     1       4.524   3.159   1.141  1.00  0.00     0.031 C 
ATOM     40  C   UNL     1       3.318   3.518  -3.738  1.00  0.00     0.029 A 
ATOM     41  N   UNL     1       2.894   5.286  -2.436  1.00  0.00    -0.354 N 
ATOM     42  C   UNL     1       3.717   5.198   1.784  1.00  0.00     0.074 A 
ATOM     43  C   UNL     1       4.235   3.912   2.193  1.00  0.00     0.031 C 
ATOM     44  C   UNL     1       2.778   4.468  -4.515  1.00  0.00     0.029 A 
ATOM     45  C   UNL     1       2.505   5.652  -3.705  1.00  0.00     0.049 A 
ATOM     46  H   UNL     1       2.774   5.863  -1.648  1.00  0.00     0.167 HD
ATOM     47  C   UNL     1       3.484   6.229   2.632  1.00  0.00     0.031 A 
ATOM     48  C   UNL     1       2.016   6.816  -4.178  1.00  0.00     0.031 A 
ATOM     49  C   UNL     1       3.016   7.524   2.212  1.00  0.00     0.049 A 
ATOM     50  C   UNL     1       1.840   7.975  -3.240  1.00  0.00     0.074 A 
ATOM     51  C   UNL     1       2.843   8.662   2.981  1.00  0.00     0.029 A 
ATOM     52  N   UNL     1       2.661   7.860   0.915  1.00  0.00    -0.354 N 
ATOM     53  N   UNL     1       2.082   8.030  -1.952  1.00  0.00    -0.248 NA
ATOM     54  C   UNL     1       1.342   9.233  -3.814  1.00  0.00     0.031 C 
ATOM     55  C   UNL     1       2.339   9.672   2.159  1.00  0.00     0.029 A 
ATOM     56  C   UNL     1       2.256   9.183   0.865  1.00  0.00     0.049 A 
ATOM     57  H   UNL     1       2.693   7.249   0.144  1.00  0.00     0.167 HD
ATOM     58  C   UNL     1       1.775   9.329  -1.563  1.00  0.00     0.074 A 
ATOM     59  C   UNL     1       1.353  10.035  -2.755  1.00  0.00     0.031 C 
ATOM     60  C   UNL     1       1.834   9.879  -0.326  1.00  0.00     0.031 A 
BRANCH  47  61
ATOM     61  C   UNL     1       3.788   6.035   4.099  1.00  0.00    -0.014 A 
ATOM     62  C   UNL     1       2.756   6.109   5.053  1.00  0.00     0.010 A 
ATOM     63  C   UNL     1       5.116   5.898   4.543  1.00  0.00     0.010 A 
ATOM     64  C   UNL     1       3.048   6.072   6.421  1.00  0.00     0.020 A 
ATOM     65  C   UNL     1       5.409   5.828   5.907  1.00  0.00     0.020 A 
ATOM     66  C   UNL     1       4.375   5.939   6.839  1.00  0.00     0.054 A 
BRANCH  66  67
ATOM     67  S   UNL     1       4.743   5.907   8.615  1.00  0.00     0.124 S 
ATOM     68  O   UNL     1       4.636   7.316   8.978  1.00  0.00    -0.237 OA
ATOM     69  O   UNL     1       3.698   5.035   9.146  1.00  0.00    -0.237 OA
ATOM     70  O   UNL     1       6.093   5.348   8.673  1.00  0.00    -0.744 OA
ENDBRANCH  66  67
ENDBRANCH  47  61
BRANCH  48  71
ATOM     71  C   UNL     1       1.769   6.949  -5.641  1.00  0.00    -0.014 A 
ATOM     72  C   UNL     1       0.718   6.250  -6.262  1.00  0.00     0.010 A 
ATOM     73  C   UNL     1       2.666   7.685  -6.438  1.00  0.00     0.010 A 
ATOM     74  C   UNL     1       0.605   6.233  -7.655  1.00  0.00     0.020 A 
ATOM     75  C   UNL     1       2.539   7.692  -7.830  1.00  0.00     0.020 A 
ATOM     76  C   UNL     1       1.529   6.938  -8.431  1.00  0.00     0.054 A 
BRANCH  76  77
ATOM     77  S   UNL     1       1.415   6.837 -10.239  1.00  0.00     0.124 S 
ATOM     78  O   UNL     1       1.970   5.511 -10.500  1.00  0.00    -0.237 OA
ATOM     79  O   UNL     1      -0.019   6.978 -10.478  1.00  0.00    -0.237 OA
ATOM     80  O   UNL     1       2.232   7.958 -10.697  1.00  0.00    -0.744 OA
ENDBRANCH  76  77
ENDBRANCH  48  71
BRANCH  60  81
ATOM     81  C   UNL     1       1.424  11.319  -0.165  1.00  0.00    -0.014 A 
ATOM     82  C   UNL     1       2.386  12.285   0.182  1.00  0.00     0.010 A 
ATOM     83  C   UNL     1       0.068  11.686  -0.210  1.00  0.00     0.010 A 
ATOM     84  C   UNL     1       1.997  13.583   0.521  1.00  0.00     0.020 A 
ATOM     85  C   UNL     1      -0.323  12.992   0.102  1.00  0.00     0.020 A 
ATOM     86  C   UNL     1       0.642  13.924   0.492  1.00  0.00     0.054 A 
BRANCH  86  87
ATOM     87  S   UNL     1       0.149  15.600   0.981  1.00  0.00     0.124 S 
ATOM     88  O   UNL     1       0.250  15.538   2.436  1.00  0.00    -0.237 OA
ATOM     89  O   UNL     1       1.146  16.436   0.315  1.00  0.00    -0.237 OA
ATOM     90  O   UNL     1      -1.208  15.726   0.453  1.00  0.00    -0.744 OA
ENDBRANCH  86  87
ENDBRANCH  60  81
ENDBRANCH  34  35
ENDBRANCH  27  29
ENDBRANCH  26  27
ENDBRANCH   1  26
TORSDOF 15
