REMARK SMILES O=C(CC[N@@H+]1CCC[C@@H](C(=O)OCCOC(=O)c2ccc(-c3c4nc(c(-c5ccc(S(=O)(=O)[O-])cc5)c5ccc([nH]5)c(-c5ccc(S(=O)(=O)[O-])cc5)c5nc(c(-c6ccc(S(=O)(=O)[O-])cc6)c6ccc3[nH]6)C=C5)C=C4)cc2)C1)Nc1cccc(F)c1
REMARK SMILES IDX 13 1 12 2 10 3 11 4 9 5 5 6 6 7 78 8 7 10 8 11 4 12 3 13
REMARK SMILES IDX 2 14 1 15 79 16 80 18 81 19 86 20 82 21 84 22 83 23 85 24
REMARK SMILES IDX 14 25 15 26 16 27 17 28 18 29 19 30 77 31 20 32 76 33 21 34
REMARK SMILES IDX 22 35 23 36 70 37 24 38 75 39 69 40 71 41 25 42 74 43 68 44
REMARK SMILES IDX 67 45 26 47 56 48 37 49 55 50 38 51 41 52 54 53 72 54 39 55
REMARK SMILES IDX 40 56 53 58 73 59 42 60 27 61 28 62 36 63 29 64 35 65 30 66
REMARK SMILES IDX 31 67 32 68 33 69 34 70 57 71 58 72 66 73 59 74 65 75 60 76
REMARK SMILES IDX 61 77 62 78 63 79 64 80 43 81 44 82 52 83 45 84 51 85 46 86
REMARK SMILES IDX 47 87 48 88 49 89 50 90
REMARK H PARENT 5 9 79 17 71 46 41 57
REMARK Flexibility Score: inf
ROOT
ATOM      1  C   UNL     1       4.598   1.581  -3.983  1.00  0.00     0.274 C 
ENDROOT
BRANCH   1   2
ATOM      2  O   UNL     1       4.724   0.631  -2.904  1.00  0.00    -0.462 OA
BRANCH   2   3
ATOM      3  C   UNL     1       5.783  -0.214  -2.965  1.00  0.00     0.314 C 
ATOM      4  O   UNL     1       6.561  -0.286  -3.910  1.00  0.00    -0.252 OA
BRANCH   3   5
ATOM      5  C   UNL     1       5.938  -1.095  -1.735  1.00  0.00     0.154 C 
ATOM      6  N   UNL     1       4.210  -1.508   0.045  1.00  0.00    -0.334 N 
ATOM      7  C   UNL     1       4.733  -2.863   0.295  1.00  0.00     0.262 C 
ATOM      8  C   UNL     1       5.263  -0.594  -0.440  1.00  0.00     0.277 C 
ATOM      9  H   UNL     1       3.519  -1.567  -0.703  1.00  0.00     0.348 HD
ATOM     10  C   UNL     1       5.674  -3.381  -0.800  1.00  0.00     0.062 C 
ATOM     11  C   UNL     1       5.605  -2.546  -2.071  1.00  0.00     0.027 C 
BRANCH   6  12
ATOM     12  C   UNL     1       3.519  -0.987   1.251  1.00  0.00     0.272 C 
BRANCH  12  13
ATOM     13  C   UNL     1       2.635   0.246   1.003  1.00  0.00     0.161 C 
BRANCH  13  14
ATOM     14  C   UNL     1       1.561   0.117  -0.075  1.00  0.00     0.230 C 
ATOM     15  O   UNL     1       0.546   0.809  -0.032  1.00  0.00    -0.275 OA
ATOM     16  N   UNL     1       1.885  -0.759  -1.086  1.00  0.00    -0.326 N 
ATOM     17  H   UNL     1       2.627  -1.375  -0.888  1.00  0.00     0.169 HD
BRANCH  16  18
ATOM     18  C   UNL     1       1.310  -0.900  -2.355  1.00  0.00     0.044 A 
ATOM     19  C   UNL     1       1.769  -1.970  -3.137  1.00  0.00     0.026 A 
ATOM     20  C   UNL     1       0.395  -0.003  -2.896  1.00  0.00     0.065 A 
ATOM     21  C   UNL     1       1.355  -2.124  -4.460  1.00  0.00     0.005 A 
ATOM     22  C   UNL     1      -0.012  -0.162  -4.218  1.00  0.00     0.125 A 
ATOM     23  C   UNL     1       0.465  -1.206  -5.006  1.00  0.00     0.039 A 
ATOM     24  F   UNL     1      -0.862   0.722  -4.757  1.00  0.00    -0.207 F 
ENDBRANCH  16  18
ENDBRANCH  13  14
ENDBRANCH  12  13
ENDBRANCH   6  12
ENDBRANCH   3   5
ENDBRANCH   2   3
ENDBRANCH   1   2
BRANCH   1  25
ATOM     25  C   UNL     1       4.935   2.993  -3.502  1.00  0.00     0.275 C 
BRANCH  25  26
ATOM     26  O   UNL     1       6.293   3.060  -3.027  1.00  0.00    -0.458 OA
BRANCH  26  27
ATOM     27  C   UNL     1       6.441   3.141  -1.687  1.00  0.00     0.338 C 
ATOM     28  O   UNL     1       5.560   3.205  -0.839  1.00  0.00    -0.246 OA
BRANCH  27  29
ATOM     29  C   UNL     1       7.859   2.986  -1.344  1.00  0.00     0.060 A 
ATOM     30  C   UNL     1       8.332   1.694  -1.127  1.00  0.00     0.016 A 
ATOM     31  C   UNL     1       8.688   4.085  -1.133  1.00  0.00     0.016 A 
ATOM     32  C   UNL     1       9.630   1.479  -0.682  1.00  0.00     0.010 A 
ATOM     33  C   UNL     1      10.009   3.870  -0.717  1.00  0.00     0.010 A 
ATOM     34  C   UNL     1      10.484   2.566  -0.478  1.00  0.00    -0.014 A 
BRANCH  34  35
ATOM     35  C   UNL     1      11.862   2.329   0.017  1.00  0.00     0.031 A 
ATOM     36  C   UNL     1      12.243   2.759   1.405  1.00  0.00     0.074 A 
ATOM     37  C   UNL     1      12.758   1.697  -0.765  1.00  0.00     0.049 A 
ATOM     38  N   UNL     1      13.421   2.764   1.971  1.00  0.00    -0.248 NA
ATOM     39  C   UNL     1      11.155   3.244   2.269  1.00  0.00     0.031 C 
ATOM     40  C   UNL     1      12.487   1.162  -2.102  1.00  0.00     0.029 A 
ATOM     41  N   UNL     1      14.078   1.395  -0.548  1.00  0.00    -0.354 N 
ATOM     42  C   UNL     1      13.227   3.291   3.242  1.00  0.00     0.074 A 
ATOM     43  C   UNL     1      11.815   3.588   3.366  1.00  0.00     0.031 C 
ATOM     44  C   UNL     1      13.603   0.588  -2.579  1.00  0.00     0.029 A 
ATOM     45  C   UNL     1      14.683   0.777  -1.616  1.00  0.00     0.049 A 
ATOM     46  H   UNL     1      14.547   1.601   0.293  1.00  0.00     0.167 HD
ATOM     47  C   UNL     1      14.145   3.515   4.212  1.00  0.00     0.031 A 
ATOM     48  C   UNL     1      15.971   0.442  -1.819  1.00  0.00     0.031 A 
ATOM     49  C   UNL     1      15.545   3.208   4.083  1.00  0.00     0.049 A 
ATOM     50  C   UNL     1      16.984   0.763  -0.757  1.00  0.00     0.074 A 
ATOM     51  C   UNL     1      16.561   3.412   5.001  1.00  0.00     0.029 A 
ATOM     52  N   UNL     1      16.126   2.627   2.966  1.00  0.00    -0.354 N 
ATOM     53  N   UNL     1      16.796   1.314   0.419  1.00  0.00    -0.248 NA
ATOM     54  C   UNL     1      18.384   0.434  -1.054  1.00  0.00     0.031 C 
ATOM     55  C   UNL     1      17.763   2.988   4.423  1.00  0.00     0.029 A 
ATOM     56  C   UNL     1      17.488   2.480   3.163  1.00  0.00     0.049 A 
ATOM     57  H   UNL     1      15.641   2.359   2.153  1.00  0.00     0.167 HD
ATOM     58  C   UNL     1      18.054   1.396   1.003  1.00  0.00     0.074 A 
ATOM     59  C   UNL     1      18.991   0.817   0.061  1.00  0.00     0.031 C 
ATOM     60  C   UNL     1      18.403   1.909   2.208  1.00  0.00     0.031 A 
BRANCH  47  61
ATOM     61  C   UNL     1      13.667   4.176   5.476  1.00  0.00    -0.014 A 
ATOM     62  C   UNL     1      12.927   3.468   6.439  1.00  0.00     0.010 A 
ATOM     63  C   UNL     1      13.981   5.528   5.707  1.00  0.00     0.010 A 
ATOM     64  C   UNL     1      12.475   4.113   7.594  1.00  0.00     0.020 A 
ATOM     65  C   UNL     1      13.548   6.170   6.871  1.00  0.00     0.020 A 
ATOM     66  C   UNL     1      12.781   5.462   7.798  1.00  0.00     0.054 A 
BRANCH  66  67
ATOM     67  S   UNL     1      12.188   6.277   9.307  1.00  0.00     0.124 S 
ATOM     68  O   UNL     1      10.777   6.491   8.996  1.00  0.00    -0.237 OA
ATOM     69  O   UNL     1      12.459   5.281  10.340  1.00  0.00    -0.237 OA
ATOM     70  O   UNL     1      12.999   7.489   9.388  1.00  0.00    -0.744 OA
ENDBRANCH  66  67
ENDBRANCH  47  61
BRANCH  48  71
ATOM     71  C   UNL     1      16.380  -0.176  -3.109  1.00  0.00    -0.014 A 
ATOM     72  C   UNL     1      16.762  -1.527  -3.169  1.00  0.00     0.010 A 
ATOM     73  C   UNL     1      16.362   0.585  -4.293  1.00  0.00     0.010 A 
ATOM     74  C   UNL     1      17.123  -2.105  -4.390  1.00  0.00     0.020 A 
ATOM     75  C   UNL     1      16.698   0.004  -5.518  1.00  0.00     0.020 A 
ATOM     76  C   UNL     1      17.085  -1.336  -5.558  1.00  0.00     0.054 A 
BRANCH  76  77
ATOM     77  S   UNL     1      17.486  -2.121  -7.144  1.00  0.00     0.124 S 
ATOM     78  O   UNL     1      18.945  -2.151  -7.107  1.00  0.00    -0.237 OA
ATOM     79  O   UNL     1      16.824  -3.419  -7.035  1.00  0.00    -0.237 OA
ATOM     80  O   UNL     1      16.901  -1.214  -8.129  1.00  0.00    -0.744 OA
ENDBRANCH  76  77
ENDBRANCH  48  71
BRANCH  60  81
ATOM     81  C   UNL     1      19.858   1.852   2.579  1.00  0.00    -0.014 A 
ATOM     82  C   UNL     1      20.783   2.746   2.013  1.00  0.00     0.010 A 
ATOM     83  C   UNL     1      20.296   0.921   3.538  1.00  0.00     0.010 A 
ATOM     84  C   UNL     1      22.130   2.692   2.380  1.00  0.00     0.020 A 
ATOM     85  C   UNL     1      21.638   0.877   3.922  1.00  0.00     0.020 A 
ATOM     86  C   UNL     1      22.549   1.755   3.329  1.00  0.00     0.054 A 
BRANCH  86  87
ATOM     87  S   UNL     1      24.295   1.727   3.822  1.00  0.00     0.124 S 
ATOM     88  O   UNL     1      24.916   1.030   2.700  1.00  0.00    -0.237 OA
ATOM     89  O   UNL     1      24.621   3.146   3.939  1.00  0.00    -0.237 OA
ATOM     90  O   UNL     1      24.284   0.992   5.085  1.00  0.00    -0.744 OA
ENDBRANCH  86  87
ENDBRANCH  60  81
ENDBRANCH  34  35
ENDBRANCH  27  29
ENDBRANCH  26  27
ENDBRANCH  25  26
ENDBRANCH   1  25
TORSDOF 18
