REMARK SMILES Cc1cccc(CC(=O)N[C@H]2CCCCC[C@@H]2C(=O)OCCOC(=O)c2ccc(-c3c4nc(c(-c5ccc(S(=O)(=O)[O-])cc5)c5ccc([nH]5)c(-c5ccc(S(=O)(=O)[O-])cc5)c5nc(c(-c6ccc(S(=O)(=O)[O-])cc6)c6ccc3[nH]6)C=C5)C=C4)cc2)c1
REMARK SMILES IDX 21 1 20 2 18 3 19 4 17 5 11 6 10 7 8 8 9 9 7 11 6 12 1 13
REMARK SMILES IDX 2 14 3 15 86 16 4 17 5 18 12 19 13 20 14 21 16 23 15 24
REMARK SMILES IDX 22 26 23 27 24 28 25 29 26 30 27 31 85 32 28 33 84 34 29 35
REMARK SMILES IDX 30 36 31 37 78 38 32 39 83 40 77 41 79 42 33 43 82 44 76 45
REMARK SMILES IDX 75 46 34 48 64 49 45 50 63 51 46 52 49 53 62 54 80 55 47 56
REMARK SMILES IDX 48 57 61 59 81 60 50 61 35 62 36 63 44 64 37 65 43 66 38 67
REMARK SMILES IDX 39 68 40 69 41 70 42 71 65 72 66 73 74 74 67 75 73 76 68 77
REMARK SMILES IDX 69 78 70 79 71 80 72 81 51 82 52 83 60 84 53 85 59 86 54 87
REMARK SMILES IDX 55 88 56 89 57 90 58 91
REMARK H PARENT 10 10 79 47 49 58
REMARK Flexibility Score: 100.00
ROOT
ATOM      1  C   UNL     1      -0.417   7.253  -3.611  1.00  0.00     0.274 C 
ENDROOT
BRANCH   1   2
ATOM      2  O   UNL     1       0.265   6.007  -3.349  1.00  0.00    -0.462 OA
BRANCH   2   3
ATOM      3  C   UNL     1      -0.327   5.195  -2.430  1.00  0.00     0.311 C 
ATOM      4  O   UNL     1      -1.433   5.410  -1.946  1.00  0.00    -0.252 OA
BRANCH   3   5
ATOM      5  C   UNL     1       0.606   4.116  -1.885  1.00  0.00     0.121 C 
BRANCH   5   6
ATOM      6  C   UNL     1       0.178   2.688  -2.287  1.00  0.00     0.096 C 
BRANCH   6   7
ATOM      7  N   UNL     1       0.704   2.136  -3.564  1.00  0.00    -0.352 N 
ATOM      8  C   UNL     1       1.880   1.560  -3.942  1.00  0.00     0.224 C 
ATOM      9  O   UNL     1       1.811   0.478  -4.540  1.00  0.00    -0.275 OA
ATOM     10  H   UNL     1       0.057   2.201  -4.303  1.00  0.00     0.163 HD
BRANCH   8  11
ATOM     11  C   UNL     1       3.257   2.120  -3.643  1.00  0.00     0.135 C 
BRANCH  11  12
ATOM     12  C   UNL     1       3.439   3.600  -3.836  1.00  0.00    -0.038 A 
ATOM     13  C   UNL     1       4.003   6.598  -1.592  1.00  0.00     0.044 C 
ATOM     14  C   UNL     1       3.854   5.781  -2.840  1.00  0.00    -0.051 A 
ATOM     15  C   UNL     1       3.459   6.388  -4.036  1.00  0.00     0.003 A 
ATOM     16  C   UNL     1       3.920   4.385  -2.777  1.00  0.00     0.007 A 
ATOM     17  C   UNL     1       3.100   5.608  -5.136  1.00  0.00     0.001 A 
ATOM     18  C   UNL     1       3.066   4.220  -5.031  1.00  0.00     0.004 A 
ENDBRANCH  11  12
ENDBRANCH   8  11
ENDBRANCH   6   7
BRANCH   6  19
ATOM     19  C   UNL     1       0.200   1.602  -1.190  1.00  0.00     0.026 C 
BRANCH  19  20
ATOM     20  C   UNL     1       1.500   1.425  -0.414  1.00  0.00     0.002 C 
BRANCH  20  21
ATOM     21  C   UNL     1       1.645   2.364   0.774  1.00  0.00     0.000 CG0
ATOM     22  G   UNL     1       1.804   3.827   0.400  1.00  0.00     0.000 G0
ENDBRANCH  20  21
ENDBRANCH  19  20
ENDBRANCH   6  19
ENDBRANCH   5   6
BRANCH   5  23
ATOM     23  C   UNL     1       0.627   4.409  -0.365  1.00  0.00     0.017 C 
BRANCH  23  24
ATOM     24  C   UNL     1       1.804   3.827   0.400  1.00  0.00     0.001 CG0
ATOM     25  G   UNL     1       1.645   2.364   0.774  1.00  0.00     0.000 G0
ENDBRANCH  23  24
ENDBRANCH   5  23
ENDBRANCH   3   5
ENDBRANCH   2   3
ENDBRANCH   1   2
BRANCH   1  26
ATOM     26  C   UNL     1      -0.089   7.811  -5.009  1.00  0.00     0.275 C 
BRANCH  26  27
ATOM     27  O   UNL     1      -0.892   7.269  -6.072  1.00  0.00    -0.458 OA
BRANCH  27  28
ATOM     28  C   UNL     1      -0.801   5.921  -6.221  1.00  0.00     0.338 C 
ATOM     29  O   UNL     1       0.235   5.337  -6.514  1.00  0.00    -0.246 OA
BRANCH  28  30
ATOM     30  C   UNL     1      -2.036   5.341  -5.637  1.00  0.00     0.060 A 
ATOM     31  C   UNL     1      -1.976   4.081  -5.034  1.00  0.00     0.016 A 
ATOM     32  C   UNL     1      -3.138   6.177  -5.418  1.00  0.00     0.016 A 
ATOM     33  C   UNL     1      -2.953   3.710  -4.109  1.00  0.00     0.010 A 
ATOM     34  C   UNL     1      -4.065   5.839  -4.455  1.00  0.00     0.010 A 
ATOM     35  C   UNL     1      -3.957   4.621  -3.773  1.00  0.00    -0.014 A 
BRANCH  35  36
ATOM     36  C   UNL     1      -5.090   4.291  -2.921  1.00  0.00     0.031 A 
ATOM     37  C   UNL     1      -5.077   4.316  -1.441  1.00  0.00     0.074 A 
ATOM     38  C   UNL     1      -6.203   3.964  -3.608  1.00  0.00     0.049 A 
ATOM     39  N   UNL     1      -5.805   3.529  -0.714  1.00  0.00    -0.248 NA
ATOM     40  C   UNL     1      -4.229   5.197  -0.639  1.00  0.00     0.031 C 
ATOM     41  C   UNL     1      -7.562   3.812  -3.127  1.00  0.00     0.029 A 
ATOM     42  N   UNL     1      -6.239   3.475  -4.921  1.00  0.00    -0.354 N 
ATOM     43  C   UNL     1      -5.737   3.989   0.586  1.00  0.00     0.074 A 
ATOM     44  C   UNL     1      -4.638   4.924   0.608  1.00  0.00     0.031 C 
ATOM     45  C   UNL     1      -8.219   3.016  -3.991  1.00  0.00     0.029 A 
ATOM     46  C   UNL     1      -7.231   2.497  -4.935  1.00  0.00     0.049 A 
ATOM     47  H   UNL     1      -5.678   3.763  -5.677  1.00  0.00     0.167 HD
ATOM     48  C   UNL     1      -6.732   3.703   1.473  1.00  0.00     0.031 A 
ATOM     49  C   UNL     1      -6.962   1.180  -5.179  1.00  0.00     0.031 A 
ATOM     50  C   UNL     1      -7.807   2.956   0.837  1.00  0.00     0.049 A 
ATOM     51  C   UNL     1      -7.461   0.283  -4.073  1.00  0.00     0.074 A 
ATOM     52  C   UNL     1      -9.026   3.347   0.308  1.00  0.00     0.029 A 
ATOM     53  N   UNL     1      -7.580   1.667   0.398  1.00  0.00    -0.354 N 
ATOM     54  N   UNL     1      -7.707   0.703  -2.865  1.00  0.00    -0.248 NA
ATOM     55  C   UNL     1      -7.659  -1.157  -4.213  1.00  0.00     0.031 C 
ATOM     56  C   UNL     1      -9.549   2.264  -0.439  1.00  0.00     0.029 A 
ATOM     57  C   UNL     1      -8.646   1.222  -0.356  1.00  0.00     0.049 A 
ATOM     58  H   UNL     1      -6.772   1.140   0.594  1.00  0.00     0.167 HD
ATOM     59  C   UNL     1      -8.186  -0.332  -2.113  1.00  0.00     0.074 A 
ATOM     60  C   UNL     1      -8.079  -1.491  -2.979  1.00  0.00     0.031 C 
ATOM     61  C   UNL     1      -8.644  -0.141  -0.846  1.00  0.00     0.031 A 
BRANCH  48  62
ATOM     62  C   UNL     1      -6.906   4.378   2.816  1.00  0.00    -0.014 A 
ATOM     63  C   UNL     1      -8.213   4.619   3.294  1.00  0.00     0.010 A 
ATOM     64  C   UNL     1      -5.850   4.807   3.641  1.00  0.00     0.010 A 
ATOM     65  C   UNL     1      -8.463   5.349   4.460  1.00  0.00     0.020 A 
ATOM     66  C   UNL     1      -6.087   5.556   4.811  1.00  0.00     0.020 A 
ATOM     67  C   UNL     1      -7.396   5.844   5.198  1.00  0.00     0.054 A 
BRANCH  67  68
ATOM     68  S   UNL     1      -7.756   6.877   6.644  1.00  0.00     0.124 S 
ATOM     69  O   UNL     1      -8.492   7.993   6.054  1.00  0.00    -0.237 OA
ATOM     70  O   UNL     1      -8.542   5.982   7.487  1.00  0.00    -0.237 OA
ATOM     71  O   UNL     1      -6.433   7.219   7.164  1.00  0.00    -0.744 OA
ENDBRANCH  67  68
ENDBRANCH  48  62
BRANCH  49  72
ATOM     72  C   UNL     1      -5.729   0.900  -5.976  1.00  0.00    -0.014 A 
ATOM     73  C   UNL     1      -5.638   1.413  -7.290  1.00  0.00     0.010 A 
ATOM     74  C   UNL     1      -4.557   0.430  -5.357  1.00  0.00     0.010 A 
ATOM     75  C   UNL     1      -4.399   1.558  -7.921  1.00  0.00     0.020 A 
ATOM     76  C   UNL     1      -3.314   0.556  -5.996  1.00  0.00     0.020 A 
ATOM     77  C   UNL     1      -3.241   1.156  -7.256  1.00  0.00     0.054 A 
BRANCH  77  78
ATOM     78  S   UNL     1      -1.632   1.628  -7.961  1.00  0.00     0.124 S 
ATOM     79  O   UNL     1      -1.477   0.662  -9.043  1.00  0.00    -0.237 OA
ATOM     80  O   UNL     1      -1.873   3.009  -8.374  1.00  0.00    -0.237 OA
ATOM     81  O   UNL     1      -0.725   1.473  -6.826  1.00  0.00    -0.744 OA
ENDBRANCH  77  78
ENDBRANCH  49  72
BRANCH  61  82
ATOM     82  C   UNL     1      -9.167  -1.206   0.068  1.00  0.00    -0.014 A 
ATOM     83  C   UNL     1      -9.952  -2.282  -0.362  1.00  0.00     0.010 A 
ATOM     84  C   UNL     1      -8.962  -1.056   1.460  1.00  0.00     0.010 A 
ATOM     85  C   UNL     1     -10.451  -3.212   0.560  1.00  0.00     0.020 A 
ATOM     86  C   UNL     1      -9.474  -1.961   2.387  1.00  0.00     0.020 A 
ATOM     87  C   UNL     1     -10.198  -3.050   1.926  1.00  0.00     0.054 A 
BRANCH  87  88
ATOM     88  S   UNL     1     -10.852  -4.263   3.097  1.00  0.00     0.124 S 
ATOM     89  O   UNL     1     -12.249  -4.378   2.687  1.00  0.00    -0.237 OA
ATOM     90  O   UNL     1     -10.018  -5.429   2.817  1.00  0.00    -0.237 OA
ATOM     91  O   UNL     1     -10.638  -3.644   4.402  1.00  0.00    -0.744 OA
ENDBRANCH  87  88
ENDBRANCH  61  82
ENDBRANCH  35  36
ENDBRANCH  28  30
ENDBRANCH  27  28
ENDBRANCH  26  27
ENDBRANCH   1  26
TORSDOF 17
