REMARK SMILES Cc1cc(C)c2c(O[C@@H](C)C(=O)OCCOC(=O)c3ccc(-c4c5nc(c(-c6ccc(S(=O)(=O)[O-])cc6)c6ccc([nH]6)c(-c6ccc(S(=O)(=O)[O-])cc6)c6nc(c(-c7ccc(S(=O)(=O)[O-])cc7)c7ccc4[nH]7)C=C6)C=C5)cc3)nsc2n1
REMARK SMILES IDX 15 1 14 2 13 3 11 4 12 5 9 6 10 7 8 8 7 9 1 10 2 11 3 12
REMARK SMILES IDX 82 13 4 14 81 15 5 16 6 17 80 18 79 19 16 20 17 21 18 22
REMARK SMILES IDX 19 23 20 24 78 25 21 26 77 27 22 28 23 29 24 30 71 31 25 32
REMARK SMILES IDX 76 33 70 34 72 35 26 36 75 37 69 38 68 39 27 41 57 42 38 43
REMARK SMILES IDX 56 44 39 45 42 46 55 47 73 48 40 49 41 50 54 52 74 53 43 54
REMARK SMILES IDX 28 55 29 56 37 57 30 58 36 59 31 60 32 61 33 62 34 63 35 64
REMARK SMILES IDX 58 65 59 66 67 67 60 68 66 69 61 70 62 71 63 72 64 73 65 74
REMARK SMILES IDX 44 75 45 76 53 77 46 78 52 79 47 80 48 81 49 82 50 83 51 84
REMARK H PARENT 72 40 42 51
REMARK Flexibility Score: inf
ROOT
ATOM      1  C   UNL     1       1.520   2.605   4.964  1.00  0.00     0.275 C 
ENDROOT
BRANCH   1   2
ATOM      2  C   UNL     1       0.209   2.050   4.438  1.00  0.00     0.274 C 
BRANCH   2   3
ATOM      3  O   UNL     1      -0.465   3.083   3.693  1.00  0.00    -0.459 OA
BRANCH   3   4
ATOM      4  C   UNL     1      -1.615   3.632   4.152  1.00  0.00     0.347 C 
ATOM      5  O   UNL     1      -2.197   3.255   5.164  1.00  0.00    -0.248 OA
BRANCH   4   6
ATOM      6  C   UNL     1      -2.113   4.801   3.252  1.00  0.00     0.281 C 
ATOM      7  C   UNL     1      -3.616   4.696   2.966  1.00  0.00     0.066 C 
BRANCH   6   8
ATOM      8  O   UNL     1      -1.601   5.322   2.054  1.00  0.00    -0.462 OA
BRANCH   8   9
ATOM      9  C   UNL     1      -0.674   4.667   1.328  1.00  0.00     0.236 A 
ATOM     10  C   UNL     1       1.522  -0.267  -0.391  1.00  0.00     0.067 C 
ATOM     11  C   UNL     1       0.808   0.964   0.077  1.00  0.00     0.039 A 
ATOM     12  C   UNL     1      -0.396   0.847   0.751  1.00  0.00     0.027 A 
ATOM     13  N   UNL     1       1.363   2.137  -0.243  1.00  0.00    -0.240 NA
ATOM     14  C   UNL     1      -1.108   1.987   1.179  1.00  0.00    -0.034 A 
ATOM     15  C   UNL     1       0.709   3.216   0.226  1.00  0.00     0.147 A 
ATOM     16  C   UNL     1      -2.400   1.675   1.894  1.00  0.00     0.045 C 
ATOM     17  C   UNL     1      -0.482   3.263   0.964  1.00  0.00     0.078 A 
ATOM     18  S   UNL     1       1.307   4.777  -0.072  1.00  0.00    -0.012 S 
ATOM     19  N   UNL     1       0.131   5.562   0.757  1.00  0.00    -0.153 NA
ENDBRANCH   8   9
ENDBRANCH   6   8
ENDBRANCH   4   6
ENDBRANCH   3   4
ENDBRANCH   2   3
ENDBRANCH   1   2
BRANCH   1  20
ATOM     20  O   UNL     1       1.205   3.581   5.947  1.00  0.00    -0.458 OA
BRANCH  20  21
ATOM     21  C   UNL     1       0.888   4.803   5.460  1.00  0.00     0.338 C 
ATOM     22  O   UNL     1       0.932   5.181   4.307  1.00  0.00    -0.246 OA
BRANCH  21  23
ATOM     23  C   UNL     1       0.525   5.667   6.579  1.00  0.00     0.060 A 
ATOM     24  C   UNL     1       0.100   6.966   6.269  1.00  0.00     0.016 A 
ATOM     25  C   UNL     1       0.981   5.297   7.843  1.00  0.00     0.016 A 
ATOM     26  C   UNL     1       0.398   7.969   7.161  1.00  0.00     0.010 A 
ATOM     27  C   UNL     1       1.347   6.299   8.687  1.00  0.00     0.010 A 
ATOM     28  C   UNL     1       1.131   7.621   8.293  1.00  0.00    -0.014 A 
BRANCH  28  29
ATOM     29  C   UNL     1       1.820   8.650   9.032  1.00  0.00     0.031 A 
ATOM     30  C   UNL     1       1.128   9.075  10.263  1.00  0.00     0.074 A 
ATOM     31  C   UNL     1       3.098   8.939   8.726  1.00  0.00     0.049 A 
ATOM     32  N   UNL     1       0.522  10.192  10.495  1.00  0.00    -0.248 NA
ATOM     33  C   UNL     1       0.897   8.039  11.287  1.00  0.00     0.031 C 
ATOM     34  C   UNL     1       3.979   8.251   7.772  1.00  0.00     0.029 A 
ATOM     35  N   UNL     1       3.932   9.810   9.338  1.00  0.00    -0.354 N 
ATOM     36  C   UNL     1      -0.008  10.043  11.770  1.00  0.00     0.074 A 
ATOM     37  C   UNL     1      -0.020   8.632  12.044  1.00  0.00     0.031 C 
ATOM     38  C   UNL     1       5.263   8.564   8.059  1.00  0.00     0.029 A 
ATOM     39  C   UNL     1       5.278   9.547   9.132  1.00  0.00     0.049 A 
ATOM     40  H   UNL     1       3.612  10.565   9.883  1.00  0.00     0.167 HD
ATOM     41  C   UNL     1      -0.104  11.069  12.658  1.00  0.00     0.031 A 
ATOM     42  C   UNL     1       6.295  10.014   9.900  1.00  0.00     0.031 A 
ATOM     43  C   UNL     1       0.148  12.341  12.037  1.00  0.00     0.049 A 
ATOM     44  C   UNL     1       5.747  11.141  10.708  1.00  0.00     0.074 A 
ATOM     45  C   UNL     1      -0.465  13.063  11.034  1.00  0.00     0.029 A 
ATOM     46  N   UNL     1       1.423  12.847  12.156  1.00  0.00    -0.354 N 
ATOM     47  N   UNL     1       5.311  12.259  10.197  1.00  0.00    -0.248 NA
ATOM     48  C   UNL     1       5.262  10.851  12.051  1.00  0.00     0.031 C 
ATOM     49  C   UNL     1       0.600  13.670  10.308  1.00  0.00     0.029 A 
ATOM     50  C   UNL     1       1.806  13.331  10.928  1.00  0.00     0.049 A 
ATOM     51  H   UNL     1       1.966  12.860  12.977  1.00  0.00     0.167 HD
ATOM     52  C   UNL     1       4.199  12.602  10.959  1.00  0.00     0.074 A 
ATOM     53  C   UNL     1       4.286  11.759  12.148  1.00  0.00     0.031 C 
ATOM     54  C   UNL     1       3.168  13.322  10.423  1.00  0.00     0.031 A 
BRANCH  41  55
ATOM     55  C   UNL     1      -0.058  10.861  14.150  1.00  0.00    -0.014 A 
ATOM     56  C   UNL     1      -0.421  11.913  15.005  1.00  0.00     0.010 A 
ATOM     57  C   UNL     1       0.524   9.721  14.751  1.00  0.00     0.010 A 
ATOM     58  C   UNL     1      -0.202  11.828  16.388  1.00  0.00     0.020 A 
ATOM     59  C   UNL     1       0.691   9.599  16.128  1.00  0.00     0.020 A 
ATOM     60  C   UNL     1       0.355  10.670  16.938  1.00  0.00     0.054 A 
BRANCH  60  61
ATOM     61  S   UNL     1       0.713  10.598  18.708  1.00  0.00     0.124 S 
ATOM     62  O   UNL     1       1.772  11.593  18.840  1.00  0.00    -0.237 OA
ATOM     63  O   UNL     1      -0.574  10.955  19.300  1.00  0.00    -0.237 OA
ATOM     64  O   UNL     1       1.126   9.212  18.919  1.00  0.00    -0.744 OA
ENDBRANCH  60  61
ENDBRANCH  41  55
BRANCH  42  65
ATOM     65  C   UNL     1       7.536   9.287  10.281  1.00  0.00    -0.014 A 
ATOM     66  C   UNL     1       8.576   9.955  10.954  1.00  0.00     0.010 A 
ATOM     67  C   UNL     1       7.586   7.878  10.240  1.00  0.00     0.010 A 
ATOM     68  C   UNL     1       9.577   9.238  11.632  1.00  0.00     0.020 A 
ATOM     69  C   UNL     1       8.587   7.157  10.900  1.00  0.00     0.020 A 
ATOM     70  C   UNL     1       9.560   7.841  11.622  1.00  0.00     0.054 A 
BRANCH  70  71
ATOM     71  S   UNL     1      10.726   6.924  12.672  1.00  0.00     0.124 S 
ATOM     72  O   UNL     1      12.003   7.175  12.013  1.00  0.00    -0.237 OA
ATOM     73  O   UNL     1      10.547   7.565  13.972  1.00  0.00    -0.237 OA
ATOM     74  O   UNL     1      10.247   5.545  12.595  1.00  0.00    -0.744 OA
ENDBRANCH  70  71
ENDBRANCH  42  65
BRANCH  54  75
ATOM     75  C   UNL     1       3.381  13.963   9.065  1.00  0.00    -0.014 A 
ATOM     76  C   UNL     1       3.621  13.226   7.887  1.00  0.00     0.010 A 
ATOM     77  C   UNL     1       3.174  15.348   8.951  1.00  0.00     0.010 A 
ATOM     78  C   UNL     1       3.674  13.860   6.636  1.00  0.00     0.020 A 
ATOM     79  C   UNL     1       3.207  15.984   7.706  1.00  0.00     0.020 A 
ATOM     80  C   UNL     1       3.464  15.239   6.554  1.00  0.00     0.054 A 
BRANCH  80  81
ATOM     81  S   UNL     1       3.483  16.048   4.929  1.00  0.00     0.124 S 
ATOM     82  O   UNL     1       4.882  15.923   4.528  1.00  0.00    -0.237 OA
ATOM     83  O   UNL     1       2.534  15.249   4.158  1.00  0.00    -0.237 OA
ATOM     84  O   UNL     1       3.043  17.413   5.215  1.00  0.00    -0.744 OA
ENDBRANCH  80  81
ENDBRANCH  54  75
ENDBRANCH  28  29
ENDBRANCH  21  23
ENDBRANCH  20  21
ENDBRANCH   1  20
TORSDOF 16
