REMARK SMILES Cc1ccccc1/C=C1\SC(=O)N(CC(=O)Nc2ccccc2C(=O)OCCOC(=O)c2ccc(-c3c4nc(c(-c5ccc(S(=O)(=O)[O-])cc5)c5ccc([nH]5)c(-c5ccc(S(=O)(=O)[O-])cc5)c5nc(c(-c6ccc(S(=O)(=O)[O-])cc6)c6ccc3[nH]6)C=C5)C=C4)cc2)C1=O
REMARK SMILES IDX 27 1 26 2 24 3 25 4 23 5 18 6 19 7 20 8 22 9 21 10 17 11
REMARK SMILES IDX 15 12 16 13 14 15 13 16 8 17 9 18 10 19 92 20 11 21 93 22
REMARK SMILES IDX 12 23 7 24 1 25 2 26 3 27 4 28 6 29 5 30 28 31 29 32 30 33
REMARK SMILES IDX 31 34 32 35 33 36 91 37 34 38 90 39 35 40 36 41 37 42 84 43
REMARK SMILES IDX 38 44 89 45 83 46 85 47 39 48 88 49 82 50 81 51 40 53 70 54
REMARK SMILES IDX 51 55 69 56 52 57 55 58 68 59 86 60 53 61 54 62 67 64 87 65
REMARK SMILES IDX 56 66 41 67 42 68 50 69 43 70 49 71 44 72 45 73 46 74 47 75
REMARK SMILES IDX 48 76 71 77 72 78 80 79 73 80 79 81 74 82 75 83 76 84 77 85
REMARK SMILES IDX 78 86 57 87 58 88 66 89 59 90 65 91 60 92 61 93 62 94 63 95
REMARK SMILES IDX 64 96
REMARK H PARENT 17 14 85 52 55 63
REMARK Flexibility Score: inf
ROOT
ATOM      1  C   UNL     1       4.354   2.574  -0.785  1.00  0.00     0.275 C 
ENDROOT
BRANCH   1   2
ATOM      2  O   UNL     1       3.615   1.817  -2.556  1.00  0.00    -0.458 OA
BRANCH   2   3
ATOM      3  C   UNL     1       3.131   1.824  -4.065  1.00  0.00     0.340 C 
ATOM      4  O   UNL     1       3.292   0.708  -4.589  1.00  0.00    -0.246 OA
BRANCH   3   5
ATOM      5  C   UNL     1       2.514   2.895  -5.209  1.00  0.00     0.083 A 
ATOM      6  C   UNL     1       2.651   4.259  -5.666  1.00  0.00     0.055 A 
ATOM      7  C   UNL     1       1.934   4.779  -6.815  1.00  0.00     0.027 A 
ATOM      8  C   UNL     1       1.182   3.991  -7.650  1.00  0.00     0.002 A 
ATOM      9  C   UNL     1       1.661   2.169  -6.105  1.00  0.00     0.018 A 
ATOM     10  C   UNL     1       1.052   2.673  -7.291  1.00  0.00     0.001 A 
BRANCH   6  11
ATOM     11  N   UNL     1       3.493   5.306  -5.289  1.00  0.00    -0.324 N 
ATOM     12  C   UNL     1       4.686   5.297  -4.683  1.00  0.00     0.244 C 
ATOM     13  O   UNL     1       5.463   6.197  -5.020  1.00  0.00    -0.273 OA
ATOM     14  H   UNL     1       3.151   6.203  -5.505  1.00  0.00     0.170 HD
BRANCH  12  15
ATOM     15  C   UNL     1       5.053   4.068  -3.906  1.00  0.00     0.230 C 
BRANCH  15  16
ATOM     16  N   UNL     1       4.394   3.330  -2.751  1.00  0.00    -0.259 N 
ATOM     17  C   UNL     1       1.287   0.991  -0.674  1.00  0.00     0.029 C 
ATOM     18  C   UNL     1       2.477   1.369  -1.195  1.00  0.00     0.083 C 
ATOM     19  S   UNL     1       4.321   0.169  -1.545  1.00  0.00    -0.022 SA
ATOM     20  C   UNL     1       2.766   3.190  -1.916  1.00  0.00     0.268 C 
ATOM     21  C   UNL     1       5.429   1.862  -2.650  1.00  0.00     0.294 C 
ATOM     22  O   UNL     1       1.782   3.859  -1.718  1.00  0.00    -0.268 OA
ATOM     23  O   UNL     1       6.410   1.562  -3.321  1.00  0.00    -0.261 OA
BRANCH  17  24
ATOM     24  C   UNL     1       0.538  -0.220  -0.233  1.00  0.00    -0.021 A 
ATOM     25  C   UNL     1       2.466  -1.547   0.737  1.00  0.00     0.045 C 
ATOM     26  C   UNL     1       1.050  -1.414   0.278  1.00  0.00    -0.044 A 
ATOM     27  C   UNL     1       0.202  -2.541   0.417  1.00  0.00     0.004 A 
ATOM     28  C   UNL     1      -1.174  -2.455   0.213  1.00  0.00     0.000 A 
ATOM     29  C   UNL     1      -0.875  -0.139  -0.317  1.00  0.00     0.008 A 
ATOM     30  C   UNL     1      -1.725  -1.226  -0.089  1.00  0.00     0.001 A 
ENDBRANCH  17  24
ENDBRANCH  15  16
ENDBRANCH  12  15
ENDBRANCH   6  11
ENDBRANCH   3   5
ENDBRANCH   2   3
ENDBRANCH   1   2
BRANCH   1  31
ATOM     31  C   UNL     1       4.706   4.066   0.524  1.00  0.00     0.275 C 
BRANCH  31  32
ATOM     32  O   UNL     1       4.598   6.013   0.691  1.00  0.00    -0.458 OA
BRANCH  32  33
ATOM     33  C   UNL     1       3.865   7.368  -0.312  1.00  0.00     0.338 C 
ATOM     34  O   UNL     1       4.064   8.486   0.184  1.00  0.00    -0.246 OA
BRANCH  33  35
ATOM     35  C   UNL     1       2.722   7.318  -1.889  1.00  0.00     0.060 A 
ATOM     36  C   UNL     1       1.460   7.973  -1.990  1.00  0.00     0.016 A 
ATOM     37  C   UNL     1       2.429   6.180  -2.773  1.00  0.00     0.016 A 
ATOM     38  C   UNL     1       0.085   7.193  -2.275  1.00  0.00     0.010 A 
ATOM     39  C   UNL     1       1.132   5.525  -3.247  1.00  0.00     0.010 A 
ATOM     40  C   UNL     1      -0.051   5.814  -2.634  1.00  0.00    -0.014 A 
BRANCH  40  41
ATOM     41  C   UNL     1      -0.905   4.566  -1.895  1.00  0.00     0.031 A 
ATOM     42  C   UNL     1      -1.616   3.428  -2.610  1.00  0.00     0.074 A 
ATOM     43  C   UNL     1      -0.879   4.175  -0.561  1.00  0.00     0.049 A 
ATOM     44  N   UNL     1      -2.899   3.236  -2.530  1.00  0.00    -0.248 NA
ATOM     45  C   UNL     1      -0.944   2.247  -3.188  1.00  0.00     0.031 C 
ATOM     46  C   UNL     1      -1.713   3.296   0.302  1.00  0.00     0.029 A 
ATOM     47  N   UNL     1      -0.042   4.601   0.425  1.00  0.00    -0.354 N 
ATOM     48  C   UNL     1      -3.164   1.881  -2.750  1.00  0.00     0.074 A 
ATOM     49  C   UNL     1      -1.947   1.355  -3.329  1.00  0.00     0.031 C 
ATOM     50  C   UNL     1      -1.604   3.672   1.607  1.00  0.00     0.029 A 
ATOM     51  C   UNL     1      -0.641   4.739   1.676  1.00  0.00     0.049 A 
ATOM     52  H   UNL     1       0.910   4.796   0.267  1.00  0.00     0.167 HD
ATOM     53  C   UNL     1      -4.257   1.256  -2.183  1.00  0.00     0.031 A 
ATOM     54  C   UNL     1      -0.772   6.040   2.089  1.00  0.00     0.031 A 
ATOM     55  C   UNL     1      -4.796   2.081  -1.079  1.00  0.00     0.049 A 
ATOM     56  C   UNL     1      -2.134   6.549   1.496  1.00  0.00     0.074 A 
ATOM     57  C   UNL     1      -4.902   1.883   0.293  1.00  0.00     0.029 A 
ATOM     58  N   UNL     1      -5.012   3.441  -1.273  1.00  0.00    -0.354 N 
ATOM     59  N   UNL     1      -3.012   5.710   1.002  1.00  0.00    -0.248 NA
ATOM     60  C   UNL     1      -2.665   7.916   1.412  1.00  0.00     0.031 C 
ATOM     61  C   UNL     1      -4.990   3.164   0.917  1.00  0.00     0.029 A 
ATOM     62  C   UNL     1      -4.990   4.132  -0.071  1.00  0.00     0.049 A 
ATOM     63  H   UNL     1      -5.162   3.860  -2.151  1.00  0.00     0.167 HD
ATOM     64  C   UNL     1      -4.120   6.324   0.508  1.00  0.00     0.074 A 
ATOM     65  C   UNL     1      -3.874   7.721   0.830  1.00  0.00     0.031 C 
ATOM     66  C   UNL     1      -5.126   5.595  -0.076  1.00  0.00     0.031 A 
BRANCH  53  67
ATOM     67  C   UNL     1      -4.735  -0.201  -2.388  1.00  0.00    -0.014 A 
ATOM     68  C   UNL     1      -5.751  -0.742  -1.554  1.00  0.00     0.010 A 
ATOM     69  C   UNL     1      -4.324  -1.052  -3.436  1.00  0.00     0.010 A 
ATOM     70  C   UNL     1      -6.273  -2.044  -1.705  1.00  0.00     0.020 A 
ATOM     71  C   UNL     1      -4.838  -2.367  -3.601  1.00  0.00     0.020 A 
ATOM     72  C   UNL     1      -5.806  -2.860  -2.727  1.00  0.00     0.054 A 
BRANCH  72  73
ATOM     73  S   UNL     1      -6.507  -4.533  -2.908  1.00  0.00     0.124 S 
ATOM     74  O   UNL     1      -6.130  -5.170  -1.648  1.00  0.00    -0.237 OA
ATOM     75  O   UNL     1      -7.934  -4.269  -3.071  1.00  0.00    -0.237 OA
ATOM     76  O   UNL     1      -5.838  -5.066  -4.093  1.00  0.00    -0.744 OA
ENDBRANCH  72  73
ENDBRANCH  53  67
BRANCH  54  77
ATOM     77  C   UNL     1       0.655   6.656   1.943  1.00  0.00    -0.014 A 
ATOM     78  C   UNL     1       1.751   5.971   2.473  1.00  0.00     0.010 A 
ATOM     79  C   UNL     1       0.955   7.015   0.672  1.00  0.00     0.010 A 
ATOM     80  C   UNL     1       2.816   5.363   1.599  1.00  0.00     0.020 A 
ATOM     81  C   UNL     1       1.881   6.116  -0.143  1.00  0.00     0.020 A 
ATOM     82  C   UNL     1       2.999   5.291  -0.009  1.00  0.00     0.054 A 
BRANCH  82  83
ATOM     83  S   UNL     1       5.111   5.579  -1.238  1.00  0.00     0.124 S 
ATOM     84  O   UNL     1       4.832   6.284  -2.460  1.00  0.00    -0.237 OA
ATOM     85  O   UNL     1       6.148   6.383  -0.539  1.00  0.00    -0.237 OA
ATOM     86  O   UNL     1       5.773   4.289  -1.386  1.00  0.00    -0.744 OA
ENDBRANCH  82  83
ENDBRANCH  54  77
BRANCH  66  87
ATOM     87  C   UNL     1      -6.431   6.116  -0.629  1.00  0.00    -0.014 A 
ATOM     88  C   UNL     1      -6.695   7.444  -0.968  1.00  0.00     0.010 A 
ATOM     89  C   UNL     1      -7.475   5.176  -0.860  1.00  0.00     0.010 A 
ATOM     90  C   UNL     1      -7.968   7.825  -1.420  1.00  0.00     0.020 A 
ATOM     91  C   UNL     1      -8.716   5.529  -1.373  1.00  0.00     0.020 A 
ATOM     92  C   UNL     1      -8.969   6.867  -1.608  1.00  0.00     0.054 A 
BRANCH  92  93
ATOM     93  S   UNL     1     -10.606   7.379  -2.167  1.00  0.00     0.124 S 
ATOM     94  O   UNL     1     -11.177   7.934  -0.942  1.00  0.00    -0.237 OA
ATOM     95  O   UNL     1     -10.295   8.350  -3.213  1.00  0.00    -0.237 OA
ATOM     96  O   UNL     1     -11.219   6.139  -2.636  1.00  0.00    -0.744 OA
ENDBRANCH  92  93
ENDBRANCH  66  87
ENDBRANCH  40  41
ENDBRANCH  33  35
ENDBRANCH  32  33
ENDBRANCH  31  32
ENDBRANCH   1  31
TORSDOF 18
