REMARK SMILES CC(C)[C@@H](CNC(=O)NC[C@@]1(C)CCCO1)C(=O)OCCOC(=O)c1ccc(-c2c3nc(c(-c4ccc(S(=O)(=O)[O-])cc4)c4ccc([nH]4)c(-c4ccc(S(=O)(=O)[O-])cc4)c4nc(c(-c5ccc(S(=O)(=O)[O-])cc5)c5ccc2[nH]5)C=C4)C=C3)cc1
REMARK SMILES IDX 20 1 19 2 17 3 18 4 4 5 2 6 1 7 3 8 5 9 6 10 7 11 8 13 9 14
REMARK SMILES IDX 10 16 11 17 12 18 13 19 16 20 14 21 15 22 21 23 22 24 23 25
REMARK SMILES IDX 24 26 25 27 26 28 84 29 27 30 83 31 28 32 29 33 30 34 77 35
REMARK SMILES IDX 31 36 82 37 76 38 78 39 32 40 81 41 75 42 74 43 33 45 63 46
REMARK SMILES IDX 44 47 62 48 45 49 48 50 61 51 79 52 46 53 47 54 60 56 80 57
REMARK SMILES IDX 49 58 34 59 35 60 43 61 36 62 42 63 37 64 38 65 39 66 40 67
REMARK SMILES IDX 41 68 64 69 65 70 73 71 66 72 72 73 67 74 68 75 69 76 70 77
REMARK SMILES IDX 71 78 50 79 51 80 59 81 52 82 58 83 53 84 54 85 55 86 56 87
REMARK SMILES IDX 57 88
REMARK H PARENT 6 12 9 15 78 44 48 55
REMARK Flexibility Score: inf
ROOT
ATOM      1  C   UNL     1      -1.462  -4.187  -2.424  1.00  0.00     0.274 C 
ENDROOT
BRANCH   1   2
ATOM      2  O   UNL     1      -0.735  -3.018  -2.000  1.00  0.00    -0.462 OA
BRANCH   2   3
ATOM      3  C   UNL     1      -1.402  -2.201  -1.142  1.00  0.00     0.311 C 
ATOM      4  O   UNL     1      -2.528  -2.419  -0.708  1.00  0.00    -0.252 OA
BRANCH   3   5
ATOM      5  C   UNL     1      -0.633  -0.939  -0.788  1.00  0.00     0.121 C 
BRANCH   5   6
ATOM      6  C   UNL     1       0.914  -1.097  -0.765  1.00  0.00    -0.001 C 
ATOM      7  C   UNL     1       1.605   0.181  -0.262  1.00  0.00     0.008 C 
ATOM      8  C   UNL     1       1.358  -2.249   0.154  1.00  0.00     0.008 C 
ENDBRANCH   5   6
BRANCH   5   9
ATOM      9  C   UNL     1      -1.161   0.221  -1.655  1.00  0.00     0.133 C 
BRANCH   9  10
ATOM     10  N   UNL     1      -1.177  -0.062  -3.077  1.00  0.00    -0.337 N 
ATOM     11  C   UNL     1      -2.124  -0.424  -3.950  1.00  0.00     0.314 C 
ATOM     12  H   UNL     1      -0.290   0.035  -3.495  1.00  0.00     0.165 HD
ATOM     13  O   UNL     1      -1.774  -0.608  -5.120  1.00  0.00    -0.249 OA
ATOM     14  N   UNL     1      -3.408  -0.632  -3.651  1.00  0.00    -0.335 N 
ATOM     15  H   UNL     1      -3.924  -0.937  -4.433  1.00  0.00     0.165 HD
BRANCH  14  16
ATOM     16  C   UNL     1      -4.242  -0.521  -2.457  1.00  0.00     0.152 C 
BRANCH  16  17
ATOM     17  C   UNL     1      -5.088   0.769  -2.385  1.00  0.00     0.083 C 
ATOM     18  C   UNL     1      -6.112   0.808  -3.528  1.00  0.00     0.044 C 
ATOM     19  C   UNL     1      -5.766   0.895  -1.018  1.00  0.00     0.039 C 
ATOM     20  O   UNL     1      -4.253   1.941  -2.489  1.00  0.00    -0.373 OA
ATOM     21  C   UNL     1      -5.950   2.386  -0.871  1.00  0.00     0.031 C 
ATOM     22  C   UNL     1      -4.735   2.944  -1.582  1.00  0.00     0.161 C 
ENDBRANCH  16  17
ENDBRANCH  14  16
ENDBRANCH   9  10
ENDBRANCH   5   9
ENDBRANCH   3   5
ENDBRANCH   2   3
ENDBRANCH   1   2
BRANCH   1  23
ATOM     23  C   UNL     1      -1.260  -5.362  -1.465  1.00  0.00     0.275 C 
BRANCH  23  24
ATOM     24  O   UNL     1      -1.782  -5.038  -0.164  1.00  0.00    -0.458 OA
BRANCH  24  25
ATOM     25  C   UNL     1      -0.958  -5.252   0.883  1.00  0.00     0.338 C 
ATOM     26  O   UNL     1       0.144  -5.784   0.864  1.00  0.00    -0.246 OA
BRANCH  25  27
ATOM     27  C   UNL     1      -1.584  -4.746   2.114  1.00  0.00     0.060 A 
ATOM     28  C   UNL     1      -1.757  -3.372   2.303  1.00  0.00     0.016 A 
ATOM     29  C   UNL     1      -1.907  -5.642   3.133  1.00  0.00     0.016 A 
ATOM     30  C   UNL     1      -2.235  -2.884   3.518  1.00  0.00     0.010 A 
ATOM     31  C   UNL     1      -2.415  -5.156   4.341  1.00  0.00     0.010 A 
ATOM     32  C   UNL     1      -2.561  -3.773   4.549  1.00  0.00    -0.014 A 
BRANCH  32  33
ATOM     33  C   UNL     1      -2.991  -3.258   5.870  1.00  0.00     0.031 A 
ATOM     34  C   UNL     1      -2.054  -3.348   7.043  1.00  0.00     0.074 A 
ATOM     35  C   UNL     1      -4.211  -2.709   6.018  1.00  0.00     0.049 A 
ATOM     36  N   UNL     1      -2.275  -3.061   8.299  1.00  0.00    -0.248 NA
ATOM     37  C   UNL     1      -0.691  -3.827   6.763  1.00  0.00     0.031 C 
ATOM     38  C   UNL     1      -5.190  -2.519   4.947  1.00  0.00     0.029 A 
ATOM     39  N   UNL     1      -4.835  -2.215   7.135  1.00  0.00    -0.354 N 
ATOM     40  C   UNL     1      -1.090  -3.350   8.966  1.00  0.00     0.074 A 
ATOM     41  C   UNL     1      -0.156  -3.842   7.975  1.00  0.00     0.031 C 
ATOM     42  C   UNL     1      -6.292  -1.946   5.459  1.00  0.00     0.029 A 
ATOM     43  C   UNL     1      -6.115  -1.774   6.898  1.00  0.00     0.049 A 
ATOM     44  H   UNL     1      -4.407  -2.179   8.021  1.00  0.00     0.167 HD
ATOM     45  C   UNL     1      -0.809  -3.224  10.285  1.00  0.00     0.031 A 
ATOM     46  C   UNL     1      -7.050  -1.312   7.750  1.00  0.00     0.031 A 
ATOM     47  C   UNL     1      -1.739  -2.735  11.267  1.00  0.00     0.049 A 
ATOM     48  C   UNL     1      -6.731  -1.223   9.216  1.00  0.00     0.074 A 
ATOM     49  C   UNL     1      -1.552  -2.577  12.630  1.00  0.00     0.029 A 
ATOM     50  N   UNL     1      -3.033  -2.321  10.990  1.00  0.00    -0.354 N 
ATOM     51  N   UNL     1      -5.617  -1.532   9.835  1.00  0.00    -0.248 NA
ATOM     52  C   UNL     1      -7.798  -0.728  10.097  1.00  0.00     0.031 C 
ATOM     53  C   UNL     1      -2.746  -2.097  13.182  1.00  0.00     0.029 A 
ATOM     54  C   UNL     1      -3.661  -1.918  12.156  1.00  0.00     0.049 A 
ATOM     55  H   UNL     1      -3.445  -2.314  10.096  1.00  0.00     0.167 HD
ATOM     56  C   UNL     1      -5.844  -1.257  11.178  1.00  0.00     0.074 A 
ATOM     57  C   UNL     1      -7.195  -0.742  11.278  1.00  0.00     0.031 C 
ATOM     58  C   UNL     1      -5.009  -1.417  12.235  1.00  0.00     0.031 A 
BRANCH  45  59
ATOM     59  C   UNL     1       0.555  -3.664  10.741  1.00  0.00    -0.014 A 
ATOM     60  C   UNL     1       1.696  -2.883  10.485  1.00  0.00     0.010 A 
ATOM     61  C   UNL     1       0.694  -4.872  11.447  1.00  0.00     0.010 A 
ATOM     62  C   UNL     1       2.958  -3.324  10.893  1.00  0.00     0.020 A 
ATOM     63  C   UNL     1       1.951  -5.307  11.874  1.00  0.00     0.020 A 
ATOM     64  C   UNL     1       3.079  -4.538  11.577  1.00  0.00     0.054 A 
BRANCH  64  65
ATOM     65  S   UNL     1       4.726  -5.089  12.102  1.00  0.00     0.124 S 
ATOM     66  O   UNL     1       5.283  -5.601  10.852  1.00  0.00    -0.237 OA
ATOM     67  O   UNL     1       5.335  -3.860  12.604  1.00  0.00    -0.237 OA
ATOM     68  O   UNL     1       4.444  -6.100  13.119  1.00  0.00    -0.744 OA
ENDBRANCH  64  65
ENDBRANCH  45  59
BRANCH  46  69
ATOM     69  C   UNL     1      -8.389  -0.922   7.233  1.00  0.00    -0.014 A 
ATOM     70  C   UNL     1      -8.753   0.431   7.145  1.00  0.00     0.010 A 
ATOM     71  C   UNL     1      -9.294  -1.907   6.797  1.00  0.00     0.010 A 
ATOM     72  C   UNL     1     -10.002   0.795   6.632  1.00  0.00     0.020 A 
ATOM     73  C   UNL     1     -10.533  -1.547   6.263  1.00  0.00     0.020 A 
ATOM     74  C   UNL     1     -10.882  -0.197   6.189  1.00  0.00     0.054 A 
BRANCH  74  75
ATOM     75  S   UNL     1     -12.464   0.296   5.448  1.00  0.00     0.124 S 
ATOM     76  O   UNL     1     -13.273   0.587   6.627  1.00  0.00    -0.237 OA
ATOM     77  O   UNL     1     -12.089   1.450   4.635  1.00  0.00    -0.237 OA
ATOM     78  O   UNL     1     -12.863  -0.886   4.687  1.00  0.00    -0.744 OA
ENDBRANCH  74  75
ENDBRANCH  46  69
BRANCH  58  79
ATOM     79  C   UNL     1      -5.532  -1.008  13.584  1.00  0.00    -0.014 A 
ATOM     80  C   UNL     1      -6.452  -1.811  14.278  1.00  0.00     0.010 A 
ATOM     81  C   UNL     1      -5.074   0.184  14.174  1.00  0.00     0.010 A 
ATOM     82  C   UNL     1      -6.936  -1.410  15.526  1.00  0.00     0.020 A 
ATOM     83  C   UNL     1      -5.541   0.578  15.430  1.00  0.00     0.020 A 
ATOM     84  C   UNL     1      -6.483  -0.214  16.091  1.00  0.00     0.054 A 
BRANCH  84  85
ATOM     85  S   UNL     1      -7.105   0.281  17.721  1.00  0.00     0.124 S 
ATOM     86  O   UNL     1      -8.408   0.848  17.388  1.00  0.00    -0.237 OA
ATOM     87  O   UNL     1      -7.138  -0.982  18.454  1.00  0.00    -0.237 OA
ATOM     88  O   UNL     1      -6.108   1.240  18.193  1.00  0.00    -0.744 OA
ENDBRANCH  84  85
ENDBRANCH  58  79
ENDBRANCH  32  33
ENDBRANCH  25  27
ENDBRANCH  24  25
ENDBRANCH  23  24
ENDBRANCH   1  23
TORSDOF 19
