REMARK SMILES O=C(OCCOC(=O)c1ccc(-c2c3nc(c(-c4ccc(S(=O)(=O)[O-])cc4)c4ccc([nH]4)c(-c4ccc(S(=O)(=O)[O-])cc4)c4nc(c(-c5ccc(S(=O)(=O)[O-])cc5)c5ccc2[nH]5)C=C4)C=C3)cc1)c1ccc(NC(=O)c2ccccc2NC(=O)C2CC2)cc1
REMARK SMILES IDX 4 1 3 2 2 3 1 4 69 5 70 6 89 7 71 8 88 9 72 10 73 11 74 12
REMARK SMILES IDX 75 14 76 15 77 16 81 17 78 18 80 19 79 20 82 21 83 22 84 24
REMARK SMILES IDX 85 25 86 26 87 27 5 28 6 29 7 30 8 31 9 32 10 33 68 34 11 35
REMARK SMILES IDX 67 36 12 37 13 38 14 39 61 40 15 41 66 42 60 43 62 44 16 45
REMARK SMILES IDX 65 46 59 47 58 48 17 50 47 51 28 52 46 53 29 54 32 55 45 56
REMARK SMILES IDX 63 57 30 58 31 59 44 61 64 62 33 63 18 64 19 65 27 66 20 67
REMARK SMILES IDX 26 68 21 69 22 70 23 71 24 72 25 73 48 74 49 75 57 76 50 77
REMARK SMILES IDX 56 78 51 79 52 80 53 81 54 82 55 83 34 84 35 85 43 86 36 87
REMARK SMILES IDX 42 88 37 89 38 90 39 91 40 92 41 93
REMARK H PARENT 73 13 82 23 62 49 32 60
REMARK Flexibility Score: inf
ROOT
ATOM      1  C   UNL     1       3.657   1.425  -0.397  1.00  0.00     0.275 C 
ENDROOT
BRANCH   1   2
ATOM      2  O   UNL     1       2.793   0.772  -1.344  1.00  0.00    -0.458 OA
BRANCH   2   3
ATOM      3  C   UNL     1       2.756  -0.520  -1.756  1.00  0.00     0.338 C 
ATOM      4  O   UNL     1       1.873  -0.868  -2.536  1.00  0.00    -0.246 OA
BRANCH   3   5
ATOM      5  C   UNL     1       3.670  -1.572  -1.210  1.00  0.00     0.060 A 
ATOM      6  C   UNL     1       4.965  -1.352  -0.739  1.00  0.00     0.018 A 
ATOM      7  C   UNL     1       3.158  -2.873  -1.125  1.00  0.00     0.018 A 
ATOM      8  C   UNL     1       5.627  -2.322   0.031  1.00  0.00     0.027 A 
ATOM      9  C   UNL     1       3.854  -3.865  -0.426  1.00  0.00     0.027 A 
ATOM     10  C   UNL     1       5.038  -3.558   0.255  1.00  0.00     0.041 A 
BRANCH  10  11
ATOM     11  N   UNL     1       5.518  -4.528   1.143  1.00  0.00    -0.322 N 
ATOM     12  C   UNL     1       6.416  -4.519   2.181  1.00  0.00     0.257 C 
ATOM     13  H   UNL     1       5.123  -5.417   0.987  1.00  0.00     0.170 HD
ATOM     14  O   UNL     1       6.646  -5.576   2.771  1.00  0.00    -0.269 OA
BRANCH  12  15
ATOM     15  C   UNL     1       7.144  -3.332   2.666  1.00  0.00     0.063 A 
ATOM     16  C   UNL     1       8.499  -3.289   2.288  1.00  0.00     0.016 A 
ATOM     17  C   UNL     1       6.649  -2.442   3.648  1.00  0.00     0.054 A 
ATOM     18  C   UNL     1       9.370  -2.377   2.877  1.00  0.00     0.001 A 
ATOM     19  C   UNL     1       7.563  -1.576   4.261  1.00  0.00     0.027 A 
ATOM     20  C   UNL     1       8.904  -1.532   3.876  1.00  0.00     0.002 A 
BRANCH  17  21
ATOM     21  N   UNL     1       5.301  -2.477   4.059  1.00  0.00    -0.325 N 
ATOM     22  C   UNL     1       4.517  -1.594   4.776  1.00  0.00     0.227 C 
ATOM     23  H   UNL     1       4.825  -3.292   3.779  1.00  0.00     0.169 HD
ATOM     24  O   UNL     1       3.380  -1.931   5.096  1.00  0.00    -0.274 OA
BRANCH  22  25
ATOM     25  C   UNL     1       4.961  -0.219   5.141  1.00  0.00     0.079 C 
ATOM     26  C   UNL     1       5.535   0.784   4.167  1.00  0.00     0.014 C 
ATOM     27  C   UNL     1       4.131   0.957   4.646  1.00  0.00     0.014 C 
ENDBRANCH  22  25
ENDBRANCH  17  21
ENDBRANCH  12  15
ENDBRANCH  10  11
ENDBRANCH   3   5
ENDBRANCH   2   3
ENDBRANCH   1   2
BRANCH   1  28
ATOM     28  C   UNL     1       3.432   1.099   1.078  1.00  0.00     0.275 C 
BRANCH  28  29
ATOM     29  O   UNL     1       3.005  -0.241   1.331  1.00  0.00    -0.458 OA
BRANCH  29  30
ATOM     30  C   UNL     1       1.661  -0.424   1.429  1.00  0.00     0.338 C 
ATOM     31  O   UNL     1       0.812   0.450   1.323  1.00  0.00    -0.246 OA
BRANCH  30  32
ATOM     32  C   UNL     1       1.354  -1.861   1.643  1.00  0.00     0.060 A 
ATOM     33  C   UNL     1       0.130  -2.391   1.230  1.00  0.00     0.016 A 
ATOM     34  C   UNL     1       2.275  -2.697   2.272  1.00  0.00     0.016 A 
ATOM     35  C   UNL     1      -0.183  -3.732   1.502  1.00  0.00     0.010 A 
ATOM     36  C   UNL     1       1.973  -4.030   2.546  1.00  0.00     0.010 A 
ATOM     37  C   UNL     1       0.724  -4.549   2.196  1.00  0.00    -0.014 A 
BRANCH  37  38
ATOM     38  C   UNL     1       0.385  -5.936   2.600  1.00  0.00     0.031 A 
ATOM     39  C   UNL     1       0.072  -6.246   4.042  1.00  0.00     0.074 A 
ATOM     40  C   UNL     1       0.468  -6.936   1.703  1.00  0.00     0.049 A 
ATOM     41  N   UNL     1      -0.342  -7.367   4.575  1.00  0.00    -0.248 NA
ATOM     42  C   UNL     1       0.280  -5.160   5.014  1.00  0.00     0.031 C 
ATOM     43  C   UNL     1       0.871  -6.781   0.305  1.00  0.00     0.029 A 
ATOM     44  N   UNL     1       0.241  -8.282   1.839  1.00  0.00    -0.354 N 
ATOM     45  C   UNL     1      -0.459  -7.120   5.940  1.00  0.00     0.074 A 
ATOM     46  C   UNL     1      -0.003  -5.764   6.159  1.00  0.00     0.031 C 
ATOM     47  C   UNL     1       0.864  -7.986  -0.288  1.00  0.00     0.029 A 
ATOM     48  C   UNL     1       0.435  -8.993   0.679  1.00  0.00     0.049 A 
ATOM     49  H   UNL     1      -0.036  -8.698   2.687  1.00  0.00     0.167 HD
ATOM     50  C   UNL     1      -0.925  -7.939   6.916  1.00  0.00     0.031 A 
ATOM     51  C   UNL     1       0.249 -10.301   0.414  1.00  0.00     0.031 A 
ATOM     52  C   UNL     1      -1.333  -9.302   6.681  1.00  0.00     0.049 A 
ATOM     53  C   UNL     1      -0.316 -11.190   1.490  1.00  0.00     0.074 A 
ATOM     54  C   UNL     1      -1.915 -10.197   7.562  1.00  0.00     0.029 A 
ATOM     55  N   UNL     1      -1.176  -9.975   5.477  1.00  0.00    -0.354 N 
ATOM     56  N   UNL     1      -0.594 -10.897   2.739  1.00  0.00    -0.248 NA
ATOM     57  C   UNL     1      -0.640 -12.569   1.106  1.00  0.00     0.031 C 
ATOM     58  C   UNL     1      -2.051 -11.427   6.909  1.00  0.00     0.029 A 
ATOM     59  C   UNL     1      -1.623 -11.280   5.598  1.00  0.00     0.049 A 
ATOM     60  H   UNL     1      -0.801  -9.581   4.656  1.00  0.00     0.167 HD
ATOM     61  C   UNL     1      -1.165 -12.044   3.280  1.00  0.00     0.074 A 
ATOM     62  C   UNL     1      -1.197 -13.031   2.218  1.00  0.00     0.031 C 
ATOM     63  C   UNL     1      -1.633 -12.257   4.536  1.00  0.00     0.031 A 
BRANCH  50  64
ATOM     64  C   UNL     1      -1.023  -7.380   8.319  1.00  0.00    -0.014 A 
ATOM     65  C   UNL     1      -1.891  -6.311   8.617  1.00  0.00     0.010 A 
ATOM     66  C   UNL     1      -0.272  -7.948   9.365  1.00  0.00     0.010 A 
ATOM     67  C   UNL     1      -1.960  -5.784   9.910  1.00  0.00     0.020 A 
ATOM     68  C   UNL     1      -0.365  -7.447  10.670  1.00  0.00     0.020 A 
ATOM     69  C   UNL     1      -1.192  -6.352  10.929  1.00  0.00     0.054 A 
BRANCH  69  70
ATOM     70  S   UNL     1      -1.309  -5.651  12.599  1.00  0.00     0.124 S 
ATOM     71  O   UNL     1      -0.620  -4.372  12.440  1.00  0.00    -0.237 OA
ATOM     72  O   UNL     1      -2.752  -5.562  12.809  1.00  0.00    -0.237 OA
ATOM     73  O   UNL     1      -0.619  -6.628  13.437  1.00  0.00    -0.744 OA
ENDBRANCH  69  70
ENDBRANCH  50  64
BRANCH  51  74
ATOM     74  C   UNL     1       0.488 -10.805  -0.966  1.00  0.00    -0.014 A 
ATOM     75  C   UNL     1      -0.601 -11.082  -1.812  1.00  0.00     0.010 A 
ATOM     76  C   UNL     1       1.795 -10.937  -1.469  1.00  0.00     0.010 A 
ATOM     77  C   UNL     1      -0.389 -11.479  -3.135  1.00  0.00     0.020 A 
ATOM     78  C   UNL     1       2.010 -11.312  -2.800  1.00  0.00     0.020 A 
ATOM     79  C   UNL     1       0.916 -11.581  -3.624  1.00  0.00     0.054 A 
BRANCH  79  80
ATOM     80  S   UNL     1       1.157 -12.005  -5.373  1.00  0.00     0.124 S 
ATOM     81  O   UNL     1       0.756 -13.408  -5.405  1.00  0.00    -0.237 OA
ATOM     82  O   UNL     1       0.258 -11.073  -6.048  1.00  0.00    -0.237 OA
ATOM     83  O   UNL     1       2.580 -11.755  -5.592  1.00  0.00    -0.744 OA
ENDBRANCH  79  80
ENDBRANCH  51  74
BRANCH  63  84
ATOM     84  C   UNL     1      -2.251 -13.601   4.825  1.00  0.00    -0.014 A 
ATOM     85  C   UNL     1      -1.472 -14.771   4.891  1.00  0.00     0.010 A 
ATOM     86  C   UNL     1      -3.633 -13.685   5.076  1.00  0.00     0.010 A 
ATOM     87  C   UNL     1      -2.072 -16.005   5.159  1.00  0.00     0.020 A 
ATOM     88  C   UNL     1      -4.231 -14.912   5.377  1.00  0.00     0.020 A 
ATOM     89  C   UNL     1      -3.449 -16.067   5.398  1.00  0.00     0.054 A 
BRANCH  89  90
ATOM     90  S   UNL     1      -4.198 -17.676   5.770  1.00  0.00     0.124 S 
ATOM     91  O   UNL     1      -4.161 -18.337   4.468  1.00  0.00    -0.237 OA
ATOM     92  O   UNL     1      -3.294 -18.225   6.779  1.00  0.00    -0.237 OA
ATOM     93  O   UNL     1      -5.532 -17.334   6.258  1.00  0.00    -0.744 OA
ENDBRANCH  89  90
ENDBRANCH  63  84
ENDBRANCH  37  38
ENDBRANCH  30  32
ENDBRANCH  29  30
ENDBRANCH  28  29
ENDBRANCH   1  28
TORSDOF 18
