REMARK SMILES O=C(COC[C@@H]1CCCCO1)OCCOC(=O)c1ccc(-c2c3nc(c(-c4ccc(S(=O)(=O)[O-])cc4)c4ccc([nH]4)c(-c4ccc(S(=O)(=O)[O-])cc4)c4nc(c(-c5ccc(S(=O)(=O)[O-])cc5)c5ccc2[nH]5)C=C4)C=C3)cc1
REMARK SMILES IDX 13 1 12 2 2 3 1 4 3 5 4 6 5 7 6 8 7 9 11 10 8 11 10 12 9 13
REMARK SMILES IDX 14 14 15 15 16 16 17 17 18 18 19 19 77 20 20 21 76 22 21 23
REMARK SMILES IDX 22 24 23 25 70 26 24 27 75 28 69 29 71 30 25 31 74 32 68 33
REMARK SMILES IDX 67 34 26 36 56 37 37 38 55 39 38 40 41 41 54 42 72 43 39 44
REMARK SMILES IDX 40 45 53 47 73 48 42 49 27 50 28 51 36 52 29 53 35 54 30 55
REMARK SMILES IDX 31 56 32 57 33 58 34 59 57 60 58 61 66 62 59 63 65 64 60 65
REMARK SMILES IDX 61 66 62 67 63 68 64 69 43 70 44 71 52 72 45 73 51 74 46 75
REMARK SMILES IDX 47 76 48 77 49 78 50 79
REMARK H PARENT 71 35 41 46
REMARK Flexibility Score: inf
ROOT
ATOM      1  C   UNL     1       4.600  -1.120  -1.163  1.00  0.00     0.274 C 
ENDROOT
BRANCH   1   2
ATOM      2  O   UNL     1       3.364  -1.428  -0.494  1.00  0.00    -0.460 OA
BRANCH   2   3
ATOM      3  C   UNL     1       2.998  -0.946   0.721  1.00  0.00     0.332 C 
ATOM      4  O   UNL     1       2.022  -1.433   1.288  1.00  0.00    -0.250 OA
BRANCH   3   5
ATOM      5  C   UNL     1       3.750   0.280   1.276  1.00  0.00     0.282 C 
BRANCH   5   6
ATOM      6  O   UNL     1       3.996   0.502   2.654  1.00  0.00    -0.367 OA
BRANCH   6   7
ATOM      7  C   UNL     1       2.908   0.371   3.564  1.00  0.00     0.193 C 
BRANCH   7   8
ATOM      8  C   UNL     1       1.983   1.593   3.755  1.00  0.00     0.144 C 
ATOM      9  C   UNL     1       1.698   2.458   2.532  1.00  0.00     0.034 C 
ATOM     10  O   UNL     1       2.409   2.407   4.861  1.00  0.00    -0.376 OA
ATOM     11  C   UNL     1       2.838   3.428   2.223  1.00  0.00     0.005 C 
ATOM     12  C   UNL     1       3.532   3.245   4.597  1.00  0.00     0.160 C 
ATOM     13  C   UNL     1       3.230   4.205   3.465  1.00  0.00     0.029 C 
ENDBRANCH   7   8
ENDBRANCH   6   7
ENDBRANCH   5   6
ENDBRANCH   3   5
ENDBRANCH   2   3
ENDBRANCH   1   2
BRANCH   1  14
ATOM     14  C   UNL     1       4.431  -0.048  -2.240  1.00  0.00     0.275 C 
BRANCH  14  15
ATOM     15  O   UNL     1       3.889   1.191  -1.737  1.00  0.00    -0.458 OA
BRANCH  15  16
ATOM     16  C   UNL     1       2.570   1.405  -2.019  1.00  0.00     0.338 C 
ATOM     17  O   UNL     1       1.817   0.603  -2.536  1.00  0.00    -0.246 OA
BRANCH  16  18
ATOM     18  C   UNL     1       2.124   2.749  -1.556  1.00  0.00     0.060 A 
ATOM     19  C   UNL     1       0.790   2.902  -1.150  1.00  0.00     0.016 A 
ATOM     20  C   UNL     1       2.967   3.864  -1.564  1.00  0.00     0.016 A 
ATOM     21  C   UNL     1       0.303   4.154  -0.740  1.00  0.00     0.010 A 
ATOM     22  C   UNL     1       2.476   5.117  -1.159  1.00  0.00     0.010 A 
ATOM     23  C   UNL     1       1.139   5.278  -0.742  1.00  0.00    -0.014 A 
BRANCH  23  24
ATOM     24  C   UNL     1       0.628   6.632  -0.376  1.00  0.00     0.031 A 
ATOM     25  C   UNL     1       0.287   7.613  -1.458  1.00  0.00     0.074 A 
ATOM     26  C   UNL     1       0.485   7.026   0.906  1.00  0.00     0.049 A 
ATOM     27  N   UNL     1      -0.175   8.830  -1.337  1.00  0.00    -0.248 NA
ATOM     28  C   UNL     1       0.441   7.154  -2.846  1.00  0.00     0.031 C 
ATOM     29  C   UNL     1       0.647   6.170   2.068  1.00  0.00     0.029 A 
ATOM     30  N   UNL     1       0.206   8.257   1.454  1.00  0.00    -0.354 N 
ATOM     31  C   UNL     1      -0.441   9.259  -2.627  1.00  0.00     0.074 A 
ATOM     32  C   UNL     1      -0.000   8.207  -3.521  1.00  0.00     0.031 C 
ATOM     33  C   UNL     1       0.607   6.911   3.188  1.00  0.00     0.029 A 
ATOM     34  C   UNL     1       0.360   8.297   2.823  1.00  0.00     0.049 A 
ATOM     35  H   UNL     1      -0.076   9.034   0.919  1.00  0.00     0.167 HD
ATOM     36  C   UNL     1      -1.048  10.401  -3.026  1.00  0.00     0.031 A 
ATOM     37  C   UNL     1       0.304   9.320   3.697  1.00  0.00     0.031 A 
ATOM     38  C   UNL     1      -1.442  11.469  -2.147  1.00  0.00     0.049 A 
ATOM     39  C   UNL     1      -0.166  10.660   3.210  1.00  0.00     0.074 A 
ATOM     40  C   UNL     1      -2.087  12.652  -2.467  1.00  0.00     0.029 A 
ATOM     41  N   UNL     1      -1.206  11.504  -0.781  1.00  0.00    -0.354 N 
ATOM     42  N   UNL     1      -0.507  11.012   1.994  1.00  0.00    -0.248 NA
ATOM     43  C   UNL     1      -0.337  11.715   4.218  1.00  0.00     0.031 C 
ATOM     44  C   UNL     1      -2.183  13.428  -1.306  1.00  0.00     0.029 A 
ATOM     45  C   UNL     1      -1.648  12.706  -0.252  1.00  0.00     0.049 A 
ATOM     46  H   UNL     1      -0.785  10.780  -0.263  1.00  0.00     0.167 HD
ATOM     47  C   UNL     1      -1.007  12.303   2.104  1.00  0.00     0.074 A 
ATOM     48  C   UNL     1      -0.900  12.677   3.500  1.00  0.00     0.031 C 
ATOM     49  C   UNL     1      -1.538  13.087   1.135  1.00  0.00     0.031 A 
BRANCH  36  50
ATOM     50  C   UNL     1      -1.327  10.536  -4.494  1.00  0.00    -0.014 A 
ATOM     51  C   UNL     1      -2.340   9.768  -5.100  1.00  0.00     0.010 A 
ATOM     52  C   UNL     1      -0.589  11.442  -5.273  1.00  0.00     0.010 A 
ATOM     53  C   UNL     1      -2.582   9.876  -6.470  1.00  0.00     0.020 A 
ATOM     54  C   UNL     1      -0.845  11.569  -6.640  1.00  0.00     0.020 A 
ATOM     55  C   UNL     1      -1.828  10.772  -7.232  1.00  0.00     0.054 A 
BRANCH  55  56
ATOM     56  S   UNL     1      -2.167  10.896  -9.009  1.00  0.00     0.124 S 
ATOM     57  O   UNL     1      -1.605   9.644  -9.509  1.00  0.00    -0.237 OA
ATOM     58  O   UNL     1      -3.624  10.992  -9.051  1.00  0.00    -0.237 OA
ATOM     59  O   UNL     1      -1.453  12.105  -9.414  1.00  0.00    -0.744 OA
ENDBRANCH  55  56
ENDBRANCH  36  50
BRANCH  37  60
ATOM     60  C   UNL     1       0.657   9.113   5.129  1.00  0.00    -0.014 A 
ATOM     61  C   UNL     1      -0.335   9.079   6.123  1.00  0.00     0.010 A 
ATOM     62  C   UNL     1       2.007   8.977   5.507  1.00  0.00     0.010 A 
ATOM     63  C   UNL     1       0.016   8.947   7.471  1.00  0.00     0.020 A 
ATOM     64  C   UNL     1       2.361   8.827   6.853  1.00  0.00     0.020 A 
ATOM     65  C   UNL     1       1.362   8.827   7.828  1.00  0.00     0.054 A 
BRANCH  65  66
ATOM     66  S   UNL     1       1.788   8.646   9.584  1.00  0.00     0.124 S 
ATOM     67  O   UNL     1       1.507   9.981  10.104  1.00  0.00    -0.237 OA
ATOM     68  O   UNL     1       0.878   7.592  10.022  1.00  0.00    -0.237 OA
ATOM     69  O   UNL     1       3.200   8.270   9.557  1.00  0.00    -0.744 OA
ENDBRANCH  65  66
ENDBRANCH  37  60
BRANCH  49  70
ATOM     70  C   UNL     1      -2.092  14.422   1.554  1.00  0.00    -0.014 A 
ATOM     71  C   UNL     1      -1.247  15.475   1.945  1.00  0.00     0.010 A 
ATOM     72  C   UNL     1      -3.483  14.633   1.526  1.00  0.00     0.010 A 
ATOM     73  C   UNL     1      -1.785  16.705   2.332  1.00  0.00     0.020 A 
ATOM     74  C   UNL     1      -4.023  15.870   1.885  1.00  0.00     0.020 A 
ATOM     75  C   UNL     1      -3.171  16.895   2.301  1.00  0.00     0.054 A 
BRANCH  75  76
ATOM     76  S   UNL     1      -3.842  18.513   2.769  1.00  0.00     0.124 S 
ATOM     77  O   UNL     1      -3.713  18.487   4.223  1.00  0.00    -0.237 OA
ATOM     78  O   UNL     1      -2.954  19.443   2.076  1.00  0.00    -0.237 OA
ATOM     79  O   UNL     1      -5.213  18.478   2.264  1.00  0.00    -0.744 OA
ENDBRANCH  75  76
ENDBRANCH  49  70
ENDBRANCH  23  24
ENDBRANCH  16  18
ENDBRANCH  15  16
ENDBRANCH  14  15
ENDBRANCH   1  14
TORSDOF 17
