REMARK SMILES CCCCCNC(=O)Oc1cccc(-c2ccc([C@@H](C)C(=O)OCCOC(=O)c3ccc(-c4c5nc(c(-c6ccc(S(=O)(=O)[O-])cc6)c6ccc([nH]6)c(-c6ccc(S(=O)(=O)[O-])cc6)c6nc(c(-c7ccc(S(=O)(=O)[O-])cc7)c7ccc4[nH]7)C=C6)C=C5)cc3)cc2F)c1
REMARK SMILES IDX 21 1 22 2 19 3 20 4 18 5 15 6 16 7 90 8 17 9 89 10 91 11
REMARK SMILES IDX 14 12 10 13 11 14 92 15 12 16 13 17 9 18 7 19 6 20 8 22 5 23
REMARK SMILES IDX 4 24 3 25 2 26 1 27 23 28 24 29 25 30 26 31 27 32 28 33
REMARK SMILES IDX 29 34 30 35 88 36 31 37 87 38 32 39 33 40 34 41 81 42 35 43
REMARK SMILES IDX 86 44 80 45 82 46 36 47 85 48 79 49 78 50 37 52 67 53 48 54
REMARK SMILES IDX 66 55 49 56 52 57 65 58 83 59 50 60 51 61 64 63 84 64 53 65
REMARK SMILES IDX 38 66 39 67 47 68 40 69 46 70 41 71 42 72 43 73 44 74 45 75
REMARK SMILES IDX 68 76 69 77 77 78 70 79 76 80 71 81 72 82 73 83 74 84 75 85
REMARK SMILES IDX 54 86 55 87 63 88 56 89 62 90 57 91 58 92 59 93 60 94 61 95
REMARK H PARENT 6 21 82 51 52 62
REMARK Flexibility Score: inf
ROOT
ATOM      1  C   UNL     1      -3.335 -10.271  10.441  1.00  0.00     0.313 C 
ATOM      2  O   UNL     1      -2.755 -11.251  10.899  1.00  0.00    -0.252 OA
ENDROOT
BRANCH   1   3
ATOM      3  C   UNL     1      -3.125  -8.872  11.006  1.00  0.00     0.126 C 
ATOM      4  C   UNL     1      -3.911  -8.715  12.307  1.00  0.00     0.025 C 
BRANCH   3   5
ATOM      5  C   UNL     1      -3.362  -7.714  10.048  1.00  0.00    -0.031 A 
ATOM      6  C   UNL     1      -3.766  -5.463   8.343  1.00  0.00     0.018 A 
ATOM      7  C   UNL     1      -4.838  -6.275   8.751  1.00  0.00     0.012 A 
ATOM      8  C   UNL     1      -2.487  -5.831   8.778  1.00  0.00     0.131 A 
ATOM      9  C   UNL     1      -4.642  -7.375   9.594  1.00  0.00     0.005 A 
ATOM     10  C   UNL     1      -2.282  -6.931   9.614  1.00  0.00     0.044 A 
ATOM     11  F   UNL     1      -1.417  -5.095   8.437  1.00  0.00    -0.206 F 
BRANCH   6  12
ATOM     12  C   UNL     1      -4.005  -4.245   7.545  1.00  0.00    -0.012 A 
ATOM     13  C   UNL     1      -3.492  -2.762   5.694  1.00  0.00     0.133 A 
ATOM     14  C   UNL     1      -4.467  -1.857   6.107  1.00  0.00     0.047 A 
ATOM     15  C   UNL     1      -3.247  -3.941   6.402  1.00  0.00     0.056 A 
ATOM     16  C   UNL     1      -5.228  -2.145   7.233  1.00  0.00     0.004 A 
ATOM     17  C   UNL     1      -4.997  -3.325   7.944  1.00  0.00     0.009 A 
BRANCH  13  18
ATOM     18  O   UNL     1      -2.685  -2.360   4.617  1.00  0.00    -0.410 OA
BRANCH  18  19
ATOM     19  C   UNL     1      -2.555  -3.210   3.530  1.00  0.00     0.412 C 
ATOM     20  N   UNL     1      -1.747  -2.699   2.549  1.00  0.00    -0.321 N 
ATOM     21  H   UNL     1      -1.584  -3.275   1.767  1.00  0.00     0.167 HD
ATOM     22  O   UNL     1      -3.106  -4.295   3.393  1.00  0.00    -0.224 OA
BRANCH  20  23
ATOM     23  C   UNL     1      -1.106  -1.399   2.543  1.00  0.00     0.119 C 
BRANCH  23  24
ATOM     24  C   UNL     1       0.417  -1.497   2.476  1.00  0.00     0.021 C 
BRANCH  24  25
ATOM     25  C   UNL     1       0.972  -2.127   1.193  1.00  0.00     0.002 C 
BRANCH  25  26
ATOM     26  C   UNL     1       0.553  -1.453  -0.117  1.00  0.00    -0.003 C 
ATOM     27  C   UNL     1       0.967   0.007  -0.212  1.00  0.00     0.004 C 
ENDBRANCH  25  26
ENDBRANCH  24  25
ENDBRANCH  23  24
ENDBRANCH  20  23
ENDBRANCH  18  19
ENDBRANCH  13  18
ENDBRANCH   6  12
ENDBRANCH   3   5
ENDBRANCH   1   3
BRANCH   1  28
ATOM     28  O   UNL     1      -4.249 -10.327   9.438  1.00  0.00    -0.462 OA
BRANCH  28  29
ATOM     29  C   UNL     1      -4.440 -11.608   8.807  1.00  0.00     0.274 C 
BRANCH  29  30
ATOM     30  C   UNL     1      -3.699 -11.685   7.470  1.00  0.00     0.275 C 
BRANCH  30  31
ATOM     31  O   UNL     1      -2.272 -11.717   7.659  1.00  0.00    -0.458 OA
BRANCH  31  32
ATOM     32  C   UNL     1      -1.658 -10.514   7.581  1.00  0.00     0.338 C 
ATOM     33  O   UNL     1      -2.172  -9.437   7.334  1.00  0.00    -0.246 OA
BRANCH  32  34
ATOM     34  C   UNL     1      -0.248 -10.654   7.969  1.00  0.00     0.060 A 
ATOM     35  C   UNL     1       0.169 -10.055   9.160  1.00  0.00     0.016 A 
ATOM     36  C   UNL     1       0.671 -11.288   7.133  1.00  0.00     0.016 A 
ATOM     37  C   UNL     1       1.513 -10.072   9.518  1.00  0.00     0.010 A 
ATOM     38  C   UNL     1       2.021 -11.314   7.500  1.00  0.00     0.010 A 
ATOM     39  C   UNL     1       2.452 -10.694   8.687  1.00  0.00    -0.014 A 
BRANCH  39  40
ATOM     40  C   UNL     1       3.890 -10.660   9.047  1.00  0.00     0.031 A 
ATOM     41  C   UNL     1       4.831  -9.771   8.282  1.00  0.00     0.074 A 
ATOM     42  C   UNL     1       4.343 -11.414  10.066  1.00  0.00     0.049 A 
ATOM     43  N   UNL     1       6.130  -9.659   8.393  1.00  0.00    -0.248 NA
ATOM     44  C   UNL     1       4.236  -8.896   7.259  1.00  0.00     0.031 C 
ATOM     45  C   UNL     1       3.518 -12.281  10.911  1.00  0.00     0.029 A 
ATOM     46  N   UNL     1       5.611 -11.573  10.565  1.00  0.00    -0.354 N 
ATOM     47  C   UNL     1       6.512  -8.726   7.436  1.00  0.00     0.074 A 
ATOM     48  C   UNL     1       5.309  -8.305   6.750  1.00  0.00     0.031 C 
ATOM     49  C   UNL     1       4.302 -12.878  11.824  1.00  0.00     0.029 A 
ATOM     50  C   UNL     1       5.686 -12.475  11.600  1.00  0.00     0.049 A 
ATOM     51  H   UNL     1       6.393 -11.088  10.214  1.00  0.00     0.167 HD
ATOM     52  C   UNL     1       7.754  -8.267   7.154  1.00  0.00     0.031 A 
ATOM     53  C   UNL     1       6.755 -12.944  12.274  1.00  0.00     0.031 A 
ATOM     54  C   UNL     1       8.945  -8.675   7.852  1.00  0.00     0.049 A 
ATOM     55  C   UNL     1       8.128 -12.452  11.905  1.00  0.00     0.074 A 
ATOM     56  C   UNL     1      10.245  -8.241   7.658  1.00  0.00     0.029 A 
ATOM     57  N   UNL     1       8.982  -9.607   8.876  1.00  0.00    -0.354 N 
ATOM     58  N   UNL     1       8.470 -11.562  11.004  1.00  0.00    -0.248 NA
ATOM     59  C   UNL     1       9.261 -13.031  12.641  1.00  0.00     0.031 C 
ATOM     60  C   UNL     1      11.076  -8.946   8.536  1.00  0.00     0.029 A 
ATOM     61  C   UNL     1      10.286  -9.782   9.308  1.00  0.00     0.049 A 
ATOM     62  H   UNL     1       8.198 -10.076   9.243  1.00  0.00     0.167 HD
ATOM     63  C   UNL     1       9.854 -11.458  11.083  1.00  0.00     0.074 A 
ATOM     64  C   UNL     1      10.285 -12.364  12.127  1.00  0.00     0.031 C 
ATOM     65  C   UNL     1      10.694 -10.682  10.355  1.00  0.00     0.031 A 
BRANCH  52  66
ATOM     66  C   UNL     1       7.903  -7.296   6.015  1.00  0.00    -0.014 A 
ATOM     67  C   UNL     1       7.533  -5.947   6.151  1.00  0.00     0.010 A 
ATOM     68  C   UNL     1       8.493  -7.728   4.813  1.00  0.00     0.010 A 
ATOM     69  C   UNL     1       7.731  -5.051   5.096  1.00  0.00     0.020 A 
ATOM     70  C   UNL     1       8.711  -6.832   3.763  1.00  0.00     0.020 A 
ATOM     71  C   UNL     1       8.319  -5.500   3.908  1.00  0.00     0.054 A 
BRANCH  71  72
ATOM     72  S   UNL     1       8.609  -4.307   2.571  1.00  0.00     0.124 S 
ATOM     73  O   UNL     1       7.261  -4.110   2.044  1.00  0.00    -0.237 OA
ATOM     74  O   UNL     1       9.179  -3.163   3.278  1.00  0.00    -0.237 OA
ATOM     75  O   UNL     1       9.530  -5.005   1.677  1.00  0.00    -0.744 OA
ENDBRANCH  71  72
ENDBRANCH  52  66
BRANCH  53  76
ATOM     76  C   UNL     1       6.580 -13.968  13.339  1.00  0.00    -0.014 A 
ATOM     77  C   UNL     1       6.819 -13.649  14.687  1.00  0.00     0.010 A 
ATOM     78  C   UNL     1       6.199 -15.280  13.004  1.00  0.00     0.010 A 
ATOM     79  C   UNL     1       6.711 -14.631  15.676  1.00  0.00     0.020 A 
ATOM     80  C   UNL     1       6.063 -16.258  13.993  1.00  0.00     0.020 A 
ATOM     81  C   UNL     1       6.339 -15.931  15.322  1.00  0.00     0.054 A 
BRANCH  81  82
ATOM     82  S   UNL     1       6.183 -17.189  16.620  1.00  0.00     0.124 S 
ATOM     83  O   UNL     1       7.576 -17.547  16.863  1.00  0.00    -0.237 OA
ATOM     84  O   UNL     1       5.520 -16.457  17.697  1.00  0.00    -0.237 OA
ATOM     85  O   UNL     1       5.368 -18.227  15.991  1.00  0.00    -0.744 OA
ENDBRANCH  81  82
ENDBRANCH  53  76
BRANCH  65  86
ATOM     86  C   UNL     1      12.159 -10.749  10.690  1.00  0.00    -0.014 A 
ATOM     87  C   UNL     1      12.942 -11.853  10.309  1.00  0.00     0.010 A 
ATOM     88  C   UNL     1      12.769  -9.668  11.352  1.00  0.00     0.010 A 
ATOM     89  C   UNL     1      14.305 -11.887  10.612  1.00  0.00     0.020 A 
ATOM     90  C   UNL     1      14.136  -9.689  11.635  1.00  0.00     0.020 A 
ATOM     91  C   UNL     1      14.894 -10.806  11.275  1.00  0.00     0.054 A 
BRANCH  91  92
ATOM     92  S   UNL     1      16.674 -10.851  11.620  1.00  0.00     0.124 S 
ATOM     93  O   UNL     1      16.738 -11.749  12.770  1.00  0.00    -0.237 OA
ATOM     94  O   UNL     1      17.231 -11.381  10.377  1.00  0.00    -0.237 OA
ATOM     95  O   UNL     1      17.007  -9.456  11.899  1.00  0.00    -0.744 OA
ENDBRANCH  91  92
ENDBRANCH  65  86
ENDBRANCH  39  40
ENDBRANCH  32  34
ENDBRANCH  31  32
ENDBRANCH  30  31
ENDBRANCH  29  30
ENDBRANCH  28  29
ENDBRANCH   1  28
TORSDOF 22
