REMARK SMILES C[C@H]1CC=C(C2=NN=C(C(=O)OCCOC(=O)c3ccc(-c4c5nc(c(-c6ccc(S(=O)(=O)[O-])cc6)c6ccc([nH]6)c(-c6ccc(S(=O)(=O)[O-])cc6)c6nc(c(-c7ccc(S(=O)(=O)[O-])cc7)c7ccc4[nH]7)C=C6)C=C5)cc3)C2)O1
REMARK SMILES IDX 14 1 13 2 12 3 10 4 11 5 9 6 6 7 7 8 78 9 8 10 5 11 1 12
REMARK SMILES IDX 2 13 3 14 79 15 4 16 15 17 16 18 17 19 18 20 19 21 77 22
REMARK SMILES IDX 20 23 76 24 21 25 22 26 23 27 70 28 24 29 75 30 69 31 71 32
REMARK SMILES IDX 25 33 74 34 68 35 67 36 26 38 56 39 37 40 55 41 38 42 41 43
REMARK SMILES IDX 54 44 72 45 39 46 40 47 53 49 73 50 42 51 27 52 28 53 36 54
REMARK SMILES IDX 29 55 35 56 30 57 31 58 32 59 33 60 34 61 57 62 58 63 66 64
REMARK SMILES IDX 59 65 65 66 60 67 61 68 62 69 63 70 64 71 43 72 44 73 52 74
REMARK SMILES IDX 45 75 51 76 46 77 47 78 48 79 49 80 50 81
REMARK H PARENT 71 37 41 48
REMARK Flexibility Score: inf
ROOT
ATOM      1  C   UNL     1      -0.090   3.637   8.786  1.00  0.00     0.275 C 
ENDROOT
BRANCH   1   2
ATOM      2  C   UNL     1       0.868   4.711   8.285  1.00  0.00     0.275 C 
BRANCH   2   3
ATOM      3  O   UNL     1       0.639   5.013   6.899  1.00  0.00    -0.458 OA
BRANCH   3   4
ATOM      4  C   UNL     1       1.387   4.308   6.028  1.00  0.00     0.355 C 
ATOM      5  O   UNL     1       2.324   3.571   6.275  1.00  0.00    -0.245 OA
BRANCH   4   6
ATOM      6  C   UNL     1       0.878   4.438   4.622  1.00  0.00     0.154 C 
ATOM      7  C   UNL     1       0.515   3.990   2.474  1.00  0.00     0.111 C 
ATOM      8  N   UNL     1       0.266   5.251   2.675  1.00  0.00    -0.151 NA
ATOM      9  C   UNL     1       0.880   3.257   3.720  1.00  0.00     0.128 C 
ATOM     10  N   UNL     1       0.495   5.543   4.059  1.00  0.00    -0.147 NA
BRANCH   7  11
ATOM     11  C   UNL     1       0.588   3.320   1.167  1.00  0.00     0.139 C 
ATOM     12  C   UNL     1      -0.204   0.906  -1.218  1.00  0.00     0.053 C 
ATOM     13  C   UNL     1       0.751   1.657  -0.303  1.00  0.00     0.174 C 
ATOM     14  C   UNL     1       1.288   2.932  -0.966  1.00  0.00     0.076 C 
ATOM     15  O   UNL     1       0.108   2.034   0.942  1.00  0.00    -0.489 OA
ATOM     16  C   UNL     1       1.276   3.870   0.171  1.00  0.00     0.025 C 
ENDBRANCH   7  11
ENDBRANCH   4   6
ENDBRANCH   3   4
ENDBRANCH   2   3
ENDBRANCH   1   2
BRANCH   1  17
ATOM     17  O   UNL     1       0.185   2.350   8.227  1.00  0.00    -0.458 OA
BRANCH  17  18
ATOM     18  C   UNL     1      -0.499   2.074   7.097  1.00  0.00     0.338 C 
ATOM     19  O   UNL     1      -0.967   2.880   6.301  1.00  0.00    -0.246 OA
BRANCH  18  20
ATOM     20  C   UNL     1      -0.793   0.648   7.016  1.00  0.00     0.060 A 
ATOM     21  C   UNL     1      -1.219   0.133   5.787  1.00  0.00     0.016 A 
ATOM     22  C   UNL     1      -0.886  -0.090   8.202  1.00  0.00     0.016 A 
ATOM     23  C   UNL     1      -1.845  -1.096   5.764  1.00  0.00     0.010 A 
ATOM     24  C   UNL     1      -1.522  -1.307   8.180  1.00  0.00     0.010 A 
ATOM     25  C   UNL     1      -2.041  -1.774   6.972  1.00  0.00    -0.014 A 
BRANCH  25  26
ATOM     26  C   UNL     1      -2.647  -3.092   6.935  1.00  0.00     0.031 A 
ATOM     27  C   UNL     1      -1.757  -4.098   6.298  1.00  0.00     0.074 A 
ATOM     28  C   UNL     1      -3.800  -3.365   7.576  1.00  0.00     0.049 A 
ATOM     29  N   UNL     1      -1.961  -4.765   5.212  1.00  0.00    -0.248 NA
ATOM     30  C   UNL     1      -0.386  -4.233   6.830  1.00  0.00     0.031 C 
ATOM     31  C   UNL     1      -4.570  -2.466   8.445  1.00  0.00     0.029 A 
ATOM     32  N   UNL     1      -4.465  -4.545   7.702  1.00  0.00    -0.354 N 
ATOM     33  C   UNL     1      -0.848  -5.589   5.067  1.00  0.00     0.074 A 
ATOM     34  C   UNL     1       0.162  -5.068   5.948  1.00  0.00     0.031 C 
ATOM     35  C   UNL     1      -5.425  -3.195   9.198  1.00  0.00     0.029 A 
ATOM     36  C   UNL     1      -5.363  -4.581   8.767  1.00  0.00     0.049 A 
ATOM     37  H   UNL     1      -4.324  -5.306   7.095  1.00  0.00     0.167 HD
ATOM     38  C   UNL     1      -0.953  -6.812   4.481  1.00  0.00     0.031 A 
ATOM     39  C   UNL     1      -5.956  -5.682   9.298  1.00  0.00     0.031 A 
ATOM     40  C   UNL     1      -2.170  -6.922   3.719  1.00  0.00     0.049 A 
ATOM     41  C   UNL     1      -5.856  -6.758   8.284  1.00  0.00     0.074 A 
ATOM     42  C   UNL     1      -2.695  -6.302   2.606  1.00  0.00     0.029 A 
ATOM     43  N   UNL     1      -3.216  -7.533   4.366  1.00  0.00    -0.354 N 
ATOM     44  N   UNL     1      -6.461  -6.712   7.130  1.00  0.00    -0.248 NA
ATOM     45  C   UNL     1      -4.733  -7.679   8.362  1.00  0.00     0.031 C 
ATOM     46  C   UNL     1      -4.100  -6.241   2.841  1.00  0.00     0.029 A 
ATOM     47  C   UNL     1      -4.378  -6.885   4.050  1.00  0.00     0.049 A 
ATOM     48  H   UNL     1      -3.142  -8.313   4.962  1.00  0.00     0.167 HD
ATOM     49  C   UNL     1      -5.548  -7.244   6.231  1.00  0.00     0.074 A 
ATOM     50  C   UNL     1      -4.564  -7.937   7.061  1.00  0.00     0.031 C 
ATOM     51  C   UNL     1      -5.528  -6.827   4.931  1.00  0.00     0.031 A 
BRANCH  38  52
ATOM     52  C   UNL     1      -0.247  -8.041   5.020  1.00  0.00    -0.014 A 
ATOM     53  C   UNL     1      -0.489  -9.280   4.392  1.00  0.00     0.010 A 
ATOM     54  C   UNL     1       0.377  -8.081   6.285  1.00  0.00     0.010 A 
ATOM     55  C   UNL     1      -0.211 -10.491   5.039  1.00  0.00     0.020 A 
ATOM     56  C   UNL     1       0.697  -9.282   6.921  1.00  0.00     0.020 A 
ATOM     57  C   UNL     1       0.365 -10.481   6.309  1.00  0.00     0.054 A 
BRANCH  57  58
ATOM     58  S   UNL     1       0.616 -12.043   7.184  1.00  0.00     0.124 S 
ATOM     59  O   UNL     1      -0.757 -12.490   7.397  1.00  0.00    -0.237 OA
ATOM     60  O   UNL     1       1.394 -12.813   6.218  1.00  0.00    -0.237 OA
ATOM     61  O   UNL     1       1.342 -11.647   8.389  1.00  0.00    -0.744 OA
ENDBRANCH  57  58
ENDBRANCH  38  52
BRANCH  39  62
ATOM     62  C   UNL     1      -6.297  -5.955  10.720  1.00  0.00    -0.014 A 
ATOM     63  C   UNL     1      -7.171  -6.998  11.083  1.00  0.00     0.010 A 
ATOM     64  C   UNL     1      -5.538  -5.357  11.747  1.00  0.00     0.010 A 
ATOM     65  C   UNL     1      -7.248  -7.454  12.414  1.00  0.00     0.020 A 
ATOM     66  C   UNL     1      -5.611  -5.804  13.074  1.00  0.00     0.020 A 
ATOM     67  C   UNL     1      -6.453  -6.864  13.399  1.00  0.00     0.054 A 
BRANCH  67  68
ATOM     68  S   UNL     1      -6.442  -7.552  15.084  1.00  0.00     0.124 S 
ATOM     69  O   UNL     1      -7.772  -7.202  15.573  1.00  0.00    -0.237 OA
ATOM     70  O   UNL     1      -6.210  -8.974  14.848  1.00  0.00    -0.237 OA
ATOM     71  O   UNL     1      -5.339  -6.848  15.737  1.00  0.00    -0.744 OA
ENDBRANCH  67  68
ENDBRANCH  39  62
BRANCH  51  72
ATOM     72  C   UNL     1      -6.732  -6.082   4.405  1.00  0.00    -0.014 A 
ATOM     73  C   UNL     1      -7.152  -4.817   4.861  1.00  0.00     0.010 A 
ATOM     74  C   UNL     1      -7.384  -6.646   3.295  1.00  0.00     0.010 A 
ATOM     75  C   UNL     1      -8.213  -4.147   4.230  1.00  0.00     0.020 A 
ATOM     76  C   UNL     1      -8.425  -5.978   2.652  1.00  0.00     0.020 A 
ATOM     77  C   UNL     1      -8.843  -4.735   3.127  1.00  0.00     0.054 A 
BRANCH  77  78
ATOM     78  S   UNL     1     -10.189  -3.856   2.284  1.00  0.00     0.124 S 
ATOM     79  O   UNL     1     -11.258  -3.884   3.277  1.00  0.00    -0.237 OA
ATOM     80  O   UNL     1      -9.605  -2.542   2.022  1.00  0.00    -0.237 OA
ATOM     81  O   UNL     1     -10.436  -4.662   1.089  1.00  0.00    -0.744 OA
ENDBRANCH  77  78
ENDBRANCH  51  72
ENDBRANCH  25  26
ENDBRANCH  18  20
ENDBRANCH  17  18
ENDBRANCH   1  17
TORSDOF 15
