REMARK SMILES COc1ccc(C(=O)OCCOC(=O)c2ccc(-c3c4nc(c(-c5ccc(S(=O)(=O)[O-])cc5)c5ccc([nH]5)c(-c5ccc(S(=O)(=O)[O-])cc5)c5nc(c(-c6ccc(S(=O)(=O)[O-])cc6)c6ccc3[nH]6)C=C5)C=C4)cc2)cc1NC(=O)c1cc([N+](=O)[O-])ccc1Cl
REMARK SMILES IDX 10 1 9 2 7 3 8 4 6 5 3 6 4 7 76 8 5 9 75 10 2 11 1 12 77 13
REMARK SMILES IDX 78 14 79 16 80 17 81 18 88 19 82 20 87 21 89 22 86 23 83 24
REMARK SMILES IDX 84 25 85 26 11 27 12 28 13 29 14 30 15 31 16 32 74 33 17 34
REMARK SMILES IDX 73 35 18 36 19 37 20 38 67 39 21 40 72 41 66 42 68 43 22 44
REMARK SMILES IDX 71 45 65 46 64 47 23 49 53 50 34 51 52 52 35 53 38 54 51 55
REMARK SMILES IDX 69 56 36 57 37 58 50 60 70 61 39 62 24 63 25 64 33 65 26 66
REMARK SMILES IDX 32 67 27 68 28 69 29 70 30 71 31 72 54 73 55 74 63 75 56 76
REMARK SMILES IDX 62 77 57 78 58 79 59 80 60 81 61 82 40 83 41 84 49 85 42 86
REMARK SMILES IDX 48 87 43 88 44 89 45 90 46 91 47 92
REMARK H PARENT 77 15 68 48 38 59
REMARK Flexibility Score: inf
ROOT
ATOM      1  C   UNL     1       2.810  -5.636  -5.779  1.00  0.00     0.275 C 
ENDROOT
BRANCH   1   2
ATOM      2  O   UNL     1       2.646  -4.973  -4.508  1.00  0.00    -0.458 OA
BRANCH   2   3
ATOM      3  C   UNL     1       1.535  -4.202  -4.371  1.00  0.00     0.338 C 
ATOM      4  O   UNL     1       0.697  -3.995  -5.229  1.00  0.00    -0.246 OA
BRANCH   3   5
ATOM      5  C   UNL     1       1.445  -3.607  -3.008  1.00  0.00     0.062 A 
ATOM      6  C   UNL     1       1.337  -2.067  -0.701  1.00  0.00     0.142 A 
ATOM      7  C   UNL     1       0.149  -2.479  -1.303  1.00  0.00     0.049 A 
ATOM      8  C   UNL     1       2.582  -2.442  -1.229  1.00  0.00     0.084 A 
ATOM      9  C   UNL     1       0.210  -3.168  -2.511  1.00  0.00     0.019 A 
ATOM     10  C   UNL     1       2.608  -3.342  -2.289  1.00  0.00     0.045 A 
BRANCH   6  11
ATOM     11  O   UNL     1       1.281  -1.260   0.407  1.00  0.00    -0.495 OA
ATOM     12  C   UNL     1       1.005   0.093   0.036  1.00  0.00     0.278 C 
ENDBRANCH   6  11
BRANCH   8  13
ATOM     13  N   UNL     1       3.723  -1.768  -0.743  1.00  0.00    -0.319 N 
ATOM     14  C   UNL     1       4.971  -1.551  -1.286  1.00  0.00     0.257 C 
ATOM     15  H   UNL     1       3.605  -1.380   0.154  1.00  0.00     0.170 HD
ATOM     16  O   UNL     1       5.788  -0.830  -0.714  1.00  0.00    -0.269 OA
BRANCH  14  17
ATOM     17  C   UNL     1       5.409  -2.205  -2.529  1.00  0.00     0.065 A 
ATOM     18  C   UNL     1       6.353  -3.231  -2.373  1.00  0.00     0.101 A 
ATOM     19  C   UNL     1       4.897  -1.894  -3.798  1.00  0.00     0.054 A 
ATOM     20  C   UNL     1       6.717  -4.000  -3.482  1.00  0.00     0.270 A 
ATOM     21  C   UNL     1       5.245  -2.696  -4.894  1.00  0.00     0.028 A 
ATOM     22  Cl  UNL     1       3.794  -0.595  -4.064  1.00  0.00    -0.083 Cl
ATOM     23  C   UNL     1       6.145  -3.757  -4.738  1.00  0.00     0.087 A 
BRANCH  20  24
ATOM     24  N   UNL     1       7.700  -5.078  -3.323  1.00  0.00     0.062 N 
ATOM     25  O   UNL     1       8.339  -5.121  -2.263  1.00  0.00    -0.258 OA
ATOM     26  O   UNL     1       7.841  -5.869  -4.266  1.00  0.00    -0.258 OA
ENDBRANCH  20  24
ENDBRANCH  14  17
ENDBRANCH   8  13
ENDBRANCH   3   5
ENDBRANCH   2   3
ENDBRANCH   1   2
BRANCH   1  27
ATOM     27  C   UNL     1       2.580  -7.143  -5.654  1.00  0.00     0.275 C 
BRANCH  27  28
ATOM     28  O   UNL     1       1.198  -7.421  -5.375  1.00  0.00    -0.458 OA
BRANCH  28  29
ATOM     29  C   UNL     1       0.906  -7.554  -4.061  1.00  0.00     0.338 C 
ATOM     30  O   UNL     1       1.687  -7.544  -3.123  1.00  0.00    -0.246 OA
BRANCH  29  31
ATOM     31  C   UNL     1      -0.548  -7.538  -3.881  1.00  0.00     0.060 A 
ATOM     32  C   UNL     1      -1.142  -6.304  -3.646  1.00  0.00     0.016 A 
ATOM     33  C   UNL     1      -1.296  -8.704  -3.788  1.00  0.00     0.016 A 
ATOM     34  C   UNL     1      -2.455  -6.213  -3.222  1.00  0.00     0.010 A 
ATOM     35  C   UNL     1      -2.652  -8.610  -3.451  1.00  0.00     0.010 A 
ATOM     36  C   UNL     1      -3.234  -7.366  -3.130  1.00  0.00    -0.014 A 
BRANCH  36  37
ATOM     37  C   UNL     1      -4.630  -7.266  -2.636  1.00  0.00     0.031 A 
ATOM     38  C   UNL     1      -5.031  -8.004  -1.389  1.00  0.00     0.074 A 
ATOM     39  C   UNL     1      -5.524  -6.489  -3.280  1.00  0.00     0.049 A 
ATOM     40  N   UNL     1      -6.222  -8.184  -0.882  1.00  0.00    -0.248 NA
ATOM     41  C   UNL     1      -3.947  -8.639  -0.621  1.00  0.00     0.031 C 
ATOM     42  C   UNL     1      -5.237  -5.648  -4.447  1.00  0.00     0.029 A 
ATOM     43  N   UNL     1      -6.855  -6.268  -3.036  1.00  0.00    -0.354 N 
ATOM     44  C   UNL     1      -6.040  -9.011   0.222  1.00  0.00     0.074 A 
ATOM     45  C   UNL     1      -4.625  -9.302   0.303  1.00  0.00     0.031 C 
ATOM     46  C   UNL     1      -6.344  -4.971  -4.785  1.00  0.00     0.029 A 
ATOM     47  C   UNL     1      -7.442  -5.406  -3.932  1.00  0.00     0.049 A 
ATOM     48  H   UNL     1      -7.343  -6.686  -2.290  1.00  0.00     0.167 HD
ATOM     49  C   UNL     1      -6.973  -9.490   1.080  1.00  0.00     0.031 A 
ATOM     50  C   UNL     1      -8.729  -5.042  -4.082  1.00  0.00     0.031 A 
ATOM     51  C   UNL     1      -8.374  -9.168   0.993  1.00  0.00     0.049 A 
ATOM     52  C   UNL     1      -9.758  -5.644  -3.171  1.00  0.00     0.074 A 
ATOM     53  C   UNL     1      -9.407  -9.585   1.812  1.00  0.00     0.029 A 
ATOM     54  N   UNL     1      -8.938  -8.345   0.026  1.00  0.00    -0.354 N 
ATOM     55  N   UNL     1      -9.584  -6.467  -2.164  1.00  0.00    -0.248 NA
ATOM     56  C   UNL     1     -11.157  -5.281  -3.425  1.00  0.00     0.031 C 
ATOM     57  C   UNL     1     -10.603  -9.066   1.303  1.00  0.00     0.029 A 
ATOM     58  C   UNL     1     -10.308  -8.266   0.210  1.00  0.00     0.049 A 
ATOM     59  H   UNL     1      -8.436  -7.886  -0.685  1.00  0.00     0.167 HD
ATOM     60  C   UNL     1     -10.851  -6.705  -1.647  1.00  0.00     0.074 A 
ATOM     61  C   UNL     1     -11.778  -5.926  -2.446  1.00  0.00     0.031 C 
ATOM     62  C   UNL     1     -11.214  -7.492  -0.604  1.00  0.00     0.031 A 
BRANCH  49  63
ATOM     63  C   UNL     1      -6.510 -10.471   2.128  1.00  0.00    -0.014 A 
ATOM     64  C   UNL     1      -5.656 -10.093   3.181  1.00  0.00     0.010 A 
ATOM     65  C   UNL     1      -6.924 -11.814   2.039  1.00  0.00     0.010 A 
ATOM     66  C   UNL     1      -5.167 -11.051   4.076  1.00  0.00     0.020 A 
ATOM     67  C   UNL     1      -6.467 -12.767   2.953  1.00  0.00     0.020 A 
ATOM     68  C   UNL     1      -5.567 -12.385   3.948  1.00  0.00     0.054 A 
BRANCH  68  69
ATOM     69  S   UNL     1      -4.894 -13.613   5.100  1.00  0.00     0.124 S 
ATOM     70  O   UNL     1      -3.516 -13.740   4.631  1.00  0.00    -0.237 OA
ATOM     71  O   UNL     1      -5.058 -12.962   6.396  1.00  0.00    -0.237 OA
ATOM     72  O   UNL     1      -5.734 -14.789   4.885  1.00  0.00    -0.744 OA
ENDBRANCH  68  69
ENDBRANCH  49  63
BRANCH  50  73
ATOM     73  C   UNL     1      -9.103  -4.079  -5.155  1.00  0.00    -0.014 A 
ATOM     74  C   UNL     1      -9.531  -2.782  -4.824  1.00  0.00     0.010 A 
ATOM     75  C   UNL     1      -8.978  -4.431  -6.512  1.00  0.00     0.010 A 
ATOM     76  C   UNL     1      -9.818  -1.853  -5.828  1.00  0.00     0.020 A 
ATOM     77  C   UNL     1      -9.233  -3.496  -7.519  1.00  0.00     0.020 A 
ATOM     78  C   UNL     1      -9.655  -2.212  -7.169  1.00  0.00     0.054 A 
BRANCH  78  79
ATOM     79  S   UNL     1      -9.944  -0.959  -8.448  1.00  0.00     0.124 S 
ATOM     80  O   UNL     1     -11.394  -0.801  -8.398  1.00  0.00    -0.237 OA
ATOM     81  O   UNL     1      -9.167   0.176  -7.957  1.00  0.00    -0.237 OA
ATOM     82  O   UNL     1      -9.423  -1.581  -9.663  1.00  0.00    -0.744 OA
ENDBRANCH  78  79
ENDBRANCH  50  73
BRANCH  62  83
ATOM     83  C   UNL     1     -12.675  -7.519  -0.243  1.00  0.00    -0.014 A 
ATOM     84  C   UNL     1     -13.620  -8.165  -1.058  1.00  0.00     0.010 A 
ATOM     85  C   UNL     1     -13.097  -6.924   0.960  1.00  0.00     0.010 A 
ATOM     86  C   UNL     1     -14.969  -8.186  -0.693  1.00  0.00     0.020 A 
ATOM     87  C   UNL     1     -14.438  -6.972   1.345  1.00  0.00     0.020 A 
ATOM     88  C   UNL     1     -15.368  -7.591   0.508  1.00  0.00     0.054 A 
BRANCH  88  89
ATOM     89  S   UNL     1     -17.117  -7.671   0.982  1.00  0.00     0.124 S 
ATOM     90  O   UNL     1     -17.729  -6.735   0.044  1.00  0.00    -0.237 OA
ATOM     91  O   UNL     1     -17.441  -9.079   0.767  1.00  0.00    -0.237 OA
ATOM     92  O   UNL     1     -17.118  -7.244   2.379  1.00  0.00    -0.744 OA
ENDBRANCH  88  89
ENDBRANCH  62  83
ENDBRANCH  36  37
ENDBRANCH  29  31
ENDBRANCH  28  29
ENDBRANCH  27  28
ENDBRANCH   1  27
TORSDOF 18
