REMARK SMILES O=C(C[C@H]1N=NC(=O)c2ccccc21)N[C@@H](CC1=c2ccccc2=NC1)C(=O)OCCOC(=O)c1ccc(-c2c3nc(c(-c4ccc(S(=O)(=O)[O-])cc4)c4ccc([nH]4)c(-c4ccc(S(=O)(=O)[O-])cc4)c4nc(c(-c5ccc(S(=O)(=O)[O-])cc5)c5ccc2[nH]5)C=C4)C=C3)cc1
REMARK SMILES IDX 30 1 29 2 27 3 28 4 16 5 15 6 1 7 2 8 3 10 4 11 5 12 14 13
REMARK SMILES IDX 6 14 9 15 13 16 7 17 10 18 12 19 8 20 11 21 17 22 18 23
REMARK SMILES IDX 19 24 26 25 20 26 24 27 25 28 21 29 23 30 22 31 31 32 32 33
REMARK SMILES IDX 33 34 34 35 35 36 36 37 94 38 37 39 93 40 38 41 39 42 40 43
REMARK SMILES IDX 87 44 41 45 92 46 86 47 88 48 42 49 91 50 85 51 84 52 43 54
REMARK SMILES IDX 73 55 54 56 72 57 55 58 58 59 71 60 89 61 56 62 57 63 70 65
REMARK SMILES IDX 90 66 59 67 44 68 45 69 53 70 46 71 52 72 47 73 48 74 49 75
REMARK SMILES IDX 50 76 51 77 74 78 75 79 83 80 76 81 82 82 77 83 78 84 79 85
REMARK SMILES IDX 80 86 81 87 60 88 61 89 69 90 62 91 68 92 63 93 64 94 65 95
REMARK SMILES IDX 66 96 67 97
REMARK H PARENT 15 9 88 53 58 64
REMARK Flexibility Score: inf
ROOT
ATOM      1  C   UNL     1       2.449   2.897  -3.180  1.00  0.00     0.274 C 
ENDROOT
BRANCH   1   2
ATOM      2  O   UNL     1       3.576   2.384  -2.449  1.00  0.00    -0.461 OA
BRANCH   2   3
ATOM      3  C   UNL     1       4.698   3.153  -2.495  1.00  0.00     0.329 C 
ATOM      4  O   UNL     1       4.835   4.148  -3.197  1.00  0.00    -0.250 OA
BRANCH   3   5
ATOM      5  C   UNL     1       5.830   2.569  -1.656  1.00  0.00     0.196 C 
BRANCH   5   6
ATOM      6  N   UNL     1       5.427   1.655  -0.574  1.00  0.00    -0.342 N 
ATOM      7  O   UNL     1       6.396   2.857   1.114  1.00  0.00    -0.275 OA
ATOM      8  C   UNL     1       5.768   1.868   0.743  1.00  0.00     0.223 C 
ATOM      9  H   UNL     1       4.893   0.860  -0.801  1.00  0.00     0.164 HD
BRANCH   8  10
ATOM     10  C   UNL     1       5.430   0.749   1.710  1.00  0.00     0.134 C 
BRANCH  10  11
ATOM     11  C   UNL     1       3.926   0.477   1.848  1.00  0.00     0.169 C 
ATOM     12  N   UNL     1       3.691  -0.927   1.444  1.00  0.00    -0.177 NA
ATOM     13  C   UNL     1       3.399   0.818   3.213  1.00  0.00    -0.008 A 
ATOM     14  N   UNL     1       3.425  -1.841   2.255  1.00  0.00    -0.111 NA
ATOM     15  C   UNL     1       3.034  -0.215   4.072  1.00  0.00     0.049 A 
ATOM     16  C   UNL     1       3.276   2.144   3.650  1.00  0.00     0.007 A 
ATOM     17  C   UNL     1       3.159  -1.605   3.588  1.00  0.00     0.295 C 
ATOM     18  C   UNL     1       2.561   0.059   5.362  1.00  0.00     0.014 A 
ATOM     19  C   UNL     1       2.799   2.421   4.934  1.00  0.00     0.000 A 
ATOM     20  O   UNL     1       2.984  -2.517   4.393  1.00  0.00    -0.265 OA
ATOM     21  C   UNL     1       2.444   1.381   5.791  1.00  0.00     0.001 A 
ENDBRANCH  10  11
ENDBRANCH   8  10
ENDBRANCH   5   6
BRANCH   5  22
ATOM     22  C   UNL     1       6.869   1.966  -2.619  1.00  0.00     0.070 C 
BRANCH  22  23
ATOM     23  C   UNL     1       6.571   0.659  -3.368  1.00  0.00    -0.037 C 
ATOM     24  C   UNL     1       5.835  -0.298  -2.794  1.00  0.00     0.001 A 
ATOM     25  C   UNL     1       7.869   0.006  -3.805  1.00  0.00     0.174 C 
ATOM     26  C   UNL     1       4.541  -0.852  -3.079  1.00  0.00     0.010 A 
ATOM     27  C   UNL     1       6.876  -1.254  -2.364  1.00  0.00     0.065 A 
ATOM     28  N   UNL     1       8.065  -1.118  -2.860  1.00  0.00    -0.280 NA
ATOM     29  C   UNL     1       4.200  -1.978  -2.424  1.00  0.00     0.001 A 
ATOM     30  C   UNL     1       6.403  -2.249  -1.382  1.00  0.00     0.028 A 
ATOM     31  C   UNL     1       5.093  -2.553  -1.422  1.00  0.00     0.002 A 
ENDBRANCH  22  23
ENDBRANCH   5  22
ENDBRANCH   3   5
ENDBRANCH   2   3
ENDBRANCH   1   2
BRANCH   1  32
ATOM     32  C   UNL     1       1.411   3.473  -2.219  1.00  0.00     0.275 C 
BRANCH  32  33
ATOM     33  O   UNL     1       1.918   4.630  -1.530  1.00  0.00    -0.458 OA
BRANCH  33  34
ATOM     34  C   UNL     1       2.567   4.387  -0.368  1.00  0.00     0.338 C 
ATOM     35  O   UNL     1       2.724   3.302   0.180  1.00  0.00    -0.246 OA
BRANCH  34  36
ATOM     36  C   UNL     1       3.211   5.627   0.080  1.00  0.00     0.060 A 
ATOM     37  C   UNL     1       2.451   6.749   0.405  1.00  0.00     0.016 A 
ATOM     38  C   UNL     1       4.602   5.656   0.197  1.00  0.00     0.016 A 
ATOM     39  C   UNL     1       3.102   7.912   0.821  1.00  0.00     0.010 A 
ATOM     40  C   UNL     1       5.252   6.812   0.614  1.00  0.00     0.010 A 
ATOM     41  C   UNL     1       4.506   7.952   0.922  1.00  0.00    -0.014 A 
BRANCH  41  42
ATOM     42  C   UNL     1       5.186   9.162   1.435  1.00  0.00     0.031 A 
ATOM     43  C   UNL     1       5.995  10.038   0.526  1.00  0.00     0.074 A 
ATOM     44  C   UNL     1       5.072   9.449   2.745  1.00  0.00     0.049 A 
ATOM     45  N   UNL     1       6.546  11.195   0.787  1.00  0.00    -0.248 NA
ATOM     46  C   UNL     1       6.228   9.557  -0.846  1.00  0.00     0.031 C 
ATOM     47  C   UNL     1       4.365   8.618   3.722  1.00  0.00     0.029 A 
ATOM     48  N   UNL     1       5.522  10.517   3.478  1.00  0.00    -0.354 N 
ATOM     49  C   UNL     1       7.169  11.592  -0.389  1.00  0.00     0.074 A 
ATOM     50  C   UNL     1       6.985  10.525  -1.348  1.00  0.00     0.031 C 
ATOM     51  C   UNL     1       4.380   9.233   4.912  1.00  0.00     0.029 A 
ATOM     52  C   UNL     1       5.123  10.486   4.793  1.00  0.00     0.049 A 
ATOM     53  H   UNL     1       6.078  11.236   3.099  1.00  0.00     0.167 HD
ATOM     54  C   UNL     1       7.807  12.758  -0.646  1.00  0.00     0.031 A 
ATOM     55  C   UNL     1       5.311  11.375   5.788  1.00  0.00     0.031 A 
ATOM     56  C   UNL     1       7.986  13.801   0.333  1.00  0.00     0.049 A 
ATOM     57  C   UNL     1       6.027  12.660   5.481  1.00  0.00     0.074 A 
ATOM     58  C   UNL     1       8.573  15.042   0.163  1.00  0.00     0.029 A 
ATOM     59  N   UNL     1       7.588  13.725   1.661  1.00  0.00    -0.354 N 
ATOM     60  N   UNL     1       6.520  13.069   4.336  1.00  0.00    -0.248 NA
ATOM     61  C   UNL     1       6.196  13.612   6.586  1.00  0.00     0.031 C 
ATOM     62  C   UNL     1       8.596  15.685   1.402  1.00  0.00     0.029 A 
ATOM     63  C   UNL     1       7.946  14.884   2.328  1.00  0.00     0.049 A 
ATOM     64  H   UNL     1       7.120  12.960   2.067  1.00  0.00     0.167 HD
ATOM     65  C   UNL     1       7.045  14.333   4.577  1.00  0.00     0.074 A 
ATOM     66  C   UNL     1       6.787  14.631   5.972  1.00  0.00     0.031 C 
ATOM     67  C   UNL     1       7.686  15.166   3.721  1.00  0.00     0.031 A 
BRANCH  54  68
ATOM     68  C   UNL     1       8.330  13.004  -2.040  1.00  0.00    -0.014 A 
ATOM     69  C   UNL     1       9.710  13.182  -2.259  1.00  0.00     0.010 A 
ATOM     70  C   UNL     1       7.441  13.204  -3.113  1.00  0.00     0.010 A 
ATOM     71  C   UNL     1      10.185  13.593  -3.508  1.00  0.00     0.020 A 
ATOM     72  C   UNL     1       7.915  13.585  -4.372  1.00  0.00     0.020 A 
ATOM     73  C   UNL     1       9.283  13.804  -4.554  1.00  0.00     0.054 A 
BRANCH  73  74
ATOM     74  S   UNL     1       9.912  14.389  -6.152  1.00  0.00     0.124 S 
ATOM     75  O   UNL     1      10.256  15.777  -5.860  1.00  0.00    -0.237 OA
ATOM     76  O   UNL     1      11.041  13.495  -6.396  1.00  0.00    -0.237 OA
ATOM     77  O   UNL     1       8.778  14.204  -7.056  1.00  0.00    -0.744 OA
ENDBRANCH  73  74
ENDBRANCH  54  68
BRANCH  55  78
ATOM     78  C   UNL     1       4.734  11.086   7.130  1.00  0.00    -0.014 A 
ATOM     79  C   UNL     1       5.212  10.002   7.893  1.00  0.00     0.010 A 
ATOM     80  C   UNL     1       3.625  11.812   7.600  1.00  0.00     0.010 A 
ATOM     81  C   UNL     1       4.552   9.608   9.059  1.00  0.00     0.020 A 
ATOM     82  C   UNL     1       2.982  11.441   8.786  1.00  0.00     0.020 A 
ATOM     83  C   UNL     1       3.429  10.320   9.488  1.00  0.00     0.054 A 
BRANCH  83  84
ATOM     84  S   UNL     1       2.540   9.737  10.958  1.00  0.00     0.124 S 
ATOM     85  O   UNL     1       1.869   8.544  10.448  1.00  0.00    -0.237 OA
ATOM     86  O   UNL     1       3.622   9.491  11.908  1.00  0.00    -0.237 OA
ATOM     87  O   UNL     1       1.661  10.854  11.293  1.00  0.00    -0.744 OA
ENDBRANCH  83  84
ENDBRANCH  55  78
BRANCH  67  88
ATOM     88  C   UNL     1       8.178  16.489   4.249  1.00  0.00    -0.014 A 
ATOM     89  C   UNL     1       7.636  17.687   3.746  1.00  0.00     0.010 A 
ATOM     90  C   UNL     1       9.278  16.549   5.123  1.00  0.00     0.010 A 
ATOM     91  C   UNL     1       8.216  18.917   4.065  1.00  0.00     0.020 A 
ATOM     92  C   UNL     1       9.838  17.781   5.473  1.00  0.00     0.020 A 
ATOM     93  C   UNL     1       9.322  18.954   4.917  1.00  0.00     0.054 A 
BRANCH  93  94
ATOM     94  S   UNL     1      10.096  20.555   5.273  1.00  0.00     0.124 S 
ATOM     95  O   UNL     1      10.787  20.848   4.021  1.00  0.00    -0.237 OA
ATOM     96  O   UNL     1       8.947  21.406   5.573  1.00  0.00    -0.237 OA
ATOM     97  O   UNL     1      10.965  20.271   6.413  1.00  0.00    -0.744 OA
ENDBRANCH  93  94
ENDBRANCH  67  88
ENDBRANCH  41  42
ENDBRANCH  34  36
ENDBRANCH  33  34
ENDBRANCH  32  33
ENDBRANCH   1  32
TORSDOF 19
