REMARK SMILES Cc1cc(C(=O)OCCOC(=O)c2ccc(-c3c4nc(c(-c5ccc(S(=O)(=O)[O-])cc5)c5ccc([nH]5)c(-c5ccc(S(=O)(=O)[O-])cc5)c5nc(c(-c6ccc(S(=O)(=O)[O-])cc6)c6ccc3[nH]6)C=C5)C=C4)cc2)nc(N2CCN(c3ccccc3Cl)CC2)n1
REMARK SMILES IDX 9 1 8 2 7 3 5 4 6 5 4 6 1 7 2 8 3 9 88 10 74 11 73 12 75 13
REMARK SMILES IDX 76 14 87 15 77 16 86 17 78 18 79 19 80 20 84 21 81 22 83 23
REMARK SMILES IDX 85 24 82 25 10 26 11 27 12 28 13 29 14 30 72 31 15 32 71 33
REMARK SMILES IDX 16 34 17 35 18 36 65 37 19 38 70 39 64 40 66 41 20 42 69 43
REMARK SMILES IDX 63 44 62 45 21 47 51 48 32 49 50 50 33 51 36 52 49 53 67 54
REMARK SMILES IDX 34 55 35 56 48 58 68 59 37 60 22 61 23 62 31 63 24 64 30 65
REMARK SMILES IDX 25 66 26 67 27 68 28 69 29 70 52 71 53 72 61 73 54 74 60 75
REMARK SMILES IDX 55 76 56 77 57 78 58 79 59 80 38 81 39 82 47 83 40 84 46 85
REMARK SMILES IDX 41 86 42 87 43 88 44 89 45 90
REMARK H PARENT 66 46 36 57
REMARK Flexibility Score: inf
ROOT
ATOM      1  C   UNL     1       2.947  -4.659  -1.114  1.00  0.00     0.275 C 
ENDROOT
BRANCH   1   2
ATOM      2  C   UNL     1       1.965  -4.577   0.055  1.00  0.00     0.275 C 
BRANCH   2   3
ATOM      3  O   UNL     1       1.158  -3.384  -0.031  1.00  0.00    -0.457 OA
BRANCH   3   4
ATOM      4  C   UNL     1       1.549  -2.367   0.786  1.00  0.00     0.357 C 
ATOM      5  O   UNL     1       2.429  -2.425   1.626  1.00  0.00    -0.244 OA
BRANCH   4   6
ATOM      6  C   UNL     1       0.791  -1.124   0.468  1.00  0.00     0.154 A 
ATOM      7  C   UNL     1      -2.627   0.224  -0.084  1.00  0.00     0.067 C 
ATOM      8  C   UNL     1      -1.146   0.089   0.099  1.00  0.00     0.044 A 
ATOM      9  C   UNL     1      -0.568  -1.146   0.281  1.00  0.00     0.059 A 
ATOM     10  N   UNL     1      -0.431   1.238   0.104  1.00  0.00    -0.218 NA
ATOM     11  C   UNL     1       0.899   1.158   0.248  1.00  0.00     0.226 A 
ATOM     12  N   UNL     1       1.532   0.002   0.444  1.00  0.00    -0.206 NA
BRANCH  11  13
ATOM     13  N   UNL     1       1.686   2.286   0.158  1.00  0.00    -0.337 N 
ATOM     14  C   UNL     1       1.181   3.520   0.770  1.00  0.00     0.141 C 
ATOM     15  C   UNL     1       2.277   2.470  -1.179  1.00  0.00     0.141 C 
ATOM     16  C   UNL     1       2.301   4.597   0.812  1.00  0.00     0.138 C 
ATOM     17  C   UNL     1       3.374   3.555  -1.153  1.00  0.00     0.138 C 
ATOM     18  N   UNL     1       2.863   4.796  -0.536  1.00  0.00    -0.367 N 
BRANCH  18  19
ATOM     19  C   UNL     1       3.621   5.934  -0.829  1.00  0.00     0.056 A 
ATOM     20  C   UNL     1       4.534   6.464   0.097  1.00  0.00     0.027 A 
ATOM     21  C   UNL     1       3.539   6.570  -2.091  1.00  0.00     0.064 A 
ATOM     22  C   UNL     1       5.332   7.571  -0.217  1.00  0.00     0.002 A 
ATOM     23  C   UNL     1       4.335   7.677  -2.405  1.00  0.00     0.023 A 
ATOM     24  Cl  UNL     1       2.413   6.036  -3.301  1.00  0.00    -0.082 Cl
ATOM     25  C   UNL     1       5.233   8.176  -1.466  1.00  0.00     0.002 A 
ENDBRANCH  18  19
ENDBRANCH  11  13
ENDBRANCH   4   6
ENDBRANCH   3   4
ENDBRANCH   2   3
ENDBRANCH   1   2
BRANCH   1  26
ATOM     26  O   UNL     1       3.906  -3.589  -1.039  1.00  0.00    -0.458 OA
BRANCH  26  27
ATOM     27  C   UNL     1       3.801  -2.640  -1.997  1.00  0.00     0.338 C 
ATOM     28  O   UNL     1       3.026  -2.622  -2.940  1.00  0.00    -0.246 OA
BRANCH  27  29
ATOM     29  C   UNL     1       4.762  -1.559  -1.732  1.00  0.00     0.060 A 
ATOM     30  C   UNL     1       4.519  -0.692  -0.675  1.00  0.00     0.016 A 
ATOM     31  C   UNL     1       5.813  -1.304  -2.612  1.00  0.00     0.016 A 
ATOM     32  C   UNL     1       5.247   0.488  -0.558  1.00  0.00     0.010 A 
ATOM     33  C   UNL     1       6.607  -0.161  -2.432  1.00  0.00     0.010 A 
ATOM     34  C   UNL     1       6.300   0.784  -1.435  1.00  0.00    -0.014 A 
BRANCH  34  35
ATOM     35  C   UNL     1       7.019   2.095  -1.343  1.00  0.00     0.031 A 
ATOM     36  C   UNL     1       7.116   3.006  -2.547  1.00  0.00     0.074 A 
ATOM     37  C   UNL     1       7.544   2.516  -0.172  1.00  0.00     0.049 A 
ATOM     38  N   UNL     1       7.823   4.099  -2.704  1.00  0.00    -0.248 NA
ATOM     39  C   UNL     1       6.322   2.640  -3.732  1.00  0.00     0.031 C 
ATOM     40  C   UNL     1       7.484   1.793   1.100  1.00  0.00     0.029 A 
ATOM     41  N   UNL     1       8.220   3.672   0.144  1.00  0.00    -0.354 N 
ATOM     42  C   UNL     1       7.610   4.511  -4.016  1.00  0.00     0.074 A 
ATOM     43  C   UNL     1       6.705   3.554  -4.614  1.00  0.00     0.031 C 
ATOM     44  C   UNL     1       8.040   2.542   2.063  1.00  0.00     0.029 A 
ATOM     45  C   UNL     1       8.596   3.749   1.465  1.00  0.00     0.049 A 
ATOM     46  H   UNL     1       8.416   4.378  -0.514  1.00  0.00     0.167 HD
ATOM     47  C   UNL     1       8.124   5.583  -4.668  1.00  0.00     0.031 A 
ATOM     48  C   UNL     1       9.347   4.654   2.124  1.00  0.00     0.031 A 
ATOM     49  C   UNL     1       8.979   6.571  -4.064  1.00  0.00     0.049 A 
ATOM     50  C   UNL     1       9.942   5.810   1.373  1.00  0.00     0.074 A 
ATOM     51  C   UNL     1       9.553   7.687  -4.652  1.00  0.00     0.029 A 
ATOM     52  N   UNL     1       9.367   6.579  -2.734  1.00  0.00    -0.354 N 
ATOM     53  N   UNL     1       9.790   6.138   0.113  1.00  0.00    -0.248 NA
ATOM     54  C   UNL     1      10.830   6.704   2.128  1.00  0.00     0.031 C 
ATOM     55  C   UNL     1      10.324   8.345  -3.688  1.00  0.00     0.029 A 
ATOM     56  C   UNL     1      10.188   7.668  -2.488  1.00  0.00     0.049 A 
ATOM     57  H   UNL     1       9.099   5.910  -2.063  1.00  0.00     0.167 HD
ATOM     58  C   UNL     1      10.563   7.278  -0.074  1.00  0.00     0.074 A 
ATOM     59  C   UNL     1      11.155   7.601   1.207  1.00  0.00     0.031 C 
ATOM     60  C   UNL     1      10.771   7.985  -1.211  1.00  0.00     0.031 A 
BRANCH  47  61
ATOM     61  C   UNL     1       7.819   5.725  -6.137  1.00  0.00    -0.014 A 
ATOM     62  C   UNL     1       6.559   6.149  -6.593  1.00  0.00     0.010 A 
ATOM     63  C   UNL     1       8.844   5.491  -7.075  1.00  0.00     0.010 A 
ATOM     64  C   UNL     1       6.322   6.309  -7.962  1.00  0.00     0.020 A 
ATOM     65  C   UNL     1       8.618   5.674  -8.442  1.00  0.00     0.020 A 
ATOM     66  C   UNL     1       7.353   6.070  -8.878  1.00  0.00     0.054 A 
BRANCH  66  67
ATOM     67  S   UNL     1       7.031   6.324 -10.646  1.00  0.00     0.124 S 
ATOM     68  O   UNL     1       6.216   5.157 -10.975  1.00  0.00    -0.237 OA
ATOM     69  O   UNL     1       6.330   7.605 -10.665  1.00  0.00    -0.237 OA
ATOM     70  O   UNL     1       8.365   6.339 -11.243  1.00  0.00    -0.744 OA
ENDBRANCH  66  67
ENDBRANCH  47  61
BRANCH  48  71
ATOM     71  C   UNL     1       9.644   4.457   3.571  1.00  0.00    -0.014 A 
ATOM     72  C   UNL     1       9.118   5.330   4.538  1.00  0.00     0.010 A 
ATOM     73  C   UNL     1      10.457   3.386   3.986  1.00  0.00     0.010 A 
ATOM     74  C   UNL     1       9.408   5.141   5.893  1.00  0.00     0.020 A 
ATOM     75  C   UNL     1      10.723   3.174   5.340  1.00  0.00     0.020 A 
ATOM     76  C   UNL     1      10.207   4.062   6.285  1.00  0.00     0.054 A 
BRANCH  76  77
ATOM     77  S   UNL     1      10.527   3.797   8.051  1.00  0.00     0.124 S 
ATOM     78  O   UNL     1      11.557   4.795   8.324  1.00  0.00    -0.237 OA
ATOM     79  O   UNL     1       9.221   4.054   8.654  1.00  0.00    -0.237 OA
ATOM     80  O   UNL     1      10.969   2.406   8.112  1.00  0.00    -0.744 OA
ENDBRANCH  76  77
ENDBRANCH  48  71
BRANCH  60  81
ATOM     81  C   UNL     1      11.653   9.200  -1.116  1.00  0.00    -0.014 A 
ATOM     82  C   UNL     1      13.048   9.078  -0.984  1.00  0.00     0.010 A 
ATOM     83  C   UNL     1      11.081  10.482  -1.200  1.00  0.00     0.010 A 
ATOM     84  C   UNL     1      13.852  10.219  -0.903  1.00  0.00     0.020 A 
ATOM     85  C   UNL     1      11.883  11.624  -1.143  1.00  0.00     0.020 A 
ATOM     86  C   UNL     1      13.263  11.485  -0.979  1.00  0.00     0.054 A 
BRANCH  86  87
ATOM     87  S   UNL     1      14.329  12.952  -0.903  1.00  0.00     0.124 S 
ATOM     88  O   UNL     1      14.659  13.013   0.518  1.00  0.00    -0.237 OA
ATOM     89  O   UNL     1      15.432  12.595  -1.791  1.00  0.00    -0.237 OA
ATOM     90  O   UNL     1      13.469  14.029  -1.390  1.00  0.00    -0.744 OA
ENDBRANCH  86  87
ENDBRANCH  60  81
ENDBRANCH  34  35
ENDBRANCH  27  29
ENDBRANCH  26  27
ENDBRANCH   1  26
TORSDOF 16
