REMARK SMILES Cc1ccc(C(=O)OCCOC(=O)c2ccc(-c3c4nc(c(-c5ccc(S(=O)(=O)[O-])cc5)c5ccc([nH]5)c(-c5ccc(S(=O)(=O)[O-])cc5)c5nc(c(-c6ccc(S(=O)(=O)[O-])cc6)c6ccc3[nH]6)C=C5)C=C4)cc2)c(NC(=O)CN2C(=O)/C(=C/c3ccccc3C)SC2=S)c1
REMARK SMILES IDX 9 1 8 2 6 3 7 4 5 5 1 6 2 7 3 8 94 9 4 10 74 11 75 12 76 13
REMARK SMILES IDX 77 15 78 16 79 17 80 18 92 19 81 20 82 21 91 22 93 23 83 24
REMARK SMILES IDX 84 25 85 26 89 27 86 28 88 29 90 30 87 31 10 32 11 33 12 34
REMARK SMILES IDX 13 35 14 36 15 37 73 38 16 39 72 40 17 41 18 42 19 43 66 44
REMARK SMILES IDX 20 45 71 46 65 47 67 48 21 49 70 50 64 51 63 52 22 54 52 55
REMARK SMILES IDX 33 56 51 57 34 58 37 59 50 60 68 61 35 62 36 63 49 65 69 66
REMARK SMILES IDX 38 67 23 68 24 69 32 70 25 71 31 72 26 73 27 74 28 75 29 76
REMARK SMILES IDX 30 77 53 78 54 79 62 80 55 81 61 82 56 83 57 84 58 85 59 86
REMARK SMILES IDX 60 87 39 88 40 89 48 90 41 91 47 92 42 93 43 94 44 95 45 96
REMARK SMILES IDX 46 97
REMARK H PARENT 75 14 67 53 37 64
REMARK Flexibility Score: inf
ROOT
ATOM      1  C   UNL     1      -6.349   0.784   0.344  1.00  0.00     0.275 C 
ENDROOT
BRANCH   1   2
ATOM      2  O   UNL     1      -5.210   0.488   1.198  1.00  0.00    -0.458 OA
BRANCH   2   3
ATOM      3  C   UNL     1      -4.002  -0.481   0.969  1.00  0.00     0.340 C 
ATOM      4  O   UNL     1      -4.652  -1.560   1.067  1.00  0.00    -0.246 OA
BRANCH   3   5
ATOM      5  C   UNL     1      -1.971   0.031   0.522  1.00  0.00     0.083 A 
ATOM      6  C   UNL     1       2.664   0.699  -0.194  1.00  0.00     0.044 C 
ATOM      7  C   UNL     1       1.185   0.548   0.035  1.00  0.00    -0.049 A 
ATOM      8  C   UNL     1       0.704  -0.665   0.423  1.00  0.00     0.004 A 
ATOM      9  C   UNL     1       0.219   1.531  -0.182  1.00  0.00     0.030 A 
ATOM     10  C   UNL     1      -0.685  -0.864   0.664  1.00  0.00     0.018 A 
ATOM     11  C   UNL     1      -1.262   1.371  -0.048  1.00  0.00     0.056 A 
BRANCH  11  12
ATOM     12  N   UNL     1      -1.792   2.705  -0.439  1.00  0.00    -0.324 N 
ATOM     13  C   UNL     1      -2.825   3.422  -0.988  1.00  0.00     0.244 C 
ATOM     14  H   UNL     1      -1.097   3.360  -0.200  1.00  0.00     0.170 HD
ATOM     15  O   UNL     1      -2.856   4.608  -0.602  1.00  0.00    -0.273 OA
BRANCH  13  16
ATOM     16  C   UNL     1      -3.968   3.021  -2.014  1.00  0.00     0.227 C 
BRANCH  16  17
ATOM     17  N   UNL     1      -3.758   1.903  -2.949  1.00  0.00    -0.283 N 
ATOM     18  C   UNL     1      -2.592   2.130  -3.673  1.00  0.00     0.266 C 
ATOM     19  C   UNL     1      -4.729   1.311  -3.774  1.00  0.00     0.148 C 
ATOM     20  O   UNL     1      -1.791   3.041  -3.540  1.00  0.00    -0.268 OA
ATOM     21  C   UNL     1      -2.716   1.349  -4.899  1.00  0.00     0.081 C 
ATOM     22  S   UNL     1      -4.321   1.729  -5.425  1.00  0.00    -0.054 SA
ATOM     23  S   UNL     1      -5.546  -0.143  -3.777  1.00  0.00    -0.052 S 
ATOM     24  C   UNL     1      -1.988   0.225  -4.979  1.00  0.00     0.029 C 
BRANCH  24  25
ATOM     25  C   UNL     1      -2.143  -0.962  -5.838  1.00  0.00    -0.021 A 
ATOM     26  C   UNL     1      -1.754  -2.212  -5.303  1.00  0.00     0.008 A 
ATOM     27  C   UNL     1      -2.515  -0.898  -7.192  1.00  0.00    -0.044 A 
ATOM     28  C   UNL     1      -1.680  -3.353  -6.109  1.00  0.00     0.001 A 
ATOM     29  C   UNL     1      -2.444  -2.058  -7.980  1.00  0.00     0.004 A 
ATOM     30  C   UNL     1      -3.047   0.321  -7.881  1.00  0.00     0.045 C 
ATOM     31  C   UNL     1      -2.004  -3.267  -7.455  1.00  0.00     0.000 A 
ENDBRANCH  24  25
ENDBRANCH  16  17
ENDBRANCH  13  16
ENDBRANCH  11  12
ENDBRANCH   3   5
ENDBRANCH   2   3
ENDBRANCH   1   2
BRANCH   1  32
ATOM     32  C   UNL     1      -6.740  -0.160  -0.759  1.00  0.00     0.275 C 
BRANCH  32  33
ATOM     33  O   UNL     1      -5.974  -1.355  -0.985  1.00  0.00    -0.458 OA
BRANCH  33  34
ATOM     34  C   UNL     1      -4.690  -1.659  -1.352  1.00  0.00     0.338 C 
ATOM     35  O   UNL     1      -4.477  -2.767  -1.816  1.00  0.00    -0.246 OA
BRANCH  34  36
ATOM     36  C   UNL     1      -3.419  -0.891  -0.921  1.00  0.00     0.060 A 
ATOM     37  C   UNL     1      -2.735  -2.004   0.306  1.00  0.00     0.016 A 
ATOM     38  C   UNL     1      -3.645   0.821  -0.437  1.00  0.00     0.016 A 
ATOM     39  C   UNL     1      -2.551  -1.498   2.054  1.00  0.00     0.010 A 
ATOM     40  C   UNL     1      -3.335   1.393   1.302  1.00  0.00     0.010 A 
ATOM     41  C   UNL     1      -2.910   0.172   2.565  1.00  0.00    -0.014 A 
BRANCH  41  42
ATOM     42  C   UNL     1      -3.920   0.393   3.721  1.00  0.00     0.031 A 
ATOM     43  C   UNL     1      -3.512   1.643   4.441  1.00  0.00     0.074 A 
ATOM     44  C   UNL     1      -5.052  -0.401   3.840  1.00  0.00     0.049 A 
ATOM     45  N   UNL     1      -2.835   1.653   5.561  1.00  0.00    -0.248 NA
ATOM     46  C   UNL     1      -3.449   2.997   3.802  1.00  0.00     0.031 C 
ATOM     47  C   UNL     1      -6.346  -0.331   4.543  1.00  0.00     0.029 A 
ATOM     48  N   UNL     1      -5.216  -1.659   3.268  1.00  0.00    -0.354 N 
ATOM     49  C   UNL     1      -2.848   3.000   5.902  1.00  0.00     0.074 A 
ATOM     50  C   UNL     1      -2.665   3.656   4.652  1.00  0.00     0.031 C 
ATOM     51  C   UNL     1      -6.941  -1.557   4.598  1.00  0.00     0.029 A 
ATOM     52  C   UNL     1      -6.149  -2.506   3.830  1.00  0.00     0.049 A 
ATOM     53  H   UNL     1      -4.683  -1.936   2.488  1.00  0.00     0.167 HD
ATOM     54  C   UNL     1      -3.805   3.461   6.782  1.00  0.00     0.031 A 
ATOM     55  C   UNL     1      -5.652  -3.730   4.169  1.00  0.00     0.031 A 
ATOM     56  C   UNL     1      -4.666   2.356   7.213  1.00  0.00     0.049 A 
ATOM     57  C   UNL     1      -5.033  -3.478   5.541  1.00  0.00     0.074 A 
ATOM     58  C   UNL     1      -5.998   2.042   7.010  1.00  0.00     0.029 A 
ATOM     59  N   UNL     1      -4.060   1.185   7.638  1.00  0.00    -0.354 N 
ATOM     60  N   UNL     1      -4.663  -2.292   5.961  1.00  0.00    -0.248 NA
ATOM     61  C   UNL     1      -5.009  -4.471   6.608  1.00  0.00     0.031 C 
ATOM     62  C   UNL     1      -6.168   0.659   7.339  1.00  0.00     0.029 A 
ATOM     63  C   UNL     1      -4.925   0.113   7.617  1.00  0.00     0.049 A 
ATOM     64  H   UNL     1      -3.119   1.125   7.922  1.00  0.00     0.167 HD
ATOM     65  C   UNL     1      -4.556  -2.296   7.314  1.00  0.00     0.074 A 
ATOM     66  C   UNL     1      -4.716  -3.699   7.670  1.00  0.00     0.031 C 
ATOM     67  C   UNL     1      -4.433  -1.177   8.086  1.00  0.00     0.031 A 
BRANCH  54  68
ATOM     68  C   UNL     1      -4.205   4.930   6.934  1.00  0.00    -0.014 A 
ATOM     69  C   UNL     1      -5.260   5.241   7.811  1.00  0.00     0.010 A 
ATOM     70  C   UNL     1      -3.589   6.040   6.305  1.00  0.00     0.010 A 
ATOM     71  C   UNL     1      -5.666   6.560   8.060  1.00  0.00     0.020 A 
ATOM     72  C   UNL     1      -3.998   7.367   6.526  1.00  0.00     0.020 A 
ATOM     73  C   UNL     1      -5.023   7.620   7.426  1.00  0.00     0.054 A 
BRANCH  73  74
ATOM     74  S   UNL     1      -5.493   9.313   7.862  1.00  0.00     0.124 S 
ATOM     75  O   UNL     1      -6.906   9.351   7.494  1.00  0.00    -0.237 OA
ATOM     76  O   UNL     1      -5.213   9.352   9.295  1.00  0.00    -0.237 OA
ATOM     77  O   UNL     1      -4.617  10.143   7.037  1.00  0.00    -0.744 OA
ENDBRANCH  73  74
ENDBRANCH  54  68
BRANCH  55  78
ATOM     78  C   UNL     1      -5.045  -4.465   2.966  1.00  0.00    -0.014 A 
ATOM     79  C   UNL     1      -5.905  -4.803   1.880  1.00  0.00     0.010 A 
ATOM     80  C   UNL     1      -3.671  -4.599   2.712  1.00  0.00     0.010 A 
ATOM     81  C   UNL     1      -5.427  -5.160   0.591  1.00  0.00     0.020 A 
ATOM     82  C   UNL     1      -3.182  -4.982   1.426  1.00  0.00     0.020 A 
ATOM     83  C   UNL     1      -4.058  -5.250   0.362  1.00  0.00     0.054 A 
BRANCH  83  84
ATOM     84  S   UNL     1      -3.398  -5.640  -1.328  1.00  0.00     0.124 S 
ATOM     85  O   UNL     1      -3.066  -7.057  -1.193  1.00  0.00    -0.237 OA
ATOM     86  O   UNL     1      -4.506  -5.390  -2.246  1.00  0.00    -0.237 OA
ATOM     87  O   UNL     1      -2.229  -4.766  -1.464  1.00  0.00    -0.744 OA
ENDBRANCH  83  84
ENDBRANCH  55  78
BRANCH  67  88
ATOM     88  C   UNL     1      -3.829  -1.216   9.459  1.00  0.00    -0.014 A 
ATOM     89  C   UNL     1      -3.058  -2.291   9.911  1.00  0.00     0.010 A 
ATOM     90  C   UNL     1      -3.890  -0.065  10.282  1.00  0.00     0.010 A 
ATOM     91  C   UNL     1      -2.507  -2.282  11.186  1.00  0.00     0.020 A 
ATOM     92  C   UNL     1      -3.245   0.001  11.506  1.00  0.00     0.020 A 
ATOM     93  C   UNL     1      -2.612  -1.138  11.976  1.00  0.00     0.054 A 
BRANCH  93  94
ATOM     94  S   UNL     1      -1.926  -1.172  13.635  1.00  0.00     0.124 S 
ATOM     95  O   UNL     1      -2.881  -2.033  14.327  1.00  0.00    -0.237 OA
ATOM     96  O   UNL     1      -0.601  -1.747  13.416  1.00  0.00    -0.237 OA
ATOM     97  O   UNL     1      -1.935   0.230  14.045  1.00  0.00    -0.744 OA
ENDBRANCH  93  94
ENDBRANCH  67  88
ENDBRANCH  41  42
ENDBRANCH  34  36
ENDBRANCH  33  34
ENDBRANCH  32  33
ENDBRANCH   1  32
TORSDOF 18
