REMARK SMILES Cc1nc(-c2ccccc2Cl)nc2sc(C(=O)OCCOC(=O)c3ccc(-c4c5nc(c(-c6ccc(S(=O)(=O)[O-])cc6)c6ccc([nH]6)c(-c6ccc(S(=O)(=O)[O-])cc6)c6nc(c(-c7ccc(S(=O)(=O)[O-])cc7)c7ccc4[nH]7)C=C6)C=C5)cc3)c(N)c12
REMARK SMILES IDX 20 1 19 2 18 3 16 4 17 5 15 6 1 7 2 8 3 9 86 10 4 11 13 12
REMARK SMILES IDX 84 13 12 14 14 15 5 16 6 17 10 18 7 19 9 20 11 21 8 22 85 23
REMARK SMILES IDX 21 26 22 27 23 28 24 29 25 30 83 31 26 32 82 33 27 34 28 35
REMARK SMILES IDX 29 36 76 37 30 38 81 39 75 40 77 41 31 42 80 43 74 44 73 45
REMARK SMILES IDX 32 47 62 48 43 49 61 50 44 51 47 52 60 53 78 54 45 55 46 56
REMARK SMILES IDX 59 58 79 59 48 60 33 61 34 62 42 63 35 64 41 65 36 66 37 67
REMARK SMILES IDX 38 68 39 69 40 70 63 71 64 72 72 73 65 74 71 75 66 76 67 77
REMARK SMILES IDX 68 78 69 79 70 80 49 81 50 82 58 83 51 84 57 85 52 86 53 87
REMARK SMILES IDX 54 88 55 89 56 90
REMARK H PARENT 85 24 85 25 77 46 47 57
REMARK Flexibility Score: inf
ROOT
ATOM      1  C   UNL     1      -2.695   4.763  -6.755  1.00  0.00     0.275 C 
ENDROOT
BRANCH   1   2
ATOM      2  C   UNL     1      -1.208   4.505  -6.975  1.00  0.00     0.275 C 
BRANCH   2   3
ATOM      3  O   UNL     1      -0.781   3.311  -6.299  1.00  0.00    -0.458 OA
BRANCH   3   4
ATOM      4  C   UNL     1      -0.310   3.429  -5.015  1.00  0.00     0.350 C 
ATOM      5  O   UNL     1      -0.064   4.497  -4.477  1.00  0.00    -0.245 OA
BRANCH   4   6
ATOM      6  C   UNL     1      -0.192   2.120  -4.384  1.00  0.00     0.138 A 
ATOM      7  C   UNL     1       0.827   0.027  -0.333  1.00  0.00     0.067 C 
ATOM      8  C   UNL     1       0.445  -0.447  -1.703  1.00  0.00     0.052 A 
ATOM      9  N   UNL     1       0.467  -1.803  -1.884  1.00  0.00    -0.233 NA
ATOM     10  C   UNL     1       0.153   0.383  -2.812  1.00  0.00     0.057 A 
ATOM     11  C   UNL     1       0.136  -2.318  -3.080  1.00  0.00     0.162 A 
ATOM     12  C   UNL     1      -0.150  -0.296  -3.980  1.00  0.00     0.130 A 
ATOM     13  C   UNL     1       0.103   1.809  -3.061  1.00  0.00     0.069 A 
ATOM     14  N   UNL     1      -0.178  -1.617  -4.167  1.00  0.00    -0.217 NA
ATOM     15  S   UNL     1      -0.471   0.704  -5.299  1.00  0.00    -0.106 S 
BRANCH  11  16
ATOM     16  C   UNL     1       0.267  -3.758  -3.310  1.00  0.00     0.038 A 
ATOM     17  C   UNL     1       1.049  -4.189  -4.409  1.00  0.00     0.013 A 
ATOM     18  C   UNL     1      -0.408  -4.738  -2.570  1.00  0.00     0.052 A 
ATOM     19  C   UNL     1       1.139  -5.533  -4.768  1.00  0.00     0.001 A 
ATOM     20  C   UNL     1      -0.319  -6.091  -2.934  1.00  0.00     0.021 A 
ATOM     21  Cl  UNL     1      -1.433  -4.352  -1.232  1.00  0.00    -0.084 Cl
ATOM     22  C   UNL     1       0.447  -6.485  -4.032  1.00  0.00     0.002 A 
ENDBRANCH  11  16
BRANCH  13  23
ATOM     23  N   UNL     1       0.329   2.761  -2.127  1.00  0.00    -0.397 N 
ATOM     24  H   UNL     1       0.277   3.713  -2.372  1.00  0.00     0.156 HD
ATOM     25  H   UNL     1       0.544   2.502  -1.202  1.00  0.00     0.156 HD
ENDBRANCH  13  23
ENDBRANCH   4   6
ENDBRANCH   3   4
ENDBRANCH   2   3
ENDBRANCH   1   2
BRANCH   1  26
ATOM     26  O   UNL     1      -2.925   5.276  -5.443  1.00  0.00    -0.458 OA
BRANCH  26  27
ATOM     27  C   UNL     1      -3.178   4.342  -4.500  1.00  0.00     0.338 C 
ATOM     28  O   UNL     1      -3.133   3.130  -4.633  1.00  0.00    -0.246 OA
BRANCH  27  29
ATOM     29  C   UNL     1      -3.591   5.001  -3.261  1.00  0.00     0.060 A 
ATOM     30  C   UNL     1      -3.544   4.258  -2.076  1.00  0.00     0.016 A 
ATOM     31  C   UNL     1      -4.211   6.255  -3.327  1.00  0.00     0.016 A 
ATOM     32  C   UNL     1      -4.251   4.711  -0.980  1.00  0.00     0.010 A 
ATOM     33  C   UNL     1      -4.921   6.701  -2.238  1.00  0.00     0.010 A 
ATOM     34  C   UNL     1      -4.991   5.888  -1.104  1.00  0.00    -0.014 A 
BRANCH  34  35
ATOM     35  C   UNL     1      -5.921   6.233  -0.046  1.00  0.00     0.031 A 
ATOM     36  C   UNL     1      -5.349   6.935   1.126  1.00  0.00     0.074 A 
ATOM     37  C   UNL     1      -7.245   6.096  -0.250  1.00  0.00     0.049 A 
ATOM     38  N   UNL     1      -5.449   6.625   2.377  1.00  0.00    -0.248 NA
ATOM     39  C   UNL     1      -4.490   8.100   0.857  1.00  0.00     0.031 C 
ATOM     40  C   UNL     1      -7.915   5.738  -1.507  1.00  0.00     0.029 A 
ATOM     41  N   UNL     1      -8.276   6.422   0.572  1.00  0.00    -0.354 N 
ATOM     42  C   UNL     1      -4.807   7.647   3.068  1.00  0.00     0.074 A 
ATOM     43  C   UNL     1      -4.117   8.445   2.086  1.00  0.00     0.031 C 
ATOM     44  C   UNL     1      -9.206   6.124  -1.436  1.00  0.00     0.029 A 
ATOM     45  C   UNL     1      -9.467   6.644  -0.104  1.00  0.00     0.049 A 
ATOM     46  H   UNL     1      -8.187   6.495   1.550  1.00  0.00     0.167 HD
ATOM     47  C   UNL     1      -5.041   7.915   4.381  1.00  0.00     0.031 A 
ATOM     48  C   UNL     1     -10.538   7.335   0.358  1.00  0.00     0.031 A 
ATOM     49  C   UNL     1      -5.696   6.837   5.064  1.00  0.00     0.049 A 
ATOM     50  C   UNL     1     -10.418   7.404   1.838  1.00  0.00     0.074 A 
ATOM     51  C   UNL     1      -5.373   5.516   5.306  1.00  0.00     0.029 A 
ATOM     52  N   UNL     1      -7.048   6.943   5.287  1.00  0.00    -0.354 N 
ATOM     53  N   UNL     1     -10.472   6.361   2.620  1.00  0.00    -0.248 NA
ATOM     54  C   UNL     1      -9.804   8.584   2.430  1.00  0.00     0.031 C 
ATOM     55  C   UNL     1      -6.605   4.809   5.191  1.00  0.00     0.029 A 
ATOM     56  C   UNL     1      -7.610   5.742   4.926  1.00  0.00     0.049 A 
ATOM     57  H   UNL     1      -7.524   7.730   5.639  1.00  0.00     0.167 HD
ATOM     58  C   UNL     1      -9.549   6.612   3.628  1.00  0.00     0.074 A 
ATOM     59  C   UNL     1      -9.255   8.038   3.519  1.00  0.00     0.031 C 
ATOM     60  C   UNL     1      -8.898   5.597   4.274  1.00  0.00     0.031 A 
BRANCH  47  61
ATOM     61  C   UNL     1      -4.947   9.307   4.937  1.00  0.00    -0.014 A 
ATOM     62  C   UNL     1      -4.878   9.516   6.325  1.00  0.00     0.010 A 
ATOM     63  C   UNL     1      -5.153  10.441   4.119  1.00  0.00     0.010 A 
ATOM     64  C   UNL     1      -5.016  10.803   6.865  1.00  0.00     0.020 A 
ATOM     65  C   UNL     1      -5.242  11.728   4.642  1.00  0.00     0.020 A 
ATOM     66  C   UNL     1      -5.201  11.899   6.018  1.00  0.00     0.054 A 
BRANCH  66  67
ATOM     67  S   UNL     1      -5.454  13.546   6.724  1.00  0.00     0.124 S 
ATOM     68  O   UNL     1      -6.773  13.409   7.335  1.00  0.00    -0.237 OA
ATOM     69  O   UNL     1      -4.333  13.663   7.653  1.00  0.00    -0.237 OA
ATOM     70  O   UNL     1      -5.389  14.430   5.563  1.00  0.00    -0.744 OA
ENDBRANCH  66  67
ENDBRANCH  47  61
BRANCH  48  71
ATOM     71  C   UNL     1     -11.398   8.236  -0.454  1.00  0.00    -0.014 A 
ATOM     72  C   UNL     1     -12.628   8.715   0.026  1.00  0.00     0.010 A 
ATOM     73  C   UNL     1     -10.898   8.809  -1.646  1.00  0.00     0.010 A 
ATOM     74  C   UNL     1     -13.317   9.741  -0.650  1.00  0.00     0.020 A 
ATOM     75  C   UNL     1     -11.583   9.815  -2.333  1.00  0.00     0.020 A 
ATOM     76  C   UNL     1     -12.783  10.290  -1.820  1.00  0.00     0.054 A 
BRANCH  76  77
ATOM     77  S   UNL     1     -13.614  11.693  -2.620  1.00  0.00     0.124 S 
ATOM     78  O   UNL     1     -14.868  11.097  -3.070  1.00  0.00    -0.237 OA
ATOM     79  O   UNL     1     -13.724  12.656  -1.528  1.00  0.00    -0.237 OA
ATOM     80  O   UNL     1     -12.693  12.076  -3.689  1.00  0.00    -0.744 OA
ENDBRANCH  76  77
ENDBRANCH  48  71
BRANCH  60  81
ATOM     81  C   UNL     1      -9.372   4.174   4.053  1.00  0.00    -0.014 A 
ATOM     82  C   UNL     1      -9.368   3.555   2.787  1.00  0.00     0.010 A 
ATOM     83  C   UNL     1      -9.644   3.378   5.180  1.00  0.00     0.010 A 
ATOM     84  C   UNL     1      -9.642   2.186   2.651  1.00  0.00     0.020 A 
ATOM     85  C   UNL     1      -9.901   2.008   5.054  1.00  0.00     0.020 A 
ATOM     86  C   UNL     1      -9.902   1.419   3.788  1.00  0.00     0.054 A 
BRANCH  86  87
ATOM     87  S   UNL     1     -10.177  -0.367   3.610  1.00  0.00     0.124 S 
ATOM     88  O   UNL     1     -11.462  -0.423   2.919  1.00  0.00    -0.237 OA
ATOM     89  O   UNL     1      -9.021  -0.796   2.825  1.00  0.00    -0.237 OA
ATOM     90  O   UNL     1     -10.195  -0.857   4.988  1.00  0.00    -0.744 OA
ENDBRANCH  86  87
ENDBRANCH  60  81
ENDBRANCH  34  35
ENDBRANCH  27  29
ENDBRANCH  26  27
ENDBRANCH   1  26
TORSDOF 16
