REMARK SMILES [NH3+][C@]1(C(=O)OCCOC(=O)c2ccc(-c3c4nc(c(-c5ccc(S(=O)(=O)[O-])cc5)c5ccc([nH]5)c(-c5ccc(S(=O)(=O)[O-])cc5)c5nc(c(-c6ccc(S(=O)(=O)[O-])cc6)c6ccc3[nH]6)C=C5)C=C4)cc2)CC[C@@H](Sc2ccc(Cl)c(Cl)c2)C1
REMARK SMILES IDX 7 1 6 2 5 3 3 4 4 5 2 6 71 7 83 8 72 9 73 10 1 11 74 15
REMARK SMILES IDX 75 16 76 17 82 18 77 19 80 20 78 21 81 22 79 23 8 24 9 25
REMARK SMILES IDX 10 26 11 27 12 28 70 29 13 30 69 31 14 32 15 33 16 34 63 35
REMARK SMILES IDX 17 36 68 37 62 38 64 39 18 40 67 41 61 42 60 43 19 45 49 46
REMARK SMILES IDX 30 47 48 48 31 49 34 50 47 51 65 52 32 53 33 54 46 56 66 57
REMARK SMILES IDX 35 58 20 59 21 60 29 61 22 62 28 63 23 64 24 65 25 66 26 67
REMARK SMILES IDX 27 68 50 69 51 70 59 71 52 72 58 73 53 74 54 75 55 76 56 77
REMARK SMILES IDX 57 78 36 79 37 80 45 81 38 82 44 83 39 84 40 85 41 86 42 87
REMARK SMILES IDX 43 88
REMARK H PARENT 1 12 1 13 1 14 64 44 34 55
REMARK Flexibility Score: inf
ROOT
ATOM      1  C   UNL     1       1.666  -0.584   2.591  1.00  0.00     0.275 C 
ENDROOT
BRANCH   1   2
ATOM      2  C   UNL     1       2.542  -0.487   1.340  1.00  0.00     0.274 C 
BRANCH   2   3
ATOM      3  O   UNL     1       2.046   0.500   0.412  1.00  0.00    -0.457 OA
BRANCH   3   4
ATOM      4  C   UNL     1       1.418   0.025  -0.695  1.00  0.00     0.368 C 
ATOM      5  O   UNL     1       1.285  -1.167  -0.959  1.00  0.00    -0.245 OA
BRANCH   4   6
ATOM      6  C   UNL     1       0.946   1.137  -1.658  1.00  0.00     0.193 C 
ATOM      7  C   UNL     1      -0.571   1.041  -1.871  1.00  0.00     0.082 C 
ATOM      8  C   UNL     1       1.076   2.583  -1.169  1.00  0.00     0.095 C 
ATOM      9  C   UNL     1      -0.967   2.353  -2.534  1.00  0.00     0.022 C 
ATOM     10  C   UNL     1       0.059   3.369  -2.017  1.00  0.00     0.059 C 
BRANCH   6  11
ATOM     11  N   UNL     1       1.641   0.968  -2.961  1.00  0.00    -0.343 N 
ATOM     12  H   UNL     1       1.337   1.698  -3.606  1.00  0.00     0.345 HD
ATOM     13  H   UNL     1       1.415   0.054  -3.352  1.00  0.00     0.345 HD
ATOM     14  H   UNL     1       2.649   1.038  -2.821  1.00  0.00     0.345 HD
ENDBRANCH   6  11
BRANCH  10  15
ATOM     15  S   UNL     1      -0.656   4.855  -1.208  1.00  0.00    -0.122 SA
BRANCH  15  16
ATOM     16  C   UNL     1      -1.494   4.184   0.217  1.00  0.00     0.009 A 
ATOM     17  C   UNL     1      -2.817   3.740   0.133  1.00  0.00     0.017 A 
ATOM     18  C   UNL     1      -0.860   4.202   1.463  1.00  0.00     0.037 A 
ATOM     19  C   UNL     1      -3.479   3.268   1.271  1.00  0.00     0.023 A 
ATOM     20  C   UNL     1      -1.520   3.735   2.606  1.00  0.00     0.060 A 
ATOM     21  C   UNL     1      -2.830   3.253   2.507  1.00  0.00     0.059 A 
ATOM     22  Cl  UNL     1      -0.658   3.778   4.106  1.00  0.00    -0.083 Cl
ATOM     23  Cl  UNL     1      -3.695   2.632   3.867  1.00  0.00    -0.083 Cl
ENDBRANCH  15  16
ENDBRANCH  10  15
ENDBRANCH   4   6
ENDBRANCH   3   4
ENDBRANCH   2   3
ENDBRANCH   1   2
BRANCH   1  24
ATOM     24  O   UNL     1       0.378  -1.156   2.296  1.00  0.00    -0.458 OA
BRANCH  24  25
ATOM     25  C   UNL     1      -0.583  -0.247   2.028  1.00  0.00     0.338 C 
ATOM     26  O   UNL     1      -0.455   0.967   1.992  1.00  0.00    -0.246 OA
BRANCH  25  27
ATOM     27  C   UNL     1      -1.841  -0.903   1.661  1.00  0.00     0.060 A 
ATOM     28  C   UNL     1      -2.023  -1.262   0.328  1.00  0.00     0.016 A 
ATOM     29  C   UNL     1      -2.901  -0.970   2.565  1.00  0.00     0.016 A 
ATOM     30  C   UNL     1      -3.294  -1.585  -0.130  1.00  0.00     0.010 A 
ATOM     31  C   UNL     1      -4.160  -1.393   2.119  1.00  0.00     0.010 A 
ATOM     32  C   UNL     1      -4.380  -1.666   0.758  1.00  0.00    -0.014 A 
BRANCH  32  33
ATOM     33  C   UNL     1      -5.726  -2.020   0.229  1.00  0.00     0.031 A 
ATOM     34  C   UNL     1      -6.878  -1.052   0.316  1.00  0.00     0.074 A 
ATOM     35  C   UNL     1      -5.898  -3.196  -0.408  1.00  0.00     0.049 A 
ATOM     36  N   UNL     1      -8.116  -1.210  -0.084  1.00  0.00    -0.248 NA
ATOM     37  C   UNL     1      -6.614   0.257   0.933  1.00  0.00     0.031 C 
ATOM     38  C   UNL     1      -4.865  -4.219  -0.590  1.00  0.00     0.029 A 
ATOM     39  N   UNL     1      -6.991  -3.711  -1.058  1.00  0.00    -0.354 N 
ATOM     40  C   UNL     1      -8.786  -0.047   0.274  1.00  0.00     0.074 A 
ATOM     41  C   UNL     1      -7.816   0.817   0.913  1.00  0.00     0.031 C 
ATOM     42  C   UNL     1      -5.346  -5.196  -1.373  1.00  0.00     0.029 A 
ATOM     43  C   UNL     1      -6.740  -4.906  -1.690  1.00  0.00     0.049 A 
ATOM     44  H   UNL     1      -7.870  -3.268  -1.071  1.00  0.00     0.167 HD
ATOM     45  C   UNL     1     -10.092   0.271   0.099  1.00  0.00     0.031 A 
ATOM     46  C   UNL     1      -7.538  -5.692  -2.436  1.00  0.00     0.031 A 
ATOM     47  C   UNL     1     -11.058  -0.568  -0.558  1.00  0.00     0.049 A 
ATOM     48  C   UNL     1      -8.971  -5.306  -2.643  1.00  0.00     0.074 A 
ATOM     49  C   UNL     1     -12.411  -0.342  -0.748  1.00  0.00     0.029 A 
ATOM     50  N   UNL     1     -10.771  -1.786  -1.151  1.00  0.00    -0.354 N 
ATOM     51  N   UNL     1      -9.600  -4.235  -2.225  1.00  0.00    -0.248 NA
ATOM     52  C   UNL     1      -9.806  -6.248  -3.400  1.00  0.00     0.031 C 
ATOM     53  C   UNL     1     -12.945  -1.433  -1.446  1.00  0.00     0.029 A 
ATOM     54  C   UNL     1     -11.919  -2.324  -1.709  1.00  0.00     0.049 A 
ATOM     55  H   UNL     1      -9.882  -2.208  -1.173  1.00  0.00     0.167 HD
ATOM     56  C   UNL     1     -10.914  -4.386  -2.645  1.00  0.00     0.074 A 
ATOM     57  C   UNL     1     -10.981  -5.632  -3.383  1.00  0.00     0.031 C 
ATOM     58  C   UNL     1     -11.975  -3.573  -2.421  1.00  0.00     0.031 A 
BRANCH  45  59
ATOM     59  C   UNL     1     -10.561   1.578   0.674  1.00  0.00    -0.014 A 
ATOM     60  C   UNL     1     -10.360   2.788  -0.012  1.00  0.00     0.010 A 
ATOM     61  C   UNL     1     -11.237   1.588   1.907  1.00  0.00     0.010 A 
ATOM     62  C   UNL     1     -10.801   3.993   0.543  1.00  0.00     0.020 A 
ATOM     63  C   UNL     1     -11.690   2.789   2.459  1.00  0.00     0.020 A 
ATOM     64  C   UNL     1     -11.454   3.987   1.780  1.00  0.00     0.054 A 
BRANCH  64  65
ATOM     65  S   UNL     1     -12.033   5.556   2.484  1.00  0.00     0.124 S 
ATOM     66  O   UNL     1     -10.824   6.058   3.131  1.00  0.00    -0.237 OA
ATOM     67  O   UNL     1     -12.471   6.303   1.307  1.00  0.00    -0.237 OA
ATOM     68  O   UNL     1     -13.104   5.149   3.391  1.00  0.00    -0.744 OA
ENDBRANCH  64  65
ENDBRANCH  45  59
BRANCH  46  69
ATOM     69  C   UNL     1      -6.986  -6.938  -3.023  1.00  0.00    -0.014 A 
ATOM     70  C   UNL     1      -6.636  -6.985  -4.383  1.00  0.00     0.010 A 
ATOM     71  C   UNL     1      -6.744  -8.058  -2.208  1.00  0.00     0.010 A 
ATOM     72  C   UNL     1      -6.037  -8.129  -4.917  1.00  0.00     0.020 A 
ATOM     73  C   UNL     1      -6.129  -9.195  -2.735  1.00  0.00     0.020 A 
ATOM     74  C   UNL     1      -5.781  -9.225  -4.088  1.00  0.00     0.054 A 
BRANCH  74  75
ATOM     75  S   UNL     1      -4.901 -10.666  -4.751  1.00  0.00     0.124 S 
ATOM     76  O   UNL     1      -6.001 -11.511  -5.203  1.00  0.00    -0.237 OA
ATOM     77  O   UNL     1      -4.071 -10.090  -5.806  1.00  0.00    -0.237 OA
ATOM     78  O   UNL     1      -4.160 -11.161  -3.592  1.00  0.00    -0.744 OA
ENDBRANCH  74  75
ENDBRANCH  46  69
BRANCH  58  79
ATOM     79  C   UNL     1     -13.297  -4.028  -2.964  1.00  0.00    -0.014 A 
ATOM     80  C   UNL     1     -14.053  -4.991  -2.272  1.00  0.00     0.010 A 
ATOM     81  C   UNL     1     -13.791  -3.491  -4.164  1.00  0.00     0.010 A 
ATOM     82  C   UNL     1     -15.270  -5.437  -2.792  1.00  0.00     0.020 A 
ATOM     83  C   UNL     1     -15.013  -3.928  -4.681  1.00  0.00     0.020 A 
ATOM     84  C   UNL     1     -15.737  -4.912  -4.001  1.00  0.00     0.054 A 
BRANCH  84  85
ATOM     85  S   UNL     1     -17.324  -5.490  -4.663  1.00  0.00     0.124 S 
ATOM     86  O   UNL     1     -16.927  -6.692  -5.390  1.00  0.00    -0.237 OA
ATOM     87  O   UNL     1     -18.121  -5.718  -3.460  1.00  0.00    -0.237 OA
ATOM     88  O   UNL     1     -17.771  -4.374  -5.495  1.00  0.00    -0.744 OA
ENDBRANCH  84  85
ENDBRANCH  58  79
ENDBRANCH  32  33
ENDBRANCH  25  27
ENDBRANCH  24  25
ENDBRANCH   1  24
TORSDOF 17
