REMARK SMILES Cc1cc(C)c2nc(NS(=O)(=O)c3cc(C(=O)OCCOC(=O)c4ccc(-c5c6nc(c(-c7ccc(S(=O)(=O)[O-])cc7)c7ccc([nH]7)c(-c7ccc(S(=O)(=O)[O-])cc7)c7nc(c(-c8ccc(S(=O)(=O)[O-])cc8)c8ccc5[nH]8)C=C7)C=C6)cc4)ccc3Cl)sc2c1
REMARK SMILES IDX 19 1 18 2 16 3 17 4 15 5 13 6 14 7 86 8 85 9 87 10 84 11
REMARK SMILES IDX 10 12 11 13 12 14 9 15 8 17 1 18 2 19 3 20 90 21 4 22 89 23
REMARK SMILES IDX 5 24 6 25 88 26 7 27 20 28 21 29 22 30 23 31 24 32 25 33
REMARK SMILES IDX 83 34 26 35 82 36 27 37 28 38 29 39 76 40 30 41 81 42 75 43
REMARK SMILES IDX 77 44 31 45 80 46 74 47 73 48 32 50 62 51 43 52 61 53 44 54
REMARK SMILES IDX 47 55 60 56 78 57 45 58 46 59 59 61 79 62 48 63 33 64 34 65
REMARK SMILES IDX 42 66 35 67 41 68 36 69 37 70 38 71 39 72 40 73 63 74 64 75
REMARK SMILES IDX 72 76 65 77 71 78 66 79 67 80 68 81 69 82 70 83 49 84 50 85
REMARK SMILES IDX 58 86 51 87 57 88 52 89 53 90 54 91 55 92 56 93
REMARK H PARENT 9 16 77 49 47 60
REMARK Flexibility Score: inf
ROOT
ATOM      1  C   UNL     1      -1.436   8.163   4.656  1.00  0.00     0.275 C 
ENDROOT
BRANCH   1   2
ATOM      2  O   UNL     1      -1.268   6.769   4.338  1.00  0.00    -0.458 OA
BRANCH   2   3
ATOM      3  C   UNL     1      -0.919   5.955   5.367  1.00  0.00     0.338 C 
ATOM      4  O   UNL     1      -0.475   6.313   6.447  1.00  0.00    -0.246 OA
BRANCH   3   5
ATOM      5  C   UNL     1      -1.307   4.546   5.065  1.00  0.00     0.061 A 
ATOM      6  C   UNL     1      -1.918   2.344   5.925  1.00  0.00     0.107 A 
ATOM      7  C   UNL     1      -1.400   3.639   6.128  1.00  0.00     0.039 A 
ATOM      8  C   UNL     1      -2.402   1.978   4.669  1.00  0.00     0.061 A 
ATOM      9  C   UNL     1      -2.250   2.866   3.595  1.00  0.00     0.023 A 
ATOM     10  Cl  UNL     1      -3.179   0.477   4.331  1.00  0.00    -0.083 Cl
ATOM     11  C   UNL     1      -1.694   4.136   3.786  1.00  0.00     0.017 A 
BRANCH   6  12
ATOM     12  S   UNL     1      -1.833   1.222   7.302  1.00  0.00     0.265 S 
ATOM     13  O   UNL     1      -3.196   1.008   7.733  1.00  0.00    -0.201 OA
ATOM     14  O   UNL     1      -0.849   1.760   8.221  1.00  0.00    -0.201 OA
BRANCH  12  15
ATOM     15  N   UNL     1      -1.242  -0.253   6.811  1.00  0.00    -0.255 N 
ATOM     16  H   UNL     1      -1.582  -1.064   7.255  1.00  0.00     0.182 HD
BRANCH  15  17
ATOM     17  C   UNL     1      -0.282  -0.402   5.795  1.00  0.00     0.197 A 
ATOM     18  C   UNL     1       1.119  -0.178  -0.101  1.00  0.00     0.044 C 
ATOM     19  C   UNL     1       0.938  -0.621   1.322  1.00  0.00    -0.049 A 
ATOM     20  C   UNL     1       0.684  -1.965   1.620  1.00  0.00     0.009 A 
ATOM     21  C   UNL     1       1.053   0.313   2.358  1.00  0.00     0.024 A 
ATOM     22  C   UNL     1       0.410  -2.396   2.933  1.00  0.00    -0.024 A 
ATOM     23  C   UNL     1       0.736  -0.106   3.656  1.00  0.00     0.057 A 
ATOM     24  C   UNL     1       0.137  -3.846   3.210  1.00  0.00     0.047 C 
ATOM     25  C   UNL     1       0.326  -1.409   3.942  1.00  0.00     0.087 A 
ATOM     26  S   UNL     1       0.753   0.782   5.134  1.00  0.00    -0.096 S 
ATOM     27  N   UNL     1      -0.210  -1.574   5.211  1.00  0.00    -0.219 NA
ENDBRANCH  15  17
ENDBRANCH  12  15
ENDBRANCH   6  12
ENDBRANCH   3   5
ENDBRANCH   2   3
ENDBRANCH   1   2
BRANCH   1  28
ATOM     28  C   UNL     1      -2.903   8.472   4.938  1.00  0.00     0.275 C 
BRANCH  28  29
ATOM     29  O   UNL     1      -3.319   7.938   6.197  1.00  0.00    -0.458 OA
BRANCH  29  30
ATOM     30  C   UNL     1      -3.899   6.718   6.128  1.00  0.00     0.338 C 
ATOM     31  O   UNL     1      -3.876   5.943   5.187  1.00  0.00    -0.246 OA
BRANCH  30  32
ATOM     32  C   UNL     1      -4.749   6.505   7.301  1.00  0.00     0.060 A 
ATOM     33  C   UNL     1      -5.141   5.196   7.598  1.00  0.00     0.016 A 
ATOM     34  C   UNL     1      -5.358   7.615   7.899  1.00  0.00     0.016 A 
ATOM     35  C   UNL     1      -6.248   5.003   8.400  1.00  0.00     0.010 A 
ATOM     36  C   UNL     1      -6.466   7.421   8.692  1.00  0.00     0.010 A 
ATOM     37  C   UNL     1      -6.942   6.122   8.874  1.00  0.00    -0.014 A 
BRANCH  37  38
ATOM     38  C   UNL     1      -8.190   5.908   9.581  1.00  0.00     0.031 A 
ATOM     39  C   UNL     1      -8.056   5.378  10.960  1.00  0.00     0.074 A 
ATOM     40  C   UNL     1      -9.368   6.319   9.075  1.00  0.00     0.049 A 
ATOM     41  N   UNL     1      -8.574   4.307  11.462  1.00  0.00    -0.248 NA
ATOM     42  C   UNL     1      -7.155   6.102  11.871  1.00  0.00     0.031 C 
ATOM     43  C   UNL     1      -9.601   7.140   7.883  1.00  0.00     0.029 A 
ATOM     44  N   UNL     1     -10.607   6.202   9.619  1.00  0.00    -0.354 N 
ATOM     45  C   UNL     1      -8.191   4.291  12.799  1.00  0.00     0.074 A 
ATOM     46  C   UNL     1      -7.222   5.346  12.964  1.00  0.00     0.031 C 
ATOM     47  C   UNL     1     -10.853   7.649   7.939  1.00  0.00     0.029 A 
ATOM     48  C   UNL     1     -11.538   7.083   9.089  1.00  0.00     0.049 A 
ATOM     49  H   UNL     1     -10.825   5.551  10.325  1.00  0.00     0.167 HD
ATOM     50  C   UNL     1      -8.820   3.533  13.737  1.00  0.00     0.031 A 
ATOM     51  C   UNL     1     -12.742   7.394   9.630  1.00  0.00     0.031 A 
ATOM     52  C   UNL     1      -9.632   2.500  13.157  1.00  0.00     0.049 A 
ATOM     53  C   UNL     1     -13.092   6.316  10.589  1.00  0.00     0.074 A 
ATOM     54  C   UNL     1      -9.373   1.395  12.371  1.00  0.00     0.029 A 
ATOM     55  N   UNL     1     -10.982   2.733  13.045  1.00  0.00    -0.354 N 
ATOM     56  N   UNL     1     -13.350   5.090  10.235  1.00  0.00    -0.248 NA
ATOM     57  C   UNL     1     -12.754   6.496  11.992  1.00  0.00     0.031 C 
ATOM     58  C   UNL     1     -10.473   1.314  11.468  1.00  0.00     0.029 A 
ATOM     59  C   UNL     1     -11.357   2.349  11.780  1.00  0.00     0.049 A 
ATOM     60  H   UNL     1     -11.570   3.105  13.741  1.00  0.00     0.167 HD
ATOM     61  C   UNL     1     -12.803   4.302  11.238  1.00  0.00     0.074 A 
ATOM     62  C   UNL     1     -12.557   5.222  12.344  1.00  0.00     0.031 C 
ATOM     63  C   UNL     1     -12.349   3.038  10.979  1.00  0.00     0.031 A 
BRANCH  50  64
ATOM     64  C   UNL     1      -8.925   3.949  15.179  1.00  0.00    -0.014 A 
ATOM     65  C   UNL     1      -9.379   3.031  16.143  1.00  0.00     0.010 A 
ATOM     66  C   UNL     1      -8.817   5.300  15.575  1.00  0.00     0.010 A 
ATOM     67  C   UNL     1      -9.737   3.455  17.432  1.00  0.00     0.020 A 
ATOM     68  C   UNL     1      -9.127   5.725  16.866  1.00  0.00     0.020 A 
ATOM     69  C   UNL     1      -9.617   4.803  17.780  1.00  0.00     0.054 A 
BRANCH  69  70
ATOM     70  S   UNL     1     -10.181   5.358  19.408  1.00  0.00     0.124 S 
ATOM     71  O   UNL     1     -11.620   5.130  19.321  1.00  0.00    -0.237 OA
ATOM     72  O   UNL     1      -9.451   4.472  20.310  1.00  0.00    -0.237 OA
ATOM     73  O   UNL     1      -9.772   6.760  19.454  1.00  0.00    -0.744 OA
ENDBRANCH  69  70
ENDBRANCH  50  64
BRANCH  51  74
ATOM     74  C   UNL     1     -13.399   8.724   9.649  1.00  0.00    -0.014 A 
ATOM     75  C   UNL     1     -14.729   8.856  10.085  1.00  0.00     0.010 A 
ATOM     76  C   UNL     1     -12.630   9.899   9.518  1.00  0.00     0.010 A 
ATOM     77  C   UNL     1     -15.243  10.108  10.459  1.00  0.00     0.020 A 
ATOM     78  C   UNL     1     -13.139  11.151   9.875  1.00  0.00     0.020 A 
ATOM     79  C   UNL     1     -14.434  11.244  10.377  1.00  0.00     0.054 A 
BRANCH  79  80
ATOM     80  S   UNL     1     -15.031  12.816  11.061  1.00  0.00     0.124 S 
ATOM     81  O   UNL     1     -16.095  13.178  10.128  1.00  0.00    -0.237 OA
ATOM     82  O   UNL     1     -15.467  12.431  12.400  1.00  0.00    -0.237 OA
ATOM     83  O   UNL     1     -13.852  13.680  11.022  1.00  0.00    -0.744 OA
ENDBRANCH  79  80
ENDBRANCH  51  74
BRANCH  63  84
ATOM     84  C   UNL     1     -12.693   2.427   9.634  1.00  0.00    -0.014 A 
ATOM     85  C   UNL     1     -12.321   3.006   8.403  1.00  0.00     0.010 A 
ATOM     86  C   UNL     1     -13.317   1.167   9.613  1.00  0.00     0.010 A 
ATOM     87  C   UNL     1     -12.615   2.372   7.187  1.00  0.00     0.020 A 
ATOM     88  C   UNL     1     -13.594   0.519   8.404  1.00  0.00     0.020 A 
ATOM     89  C   UNL     1     -13.258   1.132   7.196  1.00  0.00     0.054 A 
BRANCH  89  90
ATOM     90  S   UNL     1     -13.632   0.316   5.618  1.00  0.00     0.124 S 
ATOM     91  O   UNL     1     -14.642   1.196   5.035  1.00  0.00    -0.237 OA
ATOM     92  O   UNL     1     -12.338   0.310   4.939  1.00  0.00    -0.237 OA
ATOM     93  O   UNL     1     -14.119  -1.004   6.014  1.00  0.00    -0.744 OA
ENDBRANCH  89  90
ENDBRANCH  63  84
ENDBRANCH  37  38
ENDBRANCH  30  32
ENDBRANCH  29  30
ENDBRANCH  28  29
ENDBRANCH   1  28
TORSDOF 17
