REMARK SMILES O=C(N[C@@H](CS)C(=O)N[C@@H](CO)C(=O)OCCOC(=O)c1ccc(-c2c3nc(c(-c4ccc(S(=O)(=O)[O-])cc4)c4ccc([nH]4)c(-c4ccc(S(=O)(=O)[O-])cc4)c4nc(c(-c5ccc(S(=O)(=O)[O-])cc5)c5ccc2[nH]5)C=C4)C=C3)cc1)c1ccc(F)cc1
REMARK SMILES IDX 16 1 15 2 13 3 14 4 10 5 9 6 7 7 8 8 4 10 3 11 1 12 2 13
REMARK SMILES IDX 81 15 82 16 87 17 83 18 86 19 84 20 85 21 5 22 6 23 11 25
REMARK SMILES IDX 12 26 17 28 18 29 19 30 20 31 21 32 22 33 80 34 23 35 79 36
REMARK SMILES IDX 24 37 25 38 26 39 73 40 27 41 78 42 72 43 74 44 28 45 77 46
REMARK SMILES IDX 71 47 70 48 29 50 59 51 40 52 58 53 41 54 44 55 57 56 75 57
REMARK SMILES IDX 42 58 43 59 56 61 76 62 45 63 30 64 31 65 39 66 32 67 38 68
REMARK SMILES IDX 33 69 34 70 35 71 36 72 37 73 60 74 61 75 69 76 62 77 68 78
REMARK SMILES IDX 63 79 64 80 65 81 66 82 67 83 46 84 47 85 55 86 48 87 54 88
REMARK SMILES IDX 49 89 50 90 51 91 52 92 53 93
REMARK H PARENT 9 9 3 14 6 24 12 27 74 49 44 60
REMARK Flexibility Score: inf
ROOT
ATOM      1  C   UNL     1       5.638   6.852   2.395  1.00  0.00     0.274 C 
ENDROOT
BRANCH   1   2
ATOM      2  O   UNL     1       5.157   5.494   2.462  1.00  0.00    -0.460 OA
BRANCH   2   3
ATOM      3  C   UNL     1       3.956   5.242   1.862  1.00  0.00     0.331 C 
ATOM      4  O   UNL     1       3.293   6.069   1.247  1.00  0.00    -0.250 OA
BRANCH   3   5
ATOM      5  C   UNL     1       3.464   3.814   2.146  1.00  0.00     0.218 C 
BRANCH   5   6
ATOM      6  N   UNL     1       4.529   2.945   2.662  1.00  0.00    -0.339 N 
ATOM      7  C   UNL     1       5.022   1.744   2.275  1.00  0.00     0.244 C 
ATOM      8  O   UNL     1       6.016   1.347   2.895  1.00  0.00    -0.273 OA
ATOM      9  H   UNL     1       4.979   3.312   3.457  1.00  0.00     0.164 HD
BRANCH   7  10
ATOM     10  C   UNL     1       4.458   0.891   1.117  1.00  0.00     0.181 C 
BRANCH  10  11
ATOM     11  N   UNL     1       3.048   0.521   1.278  1.00  0.00    -0.339 N 
ATOM     12  O   UNL     1       1.149  -0.545   0.703  1.00  0.00    -0.269 OA
ATOM     13  C   UNL     1       2.375  -0.525   0.689  1.00  0.00     0.251 C 
ATOM     14  H   UNL     1       2.518   1.091   1.881  1.00  0.00     0.164 HD
BRANCH  13  15
ATOM     15  C   UNL     1       3.120  -1.601  -0.003  1.00  0.00     0.040 A 
ATOM     16  C   UNL     1       4.081  -2.352   0.685  1.00  0.00     0.017 A 
ATOM     17  C   UNL     1       2.812  -1.901  -1.337  1.00  0.00     0.017 A 
ATOM     18  C   UNL     1       4.771  -3.368   0.023  1.00  0.00     0.040 A 
ATOM     19  C   UNL     1       3.501  -2.925  -1.992  1.00  0.00     0.040 A 
ATOM     20  C   UNL     1       4.475  -3.645  -1.308  1.00  0.00     0.123 A 
ATOM     21  F   UNL     1       5.129  -4.632  -1.932  1.00  0.00    -0.207 F 
ENDBRANCH  13  15
ENDBRANCH  10  11
BRANCH  10  22
ATOM     22  C   UNL     1       4.827   1.450  -0.271  1.00  0.00     0.101 C 
BRANCH  22  23
ATOM     23  S   UNL     1       3.459   2.224  -1.199  1.00  0.00    -0.177 SA
ATOM     24  H   UNL     1       2.507   1.290  -1.466  1.00  0.00     0.102 HD
ENDBRANCH  22  23
ENDBRANCH  10  22
ENDBRANCH   7  10
ENDBRANCH   5   6
BRANCH   5  25
ATOM     25  C   UNL     1       2.318   3.923   3.162  1.00  0.00     0.193 C 
BRANCH  25  26
ATOM     26  O   UNL     1       2.811   4.225   4.471  1.00  0.00    -0.394 OA
ATOM     27  H   UNL     1       3.404   3.516   4.766  1.00  0.00     0.210 HD
ENDBRANCH  25  26
ENDBRANCH   5  25
ENDBRANCH   3   5
ENDBRANCH   2   3
ENDBRANCH   1   2
BRANCH   1  28
ATOM     28  C   UNL     1       6.882   6.933   1.518  1.00  0.00     0.275 C 
BRANCH  28  29
ATOM     29  O   UNL     1       6.529   6.597   0.167  1.00  0.00    -0.458 OA
BRANCH  29  30
ATOM     30  C   UNL     1       7.096   5.474  -0.330  1.00  0.00     0.338 C 
ATOM     31  O   UNL     1       7.916   4.756   0.216  1.00  0.00    -0.246 OA
BRANCH  30  32
ATOM     32  C   UNL     1       6.552   5.194  -1.671  1.00  0.00     0.060 A 
ATOM     33  C   UNL     1       5.176   5.196  -1.879  1.00  0.00     0.016 A 
ATOM     34  C   UNL     1       7.412   4.788  -2.692  1.00  0.00     0.016 A 
ATOM     35  C   UNL     1       4.663   4.695  -3.078  1.00  0.00     0.010 A 
ATOM     36  C   UNL     1       6.888   4.375  -3.924  1.00  0.00     0.010 A 
ATOM     37  C   UNL     1       5.500   4.271  -4.123  1.00  0.00    -0.014 A 
BRANCH  37  38
ATOM     38  C   UNL     1       4.948   3.670  -5.382  1.00  0.00     0.031 A 
ATOM     39  C   UNL     1       5.503   2.366  -5.918  1.00  0.00     0.074 A 
ATOM     40  C   UNL     1       3.943   4.257  -6.068  1.00  0.00     0.049 A 
ATOM     41  N   UNL     1       5.399   1.853  -7.120  1.00  0.00    -0.248 NA
ATOM     42  C   UNL     1       6.292   1.540  -4.989  1.00  0.00     0.031 C 
ATOM     43  C   UNL     1       3.225   5.468  -5.668  1.00  0.00     0.029 A 
ATOM     44  N   UNL     1       3.345   3.903  -7.256  1.00  0.00    -0.354 N 
ATOM     45  C   UNL     1       6.186   0.704  -7.118  1.00  0.00     0.074 A 
ATOM     46  C   UNL     1       6.738   0.578  -5.786  1.00  0.00     0.031 C 
ATOM     47  C   UNL     1       2.250   5.719  -6.553  1.00  0.00     0.029 A 
ATOM     48  C   UNL     1       2.364   4.779  -7.660  1.00  0.00     0.049 A 
ATOM     49  H   UNL     1       3.595   3.100  -7.768  1.00  0.00     0.167 HD
ATOM     50  C   UNL     1       6.437  -0.153  -8.137  1.00  0.00     0.031 A 
ATOM     51  C   UNL     1       1.682   4.885  -8.818  1.00  0.00     0.031 A 
ATOM     52  C   UNL     1       5.819  -0.073  -9.437  1.00  0.00     0.049 A 
ATOM     53  C   UNL     1       1.997   3.954  -9.950  1.00  0.00     0.074 A 
ATOM     54  C   UNL     1       6.005  -0.902 -10.531  1.00  0.00     0.029 A 
ATOM     55  N   UNL     1       4.874   0.869  -9.809  1.00  0.00    -0.354 N 
ATOM     56  N   UNL     1       2.849   2.960  -9.981  1.00  0.00    -0.248 NA
ATOM     57  C   UNL     1       1.287   4.186 -11.216  1.00  0.00     0.031 C 
ATOM     58  C   UNL     1       5.196  -0.440 -11.576  1.00  0.00     0.029 A 
ATOM     59  C   UNL     1       4.473   0.648 -11.116  1.00  0.00     0.049 A 
ATOM     60  H   UNL     1       4.537   1.590  -9.229  1.00  0.00     0.167 HD
ATOM     61  C   UNL     1       2.784   2.450 -11.272  1.00  0.00     0.074 A 
ATOM     62  C   UNL     1       1.792   3.230 -11.984  1.00  0.00     0.031 C 
ATOM     63  C   UNL     1       3.493   1.433 -11.819  1.00  0.00     0.031 A 
BRANCH  50  64
ATOM     64  C   UNL     1       7.472  -1.229  -7.923  1.00  0.00    -0.014 A 
ATOM     65  C   UNL     1       7.208  -2.377  -7.157  1.00  0.00     0.010 A 
ATOM     66  C   UNL     1       8.715  -1.114  -8.576  1.00  0.00     0.010 A 
ATOM     67  C   UNL     1       8.180  -3.376  -7.025  1.00  0.00     0.020 A 
ATOM     68  C   UNL     1       9.678  -2.120  -8.467  1.00  0.00     0.020 A 
ATOM     69  C   UNL     1       9.410  -3.240  -7.679  1.00  0.00     0.054 A 
BRANCH  69  70
ATOM     70  S   UNL     1      10.640  -4.566  -7.524  1.00  0.00     0.124 S 
ATOM     71  O   UNL     1      11.158  -4.338  -6.177  1.00  0.00    -0.237 OA
ATOM     72  O   UNL     1       9.837  -5.774  -7.693  1.00  0.00    -0.237 OA
ATOM     73  O   UNL     1      11.582  -4.293  -8.607  1.00  0.00    -0.744 OA
ENDBRANCH  69  70
ENDBRANCH  50  64
BRANCH  51  74
ATOM     74  C   UNL     1       0.710   6.000  -8.987  1.00  0.00    -0.014 A 
ATOM     75  C   UNL     1      -0.672   5.753  -9.008  1.00  0.00     0.010 A 
ATOM     76  C   UNL     1       1.172   7.329  -9.057  1.00  0.00     0.010 A 
ATOM     77  C   UNL     1      -1.576   6.818  -9.074  1.00  0.00     0.020 A 
ATOM     78  C   UNL     1       0.272   8.395  -9.090  1.00  0.00     0.020 A 
ATOM     79  C   UNL     1      -1.098   8.132  -9.102  1.00  0.00     0.054 A 
BRANCH  79  80
ATOM     80  S   UNL     1      -2.283   9.507  -9.065  1.00  0.00     0.124 S 
ATOM     81  O   UNL     1      -2.694   9.590 -10.462  1.00  0.00    -0.237 OA
ATOM     82  O   UNL     1      -3.300   9.029  -8.132  1.00  0.00    -0.237 OA
ATOM     83  O   UNL     1      -1.483  10.628  -8.577  1.00  0.00    -0.744 OA
ENDBRANCH  79  80
ENDBRANCH  51  74
BRANCH  63  84
ATOM     84  C   UNL     1       3.204   1.085 -13.252  1.00  0.00    -0.014 A 
ATOM     85  C   UNL     1       3.706   1.873 -14.302  1.00  0.00     0.010 A 
ATOM     86  C   UNL     1       2.456  -0.068 -13.550  1.00  0.00     0.010 A 
ATOM     87  C   UNL     1       3.445   1.525 -15.630  1.00  0.00     0.020 A 
ATOM     88  C   UNL     1       2.209  -0.429 -14.877  1.00  0.00     0.020 A 
ATOM     89  C   UNL     1       2.695   0.378 -15.909  1.00  0.00     0.054 A 
BRANCH  89  90
ATOM     90  S   UNL     1       2.400  -0.077 -17.640  1.00  0.00     0.124 S 
ATOM     91  O   UNL     1       1.366   0.877 -18.032  1.00  0.00    -0.237 OA
ATOM     92  O   UNL     1       3.710   0.128 -18.255  1.00  0.00    -0.237 OA
ATOM     93  O   UNL     1       1.967  -1.470 -17.563  1.00  0.00    -0.744 OA
ENDBRANCH  89  90
ENDBRANCH  63  84
ENDBRANCH  37  38
ENDBRANCH  30  32
ENDBRANCH  29  30
ENDBRANCH  28  29
ENDBRANCH   1  28
TORSDOF 22
