REMARK SMILES C[NH+]1CCC2(CC1)OC[C@@H](C(=O)OCCOC(=O)c1ccc(-c3c4nc(c(-c5ccc(S(=O)(=O)[O-])cc5)c5ccc([nH]5)c(-c5ccc(S(=O)(=O)[O-])cc5)c5nc(c(-c6ccc(S(=O)(=O)[O-])cc6)c6ccc3[nH]6)C=C5)C=C4)cc1)N2C(=O)c1ccc2ccccc2c1
REMARK SMILES IDX 15 1 14 2 13 3 11 4 12 5 10 6 1 7 2 8 3 9 7 10 4 12 6 13
REMARK SMILES IDX 5 14 8 15 79 16 9 17 80 18 81 19 82 20 83 21 91 22 84 23
REMARK SMILES IDX 90 24 85 25 89 26 86 27 88 28 87 29 16 30 17 31 18 32 19 33
REMARK SMILES IDX 20 34 78 35 21 36 77 37 22 38 23 39 24 40 71 41 25 42 76 43
REMARK SMILES IDX 70 44 72 45 26 46 75 47 69 48 68 49 27 51 57 52 38 53 56 54
REMARK SMILES IDX 39 55 42 56 55 57 73 58 40 59 41 60 54 62 74 63 43 64 28 65
REMARK SMILES IDX 29 66 37 67 30 68 36 69 31 70 32 71 33 72 34 73 35 74 58 75
REMARK SMILES IDX 59 76 67 77 60 78 66 79 61 80 62 81 63 82 64 83 65 84 44 85
REMARK SMILES IDX 45 86 53 87 46 88 52 89 47 90 48 91 49 92 50 93 51 94
REMARK H PARENT 2 11 72 50 42 61
REMARK Flexibility Score: inf
ROOT
ATOM      1  C   UNL     1      -4.686   6.863  -0.730  1.00  0.00     0.275 C 
ENDROOT
BRANCH   1   2
ATOM      2  C   UNL     1      -5.024   5.772  -1.745  1.00  0.00     0.274 C 
BRANCH   2   3
ATOM      3  O   UNL     1      -4.038   4.722  -1.680  1.00  0.00    -0.460 OA
BRANCH   3   4
ATOM      4  C   UNL     1      -2.963   4.930  -2.483  1.00  0.00     0.331 C 
ATOM      5  O   UNL     1      -2.935   5.740  -3.409  1.00  0.00    -0.250 OA
BRANCH   4   6
ATOM      6  C   UNL     1      -1.752   4.061  -2.161  1.00  0.00     0.224 C 
ATOM      7  C   UNL     1       1.869  -0.599  -0.426  1.00  0.00     0.332 C 
ATOM      8  N   UNL     1       0.945   0.304   0.241  1.00  0.00    -0.337 N 
ATOM      9  C   UNL     1       1.251   1.711   0.012  1.00  0.00     0.267 C 
ATOM     10  C   UNL     1      -0.456  -0.046   0.029  1.00  0.00     0.267 C 
ATOM     11  H   UNL     1       1.094   0.166   1.241  1.00  0.00     0.347 HD
ATOM     12  C   UNL     1       0.711   2.277  -1.288  1.00  0.00     0.120 C 
ATOM     13  C   UNL     1      -1.138   0.538  -1.202  1.00  0.00     0.120 C 
ATOM     14  C   UNL     1      -0.784   1.987  -1.535  1.00  0.00     0.155 C 
ATOM     15  O   UNL     1      -0.898   2.023  -2.993  1.00  0.00    -0.352 OA
ATOM     16  N   UNL     1      -1.688   3.071  -1.093  1.00  0.00    -0.293 N 
ATOM     17  C   UNL     1      -1.513   3.241  -3.404  1.00  0.00     0.200 C 
BRANCH  16  18
ATOM     18  C   UNL     1      -1.929   3.543   0.197  1.00  0.00     0.256 C 
ATOM     19  O   UNL     1      -2.094   4.738   0.436  1.00  0.00    -0.269 OA
BRANCH  18  20
ATOM     20  C   UNL     1      -2.069   2.615   1.333  1.00  0.00     0.040 A 
ATOM     21  C   UNL     1      -3.166   1.756   1.423  1.00  0.00     0.014 A 
ATOM     22  C   UNL     1      -1.119   2.648   2.358  1.00  0.00     0.022 A 
ATOM     23  C   UNL     1      -3.239   0.840   2.480  1.00  0.00     0.009 A 
ATOM     24  C   UNL     1      -1.129   1.671   3.366  1.00  0.00    -0.018 A 
ATOM     25  C   UNL     1      -2.199   0.747   3.427  1.00  0.00    -0.018 A 
ATOM     26  C   UNL     1      -0.063   1.555   4.272  1.00  0.00     0.009 A 
ATOM     27  C   UNL     1      -2.171  -0.262   4.405  1.00  0.00     0.009 A 
ATOM     28  C   UNL     1      -0.036   0.526   5.214  1.00  0.00     0.001 A 
ATOM     29  C   UNL     1      -1.090  -0.379   5.283  1.00  0.00     0.001 A 
ENDBRANCH  18  20
ENDBRANCH  16  18
ENDBRANCH   4   6
ENDBRANCH   3   4
ENDBRANCH   2   3
ENDBRANCH   1   2
BRANCH   1  30
ATOM     30  O   UNL     1      -3.384   7.404  -1.009  1.00  0.00    -0.458 OA
BRANCH  30  31
ATOM     31  C   UNL     1      -2.775   7.965   0.063  1.00  0.00     0.338 C 
ATOM     32  O   UNL     1      -3.271   8.133   1.166  1.00  0.00    -0.246 OA
BRANCH  31  33
ATOM     33  C   UNL     1      -1.427   8.461  -0.303  1.00  0.00     0.060 A 
ATOM     34  C   UNL     1      -0.594   7.799  -1.213  1.00  0.00     0.016 A 
ATOM     35  C   UNL     1      -0.971   9.617   0.333  1.00  0.00     0.016 A 
ATOM     36  C   UNL     1       0.708   8.259  -1.442  1.00  0.00     0.010 A 
ATOM     37  C   UNL     1       0.303  10.111   0.057  1.00  0.00     0.010 A 
ATOM     38  C   UNL     1       1.168   9.422  -0.809  1.00  0.00    -0.014 A 
BRANCH  38  39
ATOM     39  C   UNL     1       2.547   9.943  -1.004  1.00  0.00     0.031 A 
ATOM     40  C   UNL     1       3.490  10.014   0.169  1.00  0.00     0.074 A 
ATOM     41  C   UNL     1       2.924  10.435  -2.200  1.00  0.00     0.049 A 
ATOM     42  N   UNL     1       4.642  10.625   0.272  1.00  0.00    -0.248 NA
ATOM     43  C   UNL     1       3.066   9.318   1.395  1.00  0.00     0.031 C 
ATOM     44  C   UNL     1       2.117  10.407  -3.421  1.00  0.00     0.029 A 
ATOM     45  N   UNL     1       4.076  11.080  -2.577  1.00  0.00    -0.354 N 
ATOM     46  C   UNL     1       5.061  10.426   1.584  1.00  0.00     0.074 A 
ATOM     47  C   UNL     1       4.034   9.645   2.240  1.00  0.00     0.031 C 
ATOM     48  C   UNL     1       2.797  11.008  -4.410  1.00  0.00     0.029 A 
ATOM     49  C   UNL     1       4.058  11.519  -3.879  1.00  0.00     0.049 A 
ATOM     50  H   UNL     1       4.842  11.215  -1.972  1.00  0.00     0.167 HD
ATOM     51  C   UNL     1       6.195  10.860   2.188  1.00  0.00     0.031 A 
ATOM     52  C   UNL     1       4.934  12.283  -4.561  1.00  0.00     0.031 A 
ATOM     53  C   UNL     1       7.213  11.633   1.526  1.00  0.00     0.049 A 
ATOM     54  C   UNL     1       6.165  12.788  -3.864  1.00  0.00     0.074 A 
ATOM     55  C   UNL     1       8.411  12.101   2.038  1.00  0.00     0.029 A 
ATOM     56  N   UNL     1       7.152  12.055   0.205  1.00  0.00    -0.354 N 
ATOM     57  N   UNL     1       6.544  12.596  -2.623  1.00  0.00    -0.248 NA
ATOM     58  C   UNL     1       7.083  13.616  -4.657  1.00  0.00     0.031 C 
ATOM     59  C   UNL     1       9.054  12.842   1.039  1.00  0.00     0.029 A 
ATOM     60  C   UNL     1       8.280  12.793  -0.110  1.00  0.00     0.049 A 
ATOM     61  H   UNL     1       6.414  11.858  -0.416  1.00  0.00     0.167 HD
ATOM     62  C   UNL     1       7.755  13.265  -2.490  1.00  0.00     0.074 A 
ATOM     63  C   UNL     1       8.050  13.855  -3.781  1.00  0.00     0.031 C 
ATOM     64  C   UNL     1       8.551  13.380  -1.398  1.00  0.00     0.031 A 
BRANCH  51  65
ATOM     65  C   UNL     1       6.370  10.539   3.650  1.00  0.00    -0.014 A 
ATOM     66  C   UNL     1       6.643   9.230   4.086  1.00  0.00     0.010 A 
ATOM     67  C   UNL     1       6.277  11.569   4.604  1.00  0.00     0.010 A 
ATOM     68  C   UNL     1       6.769   8.949   5.450  1.00  0.00     0.020 A 
ATOM     69  C   UNL     1       6.429  11.297   5.967  1.00  0.00     0.020 A 
ATOM     70  C   UNL     1       6.652   9.983   6.383  1.00  0.00     0.054 A 
BRANCH  70  71
ATOM     71  S   UNL     1       6.819   9.593   8.148  1.00  0.00     0.124 S 
ATOM     72  O   UNL     1       5.537   8.957   8.437  1.00  0.00    -0.237 OA
ATOM     73  O   UNL     1       7.979   8.705   8.173  1.00  0.00    -0.237 OA
ATOM     74  O   UNL     1       7.024  10.897   8.774  1.00  0.00    -0.744 OA
ENDBRANCH  70  71
ENDBRANCH  51  65
BRANCH  52  75
ATOM     75  C   UNL     1       4.657  12.623  -5.983  1.00  0.00    -0.014 A 
ATOM     76  C   UNL     1       5.391  12.012  -7.014  1.00  0.00     0.010 A 
ATOM     77  C   UNL     1       3.620  13.515  -6.316  1.00  0.00     0.010 A 
ATOM     78  C   UNL     1       5.090  12.280  -8.352  1.00  0.00     0.020 A 
ATOM     79  C   UNL     1       3.300  13.767  -7.653  1.00  0.00     0.020 A 
ATOM     80  C   UNL     1       4.040  13.150  -8.664  1.00  0.00     0.054 A 
BRANCH  80  81
ATOM     81  S   UNL     1       3.605  13.409 -10.407  1.00  0.00     0.124 S 
ATOM     82  O   UNL     1       4.674  14.294 -10.858  1.00  0.00    -0.237 OA
ATOM     83  O   UNL     1       3.638  12.051 -10.946  1.00  0.00    -0.237 OA
ATOM     84  O   UNL     1       2.276  14.011 -10.341  1.00  0.00    -0.744 OA
ENDBRANCH  80  81
ENDBRANCH  52  75
BRANCH  64  85
ATOM     85  C   UNL     1       9.833  14.150  -1.563  1.00  0.00    -0.014 A 
ATOM     86  C   UNL     1       9.832  15.554  -1.645  1.00  0.00     0.010 A 
ATOM     87  C   UNL     1      11.058  13.460  -1.595  1.00  0.00     0.010 A 
ATOM     88  C   UNL     1      11.035  16.252  -1.789  1.00  0.00     0.020 A 
ATOM     89  C   UNL     1      12.263  14.155  -1.715  1.00  0.00     0.020 A 
ATOM     90  C   UNL     1      12.242  15.547  -1.827  1.00  0.00     0.054 A 
BRANCH  90  91
ATOM     91  S   UNL     1      13.794  16.475  -1.978  1.00  0.00     0.124 S 
ATOM     92  O   UNL     1      13.793  16.838  -3.393  1.00  0.00    -0.237 OA
ATOM     93  O   UNL     1      13.600  17.583  -1.046  1.00  0.00    -0.237 OA
ATOM     94  O   UNL     1      14.815  15.508  -1.583  1.00  0.00    -0.744 OA
ENDBRANCH  90  91
ENDBRANCH  64  85
ENDBRANCH  38  39
ENDBRANCH  31  33
ENDBRANCH  30  31
ENDBRANCH   1  30
TORSDOF 16
