REMARK SMILES COc1ccc2c(c1)C=C(C(=O)OCCOC(=O)c1ccc(-c3c4nc(c(-c5ccc(S(=O)(=O)[O-])cc5)c5ccc([nH]5)c(-c5ccc(S(=O)(=O)[O-])cc5)c5nc(c(-c6ccc(S(=O)(=O)[O-])cc6)c6ccc3[nH]6)C=C5)C=C4)cc1)[C@H](C(F)(F)F)O2
REMARK SMILES IDX 15 1 14 2 13 3 11 4 12 5 10 6 3 7 4 8 8 9 5 10 7 11 6 12
REMARK SMILES IDX 9 13 84 14 79 15 2 16 1 17 80 18 81 19 82 20 83 21 16 22
REMARK SMILES IDX 17 23 18 24 19 25 20 26 78 27 21 28 77 29 22 30 23 31 24 32
REMARK SMILES IDX 71 33 25 34 76 35 70 36 72 37 26 38 75 39 69 40 68 41 27 43
REMARK SMILES IDX 57 44 38 45 56 46 39 47 42 48 55 49 73 50 40 51 41 52 54 54
REMARK SMILES IDX 74 55 43 56 28 57 29 58 37 59 30 60 36 61 31 62 32 63 33 64
REMARK SMILES IDX 34 65 35 66 58 67 59 68 67 69 60 70 66 71 61 72 62 73 63 74
REMARK SMILES IDX 64 75 65 76 44 77 45 78 53 79 46 80 52 81 47 82 48 83 49 84
REMARK SMILES IDX 50 85 51 86
REMARK H PARENT 72 42 42 53
REMARK Flexibility Score: inf
ROOT
ATOM      1  C   UNL     1      -3.756   6.094  -7.246  1.00  0.00     0.275 C 
ENDROOT
BRANCH   1   2
ATOM      2  C   UNL     1      -3.324   4.687  -7.668  1.00  0.00     0.275 C 
BRANCH   2   3
ATOM      3  O   UNL     1      -2.375   4.117  -6.743  1.00  0.00    -0.459 OA
BRANCH   3   4
ATOM      4  C   UNL     1      -1.105   3.972  -7.208  1.00  0.00     0.338 C 
ATOM      5  O   UNL     1      -0.728   4.286  -8.319  1.00  0.00    -0.246 OA
BRANCH   4   6
ATOM      6  C   UNL     1      -0.203   3.399  -6.178  1.00  0.00     0.087 C 
ATOM      7  C   UNL     1       0.696   0.738  -2.245  1.00  0.00     0.119 A 
ATOM      8  C   UNL     1       2.062   0.972  -2.408  1.00  0.00     0.050 A 
ATOM      9  C   UNL     1      -0.213   1.235  -3.188  1.00  0.00     0.058 A 
ATOM     10  C   UNL     1       2.517   1.695  -3.512  1.00  0.00     0.051 A 
ATOM     11  C   UNL     1       0.234   1.987  -4.279  1.00  0.00     0.021 A 
ATOM     12  C   UNL     1       1.605   2.197  -4.437  1.00  0.00     0.128 A 
ATOM     13  C   UNL     1      -0.686   2.520  -5.281  1.00  0.00     0.027 C 
ATOM     14  O   UNL     1       2.123   2.824  -5.534  1.00  0.00    -0.475 OA
ATOM     15  C   UNL     1       1.259   3.822  -6.149  1.00  0.00     0.316 C 
BRANCH   7  16
ATOM     16  O   UNL     1       0.149  -0.020  -1.245  1.00  0.00    -0.497 OA
ATOM     17  C   UNL     1       0.826   0.036   0.007  1.00  0.00     0.278 C 
ENDBRANCH   7  16
BRANCH  15  18
ATOM     18  C   UNL     1       1.933   4.256  -7.465  1.00  0.00     0.430 C 
ATOM     19  F   UNL     1       1.452   5.437  -7.915  1.00  0.00    -0.167 F 
ATOM     20  F   UNL     1       3.263   4.456  -7.264  1.00  0.00    -0.167 F 
ATOM     21  F   UNL     1       1.814   3.329  -8.439  1.00  0.00    -0.167 F 
ENDBRANCH  15  18
ENDBRANCH   4   6
ENDBRANCH   3   4
ENDBRANCH   2   3
ENDBRANCH   1   2
BRANCH   1  22
ATOM     22  O   UNL     1      -2.645   7.007  -7.239  1.00  0.00    -0.458 OA
BRANCH  22  23
ATOM     23  C   UNL     1      -2.047   7.163  -6.033  1.00  0.00     0.338 C 
ATOM     24  O   UNL     1      -2.401   6.670  -4.973  1.00  0.00    -0.246 OA
BRANCH  23  25
ATOM     25  C   UNL     1      -0.759   7.865  -6.198  1.00  0.00     0.060 A 
ATOM     26  C   UNL     1       0.347   7.307  -5.551  1.00  0.00     0.016 A 
ATOM     27  C   UNL     1      -0.618   9.034  -6.949  1.00  0.00     0.016 A 
ATOM     28  C   UNL     1       1.612   7.868  -5.707  1.00  0.00     0.010 A 
ATOM     29  C   UNL     1       0.645   9.630  -7.062  1.00  0.00     0.010 A 
ATOM     30  C   UNL     1       1.768   9.043  -6.452  1.00  0.00    -0.014 A 
BRANCH  30  31
ATOM     31  C   UNL     1       3.092   9.706  -6.488  1.00  0.00     0.031 A 
ATOM     32  C   UNL     1       3.455  10.671  -5.397  1.00  0.00     0.074 A 
ATOM     33  C   UNL     1       3.983   9.414  -7.453  1.00  0.00     0.049 A 
ATOM     34  N   UNL     1       4.563  11.343  -5.221  1.00  0.00    -0.248 NA
ATOM     35  C   UNL     1       2.437  10.894  -4.359  1.00  0.00     0.031 C 
ATOM     36  C   UNL     1       3.787   8.429  -8.515  1.00  0.00     0.029 A 
ATOM     37  N   UNL     1       5.238   9.919  -7.685  1.00  0.00    -0.354 N 
ATOM     38  C   UNL     1       4.380  12.066  -4.049  1.00  0.00     0.074 A 
ATOM     39  C   UNL     1       3.047  11.765  -3.570  1.00  0.00     0.031 C 
ATOM     40  C   UNL     1       4.886   8.405  -9.291  1.00  0.00     0.029 A 
ATOM     41  C   UNL     1       5.845   9.395  -8.802  1.00  0.00     0.049 A 
ATOM     42  H   UNL     1       5.664  10.593  -7.107  1.00  0.00     0.167 HD
ATOM     43  C   UNL     1       5.241  12.910  -3.430  1.00  0.00     0.031 A 
ATOM     44  C   UNL     1       7.030   9.692  -9.372  1.00  0.00     0.031 A 
ATOM     45  C   UNL     1       6.541  13.258  -3.940  1.00  0.00     0.049 A 
ATOM     46  C   UNL     1       7.913  10.740  -8.742  1.00  0.00     0.074 A 
ATOM     47  C   UNL     1       7.476  14.122  -3.397  1.00  0.00     0.029 A 
ATOM     48  N   UNL     1       7.080  12.780  -5.126  1.00  0.00    -0.354 N 
ATOM     49  N   UNL     1       7.734  11.410  -7.628  1.00  0.00    -0.248 NA
ATOM     50  C   UNL     1       9.159  11.070  -9.449  1.00  0.00     0.031 C 
ATOM     51  C   UNL     1       8.550  14.219  -4.289  1.00  0.00     0.029 A 
ATOM     52  C   UNL     1       8.318  13.361  -5.352  1.00  0.00     0.049 A 
ATOM     53  H   UNL     1       6.647  12.125  -5.719  1.00  0.00     0.167 HD
ATOM     54  C   UNL     1       8.859  12.218  -7.485  1.00  0.00     0.074 A 
ATOM     55  C   UNL     1       9.714  11.948  -8.624  1.00  0.00     0.031 C 
ATOM     56  C   UNL     1       9.159  13.096  -6.495  1.00  0.00     0.031 A 
BRANCH  43  57
ATOM     57  C   UNL     1       4.752  13.571  -2.168  1.00  0.00    -0.014 A 
ATOM     58  C   UNL     1       4.569  12.838  -0.981  1.00  0.00     0.010 A 
ATOM     59  C   UNL     1       4.444  14.943  -2.180  1.00  0.00     0.010 A 
ATOM     60  C   UNL     1       4.021  13.450   0.149  1.00  0.00     0.020 A 
ATOM     61  C   UNL     1       3.924  15.566  -1.044  1.00  0.00     0.020 A 
ATOM     62  C   UNL     1       3.689  14.808   0.105  1.00  0.00     0.054 A 
BRANCH  62  63
ATOM     63  S   UNL     1       2.938  15.570   1.570  1.00  0.00     0.124 S 
ATOM     64  O   UNL     1       1.589  15.010   1.541  1.00  0.00    -0.237 OA
ATOM     65  O   UNL     1       3.792  15.091   2.654  1.00  0.00    -0.237 OA
ATOM     66  O   UNL     1       3.024  17.003   1.299  1.00  0.00    -0.744 OA
ENDBRANCH  62  63
ENDBRANCH  43  57
BRANCH  44  67
ATOM     67  C   UNL     1       7.448   8.995 -10.620  1.00  0.00    -0.014 A 
ATOM     68  C   UNL     1       8.516   8.081 -10.606  1.00  0.00     0.010 A 
ATOM     69  C   UNL     1       6.770   9.235 -11.829  1.00  0.00     0.010 A 
ATOM     70  C   UNL     1       8.900   7.422 -11.778  1.00  0.00     0.020 A 
ATOM     71  C   UNL     1       7.134   8.558 -12.998  1.00  0.00     0.020 A 
ATOM     72  C   UNL     1       8.201   7.659 -12.966  1.00  0.00     0.054 A 
BRANCH  72  73
ATOM     73  S   UNL     1       8.674   6.740 -14.457  1.00  0.00     0.124 S 
ATOM     74  O   UNL     1       9.957   7.346 -14.796  1.00  0.00    -0.237 OA
ATOM     75  O   UNL     1       8.732   5.363 -13.973  1.00  0.00    -0.237 OA
ATOM     76  O   UNL     1       7.585   7.018 -15.392  1.00  0.00    -0.744 OA
ENDBRANCH  72  73
ENDBRANCH  44  67
BRANCH  56  77
ATOM     77  C   UNL     1      10.483  13.814  -6.572  1.00  0.00    -0.014 A 
ATOM     78  C   UNL     1      10.717  14.826  -7.520  1.00  0.00     0.010 A 
ATOM     79  C   UNL     1      11.489  13.514  -5.633  1.00  0.00     0.010 A 
ATOM     80  C   UNL     1      11.940  15.505  -7.545  1.00  0.00     0.020 A 
ATOM     81  C   UNL     1      12.701  14.210  -5.636  1.00  0.00     0.020 A 
ATOM     82  C   UNL     1      12.924  15.194  -6.601  1.00  0.00     0.054 A 
BRANCH  82  83
ATOM     83  S   UNL     1      14.481  16.125  -6.620  1.00  0.00     0.124 S 
ATOM     84  O   UNL     1      15.143  15.588  -7.805  1.00  0.00    -0.237 OA
ATOM     85  O   UNL     1      14.026  17.509  -6.728  1.00  0.00    -0.237 OA
ATOM     86  O   UNL     1      15.108  15.780  -5.346  1.00  0.00    -0.744 OA
ENDBRANCH  82  83
ENDBRANCH  56  77
ENDBRANCH  30  31
ENDBRANCH  23  25
ENDBRANCH  22  23
ENDBRANCH   1  22
TORSDOF 16
