REMARK SMILES Cc1ccc(NC(=O)c2cnn3c2NC2=C(C(=O)CCC2)[C@H]3c2ccc(C(=O)OCCOC(=O)c3ccc(-c4c5nc(c(-c6ccc(S(=O)(=O)[O-])cc6)c6ccc([nH]6)c(-c6ccc(S(=O)(=O)[O-])cc6)c6nc(c(-c7ccc(S(=O)(=O)[O-])cc7)c7ccc4[nH]7)C=C6)C=C5)cc3)cc2)cc1
REMARK SMILES IDX 30 1 29 2 27 3 28 4 26 5 23 6 24 7 96 8 25 9 95 10 22 11
REMARK SMILES IDX 9 12 10 13 13 14 11 15 12 16 14 17 15 18 16 20 21 21 17 22
REMARK SMILES IDX 20 23 18 24 19 25 7 26 6 27 8 29 5 30 1 31 2 32 3 33 98 34
REMARK SMILES IDX 4 35 97 36 31 37 32 38 33 39 34 40 35 41 36 42 94 43 37 44
REMARK SMILES IDX 93 45 38 46 39 47 40 48 87 49 41 50 92 51 86 52 88 53 42 54
REMARK SMILES IDX 91 55 85 56 84 57 43 59 73 60 54 61 72 62 55 63 58 64 71 65
REMARK SMILES IDX 89 66 56 67 57 68 70 70 90 71 59 72 44 73 45 74 53 75 46 76
REMARK SMILES IDX 52 77 47 78 48 79 49 80 50 81 51 82 74 83 75 84 83 85 76 86
REMARK SMILES IDX 82 87 77 88 78 89 79 90 80 91 81 92 60 93 61 94 69 95 62 96
REMARK SMILES IDX 68 97 63 98 64 99 65 100 66 101 67 102
REMARK H PARENT 14 19 6 28 88 58 58 69
REMARK Flexibility Score: inf
ROOT
ATOM      1  C   UNL     1       0.364  -3.268  -7.618  1.00  0.00     0.275 C 
ENDROOT
BRANCH   1   2
ATOM      2  O   UNL     1      -0.277  -3.963  -6.533  1.00  0.00    -0.458 OA
BRANCH   2   3
ATOM      3  C   UNL     1       0.506  -4.238  -5.464  1.00  0.00     0.338 C 
ATOM      4  O   UNL     1       1.664  -3.888  -5.307  1.00  0.00    -0.246 OA
BRANCH   3   5
ATOM      5  C   UNL     1      -0.322  -4.777  -4.374  1.00  0.00     0.060 A 
ATOM      6  C   UNL     1      -1.653  -5.555  -1.978  1.00  0.00    -0.019 A 
ATOM      7  C   UNL     1      -1.070  -6.514  -2.825  1.00  0.00     0.007 A 
ATOM      8  C   UNL     1      -1.590  -4.218  -2.432  1.00  0.00     0.007 A 
ATOM      9  C   UNL     1      -0.399  -6.127  -4.013  1.00  0.00     0.016 A 
ATOM     10  C   UNL     1      -0.942  -3.823  -3.593  1.00  0.00     0.016 A 
BRANCH   6  11
ATOM     11  C   UNL     1      -2.381  -5.941  -0.639  1.00  0.00     0.175 C 
ATOM     12  C   UNL     1      -3.753  -2.768   0.051  1.00  0.00     0.102 A 
ATOM     13  C   UNL     1      -2.966  -3.019   1.213  1.00  0.00     0.151 A 
ATOM     14  C   UNL     1      -3.956  -4.032  -0.474  1.00  0.00     0.142 A 
ATOM     15  N   UNL     1      -2.400  -4.232   1.200  1.00  0.00    -0.178 NA
ATOM     16  N   UNL     1      -2.879  -4.739   0.050  1.00  0.00    -0.237 N 
ATOM     17  N   UNL     1      -4.721  -4.678  -1.417  1.00  0.00    -0.343 N 
ATOM     18  C   UNL     1      -4.665  -6.088  -1.513  1.00  0.00     0.026 C 
ATOM     19  H   UNL     1      -5.303  -4.162  -2.021  1.00  0.00     0.168 HD
ATOM     20  C   UNL     1      -3.651  -6.724  -0.876  1.00  0.00     0.044 C 
ATOM     21  C   UNL     1      -5.889  -6.896  -1.850  1.00  0.00     0.055 C 
ATOM     22  C   UNL     1      -4.194  -7.445   0.337  1.00  0.00     0.163 C 
ATOM     23  C   UNL     1      -6.519  -7.491  -0.587  1.00  0.00     0.014 C 
ATOM     24  O   UNL     1      -3.438  -8.015   1.120  1.00  0.00    -0.294 OA
ATOM     25  C   UNL     1      -5.675  -7.230   0.656  1.00  0.00     0.081 C 
BRANCH  12  26
ATOM     26  C   UNL     1      -4.196  -1.498  -0.458  1.00  0.00     0.261 C 
ATOM     27  N   UNL     1      -3.335  -0.410  -0.443  1.00  0.00    -0.322 N 
ATOM     28  H   UNL     1      -3.801   0.449  -0.562  1.00  0.00     0.170 HD
ATOM     29  O   UNL     1      -5.337  -1.344  -0.901  1.00  0.00    -0.269 OA
BRANCH  27  30
ATOM     30  C   UNL     1      -1.930  -0.258  -0.293  1.00  0.00     0.041 A 
ATOM     31  C   UNL     1       2.344   0.469   0.054  1.00  0.00     0.044 C 
ATOM     32  C   UNL     1       0.866   0.245  -0.061  1.00  0.00    -0.051 A 
ATOM     33  C   UNL     1       0.384  -1.050  -0.202  1.00  0.00     0.005 A 
ATOM     34  C   UNL     1      -0.055   1.295  -0.041  1.00  0.00     0.005 A 
ATOM     35  C   UNL     1      -0.991  -1.287  -0.319  1.00  0.00     0.026 A 
ATOM     36  C   UNL     1      -1.434   1.045  -0.165  1.00  0.00     0.026 A 
ENDBRANCH  27  30
ENDBRANCH  12  26
ENDBRANCH   6  11
ENDBRANCH   3   5
ENDBRANCH   2   3
ENDBRANCH   1   2
BRANCH   1  37
ATOM     37  C   UNL     1       1.548  -4.016  -8.277  1.00  0.00     0.275 C 
BRANCH  37  38
ATOM     38  O   UNL     1       1.250  -5.286  -8.891  1.00  0.00    -0.458 OA
BRANCH  38  39
ATOM     39  C   UNL     1       0.686  -6.221  -8.070  1.00  0.00     0.338 C 
ATOM     40  O   UNL     1       1.233  -6.689  -7.088  1.00  0.00    -0.246 OA
BRANCH  39  41
ATOM     41  C   UNL     1      -0.779  -6.205  -8.337  1.00  0.00     0.060 A 
ATOM     42  C   UNL     1      -1.670  -6.641  -7.343  1.00  0.00     0.016 A 
ATOM     43  C   UNL     1      -1.220  -5.389  -9.382  1.00  0.00     0.016 A 
ATOM     44  C   UNL     1      -2.979  -6.164  -7.329  1.00  0.00     0.010 A 
ATOM     45  C   UNL     1      -2.443  -4.789  -9.275  1.00  0.00     0.010 A 
ATOM     46  C   UNL     1      -3.339  -5.211  -8.282  1.00  0.00    -0.014 A 
BRANCH  46  47
ATOM     47  C   UNL     1      -4.708  -4.870  -8.622  1.00  0.00     0.031 A 
ATOM     48  C   UNL     1      -5.480  -3.811  -7.959  1.00  0.00     0.074 A 
ATOM     49  C   UNL     1      -5.075  -5.473  -9.776  1.00  0.00     0.049 A 
ATOM     50  N   UNL     1      -6.767  -3.772  -7.974  1.00  0.00    -0.248 NA
ATOM     51  C   UNL     1      -4.886  -2.708  -7.204  1.00  0.00     0.031 C 
ATOM     52  C   UNL     1      -6.136  -5.158 -10.708  1.00  0.00     0.029 A 
ATOM     53  N   UNL     1      -4.507  -6.646 -10.300  1.00  0.00    -0.354 N 
ATOM     54  C   UNL     1      -7.141  -2.509  -7.564  1.00  0.00     0.074 A 
ATOM     55  C   UNL     1      -5.960  -1.939  -6.958  1.00  0.00     0.031 C 
ATOM     56  C   UNL     1      -6.346  -6.241 -11.484  1.00  0.00     0.029 A 
ATOM     57  C   UNL     1      -5.519  -7.326 -10.957  1.00  0.00     0.049 A 
ATOM     58  H   UNL     1      -3.568  -6.930 -10.216  1.00  0.00     0.167 HD
ATOM     59  C   UNL     1      -8.344  -2.011  -7.973  1.00  0.00     0.031 A 
ATOM     60  C   UNL     1      -5.959  -8.530 -10.487  1.00  0.00     0.031 A 
ATOM     61  C   UNL     1      -9.005  -2.965  -8.861  1.00  0.00     0.049 A 
ATOM     62  C   UNL     1      -7.396  -8.392 -10.058  1.00  0.00     0.074 A 
ATOM     63  C   UNL     1      -9.039  -3.038 -10.244  1.00  0.00     0.029 A 
ATOM     64  N   UNL     1      -9.432  -4.194  -8.380  1.00  0.00    -0.354 N 
ATOM     65  N   UNL     1      -7.909  -7.292  -9.579  1.00  0.00    -0.248 NA
ATOM     66  C   UNL     1      -8.371  -9.463 -10.208  1.00  0.00     0.031 C 
ATOM     67  C   UNL     1      -9.412  -4.356 -10.597  1.00  0.00     0.029 A 
ATOM     68  C   UNL     1      -9.620  -5.072  -9.429  1.00  0.00     0.049 A 
ATOM     69  H   UNL     1      -9.580  -4.408  -7.431  1.00  0.00     0.167 HD
ATOM     70  C   UNL     1      -9.266  -7.445  -9.486  1.00  0.00     0.074 A 
ATOM     71  C   UNL     1      -9.501  -8.835  -9.840  1.00  0.00     0.031 C 
ATOM     72  C   UNL     1     -10.114  -6.417  -9.193  1.00  0.00     0.031 A 
BRANCH  59  73
ATOM     73  C   UNL     1      -8.788  -0.566  -7.886  1.00  0.00    -0.014 A 
ATOM     74  C   UNL     1      -9.718  -0.089  -8.839  1.00  0.00     0.010 A 
ATOM     75  C   UNL     1      -8.353   0.365  -6.926  1.00  0.00     0.010 A 
ATOM     76  C   UNL     1     -10.137   1.245  -8.887  1.00  0.00     0.020 A 
ATOM     77  C   UNL     1      -8.760   1.716  -6.966  1.00  0.00     0.020 A 
ATOM     78  C   UNL     1      -9.643   2.148  -7.956  1.00  0.00     0.054 A 
BRANCH  78  79
ATOM     79  S   UNL     1     -10.192   3.873  -8.060  1.00  0.00     0.124 S 
ATOM     80  O   UNL     1      -9.728   4.270  -9.387  1.00  0.00    -0.237 OA
ATOM     81  O   UNL     1     -11.639   3.754  -7.911  1.00  0.00    -0.237 OA
ATOM     82  O   UNL     1      -9.504   4.524  -6.946  1.00  0.00    -0.744 OA
ENDBRANCH  78  79
ENDBRANCH  59  73
BRANCH  60  83
ATOM     83  C   UNL     1      -4.928  -9.365  -9.785  1.00  0.00    -0.014 A 
ATOM     84  C   UNL     1      -3.826  -9.828 -10.541  1.00  0.00     0.010 A 
ATOM     85  C   UNL     1      -4.834  -9.409  -8.382  1.00  0.00     0.010 A 
ATOM     86  C   UNL     1      -2.632 -10.218  -9.921  1.00  0.00     0.020 A 
ATOM     87  C   UNL     1      -3.638  -9.811  -7.755  1.00  0.00     0.020 A 
ATOM     88  C   UNL     1      -2.534 -10.177  -8.531  1.00  0.00     0.054 A 
BRANCH  88  89
ATOM     89  S   UNL     1      -0.892 -10.409  -7.777  1.00  0.00     0.124 S 
ATOM     90  O   UNL     1      -0.687 -11.847  -7.920  1.00  0.00    -0.237 OA
ATOM     91  O   UNL     1      -0.051  -9.563  -8.622  1.00  0.00    -0.237 OA
ATOM     92  O   UNL     1      -1.078  -9.930  -6.409  1.00  0.00    -0.744 OA
ENDBRANCH  88  89
ENDBRANCH  60  83
BRANCH  72  93
ATOM     93  C   UNL     1     -11.554  -6.567  -8.791  1.00  0.00    -0.014 A 
ATOM     94  C   UNL     1     -12.084  -7.748  -8.257  1.00  0.00     0.010 A 
ATOM     95  C   UNL     1     -12.392  -5.424  -8.798  1.00  0.00     0.010 A 
ATOM     96  C   UNL     1     -13.410  -7.810  -7.822  1.00  0.00     0.020 A 
ATOM     97  C   UNL     1     -13.696  -5.459  -8.312  1.00  0.00     0.020 A 
ATOM     98  C   UNL     1     -14.208  -6.665  -7.854  1.00  0.00     0.054 A 
BRANCH  98  99
ATOM     99  S   UNL     1     -15.900  -6.750  -7.230  1.00  0.00     0.124 S 
ATOM    100  O   UNL     1     -16.622  -7.245  -8.399  1.00  0.00    -0.237 OA
ATOM    101  O   UNL     1     -15.789  -7.691  -6.118  1.00  0.00    -0.237 OA
ATOM    102  O   UNL     1     -16.194  -5.373  -6.845  1.00  0.00    -0.744 OA
ENDBRANCH  98  99
ENDBRANCH  72  93
ENDBRANCH  46  47
ENDBRANCH  39  41
ENDBRANCH  38  39
ENDBRANCH  37  38
ENDBRANCH   1  37
TORSDOF 17
