REMARK SMILES CC[C@@H]1SC[C@@H](C(=O)OCCOC(=O)c2ccc(-c3c4nc(c(-c5ccc(S(=O)(=O)[O-])cc5)c5ccc([nH]5)c(-c5ccc(S(=O)(=O)[O-])cc5)c5nc(c(-c6ccc(S(=O)(=O)[O-])cc6)c6ccc3[nH]6)C=C5)C=C4)cc2)N1C(=O)c1ccc(C[NH3+])o1
REMARK SMILES IDX 10 1 9 2 7 3 8 4 6 5 3 6 4 7 75 8 5 9 2 10 1 11 76 12 77 13
REMARK SMILES IDX 78 14 79 15 84 16 80 17 81 18 82 19 83 20 11 24 12 25 13 26
REMARK SMILES IDX 14 27 15 28 16 29 74 30 17 31 73 32 18 33 19 34 20 35 67 36
REMARK SMILES IDX 21 37 72 38 66 39 68 40 22 41 71 42 65 43 64 44 23 46 53 47
REMARK SMILES IDX 34 48 52 49 35 50 38 51 51 52 69 53 36 54 37 55 50 57 70 58
REMARK SMILES IDX 39 59 24 60 25 61 33 62 26 63 32 64 27 65 28 66 29 67 30 68
REMARK SMILES IDX 31 69 54 70 55 71 63 72 56 73 62 74 57 75 58 76 59 77 60 78
REMARK SMILES IDX 61 79 40 80 41 81 49 82 42 83 48 84 43 85 44 86 45 87 46 88
REMARK SMILES IDX 47 89
REMARK H PARENT 83 21 83 22 83 23 68 45 38 56
REMARK Flexibility Score: inf
ROOT
ATOM      1  C   UNL     1       0.771   2.031  -0.608  1.00  0.00     0.274 C 
ENDROOT
BRANCH   1   2
ATOM      2  O   UNL     1       0.838   1.087   0.480  1.00  0.00    -0.461 OA
BRANCH   2   3
ATOM      3  C   UNL     1       2.052   0.990   1.091  1.00  0.00     0.329 C 
ATOM      4  O   UNL     1       3.046   1.635   0.768  1.00  0.00    -0.250 OA
BRANCH   3   5
ATOM      5  C   UNL     1       2.108  -0.102   2.170  1.00  0.00     0.206 C 
ATOM      6  C   UNL     1       0.430  -1.889   1.867  1.00  0.00     0.144 C 
ATOM      7  S   UNL     1       1.849  -2.300   0.771  1.00  0.00    -0.134 SA
ATOM      8  N   UNL     1       0.828  -0.691   2.598  1.00  0.00    -0.309 N 
ATOM      9  C   UNL     1       2.999  -1.222   1.661  1.00  0.00     0.109 C 
BRANCH   6  10
ATOM     10  C   UNL     1       0.090  -3.134   2.706  1.00  0.00     0.033 C 
ATOM     11  C   UNL     1       1.062  -3.469   3.832  1.00  0.00     0.007 C 
ENDBRANCH   6  10
BRANCH   8  12
ATOM     12  C   UNL     1       0.118  -0.033   3.600  1.00  0.00     0.291 C 
ATOM     13  O   UNL     1       0.592   0.981   4.112  1.00  0.00    -0.265 OA
BRANCH  12  14
ATOM     14  C   UNL     1      -1.091  -0.621   4.125  1.00  0.00     0.192 A 
ATOM     15  C   UNL     1      -1.344  -1.104   5.395  1.00  0.00     0.057 A 
ATOM     16  O   UNL     1      -2.232  -0.673   3.370  1.00  0.00    -0.450 OA
ATOM     17  C   UNL     1      -2.704  -1.474   5.426  1.00  0.00     0.052 A 
ATOM     18  C   UNL     1      -3.224  -1.140   4.193  1.00  0.00     0.159 A 
BRANCH  18  19
ATOM     19  C   UNL     1      -4.610  -1.145   3.664  1.00  0.00     0.335 C 
BRANCH  19  20
ATOM     20  N   UNL     1      -4.951  -2.443   3.090  1.00  0.00    -0.351 N 
ATOM     21  H   UNL     1      -4.319  -2.650   2.317  1.00  0.00     0.344 HD
ATOM     22  H   UNL     1      -5.911  -2.422   2.748  1.00  0.00     0.344 HD
ATOM     23  H   UNL     1      -4.861  -3.166   3.805  1.00  0.00     0.344 HD
ENDBRANCH  19  20
ENDBRANCH  18  19
ENDBRANCH  12  14
ENDBRANCH   8  12
ENDBRANCH   3   5
ENDBRANCH   2   3
ENDBRANCH   1   2
BRANCH   1  24
ATOM     24  C   UNL     1       0.074   3.315  -0.172  1.00  0.00     0.275 C 
BRANCH  24  25
ATOM     25  O   UNL     1       0.741   3.866   0.972  1.00  0.00    -0.458 OA
BRANCH  25  26
ATOM     26  C   UNL     1      -0.012   3.936   2.095  1.00  0.00     0.338 C 
ATOM     27  O   UNL     1      -1.198   3.656   2.207  1.00  0.00    -0.246 OA
BRANCH  26  28
ATOM     28  C   UNL     1       0.797   4.462   3.202  1.00  0.00     0.060 A 
ATOM     29  C   UNL     1       1.832   3.696   3.736  1.00  0.00     0.016 A 
ATOM     30  C   UNL     1       0.422   5.662   3.802  1.00  0.00     0.016 A 
ATOM     31  C   UNL     1       2.425   4.074   4.940  1.00  0.00     0.010 A 
ATOM     32  C   UNL     1       1.071   6.081   4.966  1.00  0.00     0.010 A 
ATOM     33  C   UNL     1       2.040   5.263   5.575  1.00  0.00    -0.014 A 
BRANCH  33  34
ATOM     34  C   UNL     1       2.576   5.607   6.917  1.00  0.00     0.031 A 
ATOM     35  C   UNL     1       1.650   5.646   8.105  1.00  0.00     0.074 A 
ATOM     36  C   UNL     1       3.888   5.865   7.081  1.00  0.00     0.049 A 
ATOM     37  N   UNL     1       1.893   6.037   9.331  1.00  0.00    -0.248 NA
ATOM     38  C   UNL     1       0.265   5.199   7.883  1.00  0.00     0.031 C 
ATOM     39  C   UNL     1       4.901   5.818   6.026  1.00  0.00     0.029 A 
ATOM     40  N   UNL     1       4.593   6.213   8.206  1.00  0.00    -0.354 N 
ATOM     41  C   UNL     1       0.685   5.927  10.011  1.00  0.00     0.074 A 
ATOM     42  C   UNL     1      -0.292   5.442   9.060  1.00  0.00     0.031 C 
ATOM     43  C   UNL     1       6.101   6.102   6.558  1.00  0.00     0.029 A 
ATOM     44  C   UNL     1       5.934   6.407   7.975  1.00  0.00     0.049 A 
ATOM     45  H   UNL     1       4.179   6.314   9.093  1.00  0.00     0.167 HD
ATOM     46  C   UNL     1       0.412   6.203  11.309  1.00  0.00     0.031 A 
ATOM     47  C   UNL     1       6.916   6.807   8.805  1.00  0.00     0.031 A 
ATOM     48  C   UNL     1       1.391   6.652  12.264  1.00  0.00     0.049 A 
ATOM     49  C   UNL     1       6.590   7.115  10.239  1.00  0.00     0.074 A 
ATOM     50  C   UNL     1       1.214   6.956  13.603  1.00  0.00     0.029 A 
ATOM     51  N   UNL     1       2.736   6.842  11.986  1.00  0.00    -0.354 N 
ATOM     52  N   UNL     1       5.433   7.048  10.854  1.00  0.00    -0.248 NA
ATOM     53  C   UNL     1       7.703   7.554  11.091  1.00  0.00     0.031 C 
ATOM     54  C   UNL     1       2.448   7.356  14.129  1.00  0.00     0.029 A 
ATOM     55  C   UNL     1       3.400   7.262  13.126  1.00  0.00     0.049 A 
ATOM     56  H   UNL     1       3.156   6.699  11.108  1.00  0.00     0.167 HD
ATOM     57  C   UNL     1       5.682   7.423  12.169  1.00  0.00     0.074 A 
ATOM     58  C   UNL     1       7.101   7.698  12.265  1.00  0.00     0.031 C 
ATOM     59  C   UNL     1       4.812   7.532  13.204  1.00  0.00     0.031 A 
BRANCH  46  60
ATOM     60  C   UNL     1      -1.016   6.060  11.761  1.00  0.00    -0.014 A 
ATOM     61  C   UNL     1      -1.597   4.795  11.963  1.00  0.00     0.010 A 
ATOM     62  C   UNL     1      -1.784   7.213  12.006  1.00  0.00     0.010 A 
ATOM     63  C   UNL     1      -2.933   4.686  12.360  1.00  0.00     0.020 A 
ATOM     64  C   UNL     1      -3.113   7.109  12.425  1.00  0.00     0.020 A 
ATOM     65  C   UNL     1      -3.685   5.844  12.580  1.00  0.00     0.054 A 
BRANCH  65  66
ATOM     66  S   UNL     1      -5.415   5.680  13.104  1.00  0.00     0.124 S 
ATOM     67  O   UNL     1      -6.079   5.345  11.846  1.00  0.00    -0.237 OA
ATOM     68  O   UNL     1      -5.356   4.603  14.088  1.00  0.00    -0.237 OA
ATOM     69  O   UNL     1      -5.738   6.997  13.647  1.00  0.00    -0.744 OA
ENDBRANCH  65  66
ENDBRANCH  46  60
BRANCH  47  70
ATOM     70  C   UNL     1       8.302   6.957   8.289  1.00  0.00    -0.014 A 
ATOM     71  C   UNL     1       9.301   6.036   8.649  1.00  0.00     0.010 A 
ATOM     72  C   UNL     1       8.624   8.013   7.417  1.00  0.00     0.010 A 
ATOM     73  C   UNL     1      10.601   6.174   8.154  1.00  0.00     0.020 A 
ATOM     74  C   UNL     1       9.916   8.140   6.901  1.00  0.00     0.020 A 
ATOM     75  C   UNL     1      10.900   7.225   7.282  1.00  0.00     0.054 A 
BRANCH  75  76
ATOM     76  S   UNL     1      12.575   7.353   6.597  1.00  0.00     0.124 S 
ATOM     77  O   UNL     1      13.308   7.963   7.702  1.00  0.00    -0.237 OA
ATOM     78  O   UNL     1      12.910   5.960   6.308  1.00  0.00    -0.237 OA
ATOM     79  O   UNL     1      12.396   8.198   5.419  1.00  0.00    -0.744 OA
ENDBRANCH  75  76
ENDBRANCH  47  70
BRANCH  59  80
ATOM     80  C   UNL     1       5.383   7.937  14.535  1.00  0.00    -0.014 A 
ATOM     81  C   UNL     1       5.762   9.266  14.789  1.00  0.00     0.010 A 
ATOM     82  C   UNL     1       5.518   6.975  15.552  1.00  0.00     0.010 A 
ATOM     83  C   UNL     1       6.305   9.620  16.027  1.00  0.00     0.020 A 
ATOM     84  C   UNL     1       6.041   7.330  16.798  1.00  0.00     0.020 A 
ATOM     85  C   UNL     1       6.448   8.647  17.021  1.00  0.00     0.054 A 
BRANCH  85  86
ATOM     86  S   UNL     1       7.135   9.128  18.630  1.00  0.00     0.124 S 
ATOM     87  O   UNL     1       8.568   9.166  18.348  1.00  0.00    -0.237 OA
ATOM     88  O   UNL     1       6.509  10.425  18.877  1.00  0.00    -0.237 OA
ATOM     89  O   UNL     1       6.703   8.056  19.523  1.00  0.00    -0.744 OA
ENDBRANCH  85  86
ENDBRANCH  59  80
ENDBRANCH  33  34
ENDBRANCH  26  28
ENDBRANCH  25  26
ENDBRANCH  24  25
ENDBRANCH   1  24
TORSDOF 19
