REMARK SMILES CCN(C(=O)C[NH2+][C@@](C)(C(=O)OCCOC(=O)c1ccc(-c2c3nc(c(-c4ccc(S(=O)(=O)[O-])cc4)c4ccc([nH]4)c(-c4ccc(S(=O)(=O)[O-])cc4)c4nc(c(-c5ccc(S(=O)(=O)[O-])cc5)c5ccc2[nH]5)C=C4)C=C3)cc1)C(F)(F)F)C1CC1
REMARK SMILES IDX 13 1 12 2 10 3 11 4 8 5 9 6 7 7 6 10 4 11 5 12 3 13 2 14
REMARK SMILES IDX 1 15 82 16 83 17 84 18 78 19 79 20 80 21 81 22 14 23 15 24
REMARK SMILES IDX 16 25 17 26 18 27 19 28 77 29 20 30 76 31 21 32 22 33 23 34
REMARK SMILES IDX 70 35 24 36 75 37 69 38 71 39 25 40 74 41 68 42 67 43 26 45
REMARK SMILES IDX 56 46 37 47 55 48 38 49 41 50 54 51 72 52 39 53 40 54 53 56
REMARK SMILES IDX 73 57 42 58 27 59 28 60 36 61 29 62 35 63 30 64 31 65 32 66
REMARK SMILES IDX 33 67 34 68 57 69 58 70 66 71 59 72 65 73 60 74 61 75 62 76
REMARK SMILES IDX 63 77 64 78 43 79 44 80 52 81 45 82 51 83 46 84 47 85 48 86
REMARK SMILES IDX 49 87 50 88
REMARK H PARENT 7 8 7 9 71 44 41 55
REMARK Flexibility Score: inf
ROOT
ATOM      1  C   UNL     1      -3.753   1.895   2.993  1.00  0.00     0.274 C 
ENDROOT
BRANCH   1   2
ATOM      2  O   UNL     1      -3.214   0.570   2.800  1.00  0.00    -0.457 OA
BRANCH   2   3
ATOM      3  C   UNL     1      -4.031  -0.328   2.165  1.00  0.00     0.377 C 
ATOM      4  O   UNL     1      -5.168  -0.053   1.801  1.00  0.00    -0.244 OA
BRANCH   3   5
ATOM      5  C   UNL     1      -3.421  -1.742   2.117  1.00  0.00     0.287 C 
ATOM      6  C   UNL     1      -3.977  -2.464   3.357  1.00  0.00     0.103 C 
BRANCH   5   7
ATOM      7  N   UNL     1      -1.912  -1.647   2.203  1.00  0.00    -0.317 N 
ATOM      8  H   UNL     1      -1.601  -0.891   1.592  1.00  0.00     0.347 HD
ATOM      9  H   UNL     1      -1.677  -1.476   3.181  1.00  0.00     0.347 HD
BRANCH   7  10
ATOM     10  C   UNL     1      -1.221  -2.883   1.803  1.00  0.00     0.363 C 
BRANCH  10  11
ATOM     11  C   UNL     1       0.288  -2.772   2.047  1.00  0.00     0.277 C 
ATOM     12  O   UNL     1       0.757  -3.232   3.095  1.00  0.00    -0.268 OA
BRANCH  11  13
ATOM     13  N   UNL     1       1.086  -2.187   1.061  1.00  0.00    -0.335 N 
BRANCH  13  14
ATOM     14  C   UNL     1       0.567  -1.343  -0.025  1.00  0.00     0.116 C 
ATOM     15  C   UNL     1       0.812   0.136   0.236  1.00  0.00     0.027 C 
ENDBRANCH  13  14
BRANCH  13  16
ATOM     16  C   UNL     1       2.526  -2.346   1.177  1.00  0.00     0.085 C 
ATOM     17  C   UNL     1       3.218  -3.364   0.302  1.00  0.00     0.027 C 
ATOM     18  C   UNL     1       3.555  -1.911   0.165  1.00  0.00     0.027 C 
ENDBRANCH  13  16
ENDBRANCH  11  13
ENDBRANCH  10  11
ENDBRANCH   7  10
ENDBRANCH   5   7
BRANCH   5  19
ATOM     19  C   UNL     1      -3.983  -2.421   0.841  1.00  0.00     0.455 C 
ATOM     20  F   UNL     1      -3.425  -1.912  -0.281  1.00  0.00    -0.164 F 
ATOM     21  F   UNL     1      -3.683  -3.749   0.846  1.00  0.00    -0.164 F 
ATOM     22  F   UNL     1      -5.322  -2.346   0.715  1.00  0.00    -0.164 F 
ENDBRANCH   5  19
ENDBRANCH   3   5
ENDBRANCH   2   3
ENDBRANCH   1   2
BRANCH   1  23
ATOM     23  C   UNL     1      -3.249   2.853   1.919  1.00  0.00     0.275 C 
BRANCH  23  24
ATOM     24  O   UNL     1      -3.705   2.407   0.632  1.00  0.00    -0.458 OA
BRANCH  24  25
ATOM     25  C   UNL     1      -2.753   2.277  -0.317  1.00  0.00     0.338 C 
ATOM     26  O   UNL     1      -1.565   2.557  -0.214  1.00  0.00    -0.246 OA
BRANCH  25  27
ATOM     27  C   UNL     1      -3.350   1.756  -1.556  1.00  0.00     0.060 A 
ATOM     28  C   UNL     1      -4.147   0.612  -1.535  1.00  0.00     0.016 A 
ATOM     29  C   UNL     1      -3.035   2.366  -2.770  1.00  0.00     0.016 A 
ATOM     30  C   UNL     1      -4.562   0.025  -2.730  1.00  0.00     0.010 A 
ATOM     31  C   UNL     1      -3.534   1.832  -3.960  1.00  0.00     0.010 A 
ATOM     32  C   UNL     1      -4.278   0.639  -3.957  1.00  0.00    -0.014 A 
BRANCH  32  33
ATOM     33  C   UNL     1      -4.737   0.043  -5.241  1.00  0.00     0.031 A 
ATOM     34  C   UNL     1      -3.732  -0.325  -6.301  1.00  0.00     0.074 A 
ATOM     35  C   UNL     1      -6.051  -0.144  -5.476  1.00  0.00     0.049 A 
ATOM     36  N   UNL     1      -3.930  -0.625  -7.559  1.00  0.00    -0.248 NA
ATOM     37  C   UNL     1      -2.317  -0.344  -5.895  1.00  0.00     0.031 C 
ATOM     38  C   UNL     1      -7.133   0.116  -4.523  1.00  0.00     0.029 A 
ATOM     39  N   UNL     1      -6.702  -0.594  -6.598  1.00  0.00    -0.354 N 
ATOM     40  C   UNL     1      -2.666  -0.805  -8.110  1.00  0.00     0.074 A 
ATOM     41  C   UNL     1      -1.707  -0.591  -7.047  1.00  0.00     0.031 C 
ATOM     42  C   UNL     1      -8.306  -0.205  -5.089  1.00  0.00     0.029 A 
ATOM     43  C   UNL     1      -8.071  -0.606  -6.472  1.00  0.00     0.049 A 
ATOM     44  H   UNL     1      -6.233  -0.881  -7.415  1.00  0.00     0.167 HD
ATOM     45  C   UNL     1      -2.337  -1.108  -9.389  1.00  0.00     0.031 A 
ATOM     46  C   UNL     1      -9.037  -0.857  -7.376  1.00  0.00     0.031 A 
ATOM     47  C   UNL     1      -3.296  -1.356 -10.432  1.00  0.00     0.049 A 
ATOM     48  C   UNL     1      -8.652  -1.163  -8.794  1.00  0.00     0.074 A 
ATOM     49  C   UNL     1      -3.064  -1.667 -11.761  1.00  0.00     0.029 A 
ATOM     50  N   UNL     1      -4.671  -1.339 -10.259  1.00  0.00    -0.354 N 
ATOM     51  N   UNL     1      -7.453  -1.254  -9.317  1.00  0.00    -0.248 NA
ATOM     52  C   UNL     1      -9.748  -1.376  -9.748  1.00  0.00     0.031 C 
ATOM     53  C   UNL     1      -4.301  -1.810 -12.399  1.00  0.00     0.029 A 
ATOM     54  C   UNL     1      -5.302  -1.626 -11.458  1.00  0.00     0.049 A 
ATOM     55  H   UNL     1      -5.132  -1.151  -9.410  1.00  0.00     0.167 HD
ATOM     56  C   UNL     1      -7.650  -1.537 -10.663  1.00  0.00     0.074 A 
ATOM     57  C   UNL     1      -9.082  -1.623 -10.869  1.00  0.00     0.031 C 
ATOM     58  C   UNL     1      -6.728  -1.704 -11.642  1.00  0.00     0.031 A 
BRANCH  45  59
ATOM     59  C   UNL     1      -0.874  -1.139  -9.741  1.00  0.00    -0.014 A 
ATOM     60  C   UNL     1      -0.048  -2.209  -9.357  1.00  0.00     0.010 A 
ATOM     61  C   UNL     1      -0.326  -0.086 -10.498  1.00  0.00     0.010 A 
ATOM     62  C   UNL     1       1.311  -2.207  -9.691  1.00  0.00     0.020 A 
ATOM     63  C   UNL     1       1.026  -0.091 -10.851  1.00  0.00     0.020 A 
ATOM     64  C   UNL     1       1.841  -1.143 -10.428  1.00  0.00     0.054 A 
BRANCH  64  65
ATOM     65  S   UNL     1       3.604  -1.163 -10.857  1.00  0.00     0.124 S 
ATOM     66  O   UNL     1       4.223  -0.759  -9.598  1.00  0.00    -0.237 OA
ATOM     67  O   UNL     1       3.826  -2.553 -11.248  1.00  0.00    -0.237 OA
ATOM     68  O   UNL     1       3.707  -0.191 -11.943  1.00  0.00    -0.744 OA
ENDBRANCH  64  65
ENDBRANCH  45  59
BRANCH  46  69
ATOM     69  C   UNL     1     -10.465  -0.767  -6.969  1.00  0.00    -0.014 A 
ATOM     70  C   UNL     1     -11.241  -1.930  -6.826  1.00  0.00     0.010 A 
ATOM     71  C   UNL     1     -11.042   0.483  -6.679  1.00  0.00     0.010 A 
ATOM     72  C   UNL     1     -12.569  -1.844  -6.397  1.00  0.00     0.020 A 
ATOM     73  C   UNL     1     -12.361   0.571  -6.227  1.00  0.00     0.020 A 
ATOM     74  C   UNL     1     -13.119  -0.594  -6.096  1.00  0.00     0.054 A 
BRANCH  74  75
ATOM     75  S   UNL     1     -14.817  -0.506  -5.462  1.00  0.00     0.124 S 
ATOM     76  O   UNL     1     -15.604  -0.611  -6.686  1.00  0.00    -0.237 OA
ATOM     77  O   UNL     1     -14.885  -1.657  -4.565  1.00  0.00    -0.237 OA
ATOM     78  O   UNL     1     -14.862   0.794  -4.795  1.00  0.00    -0.744 OA
ENDBRANCH  74  75
ENDBRANCH  46  69
BRANCH  58  79
ATOM     79  C   UNL     1      -7.239  -2.017 -13.019  1.00  0.00    -0.014 A 
ATOM     80  C   UNL     1      -7.771  -1.005 -13.838  1.00  0.00     0.010 A 
ATOM     81  C   UNL     1      -7.136  -3.327 -13.518  1.00  0.00     0.010 A 
ATOM     82  C   UNL     1      -8.211  -1.305 -15.129  1.00  0.00     0.020 A 
ATOM     83  C   UNL     1      -7.559  -3.626 -14.815  1.00  0.00     0.020 A 
ATOM     84  C   UNL     1      -8.104  -2.614 -15.609  1.00  0.00     0.054 A 
BRANCH  84  85
ATOM     85  S   UNL     1      -8.634  -2.972 -17.307  1.00  0.00     0.124 S 
ATOM     86  O   UNL     1     -10.086  -3.031 -17.165  1.00  0.00    -0.237 OA
ATOM     87  O   UNL     1      -8.121  -1.827 -18.055  1.00  0.00    -0.237 OA
ATOM     88  O   UNL     1      -7.984  -4.246 -17.609  1.00  0.00    -0.744 OA
ENDBRANCH  84  85
ENDBRANCH  58  79
ENDBRANCH  32  33
ENDBRANCH  25  27
ENDBRANCH  24  25
ENDBRANCH  23  24
ENDBRANCH   1  23
TORSDOF 21
