REMARK SMILES C[C@H](CC(=O)OCCOC(=O)c1ccc(-c2c3nc(c(-c4ccc(S(=O)(=O)[O-])cc4)c4ccc([nH]4)c(-c4ccc(S(=O)(=O)[O-])cc4)c4nc(c(-c5ccc(S(=O)(=O)[O-])cc5)c5ccc2[nH]5)C=C4)C=C3)cc1)N1C(=O)CCCC1=O
REMARK SMILES IDX 8 1 7 2 6 3 4 4 5 5 3 6 2 7 1 8 72 9 73 10 78 11 74 12 75 13
REMARK SMILES IDX 77 14 79 15 76 16 9 17 10 18 11 19 12 20 13 21 71 22 14 23
REMARK SMILES IDX 70 24 15 25 16 26 17 27 64 28 18 29 69 30 63 31 65 32 19 33
REMARK SMILES IDX 68 34 62 35 61 36 20 38 50 39 31 40 49 41 32 42 35 43 48 44
REMARK SMILES IDX 66 45 33 46 34 47 47 49 67 50 36 51 21 52 22 53 30 54 23 55
REMARK SMILES IDX 29 56 24 57 25 58 26 59 27 60 28 61 51 62 52 63 60 64 53 65
REMARK SMILES IDX 59 66 54 67 55 68 56 69 57 70 58 71 37 72 38 73 46 74 39 75
REMARK SMILES IDX 45 76 40 77 41 78 42 79 43 80 44 81
REMARK H PARENT 65 37 35 48
REMARK Flexibility Score: inf
ROOT
ATOM      1  C   UNL     1      -0.232   3.942  -0.044  1.00  0.00     0.275 C 
ENDROOT
BRANCH   1   2
ATOM      2  C   UNL     1      -0.970   2.907  -0.891  1.00  0.00     0.274 C 
BRANCH   2   3
ATOM      3  O   UNL     1      -0.817   1.578  -0.348  1.00  0.00    -0.462 OA
BRANCH   3   4
ATOM      4  C   UNL     1       0.246   0.867  -0.790  1.00  0.00     0.308 C 
ATOM      5  O   UNL     1       1.003   1.234  -1.681  1.00  0.00    -0.252 OA
BRANCH   4   6
ATOM      6  C   UNL     1       0.355  -0.505  -0.171  1.00  0.00     0.148 C 
BRANCH   6   7
ATOM      7  C   UNL     1      -0.027  -0.714   1.306  1.00  0.00     0.101 C 
ATOM      8  C   UNL     1       0.814   0.105   2.287  1.00  0.00     0.032 C 
BRANCH   7   9
ATOM      9  N   UNL     1      -1.493  -0.712   1.512  1.00  0.00    -0.279 N 
ATOM     10  C   UNL     1      -2.142  -1.933   1.290  1.00  0.00     0.229 C 
ATOM     11  C   UNL     1      -2.165   0.459   1.861  1.00  0.00     0.229 C 
ATOM     12  O   UNL     1      -1.567  -2.972   0.967  1.00  0.00    -0.274 OA
ATOM     13  C   UNL     1      -3.633  -1.934   1.497  1.00  0.00     0.101 C 
ATOM     14  C   UNL     1      -3.662   0.506   1.624  1.00  0.00     0.101 C 
ATOM     15  O   UNL     1      -1.633   1.443   2.373  1.00  0.00    -0.274 OA
ATOM     16  C   UNL     1      -4.194  -0.685   0.862  1.00  0.00     0.020 C 
ENDBRANCH   7   9
ENDBRANCH   6   7
ENDBRANCH   4   6
ENDBRANCH   3   4
ENDBRANCH   2   3
ENDBRANCH   1   2
BRANCH   1  17
ATOM     17  O   UNL     1       1.181   3.688  -0.107  1.00  0.00    -0.458 OA
BRANCH  17  18
ATOM     18  C   UNL     1       1.827   3.660   1.078  1.00  0.00     0.338 C 
ATOM     19  O   UNL     1       1.376   3.913   2.180  1.00  0.00    -0.246 OA
BRANCH  18  20
ATOM     20  C   UNL     1       3.233   3.296   0.852  1.00  0.00     0.060 A 
ATOM     21  C   UNL     1       3.576   2.004   0.446  1.00  0.00     0.016 A 
ATOM     22  C   UNL     1       4.220   4.232   1.155  1.00  0.00     0.016 A 
ATOM     23  C   UNL     1       4.917   1.631   0.381  1.00  0.00     0.010 A 
ATOM     24  C   UNL     1       5.563   3.871   1.048  1.00  0.00     0.010 A 
ATOM     25  C   UNL     1       5.920   2.560   0.689  1.00  0.00    -0.014 A 
BRANCH  25  26
ATOM     26  C   UNL     1       7.347   2.158   0.683  1.00  0.00     0.031 A 
ATOM     27  C   UNL     1       8.100   2.057   1.980  1.00  0.00     0.074 A 
ATOM     28  C   UNL     1       7.965   1.905  -0.485  1.00  0.00     0.049 A 
ATOM     29  N   UNL     1       9.373   1.832   2.180  1.00  0.00    -0.248 NA
ATOM     30  C   UNL     1       7.321   2.243   3.216  1.00  0.00     0.031 C 
ATOM     31  C   UNL     1       7.333   1.950  -1.806  1.00  0.00     0.029 A 
ATOM     32  N   UNL     1       9.268   1.569  -0.749  1.00  0.00    -0.354 N 
ATOM     33  C   UNL     1       9.556   1.882   3.557  1.00  0.00     0.074 A 
ATOM     34  C   UNL     1       8.264   2.165   4.145  1.00  0.00     0.031 C 
ATOM     35  C   UNL     1       8.251   1.652  -2.740  1.00  0.00     0.029 A 
ATOM     36  C   UNL     1       9.540   1.440  -2.090  1.00  0.00     0.049 A 
ATOM     37  H   UNL     1       9.944   1.434  -0.046  1.00  0.00     0.167 HD
ATOM     38  C   UNL     1      10.698   1.712   4.265  1.00  0.00     0.031 A 
ATOM     39  C   UNL     1      10.704   1.206  -2.727  1.00  0.00     0.031 A 
ATOM     40  C   UNL     1      11.978   1.420   3.675  1.00  0.00     0.049 A 
ATOM     41  C   UNL     1      11.958   1.026  -1.918  1.00  0.00     0.074 A 
ATOM     42  C   UNL     1      13.192   1.218   4.308  1.00  0.00     0.029 A 
ATOM     43  N   UNL     1      12.208   1.283   2.315  1.00  0.00    -0.354 N 
ATOM     44  N   UNL     1      12.113   1.082  -0.617  1.00  0.00    -0.248 NA
ATOM     45  C   UNL     1      13.191   0.746  -2.664  1.00  0.00     0.031 C 
ATOM     46  C   UNL     1      14.164   0.990   3.326  1.00  0.00     0.029 A 
ATOM     47  C   UNL     1      13.546   1.008   2.087  1.00  0.00     0.049 A 
ATOM     48  H   UNL     1      11.522   1.369   1.614  1.00  0.00     0.167 HD
ATOM     49  C   UNL     1      13.460   0.828  -0.387  1.00  0.00     0.074 A 
ATOM     50  C   UNL     1      14.070   0.601  -1.681  1.00  0.00     0.031 C 
ATOM     51  C   UNL     1      14.133   0.788   0.790  1.00  0.00     0.031 A 
BRANCH  38  52
ATOM     52  C   UNL     1      10.620   1.874   5.759  1.00  0.00    -0.014 A 
ATOM     53  C   UNL     1      10.046   0.881   6.572  1.00  0.00     0.010 A 
ATOM     54  C   UNL     1      11.168   3.021   6.361  1.00  0.00     0.010 A 
ATOM     55  C   UNL     1       9.993   1.047   7.959  1.00  0.00     0.020 A 
ATOM     56  C   UNL     1      11.136   3.181   7.749  1.00  0.00     0.020 A 
ATOM     57  C   UNL     1      10.534   2.199   8.539  1.00  0.00     0.054 A 
BRANCH  57  58
ATOM     58  S   UNL     1      10.480   2.380  10.344  1.00  0.00     0.124 S 
ATOM     59  O   UNL     1       9.086   2.752  10.566  1.00  0.00    -0.237 OA
ATOM     60  O   UNL     1      10.857   1.050  10.814  1.00  0.00    -0.237 OA
ATOM     61  O   UNL     1      11.457   3.432  10.615  1.00  0.00    -0.744 OA
ENDBRANCH  57  58
ENDBRANCH  38  52
BRANCH  39  62
ATOM     62  C   UNL     1      10.735   1.151  -4.212  1.00  0.00    -0.014 A 
ATOM     63  C   UNL     1      10.909  -0.072  -4.881  1.00  0.00     0.010 A 
ATOM     64  C   UNL     1      10.570   2.328  -4.965  1.00  0.00     0.010 A 
ATOM     65  C   UNL     1      10.932  -0.116  -6.278  1.00  0.00     0.020 A 
ATOM     66  C   UNL     1      10.569   2.285  -6.361  1.00  0.00     0.020 A 
ATOM     67  C   UNL     1      10.762   1.063  -7.010  1.00  0.00     0.054 A 
BRANCH  67  68
ATOM     68  S   UNL     1      10.735   0.981  -8.822  1.00  0.00     0.124 S 
ATOM     69  O   UNL     1      12.157   0.905  -9.143  1.00  0.00    -0.237 OA
ATOM     70  O   UNL     1       9.963  -0.233  -9.076  1.00  0.00    -0.237 OA
ATOM     71  O   UNL     1      10.069   2.223  -9.208  1.00  0.00    -0.744 OA
ENDBRANCH  67  68
ENDBRANCH  39  62
BRANCH  51  72
ATOM     72  C   UNL     1      15.597   0.453   0.726  1.00  0.00    -0.014 A 
ATOM     73  C   UNL     1      16.539   1.394   0.277  1.00  0.00     0.010 A 
ATOM     74  C   UNL     1      16.035  -0.818   1.140  1.00  0.00     0.010 A 
ATOM     75  C   UNL     1      17.892   1.056   0.203  1.00  0.00     0.020 A 
ATOM     76  C   UNL     1      17.390  -1.152   1.087  1.00  0.00     0.020 A 
ATOM     77  C   UNL     1      18.308  -0.219   0.600  1.00  0.00     0.054 A 
BRANCH  77  78
ATOM     78  S   UNL     1      20.071  -0.637   0.510  1.00  0.00     0.124 S 
ATOM     79  O   UNL     1      20.237  -0.940  -0.909  1.00  0.00    -0.237 OA
ATOM     80  O   UNL     1      20.720   0.587   0.971  1.00  0.00    -0.237 OA
ATOM     81  O   UNL     1      20.199  -1.780   1.411  1.00  0.00    -0.744 OA
ENDBRANCH  77  78
ENDBRANCH  51  72
ENDBRANCH  25  26
ENDBRANCH  18  20
ENDBRANCH  17  18
ENDBRANCH   1  17
TORSDOF 16
