REMARK SMILES Cc1c(Cl)cc2c(c1C)O[C@@H](C(F)(F)F)C(C(=O)OCCOC(=O)c1ccc(-c3c4nc(c(-c5ccc(S(=O)(=O)[O-])cc5)c5ccc([nH]5)c(-c5ccc(S(=O)(=O)[O-])cc5)c5nc(c(-c6ccc(S(=O)(=O)[O-])cc6)c6ccc3[nH]6)C=C5)C=C4)cc1)=C2
REMARK SMILES IDX 21 1 20 2 19 3 17 4 18 5 16 6 1 7 2 8 3 9 8 10 4 11 5 12
REMARK SMILES IDX 7 13 9 14 6 15 10 16 85 17 11 18 12 19 13 20 14 21 15 22
REMARK SMILES IDX 22 23 23 24 24 25 25 26 26 27 84 28 27 29 83 30 28 31 29 32
REMARK SMILES IDX 30 33 77 34 31 35 82 36 76 37 78 38 32 39 81 40 75 41 74 42
REMARK SMILES IDX 33 44 63 45 44 46 62 47 45 48 48 49 61 50 79 51 46 52 47 53
REMARK SMILES IDX 60 55 80 56 49 57 34 58 35 59 43 60 36 61 42 62 37 63 38 64
REMARK SMILES IDX 39 65 40 66 41 67 64 68 65 69 73 70 66 71 72 72 67 73 68 74
REMARK SMILES IDX 69 75 70 76 71 77 50 78 51 79 59 80 52 81 58 82 53 83 54 84
REMARK SMILES IDX 55 85 56 86 57 87
REMARK H PARENT 78 43 48 54
REMARK Flexibility Score: inf
ROOT
ATOM      1  C   UNL     1      -3.004   3.314  -9.245  1.00  0.00     0.275 C 
ENDROOT
BRANCH   1   2
ATOM      2  C   UNL     1      -2.072   2.106  -9.293  1.00  0.00     0.275 C 
BRANCH   2   3
ATOM      3  O   UNL     1      -1.917   1.542  -7.973  1.00  0.00    -0.459 OA
BRANCH   3   4
ATOM      4  C   UNL     1      -0.718   1.733  -7.379  1.00  0.00     0.338 C 
ATOM      5  O   UNL     1       0.250   2.283  -7.867  1.00  0.00    -0.246 OA
BRANCH   4   6
ATOM      6  C   UNL     1      -0.748   1.227  -5.995  1.00  0.00     0.087 C 
ATOM      7  C   UNL     1       0.771  -0.063   0.232  1.00  0.00     0.046 C 
ATOM      8  C   UNL     1       0.391   0.462  -1.131  1.00  0.00    -0.026 A 
ATOM      9  C   UNL     1       0.559   1.836  -1.405  1.00  0.00     0.045 A 
ATOM     10  C   UNL     1      -0.043  -0.392  -2.181  1.00  0.00    -0.004 A 
ATOM     11  Cl  UNL     1       1.137   2.951  -0.213  1.00  0.00    -0.084 Cl
ATOM     12  C   UNL     1       0.308   2.355  -2.675  1.00  0.00     0.032 A 
ATOM     13  C   UNL     1      -0.316   0.156  -3.455  1.00  0.00     0.131 A 
ATOM     14  C   UNL     1      -0.217  -1.882  -2.019  1.00  0.00     0.049 C 
ATOM     15  C   UNL     1      -0.110   1.512  -3.702  1.00  0.00     0.019 A 
ATOM     16  O   UNL     1      -0.714  -0.711  -4.443  1.00  0.00    -0.475 OA
ATOM     17  C   UNL     1      -0.216   2.018  -5.056  1.00  0.00     0.027 C 
ATOM     18  C   UNL     1      -1.212  -0.171  -5.704  1.00  0.00     0.316 C 
BRANCH  18  19
ATOM     19  C   UNL     1      -2.733  -0.380  -5.798  1.00  0.00     0.430 C 
ATOM     20  F   UNL     1      -3.439   0.629  -5.248  1.00  0.00    -0.167 F 
ATOM     21  F   UNL     1      -3.136  -0.517  -7.086  1.00  0.00    -0.167 F 
ATOM     22  F   UNL     1      -3.111  -1.525  -5.173  1.00  0.00    -0.167 F 
ENDBRANCH  18  19
ENDBRANCH   4   6
ENDBRANCH   3   4
ENDBRANCH   2   3
ENDBRANCH   1   2
BRANCH   1  23
ATOM     23  O   UNL     1      -2.368   4.372  -8.506  1.00  0.00    -0.458 OA
BRANCH  23  24
ATOM     24  C   UNL     1      -2.955   4.707  -7.335  1.00  0.00     0.338 C 
ATOM     25  O   UNL     1      -3.998   4.269  -6.877  1.00  0.00    -0.246 OA
BRANCH  24  26
ATOM     26  C   UNL     1      -2.113   5.681  -6.622  1.00  0.00     0.060 A 
ATOM     27  C   UNL     1      -0.807   5.334  -6.290  1.00  0.00     0.016 A 
ATOM     28  C   UNL     1      -2.659   6.873  -6.154  1.00  0.00     0.016 A 
ATOM     29  C   UNL     1      -0.095   6.104  -5.373  1.00  0.00     0.010 A 
ATOM     30  C   UNL     1      -1.887   7.715  -5.343  1.00  0.00     0.010 A 
ATOM     31  C   UNL     1      -0.615   7.316  -4.894  1.00  0.00    -0.014 A 
BRANCH  31  32
ATOM     32  C   UNL     1       0.154   8.130  -3.902  1.00  0.00     0.031 A 
ATOM     33  C   UNL     1      -0.468   8.512  -2.576  1.00  0.00     0.074 A 
ATOM     34  C   UNL     1       1.427   8.499  -4.160  1.00  0.00     0.049 A 
ATOM     35  N   UNL     1      -0.002   9.306  -1.645  1.00  0.00    -0.248 NA
ATOM     36  C   UNL     1      -1.788   7.941  -2.262  1.00  0.00     0.031 C 
ATOM     37  C   UNL     1       2.177   8.172  -5.376  1.00  0.00     0.029 A 
ATOM     38  N   UNL     1       2.332   9.205  -3.403  1.00  0.00    -0.354 N 
ATOM     39  C   UNL     1      -0.990   9.371  -0.666  1.00  0.00     0.074 A 
ATOM     40  C   UNL     1      -2.089   8.552  -1.125  1.00  0.00     0.031 C 
ATOM     41  C   UNL     1       3.441   8.600  -5.247  1.00  0.00     0.029 A 
ATOM     42  C   UNL     1       3.571   9.326  -3.990  1.00  0.00     0.049 A 
ATOM     43  H   UNL     1       2.113   9.589  -2.523  1.00  0.00     0.167 HD
ATOM     44  C   UNL     1      -0.982  10.043   0.510  1.00  0.00     0.031 A 
ATOM     45  C   UNL     1       4.684   9.972  -3.587  1.00  0.00     0.031 A 
ATOM     46  C   UNL     1       0.133  10.815   0.993  1.00  0.00     0.049 A 
ATOM     47  C   UNL     1       4.652  10.754  -2.305  1.00  0.00     0.074 A 
ATOM     48  C   UNL     1       0.241  11.518   2.181  1.00  0.00     0.029 A 
ATOM     49  N   UNL     1       1.339  10.968   0.327  1.00  0.00    -0.354 N 
ATOM     50  N   UNL     1       3.687  10.843  -1.422  1.00  0.00    -0.248 NA
ATOM     51  C   UNL     1       5.844  11.551  -1.982  1.00  0.00     0.031 C 
ATOM     52  C   UNL     1       1.495  12.134   2.211  1.00  0.00     0.029 A 
ATOM     53  C   UNL     1       2.186  11.776   1.065  1.00  0.00     0.049 A 
ATOM     54  H   UNL     1       1.559  10.562  -0.543  1.00  0.00     0.167 HD
ATOM     55  C   UNL     1       4.153  11.711  -0.442  1.00  0.00     0.074 A 
ATOM     56  C   UNL     1       5.496  12.096  -0.824  1.00  0.00     0.031 C 
ATOM     57  C   UNL     1       3.517  12.158   0.668  1.00  0.00     0.031 A 
BRANCH  44  58
ATOM     58  C   UNL     1      -2.228   9.998   1.356  1.00  0.00    -0.014 A 
ATOM     59  C   UNL     1      -2.591   8.839   2.065  1.00  0.00     0.010 A 
ATOM     60  C   UNL     1      -3.022  11.154   1.485  1.00  0.00     0.010 A 
ATOM     61  C   UNL     1      -3.744   8.826   2.857  1.00  0.00     0.020 A 
ATOM     62  C   UNL     1      -4.160  11.153   2.297  1.00  0.00     0.020 A 
ATOM     63  C   UNL     1      -4.523   9.982   2.965  1.00  0.00     0.054 A 
BRANCH  63  64
ATOM     64  S   UNL     1      -6.001   9.940   4.016  1.00  0.00     0.124 S 
ATOM     65  O   UNL     1      -6.905   9.102   3.232  1.00  0.00    -0.237 OA
ATOM     66  O   UNL     1      -5.501   9.340   5.250  1.00  0.00    -0.237 OA
ATOM     67  O   UNL     1      -6.393  11.344   4.124  1.00  0.00    -0.744 OA
ENDBRANCH  63  64
ENDBRANCH  44  58
BRANCH  45  68
ATOM     68  C   UNL     1       5.907   9.941  -4.436  1.00  0.00    -0.014 A 
ATOM     69  C   UNL     1       7.050   9.241  -4.013  1.00  0.00     0.010 A 
ATOM     70  C   UNL     1       5.924  10.583  -5.689  1.00  0.00     0.010 A 
ATOM     71  C   UNL     1       8.184   9.179  -4.830  1.00  0.00     0.020 A 
ATOM     72  C   UNL     1       7.044  10.498  -6.520  1.00  0.00     0.020 A 
ATOM     73  C   UNL     1       8.171   9.801  -6.082  1.00  0.00     0.054 A 
BRANCH  73  74
ATOM     74  S   UNL     1       9.625   9.642  -7.155  1.00  0.00     0.124 S 
ATOM     75  O   UNL     1      10.589  10.514  -6.492  1.00  0.00    -0.237 OA
ATOM     76  O   UNL     1       9.913   8.212  -7.086  1.00  0.00    -0.237 OA
ATOM     77  O   UNL     1       9.145  10.111  -8.453  1.00  0.00    -0.744 OA
ENDBRANCH  73  74
ENDBRANCH  45  68
BRANCH  57  78
ATOM     78  C   UNL     1       4.252  13.127   1.551  1.00  0.00    -0.014 A 
ATOM     79  C   UNL     1       4.375  14.477   1.179  1.00  0.00     0.010 A 
ATOM     80  C   UNL     1       4.731  12.711   2.806  1.00  0.00     0.010 A 
ATOM     81  C   UNL     1       4.965  15.396   2.049  1.00  0.00     0.020 A 
ATOM     82  C   UNL     1       5.302  13.632   3.688  1.00  0.00     0.020 A 
ATOM     83  C   UNL     1       5.417  14.970   3.302  1.00  0.00     0.054 A 
BRANCH  83  84
ATOM     84  S   UNL     1       6.095  16.203   4.446  1.00  0.00     0.124 S 
ATOM     85  O   UNL     1       7.371  16.533   3.818  1.00  0.00    -0.237 OA
ATOM     86  O   UNL     1       5.086  17.259   4.411  1.00  0.00    -0.237 OA
ATOM     87  O   UNL     1       6.193  15.485   5.715  1.00  0.00    -0.744 OA
ENDBRANCH  83  84
ENDBRANCH  57  78
ENDBRANCH  31  32
ENDBRANCH  24  26
ENDBRANCH  23  24
ENDBRANCH   1  23
TORSDOF 15
