REMARK SMILES CCn1cc(S(=O)(=O)N2CCC(CCc3ccc(C(=O)OCCOC(=O)c4ccc(-c5c6nc(c(-c7ccc(S(=O)(=O)[O-])cc7)c7ccc([nH]7)c(-c7ccc(S(=O)(=O)[O-])cc7)c7nc(c(-c8ccc(S(=O)(=O)[O-])cc8)c8ccc5[nH]8)C=C7)C=C6)cc4)cc3)CC2)cn1
REMARK SMILES IDX 21 1 19 2 20 3 18 4 15 5 16 6 88 7 17 8 87 9 14 10 13 11
REMARK SMILES IDX 12 12 9 13 10 14 90 15 11 16 89 17 6 18 7 19 8 20 5 21 3 22
REMARK SMILES IDX 4 23 92 24 91 25 2 26 1 27 22 28 23 29 24 30 25 31 26 32
REMARK SMILES IDX 27 33 28 34 86 35 29 36 85 37 30 38 31 39 32 40 79 41 33 42
REMARK SMILES IDX 84 43 78 44 80 45 34 46 83 47 77 48 76 49 35 51 65 52 46 53
REMARK SMILES IDX 64 54 47 55 50 56 63 57 81 58 48 59 49 60 62 62 82 63 51 64
REMARK SMILES IDX 36 65 37 66 45 67 38 68 44 69 39 70 40 71 41 72 42 73 43 74
REMARK SMILES IDX 66 75 67 76 75 77 68 78 74 79 69 80 70 81 71 82 72 83 73 84
REMARK SMILES IDX 52 85 53 86 61 87 54 88 60 89 55 90 56 91 57 92 58 93 59 94
REMARK H PARENT 80 50 50 61
REMARK Flexibility Score: inf
ROOT
ATOM      1  O   UNL     1      -1.413   6.506   0.121  1.00  0.00    -0.458 OA
ENDROOT
BRANCH   1   2
ATOM      2  C   UNL     1      -1.566   7.729  -0.458  1.00  0.00     0.338 C 
ATOM      3  O   UNL     1      -2.133   8.696   0.024  1.00  0.00    -0.246 OA
BRANCH   2   4
ATOM      4  C   UNL     1      -0.841   7.765  -1.750  1.00  0.00     0.060 A 
ATOM      5  C   UNL     1       0.553   7.866  -4.199  1.00  0.00    -0.048 A 
ATOM      6  C   UNL     1       0.395   9.022  -3.421  1.00  0.00     0.004 A 
ATOM      7  C   UNL     1      -0.022   6.674  -3.734  1.00  0.00     0.004 A 
ATOM      8  C   UNL     1      -0.311   8.976  -2.212  1.00  0.00     0.016 A 
ATOM      9  C   UNL     1      -0.679   6.609  -2.507  1.00  0.00     0.016 A 
BRANCH   5  10
ATOM     10  C   UNL     1       1.269   7.932  -5.534  1.00  0.00     0.036 C 
BRANCH  10  11
ATOM     11  C   UNL     1       2.599   7.155  -5.653  1.00  0.00     0.008 C 
BRANCH  11  12
ATOM     12  C   UNL     1       2.504   5.632  -5.460  1.00  0.00    -0.008 C 
ATOM     13  N   UNL     1       2.650   2.795  -6.051  1.00  0.00    -0.198 NA
ATOM     14  C   UNL     1       1.350   3.500  -6.072  1.00  0.00     0.103 C 
ATOM     15  C   UNL     1       3.708   3.438  -5.226  1.00  0.00     0.103 C 
ATOM     16  C   UNL     1       1.542   4.961  -6.450  1.00  0.00     0.020 C 
ATOM     17  C   UNL     1       3.859   4.922  -5.582  1.00  0.00     0.020 C 
BRANCH  13  18
ATOM     18  S   UNL     1       2.545   1.097  -5.936  1.00  0.00     0.246 S 
ATOM     19  O   UNL     1       3.865   0.539  -5.895  1.00  0.00    -0.207 OA
ATOM     20  O   UNL     1       1.556   0.646  -6.909  1.00  0.00    -0.207 OA
BRANCH  18  21
ATOM     21  C   UNL     1       1.846   0.624  -4.441  1.00  0.00     0.120 A 
ATOM     22  N   UNL     1       1.009   0.486  -2.425  1.00  0.00    -0.272 N 
ATOM     23  C   UNL     1       1.573   1.363  -3.311  1.00  0.00     0.130 A 
ATOM     24  N   UNL     1       0.872  -0.760  -2.923  1.00  0.00    -0.180 NA
ATOM     25  C   UNL     1       1.409  -0.675  -4.145  1.00  0.00     0.156 A 
BRANCH  22  26
ATOM     26  C   UNL     1       0.512   0.801  -1.098  1.00  0.00     0.141 C 
ATOM     27  C   UNL     1       1.062  -0.112  -0.015  1.00  0.00     0.029 C 
ENDBRANCH  22  26
ENDBRANCH  18  21
ENDBRANCH  13  18
ENDBRANCH  11  12
ENDBRANCH  10  11
ENDBRANCH   5  10
ENDBRANCH   2   4
ENDBRANCH   1   2
BRANCH   1  28
ATOM     28  C   UNL     1      -1.779   6.418   1.508  1.00  0.00     0.275 C 
BRANCH  28  29
ATOM     29  C   UNL     1      -0.614   6.790   2.411  1.00  0.00     0.275 C 
BRANCH  29  30
ATOM     30  O   UNL     1      -0.274   8.165   2.273  1.00  0.00    -0.458 OA
BRANCH  30  31
ATOM     31  C   UNL     1       0.755   8.414   1.432  1.00  0.00     0.338 C 
ATOM     32  O   UNL     1       1.182   7.693   0.546  1.00  0.00    -0.246 OA
BRANCH  31  33
ATOM     33  C   UNL     1       1.470   9.594   1.915  1.00  0.00     0.060 A 
ATOM     34  C   UNL     1       2.446  10.163   1.091  1.00  0.00     0.016 A 
ATOM     35  C   UNL     1       1.363   9.913   3.276  1.00  0.00     0.016 A 
ATOM     36  C   UNL     1       3.414  10.957   1.670  1.00  0.00     0.010 A 
ATOM     37  C   UNL     1       2.343  10.670   3.854  1.00  0.00     0.010 A 
ATOM     38  C   UNL     1       3.388  11.136   3.056  1.00  0.00    -0.014 A 
BRANCH  38  39
ATOM     39  C   UNL     1       4.386  11.975   3.689  1.00  0.00     0.031 A 
ATOM     40  C   UNL     1       4.140  13.418   3.439  1.00  0.00     0.074 A 
ATOM     41  C   UNL     1       5.245  11.455   4.589  1.00  0.00     0.049 A 
ATOM     42  N   UNL     1       4.915  14.277   2.867  1.00  0.00    -0.248 NA
ATOM     43  C   UNL     1       2.774  13.928   3.696  1.00  0.00     0.031 C 
ATOM     44  C   UNL     1       5.280  10.065   5.069  1.00  0.00     0.029 A 
ATOM     45  N   UNL     1       6.156  12.072   5.388  1.00  0.00    -0.354 N 
ATOM     46  C   UNL     1       4.225  15.486   2.930  1.00  0.00     0.074 A 
ATOM     47  C   UNL     1       2.854  15.166   3.213  1.00  0.00     0.031 C 
ATOM     48  C   UNL     1       5.967  10.011   6.231  1.00  0.00     0.029 A 
ATOM     49  C   UNL     1       6.525  11.324   6.505  1.00  0.00     0.049 A 
ATOM     50  H   UNL     1       6.521  12.966   5.196  1.00  0.00     0.167 HD
ATOM     51  C   UNL     1       4.886  16.661   3.111  1.00  0.00     0.031 A 
ATOM     52  C   UNL     1       7.170  11.776   7.610  1.00  0.00     0.031 A 
ATOM     53  C   UNL     1       6.283  16.526   2.798  1.00  0.00     0.049 A 
ATOM     54  C   UNL     1       7.796  13.069   7.249  1.00  0.00     0.074 A 
ATOM     55  C   UNL     1       7.015  16.269   1.660  1.00  0.00     0.029 A 
ATOM     56  N   UNL     1       7.090  16.255   3.875  1.00  0.00    -0.354 N 
ATOM     57  N   UNL     1       8.751  13.184   6.370  1.00  0.00    -0.248 NA
ATOM     58  C   UNL     1       7.100  14.306   7.576  1.00  0.00     0.031 C 
ATOM     59  C   UNL     1       8.161  15.546   2.099  1.00  0.00     0.029 A 
ATOM     60  C   UNL     1       8.119  15.438   3.491  1.00  0.00     0.049 A 
ATOM     61  H   UNL     1       6.950  16.597   4.787  1.00  0.00     0.167 HD
ATOM     62  C   UNL     1       8.490  14.382   5.725  1.00  0.00     0.074 A 
ATOM     63  C   UNL     1       7.576  15.096   6.609  1.00  0.00     0.031 C 
ATOM     64  C   UNL     1       8.802  14.542   4.406  1.00  0.00     0.031 A 
BRANCH  51  65
ATOM     65  C   UNL     1       4.386  17.735   4.058  1.00  0.00    -0.014 A 
ATOM     66  C   UNL     1       5.133  18.921   4.191  1.00  0.00     0.010 A 
ATOM     67  C   UNL     1       3.388  17.501   5.031  1.00  0.00     0.010 A 
ATOM     68  C   UNL     1       4.929  19.791   5.272  1.00  0.00     0.020 A 
ATOM     69  C   UNL     1       3.149  18.380   6.087  1.00  0.00     0.020 A 
ATOM     70  C   UNL     1       3.943  19.507   6.218  1.00  0.00     0.054 A 
BRANCH  70  71
ATOM     71  S   UNL     1       3.746  20.584   7.658  1.00  0.00     0.124 S 
ATOM     72  O   UNL     1       5.004  20.370   8.366  1.00  0.00    -0.237 OA
ATOM     73  O   UNL     1       3.578  21.895   7.039  1.00  0.00    -0.237 OA
ATOM     74  O   UNL     1       2.555  20.055   8.319  1.00  0.00    -0.744 OA
ENDBRANCH  70  71
ENDBRANCH  51  65
BRANCH  52  75
ATOM     75  C   UNL     1       7.036  11.329   9.021  1.00  0.00    -0.014 A 
ATOM     76  C   UNL     1       7.974  11.722   9.997  1.00  0.00     0.010 A 
ATOM     77  C   UNL     1       5.830  10.754   9.471  1.00  0.00     0.010 A 
ATOM     78  C   UNL     1       7.685  11.612  11.369  1.00  0.00     0.020 A 
ATOM     79  C   UNL     1       5.539  10.633  10.837  1.00  0.00     0.020 A 
ATOM     80  C   UNL     1       6.457  11.089  11.780  1.00  0.00     0.054 A 
BRANCH  80  81
ATOM     81  S   UNL     1       6.012  11.127  13.543  1.00  0.00     0.124 S 
ATOM     82  O   UNL     1       6.902  10.119  14.111  1.00  0.00    -0.237 OA
ATOM     83  O   UNL     1       6.302  12.508  13.915  1.00  0.00    -0.237 OA
ATOM     84  O   UNL     1       4.593  10.773  13.547  1.00  0.00    -0.744 OA
ENDBRANCH  80  81
ENDBRANCH  52  75
BRANCH  64  85
ATOM     85  C   UNL     1       9.815  13.599   3.804  1.00  0.00    -0.014 A 
ATOM     86  C   UNL     1       9.620  12.213   3.647  1.00  0.00     0.010 A 
ATOM     87  C   UNL     1      10.977  14.180   3.270  1.00  0.00     0.010 A 
ATOM     88  C   UNL     1      10.582  11.429   2.990  1.00  0.00     0.020 A 
ATOM     89  C   UNL     1      11.926  13.410   2.598  1.00  0.00     0.020 A 
ATOM     90  C   UNL     1      11.729  12.036   2.469  1.00  0.00     0.054 A 
BRANCH  90  91
ATOM     91  S   UNL     1      12.952  11.031   1.581  1.00  0.00     0.124 S 
ATOM     92  O   UNL     1      13.525  10.213   2.646  1.00  0.00    -0.237 OA
ATOM     93  O   UNL     1      12.135  10.312   0.605  1.00  0.00    -0.237 OA
ATOM     94  O   UNL     1      13.862  12.020   1.004  1.00  0.00    -0.744 OA
ENDBRANCH  90  91
ENDBRANCH  64  85
ENDBRANCH  38  39
ENDBRANCH  31  33
ENDBRANCH  30  31
ENDBRANCH  29  30
ENDBRANCH  28  29
ENDBRANCH   1  28
TORSDOF 20
