REMARK SMILES Cc1ccc2c(c1C)O[C@@H](C(=O)OCCOC(=O)c1ccc(-c3c4nc(c(-c5ccc(S(=O)(=O)[O-])cc5)c5ccc([nH]5)c(-c5ccc(S(=O)(=O)[O-])cc5)c5nc(c(-c6ccc(S(=O)(=O)[O-])cc6)c6ccc3[nH]6)C=C5)C=C4)cc1)CC2=O
REMARK SMILES IDX 16 1 15 2 14 3 13 4 11 5 12 6 10 7 1 8 2 9 3 10 7 11 4 12
REMARK SMILES IDX 6 13 8 14 5 15 9 16 80 17 79 18 81 19 17 20 18 21 19 22
REMARK SMILES IDX 20 23 78 24 21 25 77 26 22 27 23 28 24 29 71 30 25 31 76 32
REMARK SMILES IDX 70 33 72 34 26 35 75 36 69 37 68 38 27 40 57 41 38 42 56 43
REMARK SMILES IDX 39 44 42 45 55 46 73 47 40 48 41 49 54 51 74 52 43 53 28 54
REMARK SMILES IDX 29 55 37 56 30 57 36 58 31 59 32 60 33 61 34 62 35 63 58 64
REMARK SMILES IDX 59 65 67 66 60 67 66 68 61 69 62 70 63 71 64 72 65 73 44 74
REMARK SMILES IDX 45 75 53 76 46 77 52 78 47 79 48 80 49 81 50 82 51 83
REMARK H PARENT 72 39 42 50
REMARK Flexibility Score: inf
ROOT
ATOM      1  O   UNL     1      -4.024   6.078   3.974  1.00  0.00    -0.458 OA
ENDROOT
BRANCH   1   2
ATOM      2  C   UNL     1      -4.443   4.703   3.910  1.00  0.00     0.275 C 
BRANCH   2   3
ATOM      3  C   UNL     1      -3.590   3.913   2.918  1.00  0.00     0.274 C 
BRANCH   3   4
ATOM      4  O   UNL     1      -2.241   3.767   3.404  1.00  0.00    -0.459 OA
BRANCH   4   5
ATOM      5  C   UNL     1      -1.293   4.540   2.813  1.00  0.00     0.347 C 
ATOM      6  O   UNL     1      -1.503   5.301   1.875  1.00  0.00    -0.248 OA
BRANCH   5   7
ATOM      7  C   UNL     1       0.106   4.327   3.414  1.00  0.00     0.290 C 
ATOM      8  C   UNL     1       0.850  -0.429  -0.260  1.00  0.00     0.045 C 
ATOM      9  C   UNL     1       0.621   0.305   1.032  1.00  0.00    -0.044 A 
ATOM     10  C   UNL     1       0.080  -0.403   2.121  1.00  0.00     0.005 A 
ATOM     11  C   UNL     1       0.938   1.674   1.179  1.00  0.00    -0.005 A 
ATOM     12  C   UNL     1      -0.152   0.227   3.341  1.00  0.00     0.016 A 
ATOM     13  C   UNL     1       0.673   2.302   2.409  1.00  0.00     0.134 A 
ATOM     14  C   UNL     1       1.499   2.501   0.049  1.00  0.00     0.049 C 
ATOM     15  C   UNL     1       0.147   1.579   3.481  1.00  0.00     0.060 A 
ATOM     16  O   UNL     1       0.970   3.638   2.511  1.00  0.00    -0.477 OA
ATOM     17  C   UNL     1      -0.085   2.260   4.769  1.00  0.00     0.170 C 
ATOM     18  C   UNL     1       0.167   3.740   4.813  1.00  0.00     0.138 C 
ATOM     19  O   UNL     1      -0.422   1.619   5.760  1.00  0.00    -0.294 OA
ENDBRANCH   5   7
ENDBRANCH   4   5
ENDBRANCH   3   4
ENDBRANCH   2   3
ENDBRANCH   1   2
BRANCH   1  20
ATOM     20  C   UNL     1      -3.119   6.352   4.940  1.00  0.00     0.338 C 
ATOM     21  O   UNL     1      -2.649   5.584   5.759  1.00  0.00    -0.246 OA
BRANCH  20  22
ATOM     22  C   UNL     1      -2.669   7.741   4.813  1.00  0.00     0.060 A 
ATOM     23  C   UNL     1      -1.469   7.997   4.145  1.00  0.00     0.016 A 
ATOM     24  C   UNL     1      -3.366   8.762   5.459  1.00  0.00     0.016 A 
ATOM     25  C   UNL     1      -0.940   9.283   4.145  1.00  0.00     0.010 A 
ATOM     26  C   UNL     1      -2.842  10.056   5.443  1.00  0.00     0.010 A 
ATOM     27  C   UNL     1      -1.617  10.316   4.805  1.00  0.00    -0.014 A 
BRANCH  27  28
ATOM     28  C   UNL     1      -1.015  11.665   4.870  1.00  0.00     0.031 A 
ATOM     29  C   UNL     1      -0.353  12.123   6.137  1.00  0.00     0.074 A 
ATOM     30  C   UNL     1      -1.046  12.460   3.786  1.00  0.00     0.049 A 
ATOM     31  N   UNL     1       0.159  13.292   6.418  1.00  0.00    -0.248 NA
ATOM     32  C   UNL     1      -0.248  11.139   7.228  1.00  0.00     0.031 C 
ATOM     33  C   UNL     1      -1.609  12.094   2.485  1.00  0.00     0.029 A 
ATOM     34  N   UNL     1      -0.590  13.740   3.606  1.00  0.00    -0.354 N 
ATOM     35  C   UNL     1       0.636  13.192   7.719  1.00  0.00     0.074 A 
ATOM     36  C   UNL     1       0.346  11.851   8.177  1.00  0.00     0.031 C 
ATOM     37  C   UNL     1      -1.462  13.127   1.639  1.00  0.00     0.029 A 
ATOM     38  C   UNL     1      -0.834  14.238   2.349  1.00  0.00     0.049 A 
ATOM     39  H   UNL     1      -0.132  14.254   4.310  1.00  0.00     0.167 HD
ATOM     40  C   UNL     1       1.259  14.136   8.460  1.00  0.00     0.031 A 
ATOM     41  C   UNL     1      -0.600  15.460   1.835  1.00  0.00     0.031 A 
ATOM     42  C   UNL     1       1.545  15.466   7.999  1.00  0.00     0.049 A 
ATOM     43  C   UNL     1       0.028  16.513   2.702  1.00  0.00     0.074 A 
ATOM     44  C   UNL     1       2.161  16.499   8.683  1.00  0.00     0.029 A 
ATOM     45  N   UNL     1       1.238  15.947   6.735  1.00  0.00    -0.354 N 
ATOM     46  N   UNL     1       0.438  16.414   3.944  1.00  0.00    -0.248 NA
ATOM     47  C   UNL     1       0.216  17.843   2.106  1.00  0.00     0.031 C 
ATOM     48  C   UNL     1       2.199  17.616   7.842  1.00  0.00     0.029 A 
ATOM     49  C   UNL     1       1.639  17.265   6.623  1.00  0.00     0.049 A 
ATOM     50  H   UNL     1       0.799  15.426   6.024  1.00  0.00     0.167 HD
ATOM     51  C   UNL     1       0.941  17.666   4.276  1.00  0.00     0.074 A 
ATOM     52  C   UNL     1       0.793  18.503   3.103  1.00  0.00     0.031 C 
ATOM     53  C   UNL     1       1.479  18.081   5.448  1.00  0.00     0.031 A 
BRANCH  40  54
ATOM     54  C   UNL     1       1.658  13.774   9.862  1.00  0.00    -0.014 A 
ATOM     55  C   UNL     1       2.821  13.024  10.108  1.00  0.00     0.010 A 
ATOM     56  C   UNL     1       0.902  14.253  10.947  1.00  0.00     0.010 A 
ATOM     57  C   UNL     1       3.217  12.751  11.421  1.00  0.00     0.020 A 
ATOM     58  C   UNL     1       1.303  13.994  12.260  1.00  0.00     0.020 A 
ATOM     59  C   UNL     1       2.458  13.242  12.488  1.00  0.00     0.054 A 
BRANCH  59  60
ATOM     60  S   UNL     1       3.021  12.901  14.179  1.00  0.00     0.124 S 
ATOM     61  O   UNL     1       2.932  11.444  14.241  1.00  0.00    -0.237 OA
ATOM     62  O   UNL     1       4.374  13.448  14.177  1.00  0.00    -0.237 OA
ATOM     63  O   UNL     1       2.061  13.615  15.017  1.00  0.00    -0.744 OA
ENDBRANCH  59  60
ENDBRANCH  40  54
BRANCH  41  64
ATOM     64  C   UNL     1      -0.993  15.750   0.433  1.00  0.00    -0.014 A 
ATOM     65  C   UNL     1      -0.021  15.818  -0.579  1.00  0.00     0.010 A 
ATOM     66  C   UNL     1      -2.349  15.913   0.098  1.00  0.00     0.010 A 
ATOM     67  C   UNL     1      -0.401  16.038  -1.907  1.00  0.00     0.020 A 
ATOM     68  C   UNL     1      -2.734  16.116  -1.230  1.00  0.00     0.020 A 
ATOM     69  C   UNL     1      -1.756  16.177  -2.224  1.00  0.00     0.054 A 
BRANCH  69  70
ATOM     70  S   UNL     1      -2.222  16.398  -3.964  1.00  0.00     0.124 S 
ATOM     71  O   UNL     1      -1.627  17.693  -4.279  1.00  0.00    -0.237 OA
ATOM     72  O   UNL     1      -1.596  15.242  -4.601  1.00  0.00    -0.237 OA
ATOM     73  O   UNL     1      -3.683  16.370  -3.936  1.00  0.00    -0.744 OA
ENDBRANCH  69  70
ENDBRANCH  41  64
BRANCH  53  74
ATOM     74  C   UNL     1       1.963  19.500   5.528  1.00  0.00    -0.014 A 
ATOM     75  C   UNL     1       1.061  20.552   5.758  1.00  0.00     0.010 A 
ATOM     76  C   UNL     1       3.342  19.768   5.479  1.00  0.00     0.010 A 
ATOM     77  C   UNL     1       1.533  21.854   5.938  1.00  0.00     0.020 A 
ATOM     78  C   UNL     1       3.818  21.066   5.674  1.00  0.00     0.020 A 
ATOM     79  C   UNL     1       2.909  22.101   5.904  1.00  0.00     0.054 A 
BRANCH  79  80
ATOM     80  S   UNL     1       3.493  23.791   6.209  1.00  0.00     0.124 S 
ATOM     81  O   UNL     1       2.952  24.515   5.061  1.00  0.00    -0.237 OA
ATOM     82  O   UNL     1       2.882  24.108   7.497  1.00  0.00    -0.237 OA
ATOM     83  O   UNL     1       4.948  23.659   6.229  1.00  0.00    -0.744 OA
ENDBRANCH  79  80
ENDBRANCH  53  74
ENDBRANCH  27  28
ENDBRANCH  20  22
ENDBRANCH   1  20
TORSDOF 14
