REMARK SMILES Cc1ccc(-c2cc(Cl)cc3c2O[C@@H](C(F)(F)F)C(C(=O)OCCOC(=O)c2ccc(-c4c5nc(c(-c6ccc(S(=O)(=O)[O-])cc6)c6ccc([nH]6)c(-c6ccc(S(=O)(=O)[O-])cc6)c6nc(c(-c7ccc(S(=O)(=O)[O-])cc7)c7ccc4[nH]7)C=C6)C=C5)cc2)=C3)cc1
REMARK SMILES IDX 24 1 23 2 22 3 20 4 21 5 19 6 6 7 7 8 12 9 8 10 11 11 13 12
REMARK SMILES IDX 9 13 10 14 88 15 14 16 5 17 1 18 2 19 3 20 90 21 4 22 89 23
REMARK SMILES IDX 15 24 16 25 17 26 18 27 25 28 26 29 27 30 28 31 29 32 87 33
REMARK SMILES IDX 30 34 86 35 31 36 32 37 33 38 80 39 34 40 85 41 79 42 81 43
REMARK SMILES IDX 35 44 84 45 78 46 77 47 36 49 66 50 47 51 65 52 48 53 51 54
REMARK SMILES IDX 64 55 82 56 49 57 50 58 63 60 83 61 52 62 37 63 38 64 46 65
REMARK SMILES IDX 39 66 45 67 40 68 41 69 42 70 43 71 44 72 67 73 68 74 76 75
REMARK SMILES IDX 69 76 75 77 70 78 71 79 72 80 73 81 74 82 53 83 54 84 62 85
REMARK SMILES IDX 55 86 61 87 56 88 57 89 58 90 59 91 60 92
REMARK H PARENT 81 48 51 59
REMARK Flexibility Score: inf
ROOT
ATOM      1  C   UNL     1      -1.712  -4.319   3.807  1.00  0.00     0.275 C 
ENDROOT
BRANCH   1   2
ATOM      2  C   UNL     1      -2.299  -3.328   4.889  1.00  0.00     0.275 C 
BRANCH   2   3
ATOM      3  O   UNL     1      -3.730  -3.186   4.876  1.00  0.00    -0.459 OA
BRANCH   3   4
ATOM      4  C   UNL     1      -4.452  -1.862   5.137  1.00  0.00     0.338 C 
ATOM      5  O   UNL     1      -3.917  -1.225   6.018  1.00  0.00    -0.246 OA
BRANCH   4   6
ATOM      6  C   UNL     1      -6.098  -1.549   4.111  1.00  0.00     0.087 C 
ATOM      7  C   UNL     1      -2.805  -0.068   0.025  1.00  0.00     0.026 A 
ATOM      8  C   UNL     1      -3.594   0.700  -1.459  1.00  0.00     0.033 A 
ATOM      9  C   UNL     1      -3.838  -0.397   1.498  1.00  0.00     0.135 A 
ATOM     10  C   UNL     1      -5.341   1.355  -1.422  1.00  0.00     0.042 A 
ATOM     11  C   UNL     1      -5.732   0.028   1.429  1.00  0.00     0.019 A 
ATOM     12  O   UNL     1      -3.651  -1.655   3.095  1.00  0.00    -0.475 OA
ATOM     13  Cl  UNL     1      -5.991   2.198  -2.787  1.00  0.00    -0.084 Cl
ATOM     14  C   UNL     1      -6.409   0.967   0.006  1.00  0.00     0.032 A 
ATOM     15  C   UNL     1      -6.722  -0.789   2.852  1.00  0.00     0.027 C 
ATOM     16  C   UNL     1      -5.230  -2.660   3.711  1.00  0.00     0.316 C 
BRANCH   7  17
ATOM     17  C   UNL     1      -1.319  -0.211  -0.138  1.00  0.00    -0.015 A 
ATOM     18  C   UNL     1       3.018  -0.364   0.023  1.00  0.00     0.044 C 
ATOM     19  C   UNL     1       1.530  -0.328  -0.114  1.00  0.00    -0.051 A 
ATOM     20  C   UNL     1       0.762  -1.494  -0.115  1.00  0.00     0.004 A 
ATOM     21  C   UNL     1       0.877   0.885  -0.285  1.00  0.00     0.004 A 
ATOM     22  C   UNL     1      -0.640  -1.429  -0.210  1.00  0.00     0.009 A 
ATOM     23  C   UNL     1      -0.517   0.930  -0.292  1.00  0.00     0.009 A 
ENDBRANCH   7  17
BRANCH  16  24
ATOM     24  C   UNL     1      -6.055  -3.458   5.174  1.00  0.00     0.430 C 
ATOM     25  F   UNL     1      -6.706  -2.547   5.996  1.00  0.00    -0.167 F 
ATOM     26  F   UNL     1      -7.055  -4.271   4.737  1.00  0.00    -0.167 F 
ATOM     27  F   UNL     1      -5.308  -4.185   6.030  1.00  0.00    -0.167 F 
ENDBRANCH  16  24
ENDBRANCH   4   6
ENDBRANCH   3   4
ENDBRANCH   2   3
ENDBRANCH   1   2
BRANCH   1  28
ATOM     28  O   UNL     1      -1.954  -4.359   2.354  1.00  0.00    -0.458 OA
BRANCH  28  29
ATOM     29  C   UNL     1      -3.112  -4.079   1.689  1.00  0.00     0.338 C 
ATOM     30  O   UNL     1      -3.853  -4.932   1.237  1.00  0.00    -0.246 OA
BRANCH  29  31
ATOM     31  C   UNL     1      -3.284  -2.623   1.560  1.00  0.00     0.060 A 
ATOM     32  C   UNL     1      -4.878  -1.840   1.950  1.00  0.00     0.016 A 
ATOM     33  C   UNL     1      -1.875  -1.821   2.203  1.00  0.00     0.016 A 
ATOM     34  C   UNL     1      -4.672  -0.258   3.198  1.00  0.00     0.010 A 
ATOM     35  C   UNL     1      -1.897  -0.502   3.217  1.00  0.00     0.010 A 
ATOM     36  C   UNL     1      -3.236   0.291   3.753  1.00  0.00    -0.014 A 
BRANCH  36  37
ATOM     37  C   UNL     1      -3.088   1.331   4.825  1.00  0.00     0.031 A 
ATOM     38  C   UNL     1      -3.939   1.403   6.150  1.00  0.00     0.074 A 
ATOM     39  C   UNL     1      -1.946   2.009   4.496  1.00  0.00     0.049 A 
ATOM     40  N   UNL     1      -3.621   2.198   7.114  1.00  0.00    -0.248 NA
ATOM     41  C   UNL     1      -5.150   0.651   6.627  1.00  0.00     0.031 C 
ATOM     42  C   UNL     1      -0.922   2.784   5.192  1.00  0.00     0.029 A 
ATOM     43  N   UNL     1      -1.589   2.255   3.137  1.00  0.00    -0.354 N 
ATOM     44  C   UNL     1      -4.207   1.771   8.321  1.00  0.00     0.074 A 
ATOM     45  C   UNL     1      -5.142   0.765   7.968  1.00  0.00     0.031 C 
ATOM     46  C   UNL     1      -0.354   3.647   4.310  1.00  0.00     0.029 A 
ATOM     47  C   UNL     1      -1.129   3.562   3.075  1.00  0.00     0.049 A 
ATOM     48  H   UNL     1      -1.657   1.619   2.388  1.00  0.00     0.167 HD
ATOM     49  C   UNL     1      -3.710   2.284   9.481  1.00  0.00     0.031 A 
ATOM     50  C   UNL     1      -2.010   4.500   2.608  1.00  0.00     0.031 A 
ATOM     51  C   UNL     1      -2.834   3.369   9.090  1.00  0.00     0.049 A 
ATOM     52  C   UNL     1      -2.351   5.474   3.670  1.00  0.00     0.074 A 
ATOM     53  C   UNL     1      -1.486   3.393   8.806  1.00  0.00     0.029 A 
ATOM     54  N   UNL     1      -3.413   4.429   8.429  1.00  0.00    -0.354 N 
ATOM     55  N   UNL     1      -2.508   5.160   4.921  1.00  0.00    -0.248 NA
ATOM     56  C   UNL     1      -2.595   6.867   3.364  1.00  0.00     0.031 C 
ATOM     57  C   UNL     1      -1.271   4.498   7.933  1.00  0.00     0.029 A 
ATOM     58  C   UNL     1      -2.480   5.145   7.720  1.00  0.00     0.049 A 
ATOM     59  H   UNL     1      -4.373   4.646   8.460  1.00  0.00     0.167 HD
ATOM     60  C   UNL     1      -2.833   6.286   5.611  1.00  0.00     0.074 A 
ATOM     61  C   UNL     1      -2.998   7.295   4.568  1.00  0.00     0.031 C 
ATOM     62  C   UNL     1      -2.949   6.296   6.972  1.00  0.00     0.031 A 
BRANCH  49  63
ATOM     63  C   UNL     1      -3.785   1.866  10.942  1.00  0.00    -0.014 A 
ATOM     64  C   UNL     1      -2.990   2.634  11.832  1.00  0.00     0.010 A 
ATOM     65  C   UNL     1      -4.437   0.755  11.515  1.00  0.00     0.010 A 
ATOM     66  C   UNL     1      -2.797   2.313  13.177  1.00  0.00     0.020 A 
ATOM     67  C   UNL     1      -4.266   0.428  12.893  1.00  0.00     0.020 A 
ATOM     68  C   UNL     1      -3.435   1.206  13.709  1.00  0.00     0.054 A 
BRANCH  68  69
ATOM     69  S   UNL     1      -3.147   0.854  15.468  1.00  0.00     0.124 S 
ATOM     70  O   UNL     1      -1.704   0.621  15.513  1.00  0.00    -0.237 OA
ATOM     71  O   UNL     1      -3.599   2.083  16.114  1.00  0.00    -0.237 OA
ATOM     72  O   UNL     1      -3.970  -0.323  15.731  1.00  0.00    -0.744 OA
ENDBRANCH  68  69
ENDBRANCH  49  63
BRANCH  50  73
ATOM     73  C   UNL     1      -3.063   3.942   1.701  1.00  0.00    -0.014 A 
ATOM     74  C   UNL     1      -2.734   3.635   0.414  1.00  0.00     0.010 A 
ATOM     75  C   UNL     1      -4.242   3.363   2.168  1.00  0.00     0.010 A 
ATOM     76  C   UNL     1      -3.363   2.527  -0.213  1.00  0.00     0.020 A 
ATOM     77  C   UNL     1      -4.879   2.224   1.526  1.00  0.00     0.020 A 
ATOM     78  C   UNL     1      -4.353   1.412   0.363  1.00  0.00     0.054 A 
BRANCH  78  79
ATOM     79  S   UNL     1      -5.064  -0.790  -0.717  1.00  0.00     0.124 S 
ATOM     80  O   UNL     1      -5.279  -0.672  -2.194  1.00  0.00    -0.237 OA
ATOM     81  O   UNL     1      -4.031  -1.834  -0.603  1.00  0.00    -0.237 OA
ATOM     82  O   UNL     1      -6.370  -1.315  -0.232  1.00  0.00    -0.744 OA
ENDBRANCH  78  79
ENDBRANCH  50  73
BRANCH  62  83
ATOM     83  C   UNL     1      -3.610   7.416   7.719  1.00  0.00    -0.014 A 
ATOM     84  C   UNL     1      -3.588   8.726   7.250  1.00  0.00     0.010 A 
ATOM     85  C   UNL     1      -4.284   7.187   8.944  1.00  0.00     0.010 A 
ATOM     86  C   UNL     1      -4.346   9.718   7.852  1.00  0.00     0.020 A 
ATOM     87  C   UNL     1      -4.987   8.186   9.604  1.00  0.00     0.020 A 
ATOM     88  C   UNL     1      -5.034   9.444   9.030  1.00  0.00     0.054 A 
BRANCH  88  89
ATOM     89  S   UNL     1      -5.853  10.809   9.854  1.00  0.00     0.124 S 
ATOM     90  O   UNL     1      -4.780  11.799   9.927  1.00  0.00    -0.237 OA
ATOM     91  O   UNL     1      -6.932  11.120   8.920  1.00  0.00    -0.237 OA
ATOM     92  O   UNL     1      -6.271  10.247  11.134  1.00  0.00    -0.744 OA
ENDBRANCH  88  89
ENDBRANCH  62  83
ENDBRANCH  36  37
ENDBRANCH  29  31
ENDBRANCH  28  29
ENDBRANCH   1  28
TORSDOF 16
