REMARK SMILES Cc1ccc(C(=O)N2C[C@H](C(=O)OCCOC(=O)c3ccc(-c4c5nc(c(-c6ccc(S(=O)(=O)[O-])cc6)c6ccc([nH]6)c(-c6ccc(S(=O)(=O)[O-])cc6)c6nc(c(-c7ccc(S(=O)(=O)[O-])cc7)c7ccc4[nH]7)C=C6)C=C5)cc3)Oc3ccccc32)o1
REMARK SMILES IDX 15 1 14 2 13 3 11 4 12 5 10 6 8 7 9 8 85 9 80 10 84 11 79 12
REMARK SMILES IDX 81 13 83 14 82 15 6 16 7 17 5 18 1 19 2 20 3 21 86 22 4 23
REMARK SMILES IDX 16 24 17 25 18 26 19 27 20 28 78 29 21 30 77 31 22 32 23 33
REMARK SMILES IDX 24 34 71 35 25 36 76 37 70 38 72 39 26 40 75 41 69 42 68 43
REMARK SMILES IDX 27 45 57 46 38 47 56 48 39 49 42 50 55 51 73 52 40 53 41 54
REMARK SMILES IDX 54 56 74 57 43 58 28 59 29 60 37 61 30 62 36 63 31 64 32 65
REMARK SMILES IDX 33 66 34 67 35 68 58 69 59 70 67 71 60 72 66 73 61 74 62 75
REMARK SMILES IDX 63 76 64 77 65 78 44 79 45 80 53 81 46 82 52 83 47 84 48 85
REMARK SMILES IDX 49 86 50 87 51 88
REMARK H PARENT 72 44 42 55
REMARK Flexibility Score: inf
ROOT
ATOM      1  C   UNL     1      -6.017  -1.695   4.902  1.00  0.00     0.275 C 
ENDROOT
BRANCH   1   2
ATOM      2  C   UNL     1      -6.955  -1.661   3.688  1.00  0.00     0.274 C 
BRANCH   2   3
ATOM      3  O   UNL     1      -6.333  -1.084   2.519  1.00  0.00    -0.459 OA
BRANCH   3   4
ATOM      4  C   UNL     1      -6.601   0.234   2.309  1.00  0.00     0.349 C 
ATOM      5  O   UNL     1      -7.328   0.910   3.031  1.00  0.00    -0.248 OA
BRANCH   4   6
ATOM      6  C   UNL     1      -5.941   0.801   1.063  1.00  0.00     0.302 C 
ATOM      7  N   UNL     1      -3.979   0.981  -0.387  1.00  0.00    -0.298 N 
ATOM      8  C   UNL     1      -4.553   0.247   0.754  1.00  0.00     0.183 C 
ATOM      9  C   UNL     1      -4.921   1.415  -1.376  1.00  0.00     0.087 A 
ATOM     10  C   UNL     1      -6.295   1.167  -1.187  1.00  0.00     0.144 A 
ATOM     11  C   UNL     1      -4.520   2.037  -2.565  1.00  0.00     0.030 A 
ATOM     12  O   UNL     1      -6.809   0.580  -0.053  1.00  0.00    -0.475 OA
ATOM     13  C   UNL     1      -7.230   1.517  -2.163  1.00  0.00     0.049 A 
ATOM     14  C   UNL     1      -5.459   2.408  -3.532  1.00  0.00     0.002 A 
ATOM     15  C   UNL     1      -6.812   2.146  -3.333  1.00  0.00     0.004 A 
BRANCH   7  16
ATOM     16  C   UNL     1      -2.641   1.403  -0.400  1.00  0.00     0.294 C 
ATOM     17  O   UNL     1      -2.343   2.551  -0.737  1.00  0.00    -0.265 OA
BRANCH  16  18
ATOM     18  C   UNL     1      -1.619   0.415  -0.083  1.00  0.00     0.192 A 
ATOM     19  C   UNL     1       1.939   0.059   0.182  1.00  0.00     0.087 C 
ATOM     20  C   UNL     1       0.489  -0.218   0.149  1.00  0.00     0.101 A 
ATOM     21  C   UNL     1      -0.268  -1.363   0.240  1.00  0.00     0.046 A 
ATOM     22  O   UNL     1      -0.320   0.858  -0.034  1.00  0.00    -0.456 OA
ATOM     23  C   UNL     1      -1.619  -0.959   0.088  1.00  0.00     0.056 A 
ENDBRANCH  16  18
ENDBRANCH   7  16
ENDBRANCH   4   6
ENDBRANCH   3   4
ENDBRANCH   2   3
ENDBRANCH   1   2
BRANCH   1  24
ATOM     24  O   UNL     1      -5.698  -0.381   5.397  1.00  0.00    -0.458 OA
BRANCH  24  25
ATOM     25  C   UNL     1      -4.620   0.192   4.811  1.00  0.00     0.338 C 
ATOM     26  O   UNL     1      -3.921  -0.300   3.941  1.00  0.00    -0.246 OA
BRANCH  25  27
ATOM     27  C   UNL     1      -4.463   1.588   5.250  1.00  0.00     0.060 A 
ATOM     28  C   UNL     1      -4.452   2.580   4.265  1.00  0.00     0.016 A 
ATOM     29  C   UNL     1      -4.204   1.910   6.583  1.00  0.00     0.016 A 
ATOM     30  C   UNL     1      -4.152   3.896   4.601  1.00  0.00     0.010 A 
ATOM     31  C   UNL     1      -3.899   3.234   6.920  1.00  0.00     0.010 A 
ATOM     32  C   UNL     1      -3.845   4.228   5.925  1.00  0.00    -0.014 A 
BRANCH  32  33
ATOM     33  C   UNL     1      -3.368   5.596   6.234  1.00  0.00     0.031 A 
ATOM     34  C   UNL     1      -1.898   5.837   6.442  1.00  0.00     0.074 A 
ATOM     35  C   UNL     1      -4.235   6.624   6.269  1.00  0.00     0.049 A 
ATOM     36  N   UNL     1      -1.278   6.949   6.743  1.00  0.00    -0.248 NA
ATOM     37  C   UNL     1      -1.010   4.673   6.290  1.00  0.00     0.031 C 
ATOM     38  C   UNL     1      -5.675   6.524   6.029  1.00  0.00     0.029 A 
ATOM     39  N   UNL     1      -4.027   7.958   6.513  1.00  0.00    -0.354 N 
ATOM     40  C   UNL     1       0.069   6.617   6.835  1.00  0.00     0.074 A 
ATOM     41  C   UNL     1       0.174   5.197   6.574  1.00  0.00     0.031 C 
ATOM     42  C   UNL     1      -6.220   7.748   6.129  1.00  0.00     0.029 A 
ATOM     43  C   UNL     1      -5.176   8.710   6.475  1.00  0.00     0.049 A 
ATOM     44  H   UNL     1      -3.138   8.339   6.697  1.00  0.00     0.167 HD
ATOM     45  C   UNL     1       1.123   7.422   7.109  1.00  0.00     0.031 A 
ATOM     46  C   UNL     1      -5.367  10.023   6.708  1.00  0.00     0.031 A 
ATOM     47  C   UNL     1       1.018   8.834   7.363  1.00  0.00     0.049 A 
ATOM     48  C   UNL     1      -4.186  10.889   7.051  1.00  0.00     0.074 A 
ATOM     49  C   UNL     1       2.026   9.734   7.661  1.00  0.00     0.029 A 
ATOM     50  N   UNL     1      -0.168   9.553   7.343  1.00  0.00    -0.354 N 
ATOM     51  N   UNL     1      -2.922  10.556   7.155  1.00  0.00    -0.248 NA
ATOM     52  C   UNL     1      -4.458  12.311   7.306  1.00  0.00     0.031 C 
ATOM     53  C   UNL     1       1.445  10.993   7.854  1.00  0.00     0.029 A 
ATOM     54  C   UNL     1       0.081  10.884   7.634  1.00  0.00     0.049 A 
ATOM     55  H   UNL     1      -1.055   9.174   7.149  1.00  0.00     0.167 HD
ATOM     56  C   UNL     1      -2.245  11.729   7.466  1.00  0.00     0.074 A 
ATOM     57  C   UNL     1      -3.238  12.783   7.522  1.00  0.00     0.031 C 
ATOM     58  C   UNL     1      -0.920  11.918   7.684  1.00  0.00     0.031 A 
BRANCH  45  59
ATOM     59  C   UNL     1       2.480   6.777   7.189  1.00  0.00    -0.014 A 
ATOM     60  C   UNL     1       3.161   6.365   6.030  1.00  0.00     0.010 A 
ATOM     61  C   UNL     1       3.087   6.593   8.444  1.00  0.00     0.010 A 
ATOM     62  C   UNL     1       4.409   5.742   6.129  1.00  0.00     0.020 A 
ATOM     63  C   UNL     1       4.344   5.991   8.545  1.00  0.00     0.020 A 
ATOM     64  C   UNL     1       4.989   5.551   7.387  1.00  0.00     0.054 A 
BRANCH  64  65
ATOM     65  S   UNL     1       6.609   4.742   7.493  1.00  0.00     0.124 S 
ATOM     66  O   UNL     1       6.258   3.338   7.288  1.00  0.00    -0.237 OA
ATOM     67  O   UNL     1       7.356   5.367   6.404  1.00  0.00    -0.237 OA
ATOM     68  O   UNL     1       7.076   5.076   8.836  1.00  0.00    -0.744 OA
ENDBRANCH  64  65
ENDBRANCH  45  59
BRANCH  46  69
ATOM     69  C   UNL     1      -6.739  10.593   6.641  1.00  0.00    -0.014 A 
ATOM     70  C   UNL     1      -7.116  11.435   5.581  1.00  0.00     0.010 A 
ATOM     71  C   UNL     1      -7.681  10.283   7.639  1.00  0.00     0.010 A 
ATOM     72  C   UNL     1      -8.408  11.968   5.527  1.00  0.00     0.020 A 
ATOM     73  C   UNL     1      -8.979  10.794   7.575  1.00  0.00     0.020 A 
ATOM     74  C   UNL     1      -9.332  11.643   6.525  1.00  0.00     0.054 A 
BRANCH  74  75
ATOM     75  S   UNL     1     -11.021  12.296   6.409  1.00  0.00     0.124 S 
ATOM     76  O   UNL     1     -10.848  13.667   6.878  1.00  0.00    -0.237 OA
ATOM     77  O   UNL     1     -11.325  12.147   4.988  1.00  0.00    -0.237 OA
ATOM     78  O   UNL     1     -11.785  11.421   7.295  1.00  0.00    -0.744 OA
ENDBRANCH  74  75
ENDBRANCH  46  69
BRANCH  58  79
ATOM     79  C   UNL     1      -0.462  13.322   7.972  1.00  0.00    -0.014 A 
ATOM     80  C   UNL     1      -0.684  13.915   9.227  1.00  0.00     0.010 A 
ATOM     81  C   UNL     1       0.242  14.037   6.987  1.00  0.00     0.010 A 
ATOM     82  C   UNL     1      -0.233  15.213   9.482  1.00  0.00     0.020 A 
ATOM     83  C   UNL     1       0.713  15.327   7.245  1.00  0.00     0.020 A 
ATOM     84  C   UNL     1       0.459  15.913   8.488  1.00  0.00     0.054 A 
BRANCH  84  85
ATOM     85  S   UNL     1       1.071  17.581   8.852  1.00  0.00     0.124 S 
ATOM     86  O   UNL     1      -0.141  18.385   8.720  1.00  0.00    -0.237 OA
ATOM     87  O   UNL     1       1.590  17.447  10.211  1.00  0.00    -0.237 OA
ATOM     88  O   UNL     1       2.086  17.808   7.826  1.00  0.00    -0.744 OA
ENDBRANCH  84  85
ENDBRANCH  58  79
ENDBRANCH  32  33
ENDBRANCH  25  27
ENDBRANCH  24  25
ENDBRANCH   1  24
TORSDOF 16
