REMARK SMILES Cc1cc(/C=C2/C(=O)NC(=S)N=C2OCCOC(=O)c2ccc(-c3c4nc(c(-c5ccc(S(=O)(=O)[O-])cc5)c5ccc([nH]5)c(-c5ccc(S(=O)(=O)[O-])cc5)c5nc(c(-c6ccc(S(=O)(=O)[O-])cc6)c6ccc3[nH]6)C=C5)C=C4)cc2)c(C)n1-c1cccc(C(=O)[O-])c1
REMARK SMILES IDX 16 1 15 2 14 3 13 4 5 5 6 6 7 7 8 8 9 9 12 10 10 11 11 13
REMARK SMILES IDX 4 14 1 15 2 16 3 17 82 18 80 19 81 20 83 21 84 22 91 23
REMARK SMILES IDX 85 24 87 25 86 26 88 27 89 28 90 29 17 30 18 31 19 32 20 33
REMARK SMILES IDX 21 34 79 35 22 36 78 37 23 38 24 39 25 40 72 41 26 42 77 43
REMARK SMILES IDX 71 44 73 45 27 46 76 47 70 48 69 49 28 51 58 52 39 53 57 54
REMARK SMILES IDX 40 55 43 56 56 57 74 58 41 59 42 60 55 62 75 63 44 64 29 65
REMARK SMILES IDX 30 66 38 67 31 68 37 69 32 70 33 71 34 72 35 73 36 74 59 75
REMARK SMILES IDX 60 76 68 77 61 78 67 79 62 80 63 81 64 82 65 83 66 84 45 85
REMARK SMILES IDX 46 86 54 87 47 88 53 89 48 90 49 91 50 92 51 93 52 94
REMARK H PARENT 9 12 73 50 43 61
REMARK Flexibility Score: inf
ROOT
ATOM      1  C   UNL     1      -1.314  -4.131  -5.593  1.00  0.00     0.274 C 
ENDROOT
BRANCH   1   2
ATOM      2  C   UNL     1      -2.201  -3.941  -4.398  1.00  0.00     0.273 C 
BRANCH   2   3
ATOM      3  O   UNL     1      -1.299  -4.536  -3.405  1.00  0.00    -0.473 OA
BRANCH   3   4
ATOM      4  C   UNL     1      -1.345  -5.588  -2.628  1.00  0.00     0.229 C 
ATOM      5  C   UNL     1       0.470  -4.770  -0.875  1.00  0.00     0.029 C 
ATOM      6  C   UNL     1      -0.219  -5.683  -1.635  1.00  0.00     0.103 C 
ATOM      7  C   UNL     1       0.174  -7.118  -1.485  1.00  0.00     0.262 C 
ATOM      8  O   UNL     1       0.950  -7.530  -0.627  1.00  0.00    -0.269 OA
ATOM      9  N   UNL     1      -0.477  -7.983  -2.355  1.00  0.00    -0.297 N 
ATOM     10  N   UNL     1      -2.141  -6.477  -3.056  1.00  0.00    -0.184 NA
ATOM     11  C   UNL     1      -1.620  -7.717  -3.097  1.00  0.00     0.203 C 
ATOM     12  H   UNL     1      -0.087  -8.881  -2.456  1.00  0.00     0.172 HD
ATOM     13  S   UNL     1      -2.350  -8.796  -4.155  1.00  0.00    -0.038 S 
BRANCH   5  14
ATOM     14  C   UNL     1       0.371  -3.319  -0.745  1.00  0.00    -0.003 A 
ATOM     15  C   UNL     1       1.088   0.212   0.153  1.00  0.00     0.065 C 
ATOM     16  C   UNL     1       0.707  -1.092  -0.348  1.00  0.00     0.020 A 
ATOM     17  C   UNL     1       1.116  -2.386   0.008  1.00  0.00     0.031 A 
ATOM     18  N   UNL     1      -0.323  -1.161  -1.216  1.00  0.00    -0.318 N 
ATOM     19  C   UNL     1      -0.509  -2.477  -1.351  1.00  0.00     0.027 A 
ATOM     20  C   UNL     1      -1.428  -2.738  -2.342  1.00  0.00     0.065 C 
BRANCH  18  21
ATOM     21  C   UNL     1      -1.103  -0.158  -1.917  1.00  0.00     0.046 A 
ATOM     22  C   UNL     1      -2.528  -0.248  -1.921  1.00  0.00     0.026 A 
ATOM     23  C   UNL     1      -0.478   0.698  -2.821  1.00  0.00     0.036 A 
ATOM     24  C   UNL     1      -3.296   0.481  -2.823  1.00  0.00     0.003 A 
ATOM     25  C   UNL     1      -1.266   1.557  -3.604  1.00  0.00    -0.001 A 
ATOM     26  C   UNL     1      -2.671   1.464  -3.578  1.00  0.00     0.010 A 
BRANCH  25  27
ATOM     27  C   UNL     1      -0.650   2.586  -4.477  1.00  0.00     0.072 C 
ATOM     28  O   UNL     1      -1.263   3.407  -5.133  1.00  0.00    -0.545 OA
ATOM     29  O   UNL     1       0.695   2.538  -4.455  1.00  0.00    -0.545 OA
ENDBRANCH  25  27
ENDBRANCH  18  21
ENDBRANCH   5  14
ENDBRANCH   3   4
ENDBRANCH   2   3
ENDBRANCH   1   2
BRANCH   1  30
ATOM     30  O   UNL     1      -0.905  -5.668  -5.912  1.00  0.00    -0.458 OA
BRANCH  30  31
ATOM     31  C   UNL     1       0.198  -6.533  -5.376  1.00  0.00     0.338 C 
ATOM     32  O   UNL     1       0.795  -6.011  -4.419  1.00  0.00    -0.246 OA
BRANCH  31  33
ATOM     33  C   UNL     1       0.674  -8.132  -6.291  1.00  0.00     0.060 A 
ATOM     34  C   UNL     1       0.868  -9.587  -6.382  1.00  0.00     0.016 A 
ATOM     35  C   UNL     1       0.789  -8.128  -7.709  1.00  0.00     0.016 A 
ATOM     36  C   UNL     1       1.272 -10.637  -7.922  1.00  0.00     0.010 A 
ATOM     37  C   UNL     1       1.017  -9.272  -9.174  1.00  0.00     0.010 A 
ATOM     38  C   UNL     1       1.450 -10.818  -9.857  1.00  0.00    -0.014 A 
BRANCH  38  39
ATOM     39  C   UNL     1       2.118 -12.447 -11.267  1.00  0.00     0.031 A 
ATOM     40  C   UNL     1       2.415 -13.686  -9.414  1.00  0.00     0.074 A 
ATOM     41  C   UNL     1       2.171 -12.982 -13.161  1.00  0.00     0.049 A 
ATOM     42  N   UNL     1       1.889 -13.012  -8.146  1.00  0.00    -0.248 NA
ATOM     43  C   UNL     1       1.027 -14.418  -8.129  1.00  0.00     0.031 C 
ATOM     44  C   UNL     1       2.237 -13.557 -15.092  1.00  0.00     0.029 A 
ATOM     45  N   UNL     1       2.545 -14.571 -14.274  1.00  0.00    -0.354 N 
ATOM     46  C   UNL     1       0.583 -12.798  -8.649  1.00  0.00     0.074 A 
ATOM     47  C   UNL     1      -0.145 -13.952  -8.569  1.00  0.00     0.031 C 
ATOM     48  C   UNL     1       2.407 -14.440 -16.440  1.00  0.00     0.029 A 
ATOM     49  C   UNL     1       2.581 -15.628 -15.828  1.00  0.00     0.049 A 
ATOM     50  H   UNL     1       2.968 -15.172 -13.619  1.00  0.00     0.167 HD
ATOM     51  C   UNL     1       1.058 -12.613  -9.813  1.00  0.00     0.031 A 
ATOM     52  C   UNL     1       2.324 -17.080 -16.639  1.00  0.00     0.031 A 
ATOM     53  C   UNL     1       0.902 -14.097 -10.770  1.00  0.00     0.049 A 
ATOM     54  C   UNL     1       1.819 -17.612 -15.434  1.00  0.00     0.074 A 
ATOM     55  C   UNL     1       0.208 -15.254 -10.624  1.00  0.00     0.029 A 
ATOM     56  N   UNL     1       2.235 -14.712 -11.115  1.00  0.00    -0.354 N 
ATOM     57  N   UNL     1       2.633 -17.616 -14.434  1.00  0.00    -0.248 NA
ATOM     58  C   UNL     1       0.401 -17.373 -15.362  1.00  0.00     0.031 C 
ATOM     59  C   UNL     1       0.637 -15.918 -11.699  1.00  0.00     0.029 A 
ATOM     60  C   UNL     1       1.944 -15.582 -11.976  1.00  0.00     0.049 A 
ATOM     61  H   UNL     1       3.122 -14.486 -10.753  1.00  0.00     0.167 HD
ATOM     62  C   UNL     1       2.141 -16.640 -13.649  1.00  0.00     0.074 A 
ATOM     63  C   UNL     1       0.532 -16.674 -14.229  1.00  0.00     0.031 C 
ATOM     64  C   UNL     1       3.087 -15.703 -12.819  1.00  0.00     0.031 A 
BRANCH  51  65
ATOM     65  C   UNL     1       3.054 -11.857  -9.582  1.00  0.00    -0.014 A 
ATOM     66  C   UNL     1       4.079 -11.885  -8.501  1.00  0.00     0.010 A 
ATOM     67  C   UNL     1       3.584 -10.791 -10.597  1.00  0.00     0.010 A 
ATOM     68  C   UNL     1       5.148 -10.891  -8.370  1.00  0.00     0.020 A 
ATOM     69  C   UNL     1       4.583  -9.848 -10.451  1.00  0.00     0.020 A 
ATOM     70  C   UNL     1       5.385  -9.905  -9.347  1.00  0.00     0.054 A 
BRANCH  70  71
ATOM     71  S   UNL     1       6.816  -8.772  -9.331  1.00  0.00     0.124 S 
ATOM     72  O   UNL     1       6.615  -7.991  -8.113  1.00  0.00    -0.237 OA
ATOM     73  O   UNL     1       7.939  -9.702  -9.302  1.00  0.00    -0.237 OA
ATOM     74  O   UNL     1       6.664  -8.006 -10.568  1.00  0.00    -0.744 OA
ENDBRANCH  70  71
ENDBRANCH  51  65
BRANCH  52  75
ATOM     75  C   UNL     1       1.556 -18.162 -17.994  1.00  0.00    -0.014 A 
ATOM     76  C   UNL     1       1.764 -19.588 -18.542  1.00  0.00     0.010 A 
ATOM     77  C   UNL     1       0.206 -17.889 -18.443  1.00  0.00     0.010 A 
ATOM     78  C   UNL     1       0.768 -20.472 -19.380  1.00  0.00     0.020 A 
ATOM     79  C   UNL     1      -0.805 -18.770 -19.183  1.00  0.00     0.020 A 
ATOM     80  C   UNL     1      -0.539 -20.065 -19.618  1.00  0.00     0.054 A 
BRANCH  80  81
ATOM     81  S   UNL     1      -1.880 -21.198 -20.326  1.00  0.00     0.124 S 
ATOM     82  O   UNL     1      -1.394 -21.518 -21.666  1.00  0.00    -0.237 OA
ATOM     83  O   UNL     1      -1.897 -22.324 -19.393  1.00  0.00    -0.237 OA
ATOM     84  O   UNL     1      -3.091 -20.377 -20.297  1.00  0.00    -0.744 OA
ENDBRANCH  80  81
ENDBRANCH  52  75
BRANCH  64  85
ATOM     85  C   UNL     1       4.297 -14.115 -13.194  1.00  0.00    -0.014 A 
ATOM     86  C   UNL     1       4.479 -12.900 -14.510  1.00  0.00     0.010 A 
ATOM     87  C   UNL     1       5.549 -14.383 -12.878  1.00  0.00     0.010 A 
ATOM     88  C   UNL     1       5.505 -12.716 -15.484  1.00  0.00     0.020 A 
ATOM     89  C   UNL     1       6.631 -13.742 -13.607  1.00  0.00     0.020 A 
ATOM     90  C   UNL     1       6.642 -12.987 -14.858  1.00  0.00     0.054 A 
BRANCH  90  91
ATOM     91  S   UNL     1       8.073 -12.055 -15.429  1.00  0.00     0.124 S 
ATOM     92  O   UNL     1       8.390 -12.698 -16.703  1.00  0.00    -0.237 OA
ATOM     93  O   UNL     1       7.556 -10.692 -15.547  1.00  0.00    -0.237 OA
ATOM     94  O   UNL     1       9.011 -12.298 -14.343  1.00  0.00    -0.744 OA
ENDBRANCH  90  91
ENDBRANCH  64  85
ENDBRANCH  38  39
ENDBRANCH  31  33
ENDBRANCH  30  31
ENDBRANCH   1  30
TORSDOF 16
