REMARK SMILES CS(=O)(=O)c1ccc(/C=C(/C(=O)OCCOC(=O)c2ccc(-c3c4nc(c(-c5ccc(S(=O)(=O)[O-])cc5)c5ccc([nH]5)c(-c5ccc(S(=O)(=O)[O-])cc5)c5nc(c(-c6ccc(S(=O)(=O)[O-])cc6)c6ccc3[nH]6)C=C5)C=C4)cc2)c2ccc(-c3ccc(F)cc3F)cc2)cc1
REMARK SMILES IDX 15 1 14 2 13 3 11 4 12 5 10 6 9 7 8 8 5 9 6 10 94 11 7 12
REMARK SMILES IDX 93 13 2 14 1 15 3 16 4 17 79 18 80 19 92 20 81 21 91 22
REMARK SMILES IDX 82 23 83 24 84 25 89 26 85 27 88 28 90 29 86 30 87 31 16 32
REMARK SMILES IDX 17 33 18 34 19 35 20 36 78 37 21 38 77 39 22 40 23 41 24 42
REMARK SMILES IDX 71 43 25 44 76 45 70 46 72 47 26 48 75 49 69 50 68 51 27 53
REMARK SMILES IDX 57 54 38 55 56 56 39 57 42 58 55 59 73 60 40 61 41 62 54 64
REMARK SMILES IDX 74 65 43 66 28 67 29 68 37 69 30 70 36 71 31 72 32 73 33 74
REMARK SMILES IDX 34 75 35 76 58 77 59 78 67 79 60 80 66 81 61 82 62 83 63 84
REMARK SMILES IDX 64 85 65 86 44 87 45 88 53 89 46 90 52 91 47 92 48 93 49 94
REMARK SMILES IDX 50 95 51 96
REMARK H PARENT 72 52 42 63
REMARK Flexibility Score: inf
ROOT
ATOM      1  C   UNL     1       1.698   7.026   9.052  1.00  0.00     0.275 C 
ENDROOT
BRANCH   1   2
ATOM      2  C   UNL     1       2.405   7.252   7.717  1.00  0.00     0.275 C 
BRANCH   2   3
ATOM      3  O   UNL     1       1.869   6.379   6.700  1.00  0.00    -0.458 OA
BRANCH   3   4
ATOM      4  C   UNL     1       2.608   5.266   6.448  1.00  0.00     0.338 C 
ATOM      5  O   UNL     1       3.680   4.994   6.969  1.00  0.00    -0.246 OA
BRANCH   4   6
ATOM      6  C   UNL     1       1.938   4.364   5.465  1.00  0.00     0.067 C 
ATOM      7  C   UNL     1       1.407   4.904   4.344  1.00  0.00     0.024 C 
BRANCH   7   8
ATOM      8  C   UNL     1       0.938   4.182   3.140  1.00  0.00    -0.025 A 
ATOM      9  C   UNL     1       0.375   2.764   0.784  1.00  0.00     0.067 A 
ATOM     10  C   UNL     1      -0.044   2.257   2.011  1.00  0.00     0.021 A 
ATOM     11  C   UNL     1       0.992   4.013   0.710  1.00  0.00     0.021 A 
ATOM     12  C   UNL     1       0.217   2.981   3.176  1.00  0.00     0.009 A 
ATOM     13  C   UNL     1       1.271   4.716   1.886  1.00  0.00     0.009 A 
BRANCH   9  14
ATOM     14  S   UNL     1       0.152   1.793  -0.684  1.00  0.00     0.175 S 
ATOM     15  C   UNL     1       0.935   0.242  -0.313  1.00  0.00     0.163 C 
ATOM     16  O   UNL     1       0.918   2.421  -1.743  1.00  0.00    -0.224 OA
ATOM     17  O   UNL     1      -1.275   1.570  -0.830  1.00  0.00    -0.224 OA
ENDBRANCH   9  14
ENDBRANCH   7   8
BRANCH   6  18
ATOM     18  C   UNL     1       2.029   2.911   5.696  1.00  0.00    -0.011 A 
ATOM     19  C   UNL     1       1.012   2.264   6.405  1.00  0.00     0.009 A 
ATOM     20  C   UNL     1       3.087   2.153   5.195  1.00  0.00     0.009 A 
ATOM     21  C   UNL     1       1.054   0.879   6.604  1.00  0.00     0.009 A 
ATOM     22  C   UNL     1       3.122   0.767   5.401  1.00  0.00     0.009 A 
ATOM     23  C   UNL     1       2.117   0.093   6.122  1.00  0.00    -0.015 A 
BRANCH  23  24
ATOM     24  C   UNL     1       2.180  -1.367   6.397  1.00  0.00     0.018 A 
ATOM     25  C   UNL     1       1.004  -2.136   6.536  1.00  0.00     0.015 A 
ATOM     26  C   UNL     1       3.401  -2.057   6.555  1.00  0.00     0.133 A 
ATOM     27  C   UNL     1       1.053  -3.506   6.816  1.00  0.00     0.040 A 
ATOM     28  C   UNL     1       3.460  -3.424   6.816  1.00  0.00     0.079 A 
ATOM     29  F   UNL     1       4.570  -1.403   6.462  1.00  0.00    -0.206 F 
ATOM     30  C   UNL     1       2.281  -4.137   6.946  1.00  0.00     0.126 A 
ATOM     31  F   UNL     1       2.327  -5.455   7.177  1.00  0.00    -0.207 F 
ENDBRANCH  23  24
ENDBRANCH   6  18
ENDBRANCH   4   6
ENDBRANCH   3   4
ENDBRANCH   2   3
ENDBRANCH   1   2
BRANCH   1  32
ATOM     32  O   UNL     1       1.947   5.688   9.518  1.00  0.00    -0.458 OA
BRANCH  32  33
ATOM     33  C   UNL     1       0.852   4.934   9.765  1.00  0.00     0.338 C 
ATOM     34  O   UNL     1      -0.315   5.291   9.691  1.00  0.00    -0.246 OA
BRANCH  33  35
ATOM     35  C   UNL     1       1.236   3.555  10.129  1.00  0.00     0.060 A 
ATOM     36  C   UNL     1       2.203   2.875   9.397  1.00  0.00     0.016 A 
ATOM     37  C   UNL     1       0.508   2.875  11.106  1.00  0.00     0.016 A 
ATOM     38  C   UNL     1       2.332   1.491   9.540  1.00  0.00     0.010 A 
ATOM     39  C   UNL     1       0.723   1.506  11.319  1.00  0.00     0.010 A 
ATOM     40  C   UNL     1       1.585   0.771  10.488  1.00  0.00    -0.014 A 
BRANCH  40  41
ATOM     41  C   UNL     1       1.642  -0.728  10.553  1.00  0.00     0.031 A 
ATOM     42  C   UNL     1       0.368  -1.552  10.566  1.00  0.00     0.074 A 
ATOM     43  C   UNL     1       2.820  -1.390  10.569  1.00  0.00     0.049 A 
ATOM     44  N   UNL     1       0.204  -2.822  10.848  1.00  0.00    -0.248 NA
ATOM     45  C   UNL     1      -0.888  -0.857  10.238  1.00  0.00     0.031 C 
ATOM     46  C   UNL     1       4.147  -0.777  10.505  1.00  0.00     0.029 A 
ATOM     47  N   UNL     1       3.088  -2.739  10.626  1.00  0.00    -0.354 N 
ATOM     48  C   UNL     1      -1.169  -3.048  10.836  1.00  0.00     0.074 A 
ATOM     49  C   UNL     1      -1.796  -1.791  10.489  1.00  0.00     0.031 C 
ATOM     50  C   UNL     1       5.078  -1.740  10.445  1.00  0.00     0.029 A 
ATOM     51  C   UNL     1       4.431  -3.036  10.598  1.00  0.00     0.049 A 
ATOM     52  H   UNL     1       2.385  -3.426  10.682  1.00  0.00     0.167 HD
ATOM     53  C   UNL     1      -1.849  -4.191  11.105  1.00  0.00     0.031 A 
ATOM     54  C   UNL     1       5.089  -4.204  10.735  1.00  0.00     0.031 A 
ATOM     55  C   UNL     1      -1.232  -5.465  11.368  1.00  0.00     0.049 A 
ATOM     56  C   UNL     1       4.322  -5.461  11.017  1.00  0.00     0.074 A 
ATOM     57  C   UNL     1      -1.845  -6.678  11.642  1.00  0.00     0.029 A 
ATOM     58  N   UNL     1       0.132  -5.704  11.358  1.00  0.00    -0.354 N 
ATOM     59  N   UNL     1       3.026  -5.627  11.123  1.00  0.00    -0.248 NA
ATOM     60  C   UNL     1       5.110  -6.683  11.234  1.00  0.00     0.031 C 
ATOM     61  C   UNL     1      -0.849  -7.644  11.825  1.00  0.00     0.029 A 
ATOM     62  C   UNL     1       0.381  -7.041  11.623  1.00  0.00     0.049 A 
ATOM     63  H   UNL     1       0.823  -5.024  11.188  1.00  0.00     0.167 HD
ATOM     64  C   UNL     1       2.844  -6.971  11.424  1.00  0.00     0.074 A 
ATOM     65  C   UNL     1       4.158  -7.579  11.456  1.00  0.00     0.031 C 
ATOM     66  C   UNL     1       1.689  -7.637  11.665  1.00  0.00     0.031 A 
BRANCH  53  67
ATOM     67  C   UNL     1      -3.353  -4.114  11.183  1.00  0.00    -0.014 A 
ATOM     68  C   UNL     1      -4.152  -4.015  10.031  1.00  0.00     0.010 A 
ATOM     69  C   UNL     1      -3.977  -4.210  12.442  1.00  0.00     0.010 A 
ATOM     70  C   UNL     1      -5.546  -3.977  10.141  1.00  0.00     0.020 A 
ATOM     71  C   UNL     1      -5.370  -4.197  12.554  1.00  0.00     0.020 A 
ATOM     72  C   UNL     1      -6.146  -4.064  11.402  1.00  0.00     0.054 A 
BRANCH  72  73
ATOM     73  S   UNL     1      -7.957  -4.042  11.517  1.00  0.00     0.124 S 
ATOM     74  O   UNL     1      -8.251  -2.623  11.333  1.00  0.00    -0.237 OA
ATOM     75  O   UNL     1      -8.361  -4.913  10.417  1.00  0.00    -0.237 OA
ATOM     76  O   UNL     1      -8.226  -4.566  12.854  1.00  0.00    -0.744 OA
ENDBRANCH  72  73
ENDBRANCH  53  67
BRANCH  54  77
ATOM     77  C   UNL     1       6.576  -4.216  10.679  1.00  0.00    -0.014 A 
ATOM     78  C   UNL     1       7.244  -4.773   9.576  1.00  0.00     0.010 A 
ATOM     79  C   UNL     1       7.328  -3.627  11.713  1.00  0.00     0.010 A 
ATOM     80  C   UNL     1       8.640  -4.731   9.502  1.00  0.00     0.020 A 
ATOM     81  C   UNL     1       8.720  -3.556  11.628  1.00  0.00     0.020 A 
ATOM     82  C   UNL     1       9.368  -4.115  10.525  1.00  0.00     0.054 A 
BRANCH  82  83
ATOM     83  S   UNL     1      11.171  -3.979  10.370  1.00  0.00     0.124 S 
ATOM     84  O   UNL     1      11.613  -5.295  10.816  1.00  0.00    -0.237 OA
ATOM     85  O   UNL     1      11.351  -3.699   8.947  1.00  0.00    -0.237 OA
ATOM     86  O   UNL     1      11.503  -2.868  11.259  1.00  0.00    -0.744 OA
ENDBRANCH  82  83
ENDBRANCH  54  77
BRANCH  66  87
ATOM     87  C   UNL     1       1.794  -9.106  11.969  1.00  0.00    -0.014 A 
ATOM     88  C   UNL     1       2.234  -9.554  13.227  1.00  0.00     0.010 A 
ATOM     89  C   UNL     1       1.421 -10.048  10.994  1.00  0.00     0.010 A 
ATOM     90  C   UNL     1       2.331 -10.923  13.493  1.00  0.00     0.020 A 
ATOM     91  C   UNL     1       1.499 -11.416  11.263  1.00  0.00     0.020 A 
ATOM     92  C   UNL     1       1.969 -11.846  12.507  1.00  0.00     0.054 A 
BRANCH  92  93
ATOM     93  S   UNL     1       2.079 -13.618  12.880  1.00  0.00     0.124 S 
ATOM     94  O   UNL     1       3.514 -13.864  12.762  1.00  0.00    -0.237 OA
ATOM     95  O   UNL     1       1.538 -13.698  14.235  1.00  0.00    -0.237 OA
ATOM     96  O   UNL     1       1.253 -14.240  11.849  1.00  0.00    -0.744 OA
ENDBRANCH  92  93
ENDBRANCH  66  87
ENDBRANCH  40  41
ENDBRANCH  33  35
ENDBRANCH  32  33
ENDBRANCH   1  32
TORSDOF 18
