REMARK SMILES C[NH+]1CCC(NC(=O)N[C@@H]2C=C[C@H](C(=O)OCCOC(=O)c3ccc(-c4c5nc(c(-c6ccc(S(=O)(=O)[O-])cc6)c6ccc([nH]6)c(-c6ccc(S(=O)(=O)[O-])cc6)c6nc(c(-c7ccc(S(=O)(=O)[O-])cc7)c7ccc4[nH]7)C=C6)C=C5)cc3)C2)CC1
REMARK SMILES IDX 18 1 17 2 16 3 14 4 15 5 13 6 10 7 11 8 82 9 12 10 9 11 6 12
REMARK SMILES IDX 7 13 8 15 5 17 1 18 2 19 3 20 84 21 4 23 83 24 19 25 20 26
REMARK SMILES IDX 21 27 22 28 23 29 81 30 24 31 80 32 25 33 26 34 27 35 74 36
REMARK SMILES IDX 28 37 79 38 73 39 75 40 29 41 78 42 72 43 71 44 30 46 60 47
REMARK SMILES IDX 41 48 59 49 42 50 45 51 58 52 76 53 43 54 44 55 57 57 77 58
REMARK SMILES IDX 46 59 31 60 32 61 40 62 33 63 39 64 34 65 35 66 36 67 37 68
REMARK SMILES IDX 38 69 61 70 62 71 70 72 63 73 69 74 64 75 65 76 66 77 67 78
REMARK SMILES IDX 68 79 47 80 48 81 56 82 49 83 55 84 50 85 51 86 52 87 53 88
REMARK SMILES IDX 54 89
REMARK H PARENT 6 14 9 16 2 22 75 45 45 56
REMARK Flexibility Score: inf
ROOT
ATOM      1  C   UNL     1      -2.615   2.799  -3.884  1.00  0.00     0.275 C 
ENDROOT
BRANCH   1   2
ATOM      2  C   UNL     1      -2.819   1.487  -3.132  1.00  0.00     0.274 C 
BRANCH   2   3
ATOM      3  O   UNL     1      -1.785   1.304  -2.144  1.00  0.00    -0.462 OA
BRANCH   3   4
ATOM      4  C   UNL     1      -0.900   0.285  -2.344  1.00  0.00     0.312 C 
ATOM      5  O   UNL     1      -0.867  -0.442  -3.326  1.00  0.00    -0.252 OA
BRANCH   4   6
ATOM      6  C   UNL     1       0.071   0.221  -1.172  1.00  0.00     0.124 C 
ATOM      7  C   UNL     1       2.415  -0.294  -1.742  1.00  0.00     0.107 C 
ATOM      8  C   UNL     1       1.743  -1.432  -1.043  1.00  0.00    -0.006 C 
ATOM      9  C   UNL     1       1.416   0.856  -1.534  1.00  0.00     0.048 C 
ATOM     10  C   UNL     1       0.457  -1.174  -0.779  1.00  0.00    -0.014 C 
BRANCH   7  11
ATOM     11  N   UNL     1       2.598  -0.739  -3.108  1.00  0.00    -0.332 N 
ATOM     12  N   UNL     1       4.910  -1.208  -3.401  1.00  0.00    -0.335 N 
ATOM     13  C   UNL     1       3.640  -1.181  -3.834  1.00  0.00     0.315 C 
ATOM     14  H   UNL     1       5.584  -1.289  -4.114  1.00  0.00     0.165 HD
ATOM     15  O   UNL     1       3.411  -1.564  -4.982  1.00  0.00    -0.249 OA
ATOM     16  H   UNL     1       1.762  -0.712  -3.627  1.00  0.00     0.165 HD
BRANCH  12  17
ATOM     17  C   UNL     1       5.450  -1.139  -2.068  1.00  0.00     0.095 C 
ATOM     18  C   UNL     1       6.957  -0.910   1.769  1.00  0.00     0.332 C 
ATOM     19  N   UNL     1       7.065  -0.942   0.306  1.00  0.00    -0.337 N 
ATOM     20  C   UNL     1       6.394   0.245  -0.256  1.00  0.00     0.264 C 
ATOM     21  C   UNL     1       6.575  -2.237  -0.198  1.00  0.00     0.264 C 
ATOM     22  H   UNL     1       8.035  -0.882  -0.003  1.00  0.00     0.347 HD
ATOM     23  C   UNL     1       6.156   0.175  -1.764  1.00  0.00     0.086 C 
ATOM     24  C   UNL     1       6.399  -2.275  -1.720  1.00  0.00     0.086 C 
ENDBRANCH  12  17
ENDBRANCH   7  11
ENDBRANCH   4   6
ENDBRANCH   3   4
ENDBRANCH   2   3
ENDBRANCH   1   2
BRANCH   1  25
ATOM     25  O   UNL     1      -1.510   2.663  -4.794  1.00  0.00    -0.458 OA
BRANCH  25  26
ATOM     26  C   UNL     1      -0.439   3.447  -4.553  1.00  0.00     0.338 C 
ATOM     27  O   UNL     1      -0.319   4.301  -3.683  1.00  0.00    -0.246 OA
BRANCH  26  28
ATOM     28  C   UNL     1       0.657   3.051  -5.445  1.00  0.00     0.060 A 
ATOM     29  C   UNL     1       1.341   1.883  -5.139  1.00  0.00     0.016 A 
ATOM     30  C   UNL     1       1.100   3.869  -6.486  1.00  0.00     0.016 A 
ATOM     31  C   UNL     1       2.521   1.583  -5.801  1.00  0.00     0.010 A 
ATOM     32  C   UNL     1       2.241   3.502  -7.220  1.00  0.00     0.010 A 
ATOM     33  C   UNL     1       2.981   2.363  -6.864  1.00  0.00    -0.014 A 
BRANCH  33  34
ATOM     34  C   UNL     1       4.254   1.966  -7.532  1.00  0.00     0.031 A 
ATOM     35  C   UNL     1       5.467   2.850  -7.433  1.00  0.00     0.074 A 
ATOM     36  C   UNL     1       4.367   0.756  -8.121  1.00  0.00     0.049 A 
ATOM     37  N   UNL     1       6.635   2.712  -8.007  1.00  0.00    -0.248 NA
ATOM     38  C   UNL     1       5.361   4.035  -6.566  1.00  0.00     0.031 C 
ATOM     39  C   UNL     1       3.317  -0.264  -8.170  1.00  0.00     0.029 A 
ATOM     40  N   UNL     1       5.433   0.157  -8.751  1.00  0.00    -0.354 N 
ATOM     41  C   UNL     1       7.380   3.821  -7.624  1.00  0.00     0.074 A 
ATOM     42  C   UNL     1       6.544   4.607  -6.743  1.00  0.00     0.031 C 
ATOM     43  C   UNL     1       3.807  -1.377  -8.736  1.00  0.00     0.029 A 
ATOM     44  C   UNL     1       5.170  -1.123  -9.184  1.00  0.00     0.049 A 
ATOM     45  H   UNL     1       6.302   0.602  -8.880  1.00  0.00     0.167 HD
ATOM     46  C   UNL     1       8.637   4.161  -7.996  1.00  0.00     0.031 A 
ATOM     47  C   UNL     1       5.922  -1.986  -9.896  1.00  0.00     0.031 A 
ATOM     48  C   UNL     1       9.475   3.365  -8.851  1.00  0.00     0.049 A 
ATOM     49  C   UNL     1       7.287  -1.553 -10.355  1.00  0.00     0.074 A 
ATOM     50  C   UNL     1      10.742   3.656  -9.326  1.00  0.00     0.029 A 
ATOM     51  N   UNL     1       9.138   2.117  -9.352  1.00  0.00    -0.354 N 
ATOM     52  N   UNL     1       7.942  -0.455 -10.066  1.00  0.00    -0.248 NA
ATOM     53  C   UNL     1       8.001  -2.461 -11.264  1.00  0.00     0.031 C 
ATOM     54  C   UNL     1      11.152   2.606 -10.155  1.00  0.00     0.029 A 
ATOM     55  C   UNL     1      10.161   1.637 -10.153  1.00  0.00     0.049 A 
ATOM     56  H   UNL     1       8.297   1.642  -9.165  1.00  0.00     0.167 HD
ATOM     57  C   UNL     1       9.141  -0.536 -10.766  1.00  0.00     0.074 A 
ATOM     58  C   UNL     1       9.138  -1.807 -11.459  1.00  0.00     0.031 C 
ATOM     59  C   UNL     1      10.144   0.372 -10.841  1.00  0.00     0.031 A 
BRANCH  46  60
ATOM     60  C   UNL     1       9.145   5.507  -7.561  1.00  0.00    -0.014 A 
ATOM     61  C   UNL     1       9.624   5.740  -6.261  1.00  0.00     0.010 A 
ATOM     62  C   UNL     1       9.175   6.553  -8.503  1.00  0.00     0.010 A 
ATOM     63  C   UNL     1      10.100   7.006  -5.904  1.00  0.00     0.020 A 
ATOM     64  C   UNL     1       9.667   7.812  -8.156  1.00  0.00     0.020 A 
ATOM     65  C   UNL     1      10.113   8.035  -6.852  1.00  0.00     0.054 A 
BRANCH  65  66
ATOM     66  S   UNL     1      10.751   9.665  -6.373  1.00  0.00     0.124 S 
ATOM     67  O   UNL     1       9.658  10.188  -5.558  1.00  0.00    -0.237 OA
ATOM     68  O   UNL     1      11.973   9.331  -5.645  1.00  0.00    -0.237 OA
ATOM     69  O   UNL     1      10.957  10.346  -7.649  1.00  0.00    -0.744 OA
ENDBRANCH  65  66
ENDBRANCH  46  60
BRANCH  47  70
ATOM     70  C   UNL     1       5.366  -3.309 -10.306  1.00  0.00    -0.014 A 
ATOM     71  C   UNL     1       5.925  -4.509  -9.834  1.00  0.00     0.010 A 
ATOM     72  C   UNL     1       4.279  -3.369 -11.199  1.00  0.00     0.010 A 
ATOM     73  C   UNL     1       5.422  -5.743 -10.264  1.00  0.00     0.020 A 
ATOM     74  C   UNL     1       3.753  -4.598 -11.605  1.00  0.00     0.020 A 
ATOM     75  C   UNL     1       4.340  -5.779 -11.150  1.00  0.00     0.054 A 
BRANCH  75  76
ATOM     76  S   UNL     1       3.678  -7.383 -11.680  1.00  0.00     0.124 S 
ATOM     77  O   UNL     1       4.624  -7.771 -12.721  1.00  0.00    -0.237 OA
ATOM     78  O   UNL     1       3.727  -8.175 -10.453  1.00  0.00    -0.237 OA
ATOM     79  O   UNL     1       2.331  -7.057 -12.146  1.00  0.00    -0.744 OA
ENDBRANCH  75  76
ENDBRANCH  47  70
BRANCH  59  80
ATOM     80  C   UNL     1      11.328   0.025 -11.702  1.00  0.00    -0.014 A 
ATOM     81  C   UNL     1      11.237   0.075 -13.104  1.00  0.00     0.010 A 
ATOM     82  C   UNL     1      12.559  -0.294 -11.104  1.00  0.00     0.010 A 
ATOM     83  C   UNL     1      12.353  -0.209 -13.895  1.00  0.00     0.020 A 
ATOM     84  C   UNL     1      13.684  -0.557 -11.890  1.00  0.00     0.020 A 
ATOM     85  C   UNL     1      13.570  -0.523 -13.282  1.00  0.00     0.054 A 
BRANCH  85  86
ATOM     86  S   UNL     1      15.021  -0.832 -14.327  1.00  0.00     0.124 S 
ATOM     87  O   UNL     1      14.758  -2.181 -14.822  1.00  0.00    -0.237 OA
ATOM     88  O   UNL     1      14.933   0.231 -15.325  1.00  0.00    -0.237 OA
ATOM     89  O   UNL     1      16.145  -0.717 -13.401  1.00  0.00    -0.744 OA
ENDBRANCH  85  86
ENDBRANCH  59  80
ENDBRANCH  33  34
ENDBRANCH  26  28
ENDBRANCH  25  26
ENDBRANCH   1  25
TORSDOF 16
