REMARK SMILES CC(=O)c1ccc(N2/C(=[NH+]/C(=O)CCC(=O)OCCOC(=O)c3ccc(-c4c5nc(c(-c6ccc(S(=O)(=O)[O-])cc6)c6ccc([nH]6)c(-c6ccc(S(=O)(=O)[O-])cc6)c6nc(c(-c7ccc(S(=O)(=O)[O-])cc7)c7ccc4[nH]7)C=C6)C=C5)cc3)S[C@H]3CS(=O)(=O)C[C@@H]32)cc1
REMARK SMILES IDX 18 1 17 2 15 3 16 4 14 5 13 6 11 7 8 8 9 9 90 10 10 11 83 12
REMARK SMILES IDX 84 13 89 14 85 16 86 17 12 18 87 19 88 20 7 21 4 22 5 23
REMARK SMILES IDX 92 24 6 25 91 26 2 27 1 28 3 29 19 30 20 31 21 32 22 33
REMARK SMILES IDX 23 34 24 35 82 36 25 37 81 38 26 39 27 40 28 41 75 42 29 43
REMARK SMILES IDX 80 44 74 45 76 46 30 47 79 48 73 49 72 50 31 52 61 53 42 54
REMARK SMILES IDX 60 55 43 56 46 57 59 58 77 59 44 60 45 61 58 63 78 64 47 65
REMARK SMILES IDX 32 66 33 67 41 68 34 69 40 70 35 71 36 72 37 73 38 74 39 75
REMARK SMILES IDX 62 76 63 77 71 78 64 79 70 80 65 81 66 82 67 83 68 84 69 85
REMARK SMILES IDX 48 86 49 87 57 88 50 89 56 90 51 91 52 92 53 93 54 94 55 95
REMARK H PARENT 10 15 76 51 46 62
REMARK Flexibility Score: inf
ROOT
ATOM      1  C   UNL     1       4.549   4.353  -0.668  1.00  0.00     0.274 C 
ENDROOT
BRANCH   1   2
ATOM      2  O   UNL     1       5.213   5.469  -0.059  1.00  0.00    -0.462 OA
BRANCH   2   3
ATOM      3  C   UNL     1       6.449   5.791  -0.494  1.00  0.00     0.306 C 
ATOM      4  O   UNL     1       7.131   5.109  -1.245  1.00  0.00    -0.252 OA
BRANCH   3   5
ATOM      5  C   UNL     1       6.912   7.098   0.099  1.00  0.00     0.135 C 
BRANCH   5   6
ATOM      6  C   UNL     1       5.865   8.196   0.007  1.00  0.00     0.139 C 
BRANCH   6   7
ATOM      7  C   UNL     1       5.012   8.336   1.254  1.00  0.00     0.308 C 
ATOM      8  N   UNL     1       2.351   6.314   2.828  1.00  0.00    -0.217 N 
ATOM      9  C   UNL     1       3.392   7.214   2.535  1.00  0.00     0.319 C 
ATOM     10  C   UNL     1       1.686   6.583   4.104  1.00  0.00     0.212 C 
ATOM     11  N   UNL     1       4.030   7.376   1.423  1.00  0.00    -0.204 N 
ATOM     12  S   UNL     1       3.735   8.148   4.045  1.00  0.00    -0.029 SA
ATOM     13  C   UNL     1       2.837   6.962   5.033  1.00  0.00     0.120 C 
ATOM     14  C   UNL     1       0.967   5.484   4.858  1.00  0.00     0.188 C 
ATOM     15  H   UNL     1       3.808   6.790   0.663  1.00  0.00     0.316 HD
ATOM     16  C   UNL     1       2.208   7.391   6.329  1.00  0.00     0.156 C 
ATOM     17  S   UNL     1       0.951   6.126   6.542  1.00  0.00     0.155 S 
ATOM     18  O   UNL     1       5.222   9.309   1.976  1.00  0.00    -0.247 OA
ATOM     19  O   UNL     1       1.474   5.104   7.423  1.00  0.00    -0.229 OA
ATOM     20  O   UNL     1      -0.318   6.779   6.778  1.00  0.00    -0.229 OA
BRANCH   8  21
ATOM     21  C   UNL     1       1.924   5.204   2.091  1.00  0.00     0.128 A 
ATOM     22  C   UNL     1       0.938   2.840   0.843  1.00  0.00     0.018 A 
ATOM     23  C   UNL     1       0.242   4.053   0.747  1.00  0.00     0.016 A 
ATOM     24  C   UNL     1       2.112   2.806   1.597  1.00  0.00     0.016 A 
ATOM     25  C   UNL     1       0.724   5.216   1.371  1.00  0.00     0.052 A 
ATOM     26  C   UNL     1       2.599   3.979   2.205  1.00  0.00     0.052 A 
BRANCH  22  27
ATOM     27  C   UNL     1       0.401   1.643   0.121  1.00  0.00     0.159 C 
ATOM     28  C   UNL     1       1.076   0.304   0.285  1.00  0.00     0.093 C 
ATOM     29  O   UNL     1      -0.600   1.760  -0.585  1.00  0.00    -0.295 OA
ENDBRANCH  22  27
ENDBRANCH   8  21
ENDBRANCH   6   7
ENDBRANCH   5   6
ENDBRANCH   3   5
ENDBRANCH   2   3
ENDBRANCH   1   2
BRANCH   1  30
ATOM     30  C   UNL     1       3.384   4.862  -1.513  1.00  0.00     0.275 C 
BRANCH  30  31
ATOM     31  O   UNL     1       3.907   5.225  -2.799  1.00  0.00    -0.458 OA
BRANCH  31  32
ATOM     32  C   UNL     1       4.064   6.547  -3.026  1.00  0.00     0.338 C 
ATOM     33  O   UNL     1       3.633   7.481  -2.383  1.00  0.00    -0.246 OA
BRANCH  32  34
ATOM     34  C   UNL     1       4.992   6.671  -4.154  1.00  0.00     0.060 A 
ATOM     35  C   UNL     1       6.316   7.054  -3.915  1.00  0.00     0.016 A 
ATOM     36  C   UNL     1       4.540   6.392  -5.441  1.00  0.00     0.016 A 
ATOM     37  C   UNL     1       7.202   7.167  -4.981  1.00  0.00     0.010 A 
ATOM     38  C   UNL     1       5.431   6.496  -6.505  1.00  0.00     0.010 A 
ATOM     39  C   UNL     1       6.761   6.896  -6.281  1.00  0.00    -0.014 A 
BRANCH  39  40
ATOM     40  C   UNL     1       7.661   7.091  -7.437  1.00  0.00     0.031 A 
ATOM     41  C   UNL     1       7.414   8.246  -8.362  1.00  0.00     0.074 A 
ATOM     42  C   UNL     1       8.662   6.221  -7.662  1.00  0.00     0.049 A 
ATOM     43  N   UNL     1       7.992   8.532  -9.498  1.00  0.00    -0.248 NA
ATOM     44  C   UNL     1       6.369   9.202  -7.958  1.00  0.00     0.031 C 
ATOM     45  C   UNL     1       9.010   5.089  -6.800  1.00  0.00     0.029 A 
ATOM     46  N   UNL     1       9.562   6.146  -8.693  1.00  0.00    -0.354 N 
ATOM     47  C   UNL     1       7.369   9.688  -9.955  1.00  0.00     0.074 A 
ATOM     48  C   UNL     1       6.348  10.032  -8.990  1.00  0.00     0.031 C 
ATOM     49  C   UNL     1      10.052   4.434  -7.339  1.00  0.00     0.029 A 
ATOM     50  C   UNL     1      10.405   5.064  -8.607  1.00  0.00     0.049 A 
ATOM     51  H   UNL     1       9.601   6.804  -9.424  1.00  0.00     0.167 HD
ATOM     52  C   UNL     1       7.631  10.396 -11.079  1.00  0.00     0.031 A 
ATOM     53  C   UNL     1      11.336   4.618  -9.473  1.00  0.00     0.031 A 
ATOM     54  C   UNL     1       8.643  10.027 -12.033  1.00  0.00     0.049 A 
ATOM     55  C   UNL     1      11.553   5.378 -10.754  1.00  0.00     0.074 A 
ATOM     56  C   UNL     1       8.999  10.672 -13.204  1.00  0.00     0.029 A 
ATOM     57  N   UNL     1       9.460   8.910 -11.926  1.00  0.00    -0.354 N 
ATOM     58  N   UNL     1      10.963   6.474 -11.173  1.00  0.00    -0.248 NA
ATOM     59  C   UNL     1      12.562   4.845 -11.678  1.00  0.00     0.031 C 
ATOM     60  C   UNL     1       9.989   9.912 -13.834  1.00  0.00     0.029 A 
ATOM     61  C   UNL     1      10.302   8.833 -13.022  1.00  0.00     0.049 A 
ATOM     62  H   UNL     1       9.442   8.267 -11.181  1.00  0.00     0.167 HD
ATOM     63  C   UNL     1      11.553   6.779 -12.394  1.00  0.00     0.074 A 
ATOM     64  C   UNL     1      12.555   5.761 -12.638  1.00  0.00     0.031 C 
ATOM     65  C   UNL     1      11.294   7.809 -13.238  1.00  0.00     0.031 A 
BRANCH  52  66
ATOM     66  C   UNL     1       6.788  11.616 -11.347  1.00  0.00    -0.014 A 
ATOM     67  C   UNL     1       6.898  12.770 -10.551  1.00  0.00     0.010 A 
ATOM     68  C   UNL     1       5.894  11.619 -12.433  1.00  0.00     0.010 A 
ATOM     69  C   UNL     1       6.102  13.889 -10.812  1.00  0.00     0.020 A 
ATOM     70  C   UNL     1       5.118  12.747 -12.717  1.00  0.00     0.020 A 
ATOM     71  C   UNL     1       5.217  13.870 -11.893  1.00  0.00     0.054 A 
BRANCH  71  72
ATOM     72  S   UNL     1       4.216  15.347 -12.223  1.00  0.00     0.124 S 
ATOM     73  O   UNL     1       3.275  15.329 -11.105  1.00  0.00    -0.237 OA
ATOM     74  O   UNL     1       5.208  16.418 -12.190  1.00  0.00    -0.237 OA
ATOM     75  O   UNL     1       3.628  15.084 -13.534  1.00  0.00    -0.744 OA
ENDBRANCH  71  72
ENDBRANCH  52  66
BRANCH  53  76
ATOM     76  C   UNL     1      12.114   3.386  -9.167  1.00  0.00    -0.014 A 
ATOM     77  C   UNL     1      13.496   3.455  -8.918  1.00  0.00     0.010 A 
ATOM     78  C   UNL     1      11.476   2.131  -9.122  1.00  0.00     0.010 A 
ATOM     79  C   UNL     1      14.229   2.294  -8.653  1.00  0.00     0.020 A 
ATOM     80  C   UNL     1      12.199   0.972  -8.826  1.00  0.00     0.020 A 
ATOM     81  C   UNL     1      13.575   1.060  -8.608  1.00  0.00     0.054 A 
BRANCH  81  82
ATOM     82  S   UNL     1      14.541  -0.428  -8.227  1.00  0.00     0.124 S 
ATOM     83  O   UNL     1      15.322  -0.603  -9.448  1.00  0.00    -0.237 OA
ATOM     84  O   UNL     1      15.296  -0.019  -7.046  1.00  0.00    -0.237 OA
ATOM     85  O   UNL     1      13.522  -1.446  -7.984  1.00  0.00    -0.744 OA
ENDBRANCH  81  82
ENDBRANCH  53  76
BRANCH  65  86
ATOM     86  C   UNL     1      12.140   7.914 -14.480  1.00  0.00    -0.014 A 
ATOM     87  C   UNL     1      11.995   7.007 -15.544  1.00  0.00     0.010 A 
ATOM     88  C   UNL     1      13.053   8.977 -14.604  1.00  0.00     0.010 A 
ATOM     89  C   UNL     1      12.773   7.143 -16.697  1.00  0.00     0.020 A 
ATOM     90  C   UNL     1      13.808   9.136 -15.768  1.00  0.00     0.020 A 
ATOM     91  C   UNL     1      13.672   8.209 -16.802  1.00  0.00     0.054 A 
BRANCH  91  92
ATOM     92  S   UNL     1      14.632   8.391 -18.329  1.00  0.00     0.124 S 
ATOM     93  O   UNL     1      15.582   7.287 -18.225  1.00  0.00    -0.237 OA
ATOM     94  O   UNL     1      13.613   8.249 -19.366  1.00  0.00    -0.237 OA
ATOM     95  O   UNL     1      15.215   9.726 -18.216  1.00  0.00    -0.744 OA
ENDBRANCH  91  92
ENDBRANCH  65  86
ENDBRANCH  39  40
ENDBRANCH  32  34
ENDBRANCH  31  32
ENDBRANCH  30  31
ENDBRANCH   1  30
TORSDOF 18
