REMARK SMILES O=C(OCCOC(=O)c1cc2c(Cl)c(C(F)(F)F)cnc2n1S(=O)(=O)c1ccccc1)c1ccc(-c2c3nc(c(-c4ccc(S(=O)(=O)[O-])cc4)c4ccc([nH]4)c(-c4ccc(S(=O)(=O)[O-])cc4)c4nc(c(-c5ccc(S(=O)(=O)[O-])cc5)c5ccc2[nH]5)C=C4)C=C3)cc1
REMARK SMILES IDX 4 1 3 2 2 3 1 4 32 5 33 6 91 7 34 8 90 9 35 10 36 11 37 12
REMARK SMILES IDX 84 13 38 14 89 15 83 16 85 17 39 18 88 19 82 20 81 21 40 23
REMARK SMILES IDX 70 24 51 25 69 26 52 27 55 28 68 29 86 30 53 31 54 32 67 34
REMARK SMILES IDX 87 35 56 36 41 37 42 38 50 39 43 40 49 41 44 42 45 43 46 44
REMARK SMILES IDX 47 45 48 46 71 47 72 48 80 49 73 50 79 51 74 52 75 53 76 54
REMARK SMILES IDX 77 55 78 56 57 57 58 58 66 59 59 60 65 61 60 62 61 63 62 64
REMARK SMILES IDX 63 65 64 66 5 67 6 68 7 69 8 70 9 71 10 72 22 73 11 74 21 75
REMARK SMILES IDX 12 76 20 77 13 78 14 79 19 80 23 81 24 82 25 83 26 84 27 85
REMARK SMILES IDX 31 86 28 87 30 88 29 89 15 90 16 91 17 92 18 93
REMARK H PARENT 85 22 55 33
REMARK Flexibility Score: inf
ROOT
ATOM      1  C   UNL     1       4.636   0.877   1.040  1.00  0.00     0.275 C 
ENDROOT
BRANCH   1   2
ATOM      2  O   UNL     1       3.484   1.574   0.517  1.00  0.00    -0.458 OA
BRANCH   2   3
ATOM      3  C   UNL     1       2.382   0.865   0.187  1.00  0.00     0.338 C 
ATOM      4  O   UNL     1       1.470   0.619   0.962  1.00  0.00    -0.246 OA
BRANCH   3   5
ATOM      5  C   UNL     1       2.315   0.548  -1.261  1.00  0.00     0.060 A 
ATOM      6  C   UNL     1       3.464   0.474  -2.052  1.00  0.00     0.016 A 
ATOM      7  C   UNL     1       1.058   0.302  -1.835  1.00  0.00     0.016 A 
ATOM      8  C   UNL     1       3.360   0.193  -3.405  1.00  0.00     0.010 A 
ATOM      9  C   UNL     1       0.952   0.021  -3.197  1.00  0.00     0.010 A 
ATOM     10  C   UNL     1       2.104  -0.006  -3.985  1.00  0.00    -0.014 A 
BRANCH  10  11
ATOM     11  C   UNL     1       2.082  -0.166  -5.434  1.00  0.00     0.031 A 
ATOM     12  C   UNL     1       2.683  -1.393  -6.022  1.00  0.00     0.074 A 
ATOM     13  C   UNL     1       1.548   0.752  -6.260  1.00  0.00     0.049 A 
ATOM     14  N   UNL     1       3.756  -1.495  -6.740  1.00  0.00    -0.248 NA
ATOM     15  C   UNL     1       2.004  -2.670  -5.767  1.00  0.00     0.031 C 
ATOM     16  C   UNL     1       0.661   1.865  -5.922  1.00  0.00     0.029 A 
ATOM     17  N   UNL     1       1.636   0.813  -7.620  1.00  0.00    -0.354 N 
ATOM     18  C   UNL     1       3.813  -2.819  -7.168  1.00  0.00     0.074 A 
ATOM     19  C   UNL     1       2.759  -3.517  -6.470  1.00  0.00     0.031 C 
ATOM     20  C   UNL     1       0.121   2.354  -7.059  1.00  0.00     0.029 A 
ATOM     21  C   UNL     1       0.735   1.689  -8.197  1.00  0.00     0.049 A 
ATOM     22  H   UNL     1       2.280   0.282  -8.142  1.00  0.00     0.167 HD
ATOM     23  C   UNL     1       4.614  -3.239  -8.187  1.00  0.00     0.031 A 
ATOM     24  C   UNL     1       0.462   1.805  -9.517  1.00  0.00     0.031 A 
ATOM     25  C   UNL     1       5.592  -2.263  -8.578  1.00  0.00     0.049 A 
ATOM     26  C   UNL     1       1.626   1.287 -10.275  1.00  0.00     0.074 A 
ATOM     27  C   UNL     1       6.677  -1.654  -7.984  1.00  0.00     0.029 A 
ATOM     28  N   UNL     1       5.350  -1.563  -9.735  1.00  0.00    -0.354 N 
ATOM     29  N   UNL     1       2.800   1.854 -10.287  1.00  0.00    -0.248 NA
ATOM     30  C   UNL     1       1.588  -0.067 -10.808  1.00  0.00     0.031 C 
ATOM     31  C   UNL     1       6.768  -0.367  -8.590  1.00  0.00     0.029 A 
ATOM     32  C   UNL     1       5.720  -0.263  -9.508  1.00  0.00     0.049 A 
ATOM     33  H   UNL     1       4.979  -1.928 -10.571  1.00  0.00     0.167 HD
ATOM     34  C   UNL     1       3.702   0.818 -10.467  1.00  0.00     0.074 A 
ATOM     35  C   UNL     1       2.897  -0.308 -10.921  1.00  0.00     0.031 C 
ATOM     36  C   UNL     1       4.972   0.889  -9.972  1.00  0.00     0.031 A 
BRANCH  23  37
ATOM     37  C   UNL     1       4.320  -4.428  -9.066  1.00  0.00    -0.014 A 
ATOM     38  C   UNL     1       5.332  -4.929  -9.912  1.00  0.00     0.010 A 
ATOM     39  C   UNL     1       3.004  -4.881  -9.293  1.00  0.00     0.010 A 
ATOM     40  C   UNL     1       5.032  -5.800 -10.968  1.00  0.00     0.020 A 
ATOM     41  C   UNL     1       2.702  -5.783 -10.318  1.00  0.00     0.020 A 
ATOM     42  C   UNL     1       3.713  -6.209 -11.172  1.00  0.00     0.054 A 
BRANCH  42  43
ATOM     43  S   UNL     1       3.319  -7.217 -12.625  1.00  0.00     0.124 S 
ATOM     44  O   UNL     1       3.674  -6.319 -13.720  1.00  0.00    -0.237 OA
ATOM     45  O   UNL     1       4.192  -8.374 -12.447  1.00  0.00    -0.237 OA
ATOM     46  O   UNL     1       1.892  -7.490 -12.476  1.00  0.00    -0.744 OA
ENDBRANCH  42  43
ENDBRANCH  23  37
BRANCH  24  47
ATOM     47  C   UNL     1      -0.868   2.048 -10.126  1.00  0.00    -0.014 A 
ATOM     48  C   UNL     1      -0.993   2.302 -11.504  1.00  0.00     0.010 A 
ATOM     49  C   UNL     1      -2.046   1.765  -9.401  1.00  0.00     0.010 A 
ATOM     50  C   UNL     1      -2.239   2.204 -12.143  1.00  0.00     0.020 A 
ATOM     51  C   UNL     1      -3.292   1.683 -10.027  1.00  0.00     0.020 A 
ATOM     52  C   UNL     1      -3.377   1.869 -11.402  1.00  0.00     0.054 A 
BRANCH  52  53
ATOM     53  S   UNL     1      -4.946   1.576 -12.264  1.00  0.00     0.124 S 
ATOM     54  O   UNL     1      -5.181   2.852 -12.933  1.00  0.00    -0.237 OA
ATOM     55  O   UNL     1      -4.612   0.454 -13.137  1.00  0.00    -0.237 OA
ATOM     56  O   UNL     1      -5.880   1.262 -11.184  1.00  0.00    -0.744 OA
ENDBRANCH  52  53
ENDBRANCH  24  47
BRANCH  36  57
ATOM     57  C   UNL     1       5.504   2.237  -9.555  1.00  0.00    -0.014 A 
ATOM     58  C   UNL     1       4.976   2.951  -8.463  1.00  0.00     0.010 A 
ATOM     59  C   UNL     1       6.683   2.705 -10.162  1.00  0.00     0.010 A 
ATOM     60  C   UNL     1       5.613   4.106  -7.989  1.00  0.00     0.020 A 
ATOM     61  C   UNL     1       7.330   3.849  -9.686  1.00  0.00     0.020 A 
ATOM     62  C   UNL     1       6.795   4.540  -8.596  1.00  0.00     0.054 A 
BRANCH  62  63
ATOM     63  S   UNL     1       7.658   5.982  -7.910  1.00  0.00     0.124 S 
ATOM     64  O   UNL     1       6.672   7.048  -8.057  1.00  0.00    -0.237 OA
ATOM     65  O   UNL     1       7.931   5.563  -6.536  1.00  0.00    -0.237 OA
ATOM     66  O   UNL     1       8.844   6.116  -8.755  1.00  0.00    -0.744 OA
ENDBRANCH  62  63
ENDBRANCH  36  57
ENDBRANCH  10  11
ENDBRANCH   3   5
ENDBRANCH   2   3
ENDBRANCH   1   2
BRANCH   1  67
ATOM     67  C   UNL     1       4.372  -0.382   1.865  1.00  0.00     0.275 C 
BRANCH  67  68
ATOM     68  O   UNL     1       3.783  -1.409   1.051  1.00  0.00    -0.457 OA
BRANCH  68  69
ATOM     69  C   UNL     1       2.771  -2.099   1.630  1.00  0.00     0.356 C 
ATOM     70  O   UNL     1       2.361  -1.963   2.786  1.00  0.00    -0.244 OA
BRANCH  69  71
ATOM     71  C   UNL     1       2.205  -3.005   0.682  1.00  0.00     0.145 A 
ATOM     72  C   UNL     1       1.029  -2.871  -0.040  1.00  0.00     0.048 A 
ATOM     73  N   UNL     1       2.727  -4.238   0.361  1.00  0.00    -0.209 N 
ATOM     74  C   UNL     1       0.847  -4.045  -0.824  1.00  0.00     0.040 A 
ATOM     75  C   UNL     1       1.922  -4.887  -0.541  1.00  0.00     0.156 A 
ATOM     76  C   UNL     1      -0.105  -4.531  -1.740  1.00  0.00     0.065 A 
ATOM     77  N   UNL     1       2.097  -6.123  -1.044  1.00  0.00    -0.237 NA
ATOM     78  Cl  UNL     1      -1.370  -3.445  -2.121  1.00  0.00    -0.083 Cl
ATOM     79  C   UNL     1       0.011  -5.812  -2.266  1.00  0.00     0.093 A 
ATOM     80  C   UNL     1       1.125  -6.542  -1.883  1.00  0.00     0.128 A 
BRANCH  73  81
ATOM     81  S   UNL     1       4.282  -4.728   0.819  1.00  0.00     0.270 S 
ATOM     82  O   UNL     1       5.160  -4.159  -0.185  1.00  0.00    -0.201 OA
ATOM     83  O   UNL     1       4.402  -4.348   2.216  1.00  0.00    -0.201 OA
BRANCH  81  84
ATOM     84  C   UNL     1       4.374  -6.492   0.743  1.00  0.00     0.088 A 
ATOM     85  C   UNL     1       4.016  -7.254   1.860  1.00  0.00     0.022 A 
ATOM     86  C   UNL     1       4.859  -7.108  -0.415  1.00  0.00     0.022 A 
ATOM     87  C   UNL     1       4.107  -8.645   1.797  1.00  0.00     0.001 A 
ATOM     88  C   UNL     1       4.930  -8.498  -0.475  1.00  0.00     0.001 A 
ATOM     89  C   UNL     1       4.553  -9.265   0.628  1.00  0.00     0.000 A 
ENDBRANCH  81  84
ENDBRANCH  73  81
BRANCH  79  90
ATOM     90  C   UNL     1      -0.990  -6.405  -3.199  1.00  0.00     0.419 C 
ATOM     91  F   UNL     1      -2.267  -6.329  -2.732  1.00  0.00    -0.166 F 
ATOM     92  F   UNL     1      -0.987  -5.816  -4.422  1.00  0.00    -0.166 F 
ATOM     93  F   UNL     1      -0.777  -7.734  -3.426  1.00  0.00    -0.166 F 
ENDBRANCH  79  90
ENDBRANCH  69  71
ENDBRANCH  68  69
ENDBRANCH  67  68
ENDBRANCH   1  67
TORSDOF 17
