REMARK SMILES CCOC(=O)c1c(NC(=O)[C@@H]2[C@@H](C(=O)OCCOC(=O)c3ccc(-c4c5nc(c(-c6ccc(S(=O)(=O)[O-])cc6)c6ccc([nH]6)c(-c6ccc(S(=O)(=O)[O-])cc6)c6nc(c(-c7ccc(S(=O)(=O)[O-])cc7)c7ccc4[nH]7)C=C6)C=C5)cc3)[C@@H]3C=C[C@H]2CC3)sc2c1CCC2
REMARK SMILES IDX 16 1 15 2 13 3 14 4 12 5 11 6 84 7 81 8 83 9 85 10 82 11
REMARK SMILES IDX 86 12 9 13 8 14 10 16 7 17 6 18 89 19 87 20 88 21 90 22
REMARK SMILES IDX 92 23 91 24 4 25 5 26 3 27 2 28 1 29 17 30 18 31 19 32 20 33
REMARK SMILES IDX 21 34 22 35 80 36 23 37 79 38 24 39 25 40 26 41 73 42 27 43
REMARK SMILES IDX 78 44 72 45 74 46 28 47 77 48 71 49 70 50 29 52 59 53 40 54
REMARK SMILES IDX 58 55 41 56 44 57 57 58 75 59 42 60 43 61 56 63 76 64 45 65
REMARK SMILES IDX 30 66 31 67 39 68 32 69 38 70 33 71 34 72 35 73 36 74 37 75
REMARK SMILES IDX 60 76 61 77 69 78 62 79 68 80 63 81 64 82 65 83 66 84 67 85
REMARK SMILES IDX 46 86 47 87 55 88 48 89 54 90 49 91 50 92 51 93 52 94 53 95
REMARK H PARENT 8 15 74 51 44 62
REMARK Flexibility Score: inf
ROOT
ATOM      1  C   UNL     1       3.643  -4.998  -7.297  1.00  0.00     0.274 C 
ENDROOT
BRANCH   1   2
ATOM      2  O   UNL     1       4.481  -4.336  -6.318  1.00  0.00    -0.462 OA
BRANCH   2   3
ATOM      3  C   UNL     1       5.829  -4.515  -6.459  1.00  0.00     0.310 C 
ATOM      4  O   UNL     1       6.325  -5.293  -7.270  1.00  0.00    -0.252 OA
BRANCH   3   5
ATOM      5  C   UNL     1       6.658  -3.728  -5.434  1.00  0.00     0.119 C 
ATOM      6  C   UNL     1       6.151  -2.281  -5.115  1.00  0.00     0.100 C 
ATOM      7  C   UNL     1       7.342  -1.271  -5.184  1.00  0.00     0.025 C 
ATOM      8  C   UNL     1       8.127  -3.615  -5.963  1.00  0.00     0.026 C 
ATOM      9  C   UNL     1       8.532  -1.822  -4.419  1.00  0.00    -0.027 C 
ATOM     10  C   UNL     1       7.797  -1.190  -6.648  1.00  0.00     0.009 C 
ATOM     11  C   UNL     1       8.948  -3.029  -4.833  1.00  0.00    -0.027 C 
ATOM     12  C   UNL     1       8.211  -2.596  -7.136  1.00  0.00     0.009 C 
BRANCH   6  13
ATOM     13  C   UNL     1       5.471  -2.094  -3.771  1.00  0.00     0.229 C 
ATOM     14  N   UNL     1       4.599  -1.065  -3.514  1.00  0.00    -0.317 N 
ATOM     15  H   UNL     1       4.404  -0.964  -2.554  1.00  0.00     0.170 HD
ATOM     16  O   UNL     1       5.719  -2.857  -2.829  1.00  0.00    -0.274 OA
BRANCH  14  17
ATOM     17  C   UNL     1       3.926  -0.131  -4.300  1.00  0.00     0.110 A 
ATOM     18  C   UNL     1       2.893   0.712  -3.862  1.00  0.00     0.098 A 
ATOM     19  C   UNL     1       2.306   1.387  -4.976  1.00  0.00    -0.017 A 
ATOM     20  S   UNL     1       4.248   0.095  -5.963  1.00  0.00    -0.122 S 
ATOM     21  C   UNL     1       2.962   1.118  -6.142  1.00  0.00     0.011 A 
ATOM     22  C   UNL     1       1.194   2.345  -5.223  1.00  0.00     0.038 C 
ATOM     23  C   UNL     1       2.422   1.801  -7.339  1.00  0.00     0.047 C 
ATOM     24  C   UNL     1       1.059   2.306  -6.783  1.00  0.00     0.010 C 
BRANCH  18  25
ATOM     25  C   UNL     1       2.499   0.811  -2.465  1.00  0.00     0.341 C 
ATOM     26  O   UNL     1       3.304   0.693  -1.544  1.00  0.00    -0.246 OA
BRANCH  25  27
ATOM     27  O   UNL     1       1.158   0.977  -2.297  1.00  0.00    -0.462 OA
BRANCH  27  28
ATOM     28  C   UNL     1       0.695   1.132  -0.946  1.00  0.00     0.230 C 
ATOM     29  C   UNL     1       0.862  -0.120  -0.097  1.00  0.00     0.049 C 
ENDBRANCH  27  28
ENDBRANCH  25  27
ENDBRANCH  18  25
ENDBRANCH  14  17
ENDBRANCH   6  13
ENDBRANCH   3   5
ENDBRANCH   2   3
ENDBRANCH   1   2
BRANCH   1  30
ATOM     30  C   UNL     1       2.972  -4.024  -8.274  1.00  0.00     0.275 C 
BRANCH  30  31
ATOM     31  O   UNL     1       3.768  -3.616  -9.399  1.00  0.00    -0.458 OA
BRANCH  31  32
ATOM     32  C   UNL     1       4.657  -2.654  -9.091  1.00  0.00     0.338 C 
ATOM     33  O   UNL     1       5.176  -2.480  -8.005  1.00  0.00    -0.246 OA
BRANCH  32  34
ATOM     34  C   UNL     1       4.769  -1.612 -10.107  1.00  0.00     0.060 A 
ATOM     35  C   UNL     1       5.755  -0.649  -9.880  1.00  0.00     0.016 A 
ATOM     36  C   UNL     1       3.782  -1.426 -11.073  1.00  0.00     0.016 A 
ATOM     37  C   UNL     1       5.673   0.569 -10.506  1.00  0.00     0.010 A 
ATOM     38  C   UNL     1       3.745  -0.228 -11.766  1.00  0.00     0.010 A 
ATOM     39  C   UNL     1       4.659   0.780 -11.444  1.00  0.00    -0.014 A 
BRANCH  39  40
ATOM     40  C   UNL     1       4.770   2.001 -12.233  1.00  0.00     0.031 A 
ATOM     41  C   UNL     1       6.104   2.130 -12.882  1.00  0.00     0.074 A 
ATOM     42  C   UNL     1       3.753   2.849 -12.469  1.00  0.00     0.049 A 
ATOM     43  N   UNL     1       6.993   3.049 -12.700  1.00  0.00    -0.248 NA
ATOM     44  C   UNL     1       6.581   0.979 -13.675  1.00  0.00     0.031 C 
ATOM     45  C   UNL     1       2.350   2.665 -12.090  1.00  0.00     0.029 A 
ATOM     46  N   UNL     1       3.730   3.985 -13.222  1.00  0.00    -0.354 N 
ATOM     47  C   UNL     1       8.049   2.708 -13.541  1.00  0.00     0.074 A 
ATOM     48  C   UNL     1       7.834   1.342 -13.940  1.00  0.00     0.031 C 
ATOM     49  C   UNL     1       1.584   3.493 -12.832  1.00  0.00     0.029 A 
ATOM     50  C   UNL     1       2.451   4.356 -13.617  1.00  0.00     0.049 A 
ATOM     51  H   UNL     1       4.539   4.493 -13.461  1.00  0.00     0.167 HD
ATOM     52  C   UNL     1       8.828   3.665 -14.111  1.00  0.00     0.031 A 
ATOM     53  C   UNL     1       2.120   5.260 -14.569  1.00  0.00     0.031 A 
ATOM     54  C   UNL     1       8.702   4.926 -13.433  1.00  0.00     0.049 A 
ATOM     55  C   UNL     1       3.280   6.154 -14.779  1.00  0.00     0.074 A 
ATOM     56  C   UNL     1       9.129   5.475 -12.246  1.00  0.00     0.029 A 
ATOM     57  N   UNL     1       7.695   5.719 -13.919  1.00  0.00    -0.354 N 
ATOM     58  N   UNL     1       3.714   6.984 -13.872  1.00  0.00    -0.248 NA
ATOM     59  C   UNL     1       4.193   5.910 -15.890  1.00  0.00     0.031 C 
ATOM     60  C   UNL     1       8.203   6.514 -11.939  1.00  0.00     0.029 A 
ATOM     61  C   UNL     1       7.256   6.591 -12.960  1.00  0.00     0.049 A 
ATOM     62  H   UNL     1       7.336   5.668 -14.834  1.00  0.00     0.167 HD
ATOM     63  C   UNL     1       5.080   7.030 -14.073  1.00  0.00     0.074 A 
ATOM     64  C   UNL     1       5.291   6.504 -15.414  1.00  0.00     0.031 C 
ATOM     65  C   UNL     1       5.937   7.187 -13.024  1.00  0.00     0.031 A 
BRANCH  52  66
ATOM     66  C   UNL     1       9.232   3.609 -15.573  1.00  0.00    -0.014 A 
ATOM     67  C   UNL     1       9.990   4.671 -16.104  1.00  0.00     0.010 A 
ATOM     68  C   UNL     1       8.626   2.734 -16.501  1.00  0.00     0.010 A 
ATOM     69  C   UNL     1      10.072   4.887 -17.488  1.00  0.00     0.020 A 
ATOM     70  C   UNL     1       8.731   2.917 -17.879  1.00  0.00     0.020 A 
ATOM     71  C   UNL     1       9.426   4.014 -18.364  1.00  0.00     0.054 A 
BRANCH  71  72
ATOM     72  S   UNL     1       9.435   4.359 -20.139  1.00  0.00     0.124 S 
ATOM     73  O   UNL     1       8.653   5.589 -20.209  1.00  0.00    -0.237 OA
ATOM     74  O   UNL     1      10.861   4.492 -20.420  1.00  0.00    -0.237 OA
ATOM     75  O   UNL     1       8.799   3.178 -20.719  1.00  0.00    -0.744 OA
ENDBRANCH  71  72
ENDBRANCH  52  66
BRANCH  53  76
ATOM     76  C   UNL     1       0.939   5.265 -15.461  1.00  0.00    -0.014 A 
ATOM     77  C   UNL     1       0.546   6.434 -16.136  1.00  0.00     0.010 A 
ATOM     78  C   UNL     1       0.351   4.045 -15.857  1.00  0.00     0.010 A 
ATOM     79  C   UNL     1      -0.360   6.378 -17.207  1.00  0.00     0.020 A 
ATOM     80  C   UNL     1      -0.559   3.983 -16.917  1.00  0.00     0.020 A 
ATOM     81  C   UNL     1      -0.893   5.148 -17.603  1.00  0.00     0.054 A 
BRANCH  81  82
ATOM     82  S   UNL     1      -1.930   5.065 -19.093  1.00  0.00     0.124 S 
ATOM     83  O   UNL     1      -3.149   5.742 -18.660  1.00  0.00    -0.237 OA
ATOM     84  O   UNL     1      -1.126   5.779 -20.080  1.00  0.00    -0.237 OA
ATOM     85  O   UNL     1      -2.071   3.629 -19.333  1.00  0.00    -0.744 OA
ENDBRANCH  81  82
ENDBRANCH  53  76
BRANCH  65  86
ATOM     86  C   UNL     1       5.424   7.878 -11.793  1.00  0.00    -0.014 A 
ATOM     87  C   UNL     1       4.407   7.373 -10.962  1.00  0.00     0.010 A 
ATOM     88  C   UNL     1       6.075   9.067 -11.421  1.00  0.00     0.010 A 
ATOM     89  C   UNL     1       4.042   8.058  -9.794  1.00  0.00     0.020 A 
ATOM     90  C   UNL     1       5.730   9.742 -10.252  1.00  0.00     0.020 A 
ATOM     91  C   UNL     1       4.708   9.239  -9.447  1.00  0.00     0.054 A 
BRANCH  91  92
ATOM     92  S   UNL     1       4.263  10.098  -7.913  1.00  0.00     0.124 S 
ATOM     93  O   UNL     1       2.933  10.620  -8.216  1.00  0.00    -0.237 OA
ATOM     94  O   UNL     1       4.308   9.028  -6.918  1.00  0.00    -0.237 OA
ATOM     95  O   UNL     1       5.307  11.112  -7.766  1.00  0.00    -0.744 OA
ENDBRANCH  91  92
ENDBRANCH  65  86
ENDBRANCH  39  40
ENDBRANCH  32  34
ENDBRANCH  31  32
ENDBRANCH  30  31
ENDBRANCH   1  30
TORSDOF 19
