REMARK SMILES Cc1cc(N2CC[NH+]([C@@H](C(=O)OCCOC(=O)c3ccc(-c4c5nc(c(-c6ccc(S(=O)(=O)[O-])cc6)c6ccc([nH]6)c(-c6ccc(S(=O)(=O)[O-])cc6)c6nc(c(-c7ccc(S(=O)(=O)[O-])cc7)c7ccc4[nH]7)C=C6)C=C5)cc3)c3c[nH]c4ccccc34)CC2)nc2ccccc12
REMARK SMILES IDX 14 1 13 2 12 3 10 4 11 5 9 6 8 7 5 8 6 9 88 10 7 11 87 12
REMARK SMILES IDX 4 14 1 15 2 16 3 17 95 18 90 19 94 20 89 21 91 22 93 23
REMARK SMILES IDX 92 24 78 25 79 26 86 27 80 28 81 29 85 30 82 32 84 33 83 34
REMARK SMILES IDX 15 35 16 36 17 37 18 38 19 39 77 40 20 41 76 42 21 43 22 44
REMARK SMILES IDX 23 45 70 46 24 47 75 48 69 49 71 50 25 51 74 52 68 53 67 54
REMARK SMILES IDX 26 56 56 57 37 58 55 59 38 60 41 61 54 62 72 63 39 64 40 65
REMARK SMILES IDX 53 67 73 68 42 69 27 70 28 71 36 72 29 73 35 74 30 75 31 76
REMARK SMILES IDX 32 77 33 78 34 79 57 80 58 81 66 82 59 83 65 84 60 85 61 86
REMARK SMILES IDX 62 87 63 88 64 89 43 90 44 91 52 92 45 93 51 94 46 95 47 96
REMARK SMILES IDX 48 97 49 98 50 99
REMARK H PARENT 8 13 80 31 71 55 41 66
REMARK Flexibility Score: inf
ROOT
ATOM      1  C   UNL     1      -0.853  -5.534  -1.710  1.00  0.00     0.275 C 
ENDROOT
BRANCH   1   2
ATOM      2  C   UNL     1      -2.188  -4.832  -1.915  1.00  0.00     0.274 C 
BRANCH   2   3
ATOM      3  O   UNL     1      -2.860  -4.615  -0.651  1.00  0.00    -0.457 OA
BRANCH   3   4
ATOM      4  C   UNL     1      -4.027  -5.283  -0.462  1.00  0.00     0.370 C 
ATOM      5  O   UNL     1      -4.402  -6.195  -1.202  1.00  0.00    -0.245 OA
BRANCH   4   6
ATOM      6  C   UNL     1      -4.949  -4.696   0.609  1.00  0.00     0.328 C 
BRANCH   6   7
ATOM      7  N   UNL     1      -5.301  -3.236   0.484  1.00  0.00    -0.316 N 
ATOM      8  N   UNL     1      -2.988  -1.657  -0.303  1.00  0.00    -0.345 N 
ATOM      9  C   UNL     1      -3.141  -2.119   1.072  1.00  0.00     0.179 C 
ATOM     10  C   UNL     1      -4.094  -1.707  -1.254  1.00  0.00     0.179 C 
ATOM     11  C   UNL     1      -4.617  -2.318   1.403  1.00  0.00     0.285 C 
ATOM     12  C   UNL     1      -5.247  -2.696  -0.883  1.00  0.00     0.285 C 
ATOM     13  H   UNL     1      -6.277  -3.267   0.777  1.00  0.00     0.349 HD
BRANCH   8  14
ATOM     14  C   UNL     1      -1.940  -0.771  -0.437  1.00  0.00     0.129 A 
ATOM     15  C   UNL     1      -1.435   2.954  -0.133  1.00  0.00     0.045 C 
ATOM     16  C   UNL     1      -1.124   1.491  -0.267  1.00  0.00    -0.038 A 
ATOM     17  C   UNL     1      -2.184   0.595  -0.411  1.00  0.00     0.051 A 
ATOM     18  C   UNL     1       0.189   0.980  -0.192  1.00  0.00     0.003 A 
ATOM     19  C   UNL     1       0.345  -0.423  -0.247  1.00  0.00     0.073 A 
ATOM     20  C   UNL     1       1.337   1.790  -0.044  1.00  0.00     0.010 A 
ATOM     21  N   UNL     1      -0.691  -1.267  -0.361  1.00  0.00    -0.231 NA
ATOM     22  C   UNL     1       1.622  -0.960  -0.150  1.00  0.00     0.029 A 
ATOM     23  C   UNL     1       2.609   1.227   0.047  1.00  0.00     0.001 A 
ATOM     24  C   UNL     1       2.752  -0.153  -0.005  1.00  0.00     0.002 A 
ENDBRANCH   8  14
ENDBRANCH   6   7
BRANCH   6  25
ATOM     25  C   UNL     1      -4.812  -5.083   2.076  1.00  0.00     0.046 A 
ATOM     26  C   UNL     1      -5.933  -5.328   2.864  1.00  0.00     0.094 A 
ATOM     27  C   UNL     1      -3.704  -4.995   3.003  1.00  0.00     0.009 A 
ATOM     28  N   UNL     1      -5.610  -5.065   4.164  1.00  0.00    -0.361 N 
ATOM     29  C   UNL     1      -4.274  -4.771   4.263  1.00  0.00     0.046 A 
ATOM     30  C   UNL     1      -2.298  -4.902   2.915  1.00  0.00     0.011 A 
ATOM     31  H   UNL     1      -6.242  -5.084   4.918  1.00  0.00     0.166 HD
ATOM     32  C   UNL     1      -3.552  -4.293   5.364  1.00  0.00     0.026 A 
ATOM     33  C   UNL     1      -1.545  -4.518   4.038  1.00  0.00     0.001 A 
ATOM     34  C   UNL     1      -2.171  -4.166   5.228  1.00  0.00     0.002 A 
ENDBRANCH   6  25
ENDBRANCH   4   6
ENDBRANCH   3   4
ENDBRANCH   2   3
ENDBRANCH   1   2
BRANCH   1  35
ATOM     35  O   UNL     1      -1.112  -6.771  -1.032  1.00  0.00    -0.458 OA
BRANCH  35  36
ATOM     36  C   UNL     1      -0.454  -6.942   0.131  1.00  0.00     0.338 C 
ATOM     37  O   UNL     1       0.572  -6.360   0.480  1.00  0.00    -0.246 OA
BRANCH  36  38
ATOM     38  C   UNL     1      -1.211  -7.845   1.026  1.00  0.00     0.060 A 
ATOM     39  C   UNL     1      -2.586  -8.043   0.861  1.00  0.00     0.016 A 
ATOM     40  C   UNL     1      -0.569  -8.378   2.144  1.00  0.00     0.016 A 
ATOM     41  C   UNL     1      -3.333  -8.665   1.857  1.00  0.00     0.010 A 
ATOM     42  C   UNL     1      -1.302  -9.093   3.092  1.00  0.00     0.010 A 
ATOM     43  C   UNL     1      -2.695  -9.218   2.972  1.00  0.00    -0.014 A 
BRANCH  43  44
ATOM     44  C   UNL     1      -3.459  -9.998   3.975  1.00  0.00     0.031 A 
ATOM     45  C   UNL     1      -3.505  -9.571   5.414  1.00  0.00     0.074 A 
ATOM     46  C   UNL     1      -4.061 -11.138   3.590  1.00  0.00     0.049 A 
ATOM     47  N   UNL     1      -3.913 -10.244   6.460  1.00  0.00    -0.248 NA
ATOM     48  C   UNL     1      -3.021  -8.217   5.719  1.00  0.00     0.031 C 
ATOM     49  C   UNL     1      -4.117 -11.641   2.215  1.00  0.00     0.029 A 
ATOM     50  N   UNL     1      -4.721 -12.091   4.322  1.00  0.00    -0.354 N 
ATOM     51  C   UNL     1      -3.692  -9.417   7.555  1.00  0.00     0.074 A 
ATOM     52  C   UNL     1      -3.122  -8.187   7.042  1.00  0.00     0.031 C 
ATOM     53  C   UNL     1      -4.774 -12.807   2.202  1.00  0.00     0.029 A 
ATOM     54  C   UNL     1      -5.106 -13.175   3.573  1.00  0.00     0.049 A 
ATOM     55  H   UNL     1      -4.900 -12.007   5.286  1.00  0.00     0.167 HD
ATOM     56  C   UNL     1      -3.931  -9.673   8.865  1.00  0.00     0.031 A 
ATOM     57  C   UNL     1      -5.612 -14.366   3.941  1.00  0.00     0.031 A 
ATOM     58  C   UNL     1      -4.505 -10.904   9.355  1.00  0.00     0.049 A 
ATOM     59  C   UNL     1      -5.851 -14.639   5.391  1.00  0.00     0.074 A 
ATOM     60  C   UNL     1      -4.797 -11.261  10.662  1.00  0.00     0.029 A 
ATOM     61  N   UNL     1      -4.883 -11.978   8.560  1.00  0.00    -0.354 N 
ATOM     62  N   UNL     1      -5.578 -13.877   6.423  1.00  0.00    -0.248 NA
ATOM     63  C   UNL     1      -6.468 -15.926   5.725  1.00  0.00     0.031 C 
ATOM     64  C   UNL     1      -5.313 -12.563  10.659  1.00  0.00     0.029 A 
ATOM     65  C   UNL     1      -5.396 -12.999   9.347  1.00  0.00     0.049 A 
ATOM     66  H   UNL     1      -4.798 -12.011   7.580  1.00  0.00     0.167 HD
ATOM     67  C   UNL     1      -5.993 -14.592   7.537  1.00  0.00     0.074 A 
ATOM     68  C   UNL     1      -6.557 -15.837   7.046  1.00  0.00     0.031 C 
ATOM     69  C   UNL     1      -5.916 -14.248   8.848  1.00  0.00     0.031 A 
BRANCH  56  70
ATOM     70  C   UNL     1      -3.521  -8.624   9.869  1.00  0.00    -0.014 A 
ATOM     71  C   UNL     1      -4.218  -7.409   9.995  1.00  0.00     0.010 A 
ATOM     72  C   UNL     1      -2.437  -8.879  10.730  1.00  0.00     0.010 A 
ATOM     73  C   UNL     1      -3.813  -6.454  10.933  1.00  0.00     0.020 A 
ATOM     74  C   UNL     1      -2.045  -7.938  11.687  1.00  0.00     0.020 A 
ATOM     75  C   UNL     1      -2.724  -6.721  11.769  1.00  0.00     0.054 A 
BRANCH  75  76
ATOM     76  S   UNL     1      -2.223  -5.471  12.985  1.00  0.00     0.124 S 
ATOM     77  O   UNL     1      -1.536  -4.493  12.145  1.00  0.00    -0.237 OA
ATOM     78  O   UNL     1      -3.500  -5.031  13.542  1.00  0.00    -0.237 OA
ATOM     79  O   UNL     1      -1.367  -6.209  13.910  1.00  0.00    -0.744 OA
ENDBRANCH  75  76
ENDBRANCH  56  70
BRANCH  57  80
ATOM     80  C   UNL     1      -5.868 -15.378   2.884  1.00  0.00    -0.014 A 
ATOM     81  C   UNL     1      -7.172 -15.604   2.415  1.00  0.00     0.010 A 
ATOM     82  C   UNL     1      -4.783 -15.998   2.234  1.00  0.00     0.010 A 
ATOM     83  C   UNL     1      -7.384 -16.401   1.287  1.00  0.00     0.020 A 
ATOM     84  C   UNL     1      -4.989 -16.772   1.091  1.00  0.00     0.020 A 
ATOM     85  C   UNL     1      -6.290 -16.963   0.620  1.00  0.00     0.054 A 
BRANCH  85  86
ATOM     86  S   UNL     1      -6.571 -17.847  -0.940  1.00  0.00     0.124 S 
ATOM     87  O   UNL     1      -7.044 -19.145  -0.473  1.00  0.00    -0.237 OA
ATOM     88  O   UNL     1      -7.567 -17.011  -1.605  1.00  0.00    -0.237 OA
ATOM     89  O   UNL     1      -5.253 -17.848  -1.572  1.00  0.00    -0.744 OA
ENDBRANCH  85  86
ENDBRANCH  57  80
BRANCH  69  90
ATOM     90  C   UNL     1      -6.478 -15.239   9.830  1.00  0.00    -0.014 A 
ATOM     91  C   UNL     1      -5.810 -16.445  10.110  1.00  0.00     0.010 A 
ATOM     92  C   UNL     1      -7.710 -14.974  10.454  1.00  0.00     0.010 A 
ATOM     93  C   UNL     1      -6.397 -17.399  10.946  1.00  0.00     0.020 A 
ATOM     94  C   UNL     1      -8.288 -15.915  11.310  1.00  0.00     0.020 A 
ATOM     95  C   UNL     1      -7.641 -17.133  11.527  1.00  0.00     0.054 A 
BRANCH  95  96
ATOM     96  S   UNL     1      -8.406 -18.397  12.579  1.00  0.00     0.124 S 
ATOM     97  O   UNL     1      -8.927 -19.337  11.591  1.00  0.00    -0.237 OA
ATOM     98  O   UNL     1      -7.281 -18.881  13.376  1.00  0.00    -0.237 OA
ATOM     99  O   UNL     1      -9.418 -17.655  13.329  1.00  0.00    -0.744 OA
ENDBRANCH  95  96
ENDBRANCH  69  90
ENDBRANCH  43  44
ENDBRANCH  36  38
ENDBRANCH  35  36
ENDBRANCH   1  35
TORSDOF 17
