REMARK SMILES CCC(CC)(NC(=O)Nc1cc(Cl)cc(Cl)c1)C(=O)OCCOC(=O)c1ccc(-c2c3nc(c(-c4ccc(S(=O)(=O)[O-])cc4)c4ccc([nH]4)c(-c4ccc(S(=O)(=O)[O-])cc4)c4nc(c(-c5ccc(S(=O)(=O)[O-])cc5)c5ccc2[nH]5)C=C4)C=C3)cc1
REMARK SMILES IDX 22 1 21 2 20 3 18 4 19 5 3 6 2 7 1 8 4 9 5 10 6 11 7 12 8 14
REMARK SMILES IDX 9 15 10 17 11 18 17 19 12 20 15 21 13 22 14 23 16 24 23 25
REMARK SMILES IDX 24 26 25 27 26 28 27 29 85 30 28 31 84 32 29 33 30 34 31 35
REMARK SMILES IDX 78 36 32 37 83 38 77 39 79 40 33 41 82 42 76 43 75 44 34 46
REMARK SMILES IDX 64 47 45 48 63 49 46 50 49 51 62 52 80 53 47 54 48 55 61 57
REMARK SMILES IDX 81 58 50 59 35 60 36 61 44 62 37 63 43 64 38 65 39 66 40 67
REMARK SMILES IDX 41 68 42 69 65 70 66 71 74 72 67 73 73 74 68 75 69 76 70 77
REMARK SMILES IDX 71 78 72 79 51 80 52 81 60 82 53 83 59 84 54 85 55 86 56 87
REMARK SMILES IDX 57 88 58 89
REMARK H PARENT 6 13 9 16 79 45 49 56
REMARK Flexibility Score: inf
ROOT
ATOM      1  C   UNL     1       4.343  -2.703  -3.957  1.00  0.00     0.275 C 
ENDROOT
BRANCH   1   2
ATOM      2  C   UNL     1       3.944  -3.780  -2.755  1.00  0.00     0.274 C 
BRANCH   2   3
ATOM      3  O   UNL     1       2.490  -4.021  -2.498  1.00  0.00    -0.460 OA
BRANCH   3   4
ATOM      4  C   UNL     1       1.863  -4.032  -1.228  1.00  0.00     0.332 C 
ATOM      5  O   UNL     1       2.242  -4.788  -0.338  1.00  0.00    -0.249 OA
BRANCH   4   6
ATOM      6  C   UNL     1       0.478  -3.010  -1.087  1.00  0.00     0.139 C 
BRANCH   6   7
ATOM      7  C   UNL     1       0.144  -1.541  -0.537  1.00  0.00     0.037 C 
ATOM      8  C   UNL     1       0.328  -1.045   0.869  1.00  0.00     0.007 C 
ENDBRANCH   6   7
BRANCH   6   9
ATOM      9  C   UNL     1      -0.664  -3.963  -0.644  1.00  0.00     0.037 C 
ATOM     10  C   UNL     1      -2.116  -3.481  -0.715  1.00  0.00     0.007 C 
ENDBRANCH   6   9
BRANCH   6  11
ATOM     11  N   UNL     1       0.526  -2.653  -2.456  1.00  0.00    -0.322 N 
ATOM     12  C   UNL     1       1.550  -1.877  -2.859  1.00  0.00     0.320 C 
ATOM     13  H   UNL     1      -0.163  -2.961  -3.089  1.00  0.00     0.166 HD
ATOM     14  O   UNL     1       1.578  -1.644  -4.071  1.00  0.00    -0.248 OA
ATOM     15  N   UNL     1       2.545  -1.378  -2.017  1.00  0.00    -0.308 N 
ATOM     16  H   UNL     1       2.969  -0.697  -2.587  1.00  0.00     0.171 HD
BRANCH  15  17
ATOM     17  C   UNL     1       3.325  -1.271  -0.796  1.00  0.00     0.045 A 
ATOM     18  C   UNL     1       3.408  -2.090   0.330  1.00  0.00     0.046 A 
ATOM     19  C   UNL     1       4.276  -0.221  -0.807  1.00  0.00     0.046 A 
ATOM     20  C   UNL     1       4.389  -1.905   1.333  1.00  0.00     0.044 A 
ATOM     21  C   UNL     1       5.221  -0.005   0.206  1.00  0.00     0.044 A 
ATOM     22  Cl  UNL     1       4.507  -3.038   2.631  1.00  0.00    -0.084 Cl
ATOM     23  C   UNL     1       5.288  -0.854   1.288  1.00  0.00     0.041 A 
ATOM     24  Cl  UNL     1       6.330   1.303   0.068  1.00  0.00    -0.084 Cl
ENDBRANCH  15  17
ENDBRANCH   6  11
ENDBRANCH   4   6
ENDBRANCH   3   4
ENDBRANCH   2   3
ENDBRANCH   1   2
BRANCH   1  25
ATOM     25  O   UNL     1       4.240  -1.219  -3.667  1.00  0.00    -0.458 OA
BRANCH  25  26
ATOM     26  C   UNL     1       4.043  -0.230  -4.633  1.00  0.00     0.338 C 
ATOM     27  O   UNL     1       4.297  -0.376  -5.811  1.00  0.00    -0.246 OA
BRANCH  26  28
ATOM     28  C   UNL     1       3.483   1.107  -4.028  1.00  0.00     0.060 A 
ATOM     29  C   UNL     1       2.257   1.191  -3.335  1.00  0.00     0.016 A 
ATOM     30  C   UNL     1       4.137   2.332  -4.172  1.00  0.00     0.016 A 
ATOM     31  C   UNL     1       1.786   2.323  -2.646  1.00  0.00     0.010 A 
ATOM     32  C   UNL     1       3.611   3.527  -3.574  1.00  0.00     0.010 A 
ATOM     33  C   UNL     1       2.442   3.533  -2.778  1.00  0.00    -0.014 A 
BRANCH  33  34
ATOM     34  C   UNL     1       1.723   4.781  -2.342  1.00  0.00     0.031 A 
ATOM     35  C   UNL     1       0.989   5.574  -3.399  1.00  0.00     0.074 A 
ATOM     36  C   UNL     1       1.562   5.165  -1.054  1.00  0.00     0.049 A 
ATOM     37  N   UNL     1       0.435   6.758  -3.327  1.00  0.00    -0.248 NA
ATOM     38  C   UNL     1       0.851   4.926  -4.713  1.00  0.00     0.031 C 
ATOM     39  C   UNL     1       2.010   4.428   0.127  1.00  0.00     0.029 A 
ATOM     40  N   UNL     1       0.963   6.294  -0.524  1.00  0.00    -0.354 N 
ATOM     41  C   UNL     1      -0.060   7.022  -4.600  1.00  0.00     0.074 A 
ATOM     42  C   UNL     1       0.244   5.867  -5.418  1.00  0.00     0.031 C 
ATOM     43  C   UNL     1       1.701   5.135   1.232  1.00  0.00     0.029 A 
ATOM     44  C   UNL     1       1.086   6.407   0.845  1.00  0.00     0.049 A 
ATOM     45  H   UNL     1       0.491   6.958  -1.076  1.00  0.00     0.167 HD
ATOM     46  C   UNL     1      -0.695   8.127  -5.059  1.00  0.00     0.031 A 
ATOM     47  C   UNL     1       0.790   7.427   1.685  1.00  0.00     0.031 A 
ATOM     48  C   UNL     1      -1.027   9.272  -4.253  1.00  0.00     0.049 A 
ATOM     49  C   UNL     1       0.210   8.713   1.136  1.00  0.00     0.074 A 
ATOM     50  C   UNL     1      -1.635  10.453  -4.647  1.00  0.00     0.029 A 
ATOM     51  N   UNL     1      -0.792   9.380  -2.893  1.00  0.00    -0.354 N 
ATOM     52  N   UNL     1      -0.155   8.997  -0.092  1.00  0.00    -0.248 NA
ATOM     53  C   UNL     1       0.013   9.822   2.086  1.00  0.00     0.031 C 
ATOM     54  C   UNL     1      -1.713  11.298  -3.536  1.00  0.00     0.029 A 
ATOM     55  C   UNL     1      -1.220  10.617  -2.436  1.00  0.00     0.049 A 
ATOM     56  H   UNL     1      -0.383   8.682  -2.333  1.00  0.00     0.167 HD
ATOM     57  C   UNL     1      -0.647  10.302  -0.053  1.00  0.00     0.074 A 
ATOM     58  C   UNL     1      -0.549  10.747   1.319  1.00  0.00     0.031 C 
ATOM     59  C   UNL     1      -1.134  11.060  -1.068  1.00  0.00     0.031 A 
BRANCH  46  60
ATOM     60  C   UNL     1      -0.999   8.188  -6.534  1.00  0.00    -0.014 A 
ATOM     61  C   UNL     1      -2.010   7.407  -7.119  1.00  0.00     0.010 A 
ATOM     62  C   UNL     1      -0.263   9.076  -7.342  1.00  0.00     0.010 A 
ATOM     63  C   UNL     1      -2.252   7.484  -8.494  1.00  0.00     0.020 A 
ATOM     64  C   UNL     1      -0.524   9.179  -8.710  1.00  0.00     0.020 A 
ATOM     65  C   UNL     1      -1.507   8.369  -9.280  1.00  0.00     0.054 A 
BRANCH  65  66
ATOM     66  S   UNL     1      -1.858   8.466 -11.057  1.00  0.00     0.124 S 
ATOM     67  O   UNL     1      -1.325   7.194 -11.539  1.00  0.00    -0.237 OA
ATOM     68  O   UNL     1      -3.313   8.589 -11.088  1.00  0.00    -0.237 OA
ATOM     69  O   UNL     1      -1.125   9.652 -11.493  1.00  0.00    -0.744 OA
ENDBRANCH  65  66
ENDBRANCH  46  60
BRANCH  47  70
ATOM     70  C   UNL     1       1.119   7.335   3.144  1.00  0.00    -0.014 A 
ATOM     71  C   UNL     1       0.110   7.369   4.126  1.00  0.00     0.010 A 
ATOM     72  C   UNL     1       2.462   7.275   3.562  1.00  0.00     0.010 A 
ATOM     73  C   UNL     1       0.438   7.354   5.489  1.00  0.00     0.020 A 
ATOM     74  C   UNL     1       2.793   7.227   4.921  1.00  0.00     0.020 A 
ATOM     75  C   UNL     1       1.778   7.277   5.877  1.00  0.00     0.054 A 
BRANCH  75  76
ATOM     76  S   UNL     1       2.180   7.200   7.647  1.00  0.00     0.124 S 
ATOM     77  O   UNL     1       1.898   8.562   8.085  1.00  0.00    -0.237 OA
ATOM     78  O   UNL     1       1.260   6.174   8.133  1.00  0.00    -0.237 OA
ATOM     79  O   UNL     1       3.590   6.816   7.661  1.00  0.00    -0.744 OA
ENDBRANCH  75  76
ENDBRANCH  47  70
BRANCH  59  80
ATOM     80  C   UNL     1      -1.655  12.438  -0.740  1.00  0.00    -0.014 A 
ATOM     81  C   UNL     1      -0.790  13.491  -0.395  1.00  0.00     0.010 A 
ATOM     82  C   UNL     1      -3.035  12.699  -0.846  1.00  0.00     0.010 A 
ATOM     83  C   UNL     1      -1.297  14.769  -0.131  1.00  0.00     0.020 A 
ATOM     84  C   UNL     1      -3.543  13.981  -0.612  1.00  0.00     0.020 A 
ATOM     85  C   UNL     1      -2.671  15.006  -0.242  1.00  0.00     0.054 A 
BRANCH  85  86
ATOM     86  S   UNL     1      -3.299  16.681   0.065  1.00  0.00     0.124 S 
ATOM     87  O   UNL     1      -3.162  16.797   1.514  1.00  0.00    -0.237 OA
ATOM     88  O   UNL     1      -2.390  17.513  -0.720  1.00  0.00    -0.237 OA
ATOM     89  O   UNL     1      -4.673  16.633  -0.428  1.00  0.00    -0.744 OA
ENDBRANCH  85  86
ENDBRANCH  59  80
ENDBRANCH  33  34
ENDBRANCH  26  28
ENDBRANCH  25  26
ENDBRANCH   1  25
TORSDOF 18
