REMARK SMILES Cc1ccc(Cl)c(Nc2ccccc2C(=O)NCC(=O)OCCOC(=O)c2ccc(-c3c4nc(c(-c5ccc(S(=O)(=O)[O-])cc5)c5ccc([nH]5)c(-c5ccc(S(=O)(=O)[O-])cc5)c5nc(c(-c6ccc(S(=O)(=O)[O-])cc6)c6ccc3[nH]6)C=C5)C=C4)cc2)c1Cl
REMARK SMILES IDX 22 1 21 2 19 3 20 4 18 5 17 6 15 7 16 8 14 10 9 11 10 12
REMARK SMILES IDX 11 13 13 14 12 15 8 16 7 18 1 19 2 20 3 21 87 22 4 23 88 24
REMARK SMILES IDX 5 25 6 26 23 27 24 28 25 29 26 30 27 31 28 32 86 33 29 34
REMARK SMILES IDX 85 35 30 36 31 37 32 38 79 39 33 40 84 41 78 42 80 43 34 44
REMARK SMILES IDX 83 45 77 46 76 47 35 49 65 50 46 51 64 52 47 53 50 54 63 55
REMARK SMILES IDX 81 56 48 57 49 58 62 60 82 61 51 62 36 63 37 64 45 65 38 66
REMARK SMILES IDX 44 67 39 68 40 69 41 70 42 71 43 72 66 73 67 74 75 75 68 76
REMARK SMILES IDX 74 77 69 78 70 79 71 80 72 81 73 82 52 83 53 84 61 85 54 86
REMARK SMILES IDX 60 87 55 88 56 89 57 90 58 91 59 92
REMARK H PARENT 17 9 8 17 80 48 50 59
REMARK Flexibility Score: inf
ROOT
ATOM      1  C   UNL     1      -3.912  -2.431   3.319  1.00  0.00     0.274 C 
ENDROOT
BRANCH   1   2
ATOM      2  O   UNL     1      -2.519  -2.244   3.007  1.00  0.00    -0.461 OA
BRANCH   2   3
ATOM      3  C   UNL     1      -2.300  -1.943   1.704  1.00  0.00     0.325 C 
ATOM      4  O   UNL     1      -3.174  -1.911   0.840  1.00  0.00    -0.250 OA
BRANCH   3   5
ATOM      5  C   UNL     1      -0.899  -1.461   1.403  1.00  0.00     0.239 C 
BRANCH   5   6
ATOM      6  N   UNL     1       0.258  -1.746   2.220  1.00  0.00    -0.341 N 
ATOM      7  C   UNL     1       1.446  -2.349   1.879  1.00  0.00     0.253 C 
ATOM      8  O   UNL     1       2.396  -2.191   2.651  1.00  0.00    -0.269 OA
ATOM      9  H   UNL     1       0.185  -1.468   3.162  1.00  0.00     0.164 HD
BRANCH   7  10
ATOM     10  C   UNL     1       1.599  -3.331   0.756  1.00  0.00     0.063 A 
ATOM     11  C   UNL     1       1.203  -3.226  -0.595  1.00  0.00     0.051 A 
ATOM     12  C   UNL     1       1.353  -4.370  -1.418  1.00  0.00     0.027 A 
ATOM     13  C   UNL     1       1.958  -5.543  -0.966  1.00  0.00     0.002 A 
ATOM     14  C   UNL     1       2.243  -4.519   1.182  1.00  0.00     0.016 A 
ATOM     15  C   UNL     1       2.434  -5.606   0.331  1.00  0.00     0.001 A 
BRANCH  11  16
ATOM     16  N   UNL     1       0.774  -2.074  -1.286  1.00  0.00    -0.352 N 
ATOM     17  H   UNL     1       0.135  -2.276  -2.008  1.00  0.00     0.167 HD
BRANCH  16  18
ATOM     18  C   UNL     1       1.057  -0.690  -1.174  1.00  0.00     0.077 A 
ATOM     19  C   UNL     1       3.673   1.817   0.105  1.00  0.00     0.046 C 
ATOM     20  C   UNL     1       2.400   1.228  -0.436  1.00  0.00    -0.030 A 
ATOM     21  C   UNL     1       1.333   2.088  -0.723  1.00  0.00     0.006 A 
ATOM     22  C   UNL     1       2.269  -0.155  -0.694  1.00  0.00     0.069 A 
ATOM     23  C   UNL     1       0.165   1.593  -1.285  1.00  0.00     0.023 A 
ATOM     24  Cl  UNL     1       3.690  -1.153  -0.571  1.00  0.00    -0.082 Cl
ATOM     25  C   UNL     1       0.026   0.225  -1.500  1.00  0.00     0.066 A 
ATOM     26  Cl  UNL     1      -1.479  -0.333  -2.160  1.00  0.00    -0.082 Cl
ENDBRANCH  16  18
ENDBRANCH  11  16
ENDBRANCH   7  10
ENDBRANCH   5   6
ENDBRANCH   3   5
ENDBRANCH   2   3
ENDBRANCH   1   2
BRANCH   1  27
ATOM     27  C   UNL     1      -4.542  -1.128   3.815  1.00  0.00     0.275 C 
BRANCH  27  28
ATOM     28  O   UNL     1      -4.424  -0.065   2.844  1.00  0.00    -0.458 OA
BRANCH  28  29
ATOM     29  C   UNL     1      -3.612   0.959   3.195  1.00  0.00     0.338 C 
ATOM     30  O   UNL     1      -2.948   1.045   4.221  1.00  0.00    -0.246 OA
BRANCH  29  31
ATOM     31  C   UNL     1      -3.629   2.035   2.185  1.00  0.00     0.060 A 
ATOM     32  C   UNL     1      -3.281   1.788   0.859  1.00  0.00     0.016 A 
ATOM     33  C   UNL     1      -3.863   3.347   2.603  1.00  0.00     0.016 A 
ATOM     34  C   UNL     1      -3.085   2.866  -0.018  1.00  0.00     0.010 A 
ATOM     35  C   UNL     1      -3.740   4.411   1.697  1.00  0.00     0.010 A 
ATOM     36  C   UNL     1      -3.294   4.199   0.381  1.00  0.00    -0.014 A 
BRANCH  36  37
ATOM     37  C   UNL     1      -2.992   5.369  -0.520  1.00  0.00     0.031 A 
ATOM     38  C   UNL     1      -2.148   6.528  -0.020  1.00  0.00     0.074 A 
ATOM     39  C   UNL     1      -3.443   5.439  -1.791  1.00  0.00     0.049 A 
ATOM     40  N   UNL     1      -2.006   7.732  -0.523  1.00  0.00    -0.248 NA
ATOM     41  C   UNL     1      -1.381   6.309   1.216  1.00  0.00     0.031 C 
ATOM     42  C   UNL     1      -4.218   4.412  -2.485  1.00  0.00     0.029 A 
ATOM     43  N   UNL     1      -3.302   6.434  -2.736  1.00  0.00    -0.354 N 
ATOM     44  C   UNL     1      -1.227   8.441   0.388  1.00  0.00     0.074 A 
ATOM     45  C   UNL     1      -0.901   7.522   1.458  1.00  0.00     0.031 C 
ATOM     46  C   UNL     1      -4.428   4.796  -3.752  1.00  0.00     0.029 A 
ATOM     47  C   UNL     1      -3.914   6.150  -3.935  1.00  0.00     0.049 A 
ATOM     48  H   UNL     1      -2.810   7.270  -2.567  1.00  0.00     0.167 HD
ATOM     49  C   UNL     1      -0.831   9.739   0.351  1.00  0.00     0.031 A 
ATOM     50  C   UNL     1      -4.107   6.897  -5.042  1.00  0.00     0.031 A 
ATOM     51  C   UNL     1      -1.066  10.639  -0.750  1.00  0.00     0.049 A 
ATOM     52  C   UNL     1      -3.653   8.327  -5.080  1.00  0.00     0.074 A 
ATOM     53  C   UNL     1      -0.679  11.964  -0.875  1.00  0.00     0.029 A 
ATOM     54  N   UNL     1      -1.717  10.305  -1.925  1.00  0.00    -0.354 N 
ATOM     55  N   UNL     1      -3.028   9.016  -4.157  1.00  0.00    -0.248 NA
ATOM     56  C   UNL     1      -3.962   9.091  -6.299  1.00  0.00     0.031 C 
ATOM     57  C   UNL     1      -1.124  12.440  -2.114  1.00  0.00     0.029 A 
ATOM     58  C   UNL     1      -1.748  11.398  -2.778  1.00  0.00     0.049 A 
ATOM     59  H   UNL     1      -2.101   9.421  -2.126  1.00  0.00     0.167 HD
ATOM     60  C   UNL     1      -2.883  10.298  -4.677  1.00  0.00     0.074 A 
ATOM     61  C   UNL     1      -3.455  10.282  -6.007  1.00  0.00     0.031 C 
ATOM     62  C   UNL     1      -2.333  11.391  -4.093  1.00  0.00     0.031 A 
BRANCH  49  63
ATOM     63  C   UNL     1      -0.153  10.296   1.577  1.00  0.00    -0.014 A 
ATOM     64  C   UNL     1       1.174   9.977   1.909  1.00  0.00     0.010 A 
ATOM     65  C   UNL     1      -0.866  11.194   2.395  1.00  0.00     0.010 A 
ATOM     66  C   UNL     1       1.758  10.506   3.066  1.00  0.00     0.020 A 
ATOM     67  C   UNL     1      -0.278  11.745   3.536  1.00  0.00     0.020 A 
ATOM     68  C   UNL     1       1.025  11.379   3.877  1.00  0.00     0.054 A 
BRANCH  68  69
ATOM     69  S   UNL     1       1.800  12.054   5.372  1.00  0.00     0.124 S 
ATOM     70  O   UNL     1       1.693  10.929   6.297  1.00  0.00    -0.237 OA
ATOM     71  O   UNL     1       3.153  12.370   4.922  1.00  0.00    -0.237 OA
ATOM     72  O   UNL     1       0.970  13.211   5.699  1.00  0.00    -0.744 OA
ENDBRANCH  68  69
ENDBRANCH  49  63
BRANCH  50  73
ATOM     73  C   UNL     1      -4.845   6.304  -6.191  1.00  0.00    -0.014 A 
ATOM     74  C   UNL     1      -4.165   5.925  -7.360  1.00  0.00     0.010 A 
ATOM     75  C   UNL     1      -6.224   6.045  -6.083  1.00  0.00     0.010 A 
ATOM     76  C   UNL     1      -4.846   5.269  -8.390  1.00  0.00     0.020 A 
ATOM     77  C   UNL     1      -6.901   5.364  -7.097  1.00  0.00     0.020 A 
ATOM     78  C   UNL     1      -6.206   4.978  -8.245  1.00  0.00     0.054 A 
BRANCH  78  79
ATOM     79  S   UNL     1      -7.042   3.997  -9.521  1.00  0.00     0.124 S 
ATOM     80  O   UNL     1      -7.343   5.006 -10.531  1.00  0.00    -0.237 OA
ATOM     81  O   UNL     1      -6.024   3.016  -9.890  1.00  0.00    -0.237 OA
ATOM     82  O   UNL     1      -8.198   3.444  -8.819  1.00  0.00    -0.744 OA
ENDBRANCH  78  79
ENDBRANCH  50  73
BRANCH  62  83
ATOM     83  C   UNL     1      -2.314  12.667  -4.891  1.00  0.00    -0.014 A 
ATOM     84  C   UNL     1      -3.481  13.434  -5.056  1.00  0.00     0.010 A 
ATOM     85  C   UNL     1      -1.108  13.124  -5.452  1.00  0.00     0.010 A 
ATOM     86  C   UNL     1      -3.449  14.621  -5.795  1.00  0.00     0.020 A 
ATOM     87  C   UNL     1      -1.068  14.319  -6.176  1.00  0.00     0.020 A 
ATOM     88  C   UNL     1      -2.243  15.053  -6.356  1.00  0.00     0.054 A 
BRANCH  88  89
ATOM     89  S   UNL     1      -2.217  16.609  -7.290  1.00  0.00     0.124 S 
ATOM     90  O   UNL     1      -2.824  16.212  -8.557  1.00  0.00    -0.237 OA
ATOM     91  O   UNL     1      -3.024  17.499  -6.459  1.00  0.00    -0.237 OA
ATOM     92  O   UNL     1      -0.797  16.948  -7.357  1.00  0.00    -0.744 OA
ENDBRANCH  88  89
ENDBRANCH  62  83
ENDBRANCH  36  37
ENDBRANCH  29  31
ENDBRANCH  28  29
ENDBRANCH  27  28
ENDBRANCH   1  27
TORSDOF 18
