REMARK SMILES O=C(OCCOC(=O)c1c(S(=O)(=O)N2CCO[C@@H](CCO)C2)sc2c1CC[NH2+]C2)c1ccc(-c2c3nc(c(-c4ccc(S(=O)(=O)[O-])cc4)c4ccc([nH]4)c(-c4ccc(S(=O)(=O)[O-])cc4)c4nc(c(-c5ccc(S(=O)(=O)[O-])cc5)c5ccc2[nH]5)C=C4)C=C3)cc1
REMARK SMILES IDX 5 1 4 2 3 3 2 4 1 5 30 6 31 7 89 8 32 9 88 10 33 11 34 12
REMARK SMILES IDX 35 13 82 14 36 15 87 16 81 17 83 18 37 19 86 20 80 21 79 22
REMARK SMILES IDX 38 24 68 25 49 26 67 27 50 28 53 29 66 30 84 31 51 32 52 33
REMARK SMILES IDX 65 35 85 36 54 37 39 38 40 39 48 40 41 41 47 42 42 43 43 44
REMARK SMILES IDX 44 45 45 46 46 47 69 48 70 49 78 50 71 51 77 52 72 53 73 54
REMARK SMILES IDX 74 55 75 56 76 57 55 58 56 59 64 60 57 61 63 62 58 63 59 64
REMARK SMILES IDX 60 65 61 66 62 67 6 68 7 69 8 70 9 71 10 72 25 73 23 74
REMARK SMILES IDX 24 75 26 76 29 77 27 78 28 79 11 82 12 83 13 84 14 85 15 86
REMARK SMILES IDX 22 87 16 88 18 89 17 90 19 91 20 92 21 93
REMARK H PARENT 83 23 53 34 28 80 28 81 21 94
REMARK Flexibility Score: inf
ROOT
ATOM      1  C   UNL     1       4.425   1.931  -0.494  1.00  0.00     0.275 C 
ENDROOT
BRANCH   1   2
ATOM      2  C   UNL     1       4.857   0.675  -1.267  1.00  0.00     0.275 C 
BRANCH   2   3
ATOM      3  O   UNL     1       3.816  -0.203  -1.723  1.00  0.00    -0.458 OA
BRANCH   3   4
ATOM      4  C   UNL     1       2.679  -0.266  -1.009  1.00  0.00     0.338 C 
ATOM      5  O   UNL     1       1.652   0.317  -1.324  1.00  0.00    -0.246 OA
BRANCH   4   6
ATOM      6  C   UNL     1       2.712  -1.288   0.059  1.00  0.00     0.060 A 
ATOM      7  C   UNL     1       3.845  -1.633   0.814  1.00  0.00     0.016 A 
ATOM      8  C   UNL     1       1.485  -1.879   0.340  1.00  0.00     0.016 A 
ATOM      9  C   UNL     1       3.768  -2.637   1.773  1.00  0.00     0.010 A 
ATOM     10  C   UNL     1       1.386  -2.781   1.374  1.00  0.00     0.010 A 
ATOM     11  C   UNL     1       2.541  -3.247   2.009  1.00  0.00    -0.014 A 
BRANCH  11  12
ATOM     12  C   UNL     1       2.422  -4.380   2.926  1.00  0.00     0.031 A 
ATOM     13  C   UNL     1       2.812  -4.155   4.354  1.00  0.00     0.074 A 
ATOM     14  C   UNL     1       1.706  -5.455   2.528  1.00  0.00     0.049 A 
ATOM     15  N   UNL     1       3.567  -4.862   5.129  1.00  0.00    -0.248 NA
ATOM     16  C   UNL     1       2.324  -2.930   4.996  1.00  0.00     0.031 C 
ATOM     17  C   UNL     1       1.033  -5.675   1.236  1.00  0.00     0.029 A 
ATOM     18  N   UNL     1       1.248  -6.491   3.270  1.00  0.00    -0.354 N 
ATOM     19  C   UNL     1       3.501  -4.276   6.398  1.00  0.00     0.074 A 
ATOM     20  C   UNL     1       2.815  -3.023   6.230  1.00  0.00     0.031 C 
ATOM     21  C   UNL     1       0.030  -6.564   1.398  1.00  0.00     0.029 A 
ATOM     22  C   UNL     1       0.134  -7.124   2.730  1.00  0.00     0.049 A 
ATOM     23  H   UNL     1       1.667  -6.771   4.117  1.00  0.00     0.167 HD
ATOM     24  C   UNL     1       3.845  -4.940   7.538  1.00  0.00     0.031 A 
ATOM     25  C   UNL     1      -0.680  -8.009   3.355  1.00  0.00     0.031 A 
ATOM     26  C   UNL     1       4.613  -6.120   7.257  1.00  0.00     0.049 A 
ATOM     27  C   UNL     1       0.087  -8.541   4.509  1.00  0.00     0.074 A 
ATOM     28  C   UNL     1       5.832  -6.354   6.654  1.00  0.00     0.029 A 
ATOM     29  N   UNL     1       3.942  -7.321   7.225  1.00  0.00    -0.354 N 
ATOM     30  N   UNL     1       1.201  -9.210   4.371  1.00  0.00    -0.248 NA
ATOM     31  C   UNL     1      -0.102  -7.910   5.806  1.00  0.00     0.031 C 
ATOM     32  C   UNL     1       5.605  -7.494   5.827  1.00  0.00     0.029 A 
ATOM     33  C   UNL     1       4.296  -7.933   6.047  1.00  0.00     0.049 A 
ATOM     34  H   UNL     1       3.330  -7.672   7.911  1.00  0.00     0.167 HD
ATOM     35  C   UNL     1       2.032  -8.738   5.378  1.00  0.00     0.074 A 
ATOM     36  C   UNL     1       1.142  -8.011   6.287  1.00  0.00     0.031 C 
ATOM     37  C   UNL     1       3.393  -8.727   5.239  1.00  0.00     0.031 A 
BRANCH  24  38
ATOM     38  C   UNL     1       3.188  -4.718   8.880  1.00  0.00    -0.014 A 
ATOM     39  C   UNL     1       3.696  -5.390  10.012  1.00  0.00     0.010 A 
ATOM     40  C   UNL     1       1.922  -4.109   9.012  1.00  0.00     0.010 A 
ATOM     41  C   UNL     1       2.937  -5.517  11.185  1.00  0.00     0.020 A 
ATOM     42  C   UNL     1       1.175  -4.197  10.190  1.00  0.00     0.020 A 
ATOM     43  C   UNL     1       1.671  -4.936  11.256  1.00  0.00     0.054 A 
BRANCH  43  44
ATOM     44  S   UNL     1       0.642  -5.234  12.718  1.00  0.00     0.124 S 
ATOM     45  O   UNL     1       0.398  -6.670  12.626  1.00  0.00    -0.237 OA
ATOM     46  O   UNL     1       1.518  -4.808  13.806  1.00  0.00    -0.237 OA
ATOM     47  O   UNL     1      -0.524  -4.383  12.494  1.00  0.00    -0.744 OA
ENDBRANCH  43  44
ENDBRANCH  24  38
BRANCH  25  48
ATOM     48  C   UNL     1      -2.154  -8.114   3.208  1.00  0.00    -0.014 A 
ATOM     49  C   UNL     1      -2.854  -9.262   3.616  1.00  0.00     0.010 A 
ATOM     50  C   UNL     1      -2.912  -6.965   2.888  1.00  0.00     0.010 A 
ATOM     51  C   UNL     1      -4.256  -9.247   3.743  1.00  0.00     0.020 A 
ATOM     52  C   UNL     1      -4.307  -6.943   3.009  1.00  0.00     0.020 A 
ATOM     53  C   UNL     1      -4.972  -8.081   3.456  1.00  0.00     0.054 A 
BRANCH  53  54
ATOM     54  S   UNL     1      -6.761  -8.023   3.783  1.00  0.00     0.124 S 
ATOM     55  O   UNL     1      -7.295  -8.912   2.756  1.00  0.00    -0.237 OA
ATOM     56  O   UNL     1      -6.849  -8.518   5.154  1.00  0.00    -0.237 OA
ATOM     57  O   UNL     1      -7.098  -6.610   3.615  1.00  0.00    -0.744 OA
ENDBRANCH  53  54
ENDBRANCH  25  48
BRANCH  37  58
ATOM     58  C   UNL     1       4.005  -9.375   4.010  1.00  0.00    -0.014 A 
ATOM     59  C   UNL     1       3.798  -8.899   2.699  1.00  0.00     0.010 A 
ATOM     60  C   UNL     1       4.980 -10.367   4.204  1.00  0.00     0.010 A 
ATOM     61  C   UNL     1       4.529  -9.409   1.614  1.00  0.00     0.020 A 
ATOM     62  C   UNL     1       5.724 -10.871   3.130  1.00  0.00     0.020 A 
ATOM     63  C   UNL     1       5.491 -10.395   1.839  1.00  0.00     0.054 A 
BRANCH  63  64
ATOM     64  S   UNL     1       6.475 -11.015   0.445  1.00  0.00     0.124 S 
ATOM     65  O   UNL     1       5.488 -11.753  -0.338  1.00  0.00    -0.237 OA
ATOM     66  O   UNL     1       6.977  -9.788  -0.172  1.00  0.00    -0.237 OA
ATOM     67  O   UNL     1       7.501 -11.840   1.082  1.00  0.00    -0.744 OA
ENDBRANCH  63  64
ENDBRANCH  37  58
ENDBRANCH  11  12
ENDBRANCH   4   6
ENDBRANCH   3   4
ENDBRANCH   2   3
ENDBRANCH   1   2
BRANCH   1  68
ATOM     68  O   UNL     1       3.919   1.601   0.814  1.00  0.00    -0.458 OA
BRANCH  68  69
ATOM     69  C   UNL     1       2.684   2.054   1.186  1.00  0.00     0.340 C 
ATOM     70  O   UNL     1       1.936   2.745   0.496  1.00  0.00    -0.246 OA
BRANCH  69  71
ATOM     71  C   UNL     1       2.349   1.575   2.515  1.00  0.00     0.095 A 
ATOM     72  C   UNL     1       3.194   1.852   3.586  1.00  0.00     0.150 A 
ATOM     73  C   UNL     1       1.166   0.895   3.006  1.00  0.00    -0.007 A 
ATOM     74  S   UNL     1       2.938   0.698   4.807  1.00  0.00    -0.120 S 
ATOM     75  C   UNL     1       1.315   0.575   4.342  1.00  0.00     0.064 A 
ATOM     76  C   UNL     1      -0.106   0.510   2.309  1.00  0.00     0.099 C 
ATOM     77  C   UNL     1       0.227   0.095   5.243  1.00  0.00     0.308 C 
ATOM     78  C   UNL     1      -1.174  -0.104   3.265  1.00  0.00     0.265 C 
ATOM     79  N   UNL     1      -0.698  -0.757   4.498  1.00  0.00    -0.342 N 
ATOM     80  H   UNL     1      -0.221  -1.624   4.249  1.00  0.00     0.346 HD
ATOM     81  H   UNL     1      -1.507  -0.941   5.091  1.00  0.00     0.346 HD
BRANCH  72  82
ATOM     82  S   UNL     1       4.449   3.071   3.850  1.00  0.00     0.253 S 
ATOM     83  O   UNL     1       5.706   2.370   3.713  1.00  0.00    -0.206 OA
ATOM     84  O   UNL     1       4.085   4.131   2.929  1.00  0.00    -0.206 OA
BRANCH  82  85
ATOM     85  N   UNL     1       4.348   3.732   5.409  1.00  0.00    -0.192 NA
ATOM     86  C   UNL     1       4.886   3.005   6.586  1.00  0.00     0.131 C 
ATOM     87  C   UNL     1       3.200   4.604   5.764  1.00  0.00     0.134 C 
ATOM     88  C   UNL     1       3.799   2.441   7.523  1.00  0.00     0.177 C 
ATOM     89  C   UNL     1       2.115   3.769   6.450  1.00  0.00     0.135 C 
ATOM     90  O   UNL     1       2.645   3.277   7.696  1.00  0.00    -0.375 OA
BRANCH  89  91
ATOM     91  C   UNL     1       0.809   4.510   6.753  1.00  0.00     0.061 C 
BRANCH  91  92
ATOM     92  C   UNL     1       0.267   5.338   5.598  1.00  0.00     0.159 C 
BRANCH  92  93
ATOM     93  O   UNL     1       0.233   4.554   4.415  1.00  0.00    -0.396 OA
ATOM     94  H   UNL     1       1.130   4.256   4.199  1.00  0.00     0.210 HD
ENDBRANCH  92  93
ENDBRANCH  91  92
ENDBRANCH  89  91
ENDBRANCH  82  85
ENDBRANCH  72  82
ENDBRANCH  69  71
ENDBRANCH  68  69
ENDBRANCH   1  68
TORSDOF 19
