REMARK SMILES O=C(OCCOC(=O)c1cn(C2C[NH+](Cc3cc(F)ccc3F)C2)nn1)c1ccc(-c2c3nc(c(-c4ccc(S(=O)(=O)[O-])cc4)c4ccc([nH]4)c(-c4ccc(S(=O)(=O)[O-])cc4)c4nc(c(-c5ccc(S(=O)(=O)[O-])cc5)c5ccc2[nH]5)C=C4)C=C3)cc1
REMARK SMILES IDX 4 1 3 2 2 3 1 4 27 5 28 6 86 7 29 8 85 9 30 10 31 11 32 12
REMARK SMILES IDX 79 13 33 14 84 15 78 16 80 17 34 18 83 19 77 20 76 21 35 23
REMARK SMILES IDX 65 24 46 25 64 26 47 27 50 28 63 29 81 30 48 31 49 32 62 34
REMARK SMILES IDX 82 35 51 36 36 37 37 38 45 39 38 40 44 41 39 42 40 43 41 44
REMARK SMILES IDX 42 45 43 46 66 47 67 48 75 49 68 50 74 51 69 52 70 53 71 54
REMARK SMILES IDX 72 55 73 56 52 57 53 58 61 59 54 60 60 61 55 62 56 63 57 64
REMARK SMILES IDX 58 65 59 66 5 67 6 68 7 69 8 70 9 71 10 72 26 73 11 74 25 75
REMARK SMILES IDX 12 76 13 77 24 78 14 79 15 81 16 82 17 83 22 84 18 85 21 86
REMARK SMILES IDX 23 87 19 88 20 89
REMARK H PARENT 80 22 50 33 14 80
REMARK Flexibility Score: inf
ROOT
ATOM      1  C   UNL     1       4.700  -1.218   0.114  1.00  0.00     0.275 C 
ENDROOT
BRANCH   1   2
ATOM      2  O   UNL     1       3.446  -1.254   0.825  1.00  0.00    -0.458 OA
BRANCH   2   3
ATOM      3  C   UNL     1       2.435  -0.441   0.438  1.00  0.00     0.338 C 
ATOM      4  O   UNL     1       1.588  -0.757  -0.382  1.00  0.00    -0.246 OA
BRANCH   3   5
ATOM      5  C   UNL     1       2.340   0.758   1.302  1.00  0.00     0.060 A 
ATOM      6  C   UNL     1       3.477   1.355   1.856  1.00  0.00     0.016 A 
ATOM      7  C   UNL     1       1.070   1.284   1.572  1.00  0.00     0.016 A 
ATOM      8  C   UNL     1       3.346   2.415   2.738  1.00  0.00     0.010 A 
ATOM      9  C   UNL     1       0.936   2.348   2.458  1.00  0.00     0.010 A 
ATOM     10  C   UNL     1       2.074   2.888   3.063  1.00  0.00    -0.014 A 
BRANCH  10  11
ATOM     11  C   UNL     1       1.999   4.046   3.948  1.00  0.00     0.031 A 
ATOM     12  C   UNL     1       2.535   5.310   3.373  1.00  0.00     0.074 A 
ATOM     13  C   UNL     1       1.374   4.028   5.141  1.00  0.00     0.049 A 
ATOM     14  N   UNL     1       3.525   6.031   3.791  1.00  0.00    -0.248 NA
ATOM     15  C   UNL     1       1.952   5.770   2.102  1.00  0.00     0.031 C 
ATOM     16  C   UNL     1       0.557   2.947   5.695  1.00  0.00     0.029 A 
ATOM     17  N   UNL     1       1.230   5.030   6.056  1.00  0.00    -0.354 N 
ATOM     18  C   UNL     1       3.545   7.156   2.969  1.00  0.00     0.074 A 
ATOM     19  C   UNL     1       2.678   6.860   1.857  1.00  0.00     0.031 C 
ATOM     20  C   UNL     1      -0.184   3.433   6.715  1.00  0.00     0.029 A 
ATOM     21  C   UNL     1       0.198   4.815   6.961  1.00  0.00     0.049 A 
ATOM     22  H   UNL     1       1.804   5.830   6.073  1.00  0.00     0.167 HD
ATOM     23  C   UNL     1       4.059   8.348   3.384  1.00  0.00     0.031 A 
ATOM     24  C   UNL     1      -0.363   5.727   7.795  1.00  0.00     0.031 A 
ATOM     25  C   UNL     1       4.932   8.199   4.519  1.00  0.00     0.049 A 
ATOM     26  C   UNL     1       0.587   6.855   7.939  1.00  0.00     0.074 A 
ATOM     27  C   UNL     1       6.073   7.467   4.786  1.00  0.00     0.029 A 
ATOM     28  N   UNL     1       4.462   8.619   5.740  1.00  0.00    -0.354 N 
ATOM     29  N   UNL     1       1.731   6.762   8.557  1.00  0.00    -0.248 NA
ATOM     30  C   UNL     1       0.451   7.998   7.051  1.00  0.00     0.031 C 
ATOM     31  C   UNL     1       5.953   7.083   6.154  1.00  0.00     0.029 A 
ATOM     32  C   UNL     1       4.780   7.650   6.654  1.00  0.00     0.049 A 
ATOM     33  H   UNL     1       3.984   9.460   5.924  1.00  0.00     0.167 HD
ATOM     34  C   UNL     1       2.595   7.563   7.826  1.00  0.00     0.074 A 
ATOM     35  C   UNL     1       1.728   8.385   6.987  1.00  0.00     0.031 C 
ATOM     36  C   UNL     1       3.932   7.287   7.769  1.00  0.00     0.031 A 
BRANCH  23  37
ATOM     37  C   UNL     1       3.420   9.678   3.036  1.00  0.00    -0.014 A 
ATOM     38  C   UNL     1       4.008  10.867   3.517  1.00  0.00     0.010 A 
ATOM     39  C   UNL     1       2.109   9.782   2.525  1.00  0.00     0.010 A 
ATOM     40  C   UNL     1       3.282  12.065   3.580  1.00  0.00     0.020 A 
ATOM     41  C   UNL     1       1.395  10.980   2.535  1.00  0.00     0.020 A 
ATOM     42  C   UNL     1       1.970  12.105   3.106  1.00  0.00     0.054 A 
BRANCH  42  43
ATOM     43  S   UNL     1       0.993  13.613   3.312  1.00  0.00     0.124 S 
ATOM     44  O   UNL     1       0.819  13.657   4.760  1.00  0.00    -0.237 OA
ATOM     45  O   UNL     1       1.873  14.631   2.745  1.00  0.00    -0.237 OA
ATOM     46  O   UNL     1      -0.218  13.343   2.539  1.00  0.00    -0.744 OA
ENDBRANCH  42  43
ENDBRANCH  23  37
BRANCH  24  47
ATOM     47  C   UNL     1      -1.778   5.815   8.237  1.00  0.00    -0.014 A 
ATOM     48  C   UNL     1      -2.161   6.686   9.274  1.00  0.00     0.010 A 
ATOM     49  C   UNL     1      -2.801   5.238   7.457  1.00  0.00     0.010 A 
ATOM     50  C   UNL     1      -3.512   7.017   9.479  1.00  0.00     0.020 A 
ATOM     51  C   UNL     1      -4.149   5.551   7.663  1.00  0.00     0.020 A 
ATOM     52  C   UNL     1      -4.496   6.461   8.657  1.00  0.00     0.054 A 
BRANCH  52  53
ATOM     53  S   UNL     1      -6.215   7.031   8.803  1.00  0.00     0.124 S 
ATOM     54  O   UNL     1      -6.630   6.447  10.075  1.00  0.00    -0.237 OA
ATOM     55  O   UNL     1      -6.072   8.484   8.792  1.00  0.00    -0.237 OA
ATOM     56  O   UNL     1      -6.867   6.468   7.621  1.00  0.00    -0.744 OA
ENDBRANCH  52  53
ENDBRANCH  24  47
BRANCH  36  57
ATOM     57  C   UNL     1       4.521   6.335   8.782  1.00  0.00    -0.014 A 
ATOM     58  C   UNL     1       4.084   5.008   8.960  1.00  0.00     0.010 A 
ATOM     59  C   UNL     1       5.654   6.767   9.495  1.00  0.00     0.010 A 
ATOM     60  C   UNL     1       4.738   4.152   9.858  1.00  0.00     0.020 A 
ATOM     61  C   UNL     1       6.323   5.914  10.374  1.00  0.00     0.020 A 
ATOM     62  C   UNL     1       5.854   4.614  10.562  1.00  0.00     0.054 A 
BRANCH  62  63
ATOM     63  S   UNL     1       6.717   3.493  11.697  1.00  0.00     0.124 S 
ATOM     64  O   UNL     1       5.748   3.325  12.777  1.00  0.00    -0.237 OA
ATOM     65  O   UNL     1       6.952   2.311  10.871  1.00  0.00    -0.237 OA
ATOM     66  O   UNL     1       7.927   4.230  12.062  1.00  0.00    -0.744 OA
ENDBRANCH  62  63
ENDBRANCH  36  57
ENDBRANCH  10  11
ENDBRANCH   3   5
ENDBRANCH   2   3
ENDBRANCH   1   2
BRANCH   1  67
ATOM     67  C   UNL     1       4.638  -1.002  -1.397  1.00  0.00     0.275 C 
BRANCH  67  68
ATOM     68  O   UNL     1       4.154   0.318  -1.676  1.00  0.00    -0.457 OA
BRANCH  68  69
ATOM     69  C   UNL     1       3.153   0.396  -2.608  1.00  0.00     0.360 C 
ATOM     70  O   UNL     1       2.797  -0.509  -3.337  1.00  0.00    -0.244 OA
BRANCH  69  71
ATOM     71  C   UNL     1       2.601   1.732  -2.647  1.00  0.00     0.190 A 
ATOM     72  C   UNL     1       3.134   2.837  -3.276  1.00  0.00     0.147 A 
ATOM     73  N   UNL     1       1.448   2.089  -2.000  1.00  0.00    -0.123 NA
ATOM     74  N   UNL     1       2.253   3.835  -2.977  1.00  0.00    -0.237 N 
ATOM     75  N   UNL     1       1.255   3.385  -2.195  1.00  0.00    -0.066 NA
BRANCH  74  76
ATOM     76  C   UNL     1       2.279   5.199  -3.397  1.00  0.00     0.218 C 
ATOM     77  C   UNL     1       3.665   5.824  -3.676  1.00  0.00     0.296 C 
ATOM     78  C   UNL     1       2.064   5.352  -4.925  1.00  0.00     0.296 C 
ATOM     79  N   UNL     1       3.170   6.330  -4.971  1.00  0.00    -0.327 N 
ATOM     80  H   UNL     1       3.787   6.371  -5.782  1.00  0.00     0.348 HD
BRANCH  79  81
ATOM     81  C   UNL     1       2.742   7.749  -4.949  1.00  0.00     0.302 C 
BRANCH  81  82
ATOM     82  C   UNL     1       1.622   8.183  -4.030  1.00  0.00     0.045 A 
ATOM     83  C   UNL     1       1.839   8.402  -2.660  1.00  0.00     0.051 A 
ATOM     84  C   UNL     1       0.317   8.332  -4.520  1.00  0.00     0.132 A 
ATOM     85  C   UNL     1       0.763   8.654  -1.813  1.00  0.00     0.123 A 
ATOM     86  C   UNL     1      -0.753   8.620  -3.674  1.00  0.00     0.043 A 
ATOM     87  F   UNL     1       0.072   8.168  -5.828  1.00  0.00    -0.206 F 
ATOM     88  F   UNL     1       0.978   8.751  -0.496  1.00  0.00    -0.207 F 
ATOM     89  C   UNL     1      -0.532   8.759  -2.306  1.00  0.00     0.042 A 
ENDBRANCH  81  82
ENDBRANCH  79  81
ENDBRANCH  74  76
ENDBRANCH  69  71
ENDBRANCH  68  69
ENDBRANCH  67  68
ENDBRANCH   1  67
TORSDOF 17
