REMARK SMILES O=C(OCCOC(=O)c1ccsc1NC(=O)c1cc2c(F)cccc2s1)c1ccc(-c2c3nc(c(-c4ccc(S(=O)(=O)[O-])cc4)c4ccc([nH]4)c(-c4ccc(S(=O)(=O)[O-])cc4)c4nc(c(-c5ccc(S(=O)(=O)[O-])cc5)c5ccc2[nH]5)C=C4)C=C3)cc1
REMARK SMILES IDX 4 1 3 2 2 3 1 4 27 5 28 6 86 7 29 8 85 9 30 10 31 11 32 12
REMARK SMILES IDX 79 13 33 14 84 15 78 16 80 17 34 18 83 19 77 20 76 21 35 23
REMARK SMILES IDX 65 24 46 25 64 26 47 27 50 28 63 29 81 30 48 31 49 32 62 34
REMARK SMILES IDX 82 35 51 36 36 37 37 38 45 39 38 40 44 41 39 42 40 43 41 44
REMARK SMILES IDX 42 45 43 46 66 47 67 48 75 49 68 50 74 51 69 52 70 53 71 54
REMARK SMILES IDX 72 55 73 56 52 57 53 58 61 59 54 60 60 61 55 62 56 63 57 64
REMARK SMILES IDX 58 65 59 66 5 67 6 68 7 69 8 70 9 71 10 72 13 73 11 74 12 75
REMARK SMILES IDX 14 76 15 77 16 79 17 80 18 81 26 82 19 83 25 84 20 85 24 86
REMARK SMILES IDX 21 87 22 88 23 89
REMARK H PARENT 80 22 50 33 14 78
REMARK Flexibility Score: inf
ROOT
ATOM      1  C   UNL     1       4.833   1.428   0.097  1.00  0.00     0.275 C 
ENDROOT
BRANCH   1   2
ATOM      2  O   UNL     1       3.729   1.552  -0.812  1.00  0.00    -0.458 OA
BRANCH   2   3
ATOM      3  C   UNL     1       2.675   0.732  -0.657  1.00  0.00     0.338 C 
ATOM      4  O   UNL     1       1.618   1.072  -0.142  1.00  0.00    -0.246 OA
BRANCH   3   5
ATOM      5  C   UNL     1       2.793  -0.574  -1.332  1.00  0.00     0.060 A 
ATOM      6  C   UNL     1       3.944  -1.369  -1.384  1.00  0.00     0.016 A 
ATOM      7  C   UNL     1       1.594  -1.048  -1.858  1.00  0.00     0.016 A 
ATOM      8  C   UNL     1       3.904  -2.591  -2.049  1.00  0.00     0.010 A 
ATOM      9  C   UNL     1       1.526  -2.311  -2.396  1.00  0.00     0.010 A 
ATOM     10  C   UNL     1       2.694  -3.034  -2.588  1.00  0.00    -0.014 A 
BRANCH  10  11
ATOM     11  C   UNL     1       2.643  -4.224  -3.421  1.00  0.00     0.031 A 
ATOM     12  C   UNL     1       3.180  -5.485  -2.837  1.00  0.00     0.074 A 
ATOM     13  C   UNL     1       2.049  -4.192  -4.633  1.00  0.00     0.049 A 
ATOM     14  N   UNL     1       4.256  -6.120  -3.164  1.00  0.00    -0.248 NA
ATOM     15  C   UNL     1       2.490  -6.071  -1.686  1.00  0.00     0.031 C 
ATOM     16  C   UNL     1       1.271  -3.122  -5.279  1.00  0.00     0.029 A 
ATOM     17  N   UNL     1       1.973  -5.192  -5.541  1.00  0.00    -0.354 N 
ATOM     18  C   UNL     1       4.292  -7.276  -2.385  1.00  0.00     0.074 A 
ATOM     19  C   UNL     1       3.230  -7.147  -1.421  1.00  0.00     0.031 C 
ATOM     20  C   UNL     1       0.627  -3.612  -6.362  1.00  0.00     0.029 A 
ATOM     21  C   UNL     1       1.105  -4.958  -6.598  1.00  0.00     0.049 A 
ATOM     22  H   UNL     1       2.494  -6.023  -5.459  1.00  0.00     0.167 HD
ATOM     23  C   UNL     1       5.104  -8.329  -2.679  1.00  0.00     0.031 A 
ATOM     24  C   UNL     1       0.825  -5.810  -7.613  1.00  0.00     0.031 A 
ATOM     25  C   UNL     1       6.093  -7.978  -3.663  1.00  0.00     0.049 A 
ATOM     26  C   UNL     1       1.986  -6.734  -7.695  1.00  0.00     0.074 A 
ATOM     27  C   UNL     1       7.165  -7.107  -3.674  1.00  0.00     0.029 A 
ATOM     28  N   UNL     1       5.780  -8.204  -4.984  1.00  0.00    -0.354 N 
ATOM     29  N   UNL     1       3.191  -6.330  -8.000  1.00  0.00    -0.248 NA
ATOM     30  C   UNL     1       1.918  -7.988  -6.962  1.00  0.00     0.031 C 
ATOM     31  C   UNL     1       7.095  -6.465  -4.947  1.00  0.00     0.029 A 
ATOM     32  C   UNL     1       6.041  -7.037  -5.665  1.00  0.00     0.049 A 
ATOM     33  H   UNL     1       5.435  -9.042  -5.370  1.00  0.00     0.167 HD
ATOM     34  C   UNL     1       4.036  -7.038  -7.156  1.00  0.00     0.074 A 
ATOM     35  C   UNL     1       3.199  -8.100  -6.594  1.00  0.00     0.031 C 
ATOM     36  C   UNL     1       5.255  -6.546  -6.780  1.00  0.00     0.031 A 
BRANCH  23  37
ATOM     37  C   UNL     1       4.827  -9.754  -2.288  1.00  0.00    -0.014 A 
ATOM     38  C   UNL     1       5.843 -10.721  -2.420  1.00  0.00     0.010 A 
ATOM     39  C   UNL     1       3.520 -10.221  -2.037  1.00  0.00     0.010 A 
ATOM     40  C   UNL     1       5.555 -12.092  -2.353  1.00  0.00     0.020 A 
ATOM     41  C   UNL     1       3.228 -11.586  -1.937  1.00  0.00     0.020 A 
ATOM     42  C   UNL     1       4.245 -12.515  -2.124  1.00  0.00     0.054 A 
BRANCH  42  43
ATOM     43  S   UNL     1       3.869 -14.287  -2.181  1.00  0.00     0.124 S 
ATOM     44  O   UNL     1       4.366 -14.665  -3.501  1.00  0.00    -0.237 OA
ATOM     45  O   UNL     1       4.633 -14.798  -1.047  1.00  0.00    -0.237 OA
ATOM     46  O   UNL     1       2.417 -14.336  -2.024  1.00  0.00    -0.744 OA
ENDBRANCH  42  43
ENDBRANCH  23  37
BRANCH  24  47
ATOM     47  C   UNL     1      -0.520  -6.122  -8.160  1.00  0.00    -0.014 A 
ATOM     48  C   UNL     1      -0.658  -6.954  -9.287  1.00  0.00     0.010 A 
ATOM     49  C   UNL     1      -1.680  -5.845  -7.405  1.00  0.00     0.010 A 
ATOM     50  C   UNL     1      -1.889  -7.559  -9.592  1.00  0.00     0.020 A 
ATOM     51  C   UNL     1      -2.912  -6.442  -7.706  1.00  0.00     0.020 A 
ATOM     52  C   UNL     1      -3.000  -7.326  -8.778  1.00  0.00     0.054 A 
BRANCH  52  53
ATOM     53  S   UNL     1      -4.528  -8.267  -9.069  1.00  0.00     0.124 S 
ATOM     54  O   UNL     1      -4.867  -7.902 -10.442  1.00  0.00    -0.237 OA
ATOM     55  O   UNL     1      -4.084  -9.644  -8.873  1.00  0.00    -0.237 OA
ATOM     56  O   UNL     1      -5.447  -7.763  -8.050  1.00  0.00    -0.744 OA
ENDBRANCH  52  53
ENDBRANCH  24  47
BRANCH  36  57
ATOM     57  C   UNL     1       5.730  -5.254  -7.419  1.00  0.00    -0.014 A 
ATOM     58  C   UNL     1       5.117  -4.003  -7.188  1.00  0.00     0.010 A 
ATOM     59  C   UNL     1       6.934  -5.276  -8.141  1.00  0.00     0.010 A 
ATOM     60  C   UNL     1       5.683  -2.815  -7.682  1.00  0.00     0.020 A 
ATOM     61  C   UNL     1       7.510  -4.096  -8.626  1.00  0.00     0.020 A 
ATOM     62  C   UNL     1       6.882  -2.870  -8.396  1.00  0.00     0.054 A 
BRANCH  62  63
ATOM     63  S   UNL     1       7.629  -1.332  -9.010  1.00  0.00     0.124 S 
ATOM     64  O   UNL     1       6.581  -0.779  -9.863  1.00  0.00    -0.237 OA
ATOM     65  O   UNL     1       7.892  -0.590  -7.778  1.00  0.00    -0.237 OA
ATOM     66  O   UNL     1       8.826  -1.783  -9.719  1.00  0.00    -0.744 OA
ENDBRANCH  62  63
ENDBRANCH  36  57
ENDBRANCH  10  11
ENDBRANCH   3   5
ENDBRANCH   2   3
ENDBRANCH   1   2
BRANCH   1  67
ATOM     67  C   UNL     1       4.479   1.141   1.561  1.00  0.00     0.275 C 
BRANCH  67  68
ATOM     68  O   UNL     1       3.932  -0.180   1.722  1.00  0.00    -0.458 OA
BRANCH  68  69
ATOM     69  C   UNL     1       2.681  -0.299   2.260  1.00  0.00     0.341 C 
ATOM     70  O   UNL     1       1.984   0.626   2.664  1.00  0.00    -0.246 OA
BRANCH  69  71
ATOM     71  C   UNL     1       2.309  -1.694   2.383  1.00  0.00     0.094 A 
ATOM     72  C   UNL     1       3.054  -2.581   3.244  1.00  0.00     0.029 A 
ATOM     73  C   UNL     1       1.261  -2.347   1.734  1.00  0.00     0.110 A 
ATOM     74  C   UNL     1       2.611  -3.874   3.174  1.00  0.00     0.068 A 
ATOM     75  S   UNL     1       1.327  -4.004   2.087  1.00  0.00    -0.126 S 
BRANCH  73  76
ATOM     76  N   UNL     1       0.323  -1.827   0.838  1.00  0.00    -0.312 N 
ATOM     77  C   UNL     1      -0.752  -2.376   0.124  1.00  0.00     0.266 C 
ATOM     78  H   UNL     1       0.442  -0.864   0.672  1.00  0.00     0.171 HD
ATOM     79  O   UNL     1      -1.282  -1.669  -0.737  1.00  0.00    -0.268 OA
BRANCH  77  80
ATOM     80  C   UNL     1      -1.295  -3.670   0.447  1.00  0.00     0.094 A 
ATOM     81  C   UNL     1      -2.307  -3.995   1.330  1.00  0.00     0.037 A 
ATOM     82  S   UNL     1      -0.838  -5.095  -0.383  1.00  0.00    -0.130 S 
ATOM     83  C   UNL     1      -2.110  -5.337   1.808  1.00  0.00     0.029 A 
ATOM     84  C   UNL     1      -1.085  -5.965   1.094  1.00  0.00     0.038 A 
ATOM     85  C   UNL     1      -2.567  -5.949   2.985  1.00  0.00     0.131 A 
ATOM     86  C   UNL     1      -0.356  -7.040   1.629  1.00  0.00     0.020 A 
ATOM     87  F   UNL     1      -3.639  -5.471   3.632  1.00  0.00    -0.206 F 
ATOM     88  C   UNL     1      -1.748  -6.885   3.609  1.00  0.00     0.040 A 
ATOM     89  C   UNL     1      -0.618  -7.377   2.961  1.00  0.00     0.005 A 
ENDBRANCH  77  80
ENDBRANCH  73  76
ENDBRANCH  69  71
ENDBRANCH  68  69
ENDBRANCH  67  68
ENDBRANCH   1  67
TORSDOF 16
