REMARK SMILES CCn1cc(Br)cc1C(=O)N[C@@H]1C=C[C@@H](C(=O)OCCOC(=O)c2ccc(-c3c4nc(c(-c5ccc(S(=O)(=O)[O-])cc5)c5ccc([nH]5)c(-c5ccc(S(=O)(=O)[O-])cc5)c5nc(c(-c6ccc(S(=O)(=O)[O-])cc6)c6ccc3[nH]6)C=C5)C=C4)cc2)C1
REMARK SMILES IDX 19 1 18 2 16 3 17 4 15 5 12 6 13 7 84 8 14 9 11 10 9 11
REMARK SMILES IDX 10 12 8 14 3 15 4 16 5 17 7 18 6 19 2 20 1 21 20 22 21 23
REMARK SMILES IDX 22 24 23 25 24 26 25 27 83 28 26 29 82 30 27 31 28 32 29 33
REMARK SMILES IDX 76 34 30 35 81 36 75 37 77 38 31 39 80 40 74 41 73 42 32 44
REMARK SMILES IDX 62 45 43 46 61 47 44 48 47 49 60 50 78 51 45 52 46 53 59 55
REMARK SMILES IDX 79 56 48 57 33 58 34 59 42 60 35 61 41 62 36 63 37 64 38 65
REMARK SMILES IDX 39 66 40 67 63 68 64 69 72 70 65 71 71 72 66 73 67 74 68 75
REMARK SMILES IDX 69 76 70 77 49 78 50 79 58 80 51 81 57 82 52 83 53 84 54 85
REMARK SMILES IDX 55 86 56 87
REMARK H PARENT 11 13 77 43 47 54
REMARK Flexibility Score: inf
ROOT
ATOM      1  C   UNL     1      -3.059   0.862   2.982  1.00  0.00     0.274 C 
ENDROOT
BRANCH   1   2
ATOM      2  O   UNL     1      -2.250  -0.169   2.391  1.00  0.00    -0.462 OA
BRANCH   2   3
ATOM      3  C   UNL     1      -2.547  -0.572   1.124  1.00  0.00     0.312 C 
ATOM      4  O   UNL     1      -3.589  -0.295   0.539  1.00  0.00    -0.252 OA
BRANCH   3   5
ATOM      5  C   UNL     1      -1.436  -1.432   0.500  1.00  0.00     0.124 C 
ATOM      6  C   UNL     1       0.605  -2.621   1.246  1.00  0.00     0.106 C 
ATOM      7  C   UNL     1      -0.509  -3.558   0.889  1.00  0.00    -0.006 C 
ATOM      8  C   UNL     1      -0.080  -1.276   1.179  1.00  0.00     0.048 C 
ATOM      9  C   UNL     1      -1.637  -2.915   0.550  1.00  0.00    -0.014 C 
BRANCH   6  10
ATOM     10  N   UNL     1       1.741  -2.790   0.385  1.00  0.00    -0.345 N 
ATOM     11  C   UNL     1       2.912  -2.083   0.233  1.00  0.00     0.268 C 
ATOM     12  O   UNL     1       3.800  -2.708  -0.356  1.00  0.00    -0.268 OA
ATOM     13  H   UNL     1       1.668  -3.567  -0.216  1.00  0.00     0.164 HD
BRANCH  11  14
ATOM     14  C   UNL     1       3.085  -0.669   0.557  1.00  0.00     0.108 A 
ATOM     15  N   UNL     1       2.812   0.103   1.687  1.00  0.00    -0.343 N 
ATOM     16  C   UNL     1       3.128   1.426   1.438  1.00  0.00     0.102 A 
ATOM     17  C   UNL     1       3.770   1.481   0.235  1.00  0.00     0.036 A 
ATOM     18  C   UNL     1       3.753   0.197  -0.317  1.00  0.00     0.049 A 
ATOM     19  Br  UNL     1       4.587   2.969  -0.549  1.00  0.00    -0.049 Br
BRANCH  15  20
ATOM     20  C   UNL     1       2.490  -0.342   3.034  1.00  0.00     0.119 C 
ATOM     21  C   UNL     1       1.384   0.449   3.733  1.00  0.00     0.027 C 
ENDBRANCH  15  20
ENDBRANCH  11  14
ENDBRANCH   6  10
ENDBRANCH   3   5
ENDBRANCH   2   3
ENDBRANCH   1   2
BRANCH   1  22
ATOM     22  C   UNL     1      -2.318   2.196   3.015  1.00  0.00     0.275 C 
BRANCH  22  23
ATOM     23  O   UNL     1      -2.262   2.851   1.743  1.00  0.00    -0.458 OA
BRANCH  23  24
ATOM     24  C   UNL     1      -1.148   2.575   1.026  1.00  0.00     0.338 C 
ATOM     25  O   UNL     1      -0.526   1.532   1.043  1.00  0.00    -0.246 OA
BRANCH  24  26
ATOM     26  C   UNL     1      -0.620   3.790   0.391  1.00  0.00     0.060 A 
ATOM     27  C   UNL     1       0.529   3.658  -0.393  1.00  0.00     0.016 A 
ATOM     28  C   UNL     1      -1.133   5.051   0.723  1.00  0.00     0.016 A 
ATOM     29  C   UNL     1       1.214   4.797  -0.770  1.00  0.00     0.010 A 
ATOM     30  C   UNL     1      -0.443   6.189   0.349  1.00  0.00     0.010 A 
ATOM     31  C   UNL     1       0.750   6.053  -0.356  1.00  0.00    -0.014 A 
BRANCH  31  32
ATOM     32  C   UNL     1       1.435   7.224  -0.878  1.00  0.00     0.031 A 
ATOM     33  C   UNL     1       1.275   7.341  -2.346  1.00  0.00     0.074 A 
ATOM     34  C   UNL     1       2.039   8.165  -0.129  1.00  0.00     0.049 A 
ATOM     35  N   UNL     1       2.158   7.080  -3.250  1.00  0.00    -0.248 NA
ATOM     36  C   UNL     1      -0.083   7.558  -2.874  1.00  0.00     0.031 C 
ATOM     37  C   UNL     1       1.990   8.308   1.328  1.00  0.00     0.029 A 
ATOM     38  N   UNL     1       2.739   9.267  -0.523  1.00  0.00    -0.354 N 
ATOM     39  C   UNL     1       1.531   7.352  -4.458  1.00  0.00     0.074 A 
ATOM     40  C   UNL     1       0.118   7.402  -4.183  1.00  0.00     0.031 C 
ATOM     41  C   UNL     1       2.406   9.551   1.666  1.00  0.00     0.029 A 
ATOM     42  C   UNL     1       2.894  10.225   0.473  1.00  0.00     0.049 A 
ATOM     43  H   UNL     1       3.102   9.375  -1.432  1.00  0.00     0.167 HD
ATOM     44  C   UNL     1       2.233   7.858  -5.508  1.00  0.00     0.031 A 
ATOM     45  C   UNL     1       3.337  11.498   0.310  1.00  0.00     0.031 A 
ATOM     46  C   UNL     1       3.651   7.787  -5.276  1.00  0.00     0.049 A 
ATOM     47  C   UNL     1       4.133  11.535  -0.939  1.00  0.00     0.074 A 
ATOM     48  C   UNL     1       4.636   6.827  -5.314  1.00  0.00     0.029 A 
ATOM     49  N   UNL     1       4.130   8.842  -4.545  1.00  0.00    -0.354 N 
ATOM     50  N   UNL     1       5.252  10.880  -1.089  1.00  0.00    -0.248 NA
ATOM     51  C   UNL     1       3.519  12.013  -2.173  1.00  0.00     0.031 C 
ATOM     52  C   UNL     1       5.668   7.284  -4.440  1.00  0.00     0.029 A 
ATOM     53  C   UNL     1       5.309   8.530  -3.926  1.00  0.00     0.049 A 
ATOM     54  H   UNL     1       3.682   9.716  -4.473  1.00  0.00     0.167 HD
ATOM     55  C   UNL     1       5.250  10.498  -2.417  1.00  0.00     0.074 A 
ATOM     56  C   UNL     1       4.267  11.356  -3.064  1.00  0.00     0.031 C 
ATOM     57  C   UNL     1       5.799   9.313  -2.809  1.00  0.00     0.031 A 
BRANCH  44  58
ATOM     58  C   UNL     1       1.665   8.884  -6.461  1.00  0.00    -0.014 A 
ATOM     59  C   UNL     1       2.434   9.281  -7.573  1.00  0.00     0.010 A 
ATOM     60  C   UNL     1       0.540   9.677  -6.148  1.00  0.00     0.010 A 
ATOM     61  C   UNL     1       2.101  10.422  -8.318  1.00  0.00     0.020 A 
ATOM     62  C   UNL     1       0.177  10.790  -6.905  1.00  0.00     0.020 A 
ATOM     63  C   UNL     1       0.973  11.169  -7.976  1.00  0.00     0.054 A 
BRANCH  63  64
ATOM     64  S   UNL     1       0.575  12.664  -8.913  1.00  0.00     0.124 S 
ATOM     65  O   UNL     1       1.702  13.534  -8.592  1.00  0.00    -0.237 OA
ATOM     66  O   UNL     1       0.527  12.165 -10.284  1.00  0.00    -0.237 OA
ATOM     67  O   UNL     1      -0.714  13.079  -8.363  1.00  0.00    -0.744 OA
ENDBRANCH  63  64
ENDBRANCH  44  58
BRANCH  45  68
ATOM     68  C   UNL     1       2.850  12.731   0.981  1.00  0.00    -0.014 A 
ATOM     69  C   UNL     1       3.553  13.947   0.867  1.00  0.00     0.010 A 
ATOM     70  C   UNL     1       1.532  12.783   1.479  1.00  0.00     0.010 A 
ATOM     71  C   UNL     1       2.933  15.174   1.168  1.00  0.00     0.020 A 
ATOM     72  C   UNL     1       0.911  14.000   1.786  1.00  0.00     0.020 A 
ATOM     73  C   UNL     1       1.605  15.193   1.603  1.00  0.00     0.054 A 
BRANCH  73  74
ATOM     74  S   UNL     1       0.748  16.785   1.800  1.00  0.00     0.124 S 
ATOM     75  O   UNL     1       1.392  17.340   2.987  1.00  0.00    -0.237 OA
ATOM     76  O   UNL     1       1.045  17.465   0.543  1.00  0.00    -0.237 OA
ATOM     77  O   UNL     1      -0.652  16.402   1.977  1.00  0.00    -0.744 OA
ENDBRANCH  73  74
ENDBRANCH  45  68
BRANCH  57  78
ATOM     78  C   UNL     1       6.894   8.725  -1.966  1.00  0.00    -0.014 A 
ATOM     79  C   UNL     1       6.734   8.254  -0.650  1.00  0.00     0.010 A 
ATOM     80  C   UNL     1       8.147   8.579  -2.588  1.00  0.00     0.010 A 
ATOM     81  C   UNL     1       7.814   7.666   0.029  1.00  0.00     0.020 A 
ATOM     82  C   UNL     1       9.217   7.981  -1.927  1.00  0.00     0.020 A 
ATOM     83  C   UNL     1       9.050   7.536  -0.617  1.00  0.00     0.054 A 
BRANCH  83  84
ATOM     84  S   UNL     1      10.441   6.760   0.252  1.00  0.00     0.124 S 
ATOM     85  O   UNL     1      10.745   7.732   1.297  1.00  0.00    -0.237 OA
ATOM     86  O   UNL     1       9.872   5.496   0.714  1.00  0.00    -0.237 OA
ATOM     87  O   UNL     1      11.467   6.626  -0.783  1.00  0.00    -0.744 OA
ENDBRANCH  83  84
ENDBRANCH  57  78
ENDBRANCH  31  32
ENDBRANCH  24  26
ENDBRANCH  23  24
ENDBRANCH  22  23
ENDBRANCH   1  22
TORSDOF 17
