REMARK SMILES CCCCCC[C@H](C)[C@@](C)(O)C(=O)OCCOC(=O)c1ccc(-c2c3nc(c(-c4ccc(S(=O)(=O)[O-])cc4)c4ccc([nH]4)c(-c4ccc(S(=O)(=O)[O-])cc4)c4nc(c(-c5ccc(S(=O)(=O)[O-])cc5)c5ccc2[nH]5)C=C4)C=C3)cc1
REMARK SMILES IDX 14 1 12 2 13 3 9 4 10 5 7 6 8 7 6 8 5 9 4 10 3 11 2 12 1 13
REMARK SMILES IDX 11 14 15 16 16 17 17 18 18 19 19 20 20 21 21 22 79 23 22 24
REMARK SMILES IDX 78 25 23 26 24 27 25 28 72 29 26 30 77 31 71 32 73 33 27 34
REMARK SMILES IDX 76 35 70 36 69 37 28 39 58 40 39 41 57 42 40 43 43 44 56 45
REMARK SMILES IDX 74 46 41 47 42 48 55 50 75 51 44 52 29 53 30 54 38 55 31 56
REMARK SMILES IDX 37 57 32 58 33 59 34 60 35 61 36 62 59 63 60 64 68 65 61 66
REMARK SMILES IDX 67 67 62 68 63 69 64 70 65 71 66 72 45 73 46 74 54 75 47 76
REMARK SMILES IDX 53 77 48 78 49 79 50 80 51 81 52 82
REMARK H PARENT 11 15 73 38 43 49
REMARK Flexibility Score: inf
ROOT
ATOM      1  O   UNL     1      -3.086  -0.656  -8.088  1.00  0.00    -0.460 OA
ENDROOT
BRANCH   1   2
ATOM      2  C   UNL     1      -2.754   0.558  -7.430  1.00  0.00     0.338 C 
ATOM      3  O   UNL     1      -3.571   1.391  -7.127  1.00  0.00    -0.249 OA
BRANCH   2   4
ATOM      4  C   UNL     1      -1.138   0.702  -7.133  1.00  0.00     0.161 C 
ATOM      5  C   UNL     1      -0.832   2.171  -7.505  1.00  0.00     0.055 C 
BRANCH   4   6
ATOM      6  C   UNL     1      -0.271   0.417  -5.774  1.00  0.00     0.029 C 
ATOM      7  C   UNL     1       0.034   1.613  -4.836  1.00  0.00     0.011 C 
BRANCH   6   8
ATOM      8  C   UNL     1      -0.458  -0.828  -4.870  1.00  0.00     0.007 C 
BRANCH   8   9
ATOM      9  C   UNL     1      -1.353  -0.621  -3.622  1.00  0.00     0.000 C 
BRANCH   9  10
ATOM     10  C   UNL     1      -2.748  -0.100  -3.956  1.00  0.00     0.000 C 
BRANCH  10  11
ATOM     11  C   UNL     1      -3.297  -1.010  -4.998  1.00  0.00    -0.000 C 
BRANCH  11  12
ATOM     12  C   UNL     1      -4.791  -1.022  -5.244  1.00  0.00    -0.003 C 
ATOM     13  C   UNL     1      -5.819  -0.404  -4.360  1.00  0.00     0.004 C 
ENDBRANCH  11  12
ENDBRANCH  10  11
ENDBRANCH   9  10
ENDBRANCH   8   9
ENDBRANCH   6   8
ENDBRANCH   4   6
BRANCH   4  14
ATOM     14  O   UNL     1      -0.501  -0.103  -8.156  1.00  0.00    -0.378 OA
ATOM     15  H   UNL     1       0.462  -0.065  -8.043  1.00  0.00     0.212 HD
ENDBRANCH   4  14
ENDBRANCH   2   4
ENDBRANCH   1   2
BRANCH   1  16
ATOM     16  C   UNL     1      -4.498  -0.961  -8.457  1.00  0.00     0.274 C 
BRANCH  16  17
ATOM     17  C   UNL     1      -5.001  -2.496  -8.261  1.00  0.00     0.275 C 
BRANCH  17  18
ATOM     18  O   UNL     1      -4.762  -3.141  -6.936  1.00  0.00    -0.458 OA
BRANCH  18  19
ATOM     19  C   UNL     1      -4.995  -4.477  -6.628  1.00  0.00     0.338 C 
ATOM     20  O   UNL     1      -5.385  -5.291  -7.454  1.00  0.00    -0.246 OA
BRANCH  19  21
ATOM     21  C   UNL     1      -4.601  -4.921  -5.174  1.00  0.00     0.060 A 
ATOM     22  C   UNL     1      -3.806  -4.117  -4.394  1.00  0.00     0.016 A 
ATOM     23  C   UNL     1      -4.866  -6.128  -4.533  1.00  0.00     0.016 A 
ATOM     24  C   UNL     1      -3.016  -4.468  -3.297  1.00  0.00     0.010 A 
ATOM     25  C   UNL     1      -4.215  -6.477  -3.277  1.00  0.00     0.010 A 
ATOM     26  C   UNL     1      -3.201  -5.676  -2.682  1.00  0.00    -0.014 A 
BRANCH  26  27
ATOM     27  C   UNL     1      -2.221  -6.062  -1.588  1.00  0.00     0.031 A 
ATOM     28  C   UNL     1      -1.409  -7.321  -1.790  1.00  0.00     0.074 A 
ATOM     29  C   UNL     1      -1.831  -5.262  -0.554  1.00  0.00     0.049 A 
ATOM     30  N   UNL     1      -0.630  -7.961  -0.956  1.00  0.00    -0.248 NA
ATOM     31  C   UNL     1      -1.466  -7.915  -3.134  1.00  0.00     0.031 C 
ATOM     32  C   UNL     1      -2.282  -3.889  -0.291  1.00  0.00     0.029 A 
ATOM     33  N   UNL     1      -0.912  -5.478   0.466  1.00  0.00    -0.354 N 
ATOM     34  C   UNL     1      -0.165  -9.071  -1.653  1.00  0.00     0.074 A 
ATOM     35  C   UNL     1      -0.737  -9.007  -2.980  1.00  0.00     0.031 C 
ATOM     36  C   UNL     1      -1.630  -3.391   0.777  1.00  0.00     0.029 A 
ATOM     37  C   UNL     1      -0.787  -4.429   1.361  1.00  0.00     0.049 A 
ATOM     38  H   UNL     1      -0.393  -6.311   0.546  1.00  0.00     0.167 HD
ATOM     39  C   UNL     1       0.650 -10.067  -1.232  1.00  0.00     0.031 A 
ATOM     40  C   UNL     1      -0.127  -4.318   2.541  1.00  0.00     0.031 A 
ATOM     41  C   UNL     1       1.254 -10.134   0.070  1.00  0.00     0.049 A 
ATOM     42  C   UNL     1       0.647  -5.506   3.072  1.00  0.00     0.074 A 
ATOM     43  C   UNL     1       1.978 -11.172   0.632  1.00  0.00     0.029 A 
ATOM     44  N   UNL     1       1.236  -9.110   1.001  1.00  0.00    -0.354 N 
ATOM     45  N   UNL     1       0.901  -6.653   2.488  1.00  0.00    -0.248 NA
ATOM     46  C   UNL     1       1.203  -5.396   4.433  1.00  0.00     0.031 C 
ATOM     47  C   UNL     1       2.361 -10.790   1.923  1.00  0.00     0.029 A 
ATOM     48  C   UNL     1       1.928  -9.492   2.138  1.00  0.00     0.049 A 
ATOM     49  H   UNL     1       0.796  -8.239   0.874  1.00  0.00     0.167 HD
ATOM     50  C   UNL     1       1.651  -7.390   3.404  1.00  0.00     0.074 A 
ATOM     51  C   UNL     1       1.841  -6.551   4.566  1.00  0.00     0.031 C 
ATOM     52  C   UNL     1       2.126  -8.656   3.293  1.00  0.00     0.031 A 
BRANCH  39  53
ATOM     53  C   UNL     1       0.829 -11.228  -2.171  1.00  0.00    -0.014 A 
ATOM     54  C   UNL     1       1.630 -11.139  -3.322  1.00  0.00     0.010 A 
ATOM     55  C   UNL     1       0.139 -12.424  -1.901  1.00  0.00     0.010 A 
ATOM     56  C   UNL     1       1.697 -12.213  -4.213  1.00  0.00     0.020 A 
ATOM     57  C   UNL     1       0.227 -13.509  -2.773  1.00  0.00     0.020 A 
ATOM     58  C   UNL     1       0.989 -13.388  -3.936  1.00  0.00     0.054 A 
BRANCH  58  59
ATOM     59  S   UNL     1       1.083 -14.764  -5.113  1.00  0.00     0.124 S 
ATOM     60  O   UNL     1       0.273 -14.266  -6.222  1.00  0.00    -0.237 OA
ATOM     61  O   UNL     1       2.516 -14.863  -5.375  1.00  0.00    -0.237 OA
ATOM     62  O   UNL     1       0.507 -15.888  -4.378  1.00  0.00    -0.744 OA
ENDBRANCH  58  59
ENDBRANCH  39  53
BRANCH  40  63
ATOM     63  C   UNL     1      -0.256  -3.090   3.402  1.00  0.00    -0.014 A 
ATOM     64  C   UNL     1       0.866  -2.326   3.783  1.00  0.00     0.010 A 
ATOM     65  C   UNL     1      -1.510  -2.737   3.938  1.00  0.00     0.010 A 
ATOM     66  C   UNL     1       0.740  -1.262   4.692  1.00  0.00     0.020 A 
ATOM     67  C   UNL     1      -1.648  -1.655   4.816  1.00  0.00     0.020 A 
ATOM     68  C   UNL     1      -0.519  -0.933   5.202  1.00  0.00     0.054 A 
BRANCH  68  69
ATOM     69  S   UNL     1      -0.675   0.466   6.353  1.00  0.00     0.124 S 
ATOM     70  O   UNL     1      -0.114  -0.084   7.582  1.00  0.00    -0.237 OA
ATOM     71  O   UNL     1       0.121   1.502   5.701  1.00  0.00    -0.237 OA
ATOM     72  O   UNL     1      -2.114   0.724   6.382  1.00  0.00    -0.744 OA
ENDBRANCH  68  69
ENDBRANCH  40  63
BRANCH  52  73
ATOM     73  C   UNL     1       2.935  -9.209   4.440  1.00  0.00    -0.014 A 
ATOM     74  C   UNL     1       2.334  -9.548   5.666  1.00  0.00     0.010 A 
ATOM     75  C   UNL     1       4.313  -9.437   4.271  1.00  0.00     0.010 A 
ATOM     76  C   UNL     1       3.103 -10.067   6.713  1.00  0.00     0.020 A 
ATOM     77  C   UNL     1       5.080  -9.981   5.306  1.00  0.00     0.020 A 
ATOM     78  C   UNL     1       4.473 -10.276   6.528  1.00  0.00     0.054 A 
BRANCH  78  79
ATOM     79  S   UNL     1       5.446 -10.971   7.893  1.00  0.00     0.124 S 
ATOM     80  O   UNL     1       5.557  -9.831   8.798  1.00  0.00    -0.237 OA
ATOM     81  O   UNL     1       4.605 -12.068   8.363  1.00  0.00    -0.237 OA
ATOM     82  O   UNL     1       6.695 -11.382   7.253  1.00  0.00    -0.744 OA
ENDBRANCH  78  79
ENDBRANCH  52  73
ENDBRANCH  26  27
ENDBRANCH  19  21
ENDBRANCH  18  19
ENDBRANCH  17  18
ENDBRANCH  16  17
ENDBRANCH   1  16
TORSDOF 21
