REMARK SMILES O=C(OCCOC(=O)c1cc2c(cc1NS(=O)(=O)c1cc(Cl)ccc1Cl)OCCCO2)c1ccc(-c2c3nc(c(-c4ccc(S(=O)(=O)[O-])cc4)c4ccc([nH]4)c(-c4ccc(S(=O)(=O)[O-])cc4)c4nc(c(-c5ccc(S(=O)(=O)[O-])cc5)c5ccc2[nH]5)C=C4)C=C3)cc1
REMARK SMILES IDX 4 1 3 2 2 3 1 4 32 5 33 6 91 7 34 8 90 9 35 10 36 11 37 12
REMARK SMILES IDX 84 13 38 14 89 15 83 16 85 17 39 18 88 19 82 20 81 21 40 23
REMARK SMILES IDX 70 24 51 25 69 26 52 27 55 28 68 29 86 30 53 31 54 32 67 34
REMARK SMILES IDX 87 35 56 36 41 37 42 38 50 39 43 40 49 41 44 42 45 43 46 44
REMARK SMILES IDX 47 45 48 46 71 47 72 48 80 49 73 50 79 51 74 52 75 53 76 54
REMARK SMILES IDX 77 55 78 56 57 57 58 58 66 59 59 60 65 61 60 62 61 63 62 64
REMARK SMILES IDX 63 65 64 66 5 67 6 68 7 69 8 70 9 71 10 72 14 73 11 74 13 75
REMARK SMILES IDX 12 76 15 77 16 79 17 80 18 81 19 82 20 83 25 84 21 85 24 86
REMARK SMILES IDX 26 87 22 88 23 89 31 90 30 91 27 93 28 94 29 95
REMARK H PARENT 85 22 55 33 15 78
REMARK Flexibility Score: 100.00
ROOT
ATOM      1  C   UNL     1       4.376   0.868  -2.383  1.00  0.00     0.275 C 
ENDROOT
BRANCH   1   2
ATOM      2  O   UNL     1       3.043  -0.025  -1.541  1.00  0.00    -0.458 OA
BRANCH   2   3
ATOM      3  C   UNL     1       2.360  -0.508   0.170  1.00  0.00     0.338 C 
ATOM      4  O   UNL     1       1.158  -0.824   0.319  1.00  0.00    -0.246 OA
BRANCH   3   5
ATOM      5  C   UNL     1       3.137  -0.475   1.788  1.00  0.00     0.060 A 
ATOM      6  C   UNL     1       2.357  -0.105   2.885  1.00  0.00     0.016 A 
ATOM      7  C   UNL     1       4.507  -0.521   2.162  1.00  0.00     0.016 A 
ATOM      8  C   UNL     1       2.921   0.701   3.955  1.00  0.00     0.010 A 
ATOM      9  C   UNL     1       5.064   0.306   3.192  1.00  0.00     0.010 A 
ATOM     10  C   UNL     1       4.260   1.146   3.951  1.00  0.00    -0.014 A 
BRANCH  10  11
ATOM     11  C   UNL     1       4.816   2.243   4.868  1.00  0.00     0.031 A 
ATOM     12  C   UNL     1       5.116   3.754   4.586  1.00  0.00     0.074 A 
ATOM     13  C   UNL     1       5.136   1.849   6.109  1.00  0.00     0.049 A 
ATOM     14  N   UNL     1       5.047   4.794   5.405  1.00  0.00    -0.248 NA
ATOM     15  C   UNL     1       5.604   4.191   3.279  1.00  0.00     0.031 C 
ATOM     16  C   UNL     1       5.026   0.478   6.588  1.00  0.00     0.029 A 
ATOM     17  N   UNL     1       5.623   2.560   7.175  1.00  0.00    -0.354 N 
ATOM     18  C   UNL     1       5.267   5.957   4.637  1.00  0.00     0.074 A 
ATOM     19  C   UNL     1       5.497   5.516   3.288  1.00  0.00     0.031 C 
ATOM     20  C   UNL     1       5.431   0.439   7.860  1.00  0.00     0.029 A 
ATOM     21  C   UNL     1       5.832   1.782   8.281  1.00  0.00     0.049 A 
ATOM     22  H   UNL     1       5.805   3.527   7.147  1.00  0.00     0.167 HD
ATOM     23  C   UNL     1       5.417   7.262   5.001  1.00  0.00     0.031 A 
ATOM     24  C   UNL     1       6.272   2.092   9.513  1.00  0.00     0.031 A 
ATOM     25  C   UNL     1       5.645   7.686   6.361  1.00  0.00     0.049 A 
ATOM     26  C   UNL     1       6.517   3.516   9.904  1.00  0.00     0.074 A 
ATOM     27  C   UNL     1       5.780   8.976   6.849  1.00  0.00     0.029 A 
ATOM     28  N   UNL     1       5.915   6.832   7.415  1.00  0.00    -0.354 N 
ATOM     29  N   UNL     1       6.377   4.606   9.191  1.00  0.00    -0.248 NA
ATOM     30  C   UNL     1       6.937   3.749  11.291  1.00  0.00     0.031 C 
ATOM     31  C   UNL     1       6.241   8.899   8.166  1.00  0.00     0.029 A 
ATOM     32  C   UNL     1       6.285   7.564   8.531  1.00  0.00     0.049 A 
ATOM     33  H   UNL     1       5.852   5.850   7.378  1.00  0.00     0.167 HD
ATOM     34  C   UNL     1       6.657   5.660  10.056  1.00  0.00     0.074 A 
ATOM     35  C   UNL     1       6.966   5.074  11.343  1.00  0.00     0.031 C 
ATOM     36  C   UNL     1       6.638   6.992   9.805  1.00  0.00     0.031 A 
BRANCH  23  37
ATOM     37  C   UNL     1       5.375   8.386   3.961  1.00  0.00    -0.014 A 
ATOM     38  C   UNL     1       6.487   9.227   3.731  1.00  0.00     0.010 A 
ATOM     39  C   UNL     1       4.125   8.796   3.455  1.00  0.00     0.010 A 
ATOM     40  C   UNL     1       6.341  10.465   3.077  1.00  0.00     0.020 A 
ATOM     41  C   UNL     1       3.977  10.026   2.789  1.00  0.00     0.020 A 
ATOM     42  C   UNL     1       5.080  10.867   2.629  1.00  0.00     0.054 A 
BRANCH  42  43
ATOM     43  S   UNL     1       4.887  12.520   1.884  1.00  0.00     0.124 S 
ATOM     44  O   UNL     1       5.113  13.407   3.020  1.00  0.00    -0.237 OA
ATOM     45  O   UNL     1       5.930  12.529   0.860  1.00  0.00    -0.237 OA
ATOM     46  O   UNL     1       3.520  12.507   1.367  1.00  0.00    -0.744 OA
ENDBRANCH  42  43
ENDBRANCH  23  37
BRANCH  24  47
ATOM     47  C   UNL     1       6.391   0.972  10.478  1.00  0.00    -0.014 A 
ATOM     48  C   UNL     1       7.353  -0.035  10.266  1.00  0.00     0.010 A 
ATOM     49  C   UNL     1       5.419   0.808  11.476  1.00  0.00     0.010 A 
ATOM     50  C   UNL     1       7.287  -1.228  10.984  1.00  0.00     0.020 A 
ATOM     51  C   UNL     1       5.376  -0.369  12.223  1.00  0.00     0.020 A 
ATOM     52  C   UNL     1       6.286  -1.392  11.944  1.00  0.00     0.054 A 
BRANCH  52  53
ATOM     53  S   UNL     1       6.163  -2.983  12.802  1.00  0.00     0.124 S 
ATOM     54  O   UNL     1       5.559  -3.829  11.775  1.00  0.00    -0.237 OA
ATOM     55  O   UNL     1       7.556  -3.280  13.122  1.00  0.00    -0.237 OA
ATOM     56  O   UNL     1       5.310  -2.686  13.950  1.00  0.00    -0.744 OA
ENDBRANCH  52  53
ENDBRANCH  24  47
BRANCH  36  57
ATOM     57  C   UNL     1       6.976   7.937  10.931  1.00  0.00    -0.014 A 
ATOM     58  C   UNL     1       5.999   8.833  11.406  1.00  0.00     0.010 A 
ATOM     59  C   UNL     1       8.274   8.001  11.468  1.00  0.00     0.010 A 
ATOM     60  C   UNL     1       6.315   9.783  12.381  1.00  0.00     0.020 A 
ATOM     61  C   UNL     1       8.586   8.925  12.470  1.00  0.00     0.020 A 
ATOM     62  C   UNL     1       7.609   9.824  12.906  1.00  0.00     0.054 A 
BRANCH  62  63
ATOM     63  S   UNL     1       7.998  11.054  14.181  1.00  0.00     0.124 S 
ATOM     64  O   UNL     1       8.139  12.277  13.396  1.00  0.00    -0.237 OA
ATOM     65  O   UNL     1       6.828  10.996  15.053  1.00  0.00    -0.237 OA
ATOM     66  O   UNL     1       9.233  10.550  14.777  1.00  0.00    -0.744 OA
ENDBRANCH  62  63
ENDBRANCH  36  57
ENDBRANCH  10  11
ENDBRANCH   3   5
ENDBRANCH   2   3
ENDBRANCH   1   2
BRANCH   1  67
ATOM     67  C   UNL     1       5.374   2.072  -1.581  1.00  0.00     0.275 C 
BRANCH  67  68
ATOM     68  O   UNL     1       4.715   3.071  -0.604  1.00  0.00    -0.458 OA
BRANCH  68  69
ATOM     69  C   UNL     1       4.471   2.945   0.762  1.00  0.00     0.340 C 
ATOM     70  O   UNL     1       5.209   2.280   1.462  1.00  0.00    -0.246 OA
BRANCH  69  71
ATOM     71  C   UNL     1       3.175   3.548   1.339  1.00  0.00     0.088 A 
ATOM     72  C   UNL     1       2.236   2.973   2.186  1.00  0.00     0.068 A 
ATOM     73  C   UNL     1       2.726   4.723   0.859  1.00  0.00     0.067 A 
ATOM     74  C   UNL     1       1.306   3.682   2.970  1.00  0.00     0.162 A 
ATOM     75  C   UNL     1       1.955   5.566   1.691  1.00  0.00     0.078 A 
ATOM     76  C   UNL     1       1.317   5.049   2.845  1.00  0.00     0.163 A 
BRANCH  73  77
ATOM     77  N   UNL     1       2.994   4.895  -0.517  1.00  0.00    -0.279 N 
ATOM     78  H   UNL     1       3.458   5.683  -0.882  1.00  0.00     0.180 HD
BRANCH  77  79
ATOM     79  S   UNL     1       2.409   3.544  -1.535  1.00  0.00     0.263 S 
ATOM     80  O   UNL     1       0.998   3.827  -1.657  1.00  0.00    -0.201 OA
ATOM     81  O   UNL     1       3.260   3.541  -2.713  1.00  0.00    -0.201 OA
BRANCH  79  82
ATOM     82  C   UNL     1       2.535   1.582  -0.701  1.00  0.00     0.107 A 
ATOM     83  C   UNL     1       4.061   0.582  -0.193  1.00  0.00     0.044 A 
ATOM     84  C   UNL     1       1.264   0.690  -1.620  1.00  0.00     0.061 A 
ATOM     85  C   UNL     1       4.214  -1.208  -0.689  1.00  0.00     0.042 A 
ATOM     86  C   UNL     1       1.448  -1.036  -2.031  1.00  0.00     0.023 A 
ATOM     87  Cl  UNL     1      -0.098   1.401  -2.407  1.00  0.00    -0.083 Cl
ATOM     88  Cl  UNL     1       5.681  -2.115  -0.609  1.00  0.00    -0.084 Cl
ATOM     89  C   UNL     1       2.873  -1.974  -1.565  1.00  0.00     0.022 A 
ENDBRANCH  79  82
ENDBRANCH  77  79
ENDBRANCH  73  77
BRANCH  74  90
ATOM     90  O   UNL     1       0.604   2.915   3.852  1.00  0.00    -0.490 OA
BRANCH  90  91
ATOM     91  C   UNL     1      -0.710   3.350   4.186  1.00  0.00     0.233 CG0
ATOM     92  G   UNL     1      -0.676   4.493   5.171  1.00  0.00     0.000 G0
ENDBRANCH  90  91
ENDBRANCH  74  90
BRANCH  76  93
ATOM     93  O   UNL     1       0.920   5.926   3.805  1.00  0.00    -0.489 OA
BRANCH  93  94
ATOM     94  C   UNL     1      -0.340   5.796   4.461  1.00  0.00     0.233 C 
BRANCH  94  95
ATOM     95  C   UNL     1      -0.676   4.493   5.171  1.00  0.00     0.083 CG0
ATOM     96  G   UNL     1      -0.710   3.350   4.186  1.00  0.00     0.000 G0
ENDBRANCH  94  95
ENDBRANCH  93  94
ENDBRANCH  76  93
ENDBRANCH  69  71
ENDBRANCH  68  69
ENDBRANCH  67  68
ENDBRANCH   1  67
TORSDOF 17
