REMARK SMILES Cc1c(C#N)c2ccccc2n1CC(=O)N1CC[C@H](O)C[C@@H]1C(=O)OCCOC(=O)c1ccc(-c2c3nc(c(-c4ccc(S(=O)(=O)[O-])cc4)c4ccc([nH]4)c(-c4ccc(S(=O)(=O)[O-])cc4)c4nc(c(-c5ccc(S(=O)(=O)[O-])cc5)c5ccc2[nH]5)C=C4)C=C3)cc1
REMARK SMILES IDX 26 1 25 2 23 3 24 4 22 5 16 6 17 7 18 8 21 9 19 10 14 11
REMARK SMILES IDX 15 12 13 13 12 14 1 15 2 16 3 17 6 18 11 19 7 20 10 21 8 22
REMARK SMILES IDX 9 23 4 24 5 25 20 26 27 28 28 29 29 30 30 31 31 32 32 33
REMARK SMILES IDX 90 34 33 35 89 36 34 37 35 38 36 39 83 40 37 41 88 42 82 43
REMARK SMILES IDX 84 44 38 45 87 46 81 47 80 48 39 50 69 51 50 52 68 53 51 54
REMARK SMILES IDX 54 55 67 56 85 57 52 58 53 59 66 61 86 62 55 63 40 64 41 65
REMARK SMILES IDX 49 66 42 67 48 68 43 69 44 70 45 71 46 72 47 73 70 74 71 75
REMARK SMILES IDX 79 76 72 77 78 78 73 79 74 80 75 81 76 82 77 83 56 84 57 85
REMARK SMILES IDX 65 86 58 87 64 88 59 89 60 90 61 91 62 92 63 93
REMARK H PARENT 20 27 84 49 54 60
REMARK Flexibility Score: inf
ROOT
ATOM      1  C   UNL     1      -4.881   6.193  -1.260  1.00  0.00     0.274 C 
ENDROOT
BRANCH   1   2
ATOM      2  O   UNL     1      -3.869   5.847  -0.283  1.00  0.00    -0.461 OA
BRANCH   2   3
ATOM      3  C   UNL     1      -3.634   4.515  -0.128  1.00  0.00     0.329 C 
ATOM      4  O   UNL     1      -4.218   3.650  -0.771  1.00  0.00    -0.250 OA
BRANCH   3   5
ATOM      5  C   UNL     1      -2.639   4.209   1.015  1.00  0.00     0.197 C 
ATOM      6  N   UNL     1      -1.621   3.163   0.670  1.00  0.00    -0.327 N 
ATOM      7  C   UNL     1      -2.096   1.778   0.814  1.00  0.00     0.123 C 
ATOM      8  C   UNL     1      -3.059   1.417   1.942  1.00  0.00     0.053 C 
ATOM      9  C   UNL     1      -3.494   3.839   2.248  1.00  0.00     0.069 C 
ATOM     10  C   UNL     1      -4.145   2.461   2.157  1.00  0.00     0.118 C 
BRANCH   6  11
ATOM     11  C   UNL     1      -0.252   3.498   0.631  1.00  0.00     0.243 C 
ATOM     12  O   UNL     1       0.206   4.071   1.635  1.00  0.00    -0.273 OA
BRANCH  11  13
ATOM     13  C   UNL     1       0.671   3.534  -0.676  1.00  0.00     0.222 C 
BRANCH  13  14
ATOM     14  N   UNL     1       0.980   2.324  -1.454  1.00  0.00    -0.334 N 
ATOM     15  C   UNL     1       1.974   0.908   0.399  1.00  0.00     0.066 C 
ATOM     16  C   UNL     1       1.280   1.111  -0.897  1.00  0.00     0.034 A 
ATOM     17  C   UNL     1       0.570   0.218  -1.675  1.00  0.00     0.080 A 
ATOM     18  C   UNL     1       0.390   0.847  -2.966  1.00  0.00     0.018 A 
ATOM     19  C   UNL     1       0.920   2.138  -2.839  1.00  0.00     0.050 A 
ATOM     20  C   UNL     1      -0.296   0.655  -4.194  1.00  0.00     0.012 A 
ATOM     21  C   UNL     1       1.075   2.972  -3.979  1.00  0.00     0.027 A 
ATOM     22  C   UNL     1      -0.142   1.408  -5.346  1.00  0.00     0.001 A 
ATOM     23  C   UNL     1       0.619   2.540  -5.246  1.00  0.00     0.002 A 
BRANCH  17  24
ATOM     24  C   UNL     1       0.148  -0.975  -1.015  1.00  0.00     0.102 C 
ATOM     25  N   UNL     1      -0.150  -1.790  -0.231  1.00  0.00    -0.192 NA
ENDBRANCH  17  24
ENDBRANCH  13  14
ENDBRANCH  11  13
ENDBRANCH   6  11
BRANCH  10  26
ATOM     26  O   UNL     1      -5.198   2.437   1.200  1.00  0.00    -0.393 OA
ATOM     27  H   UNL     1      -4.843   2.649   0.323  1.00  0.00     0.210 HD
ENDBRANCH  10  26
ENDBRANCH   3   5
ENDBRANCH   2   3
ENDBRANCH   1   2
BRANCH   1  28
ATOM     28  C   UNL     1      -4.240   6.702  -2.556  1.00  0.00     0.275 C 
BRANCH  28  29
ATOM     29  O   UNL     1      -3.984   5.574  -3.434  1.00  0.00    -0.458 OA
BRANCH  29  30
ATOM     30  C   UNL     1      -2.768   4.987  -3.301  1.00  0.00     0.338 C 
ATOM     31  O   UNL     1      -1.776   5.544  -2.844  1.00  0.00    -0.246 OA
BRANCH  30  32
ATOM     32  C   UNL     1      -2.906   3.488  -3.407  1.00  0.00     0.060 A 
ATOM     33  C   UNL     1      -3.739   2.700  -4.199  1.00  0.00     0.016 A 
ATOM     34  C   UNL     1      -2.203   2.797  -2.454  1.00  0.00     0.016 A 
ATOM     35  C   UNL     1      -3.953   1.278  -3.908  1.00  0.00     0.010 A 
ATOM     36  C   UNL     1      -2.420   1.427  -2.194  1.00  0.00     0.010 A 
ATOM     37  C   UNL     1      -3.348   0.613  -2.822  1.00  0.00    -0.014 A 
BRANCH  37  38
ATOM     38  C   UNL     1      -3.470  -0.809  -2.215  1.00  0.00     0.031 A 
ATOM     39  C   UNL     1      -2.458  -1.966  -2.545  1.00  0.00     0.074 A 
ATOM     40  C   UNL     1      -4.174  -1.052  -1.048  1.00  0.00     0.049 A 
ATOM     41  N   UNL     1      -2.349  -3.099  -1.895  1.00  0.00    -0.248 NA
ATOM     42  C   UNL     1      -1.413  -1.927  -3.578  1.00  0.00     0.031 C 
ATOM     43  C   UNL     1      -5.197  -0.273  -0.339  1.00  0.00     0.029 A 
ATOM     44  N   UNL     1      -4.062  -2.141  -0.190  1.00  0.00    -0.354 N 
ATOM     45  C   UNL     1      -1.238  -3.792  -2.382  1.00  0.00     0.074 A 
ATOM     46  C   UNL     1      -0.514  -2.835  -3.197  1.00  0.00     0.031 C 
ATOM     47  C   UNL     1      -5.540  -0.875   0.842  1.00  0.00     0.029 A 
ATOM     48  C   UNL     1      -4.787  -2.120   1.013  1.00  0.00     0.049 A 
ATOM     49  H   UNL     1      -3.489  -2.908  -0.421  1.00  0.00     0.167 HD
ATOM     50  C   UNL     1      -1.296  -4.992  -3.032  1.00  0.00     0.031 A 
ATOM     51  C   UNL     1      -5.117  -3.167   1.852  1.00  0.00     0.031 A 
ATOM     52  C   UNL     1      -2.460  -5.130  -3.868  1.00  0.00     0.049 A 
ATOM     53  C   UNL     1      -5.087  -4.361   0.979  1.00  0.00     0.074 A 
ATOM     54  C   UNL     1      -2.982  -4.341  -4.891  1.00  0.00     0.029 A 
ATOM     55  N   UNL     1      -3.549  -5.763  -3.324  1.00  0.00    -0.354 N 
ATOM     56  N   UNL     1      -5.974  -4.586   0.058  1.00  0.00    -0.248 NA
ATOM     57  C   UNL     1      -3.831  -5.088   0.874  1.00  0.00     0.031 C 
ATOM     58  C   UNL     1      -4.316  -4.050  -4.468  1.00  0.00     0.029 A 
ATOM     59  C   UNL     1      -4.555  -4.825  -3.339  1.00  0.00     0.049 A 
ATOM     60  H   UNL     1      -3.599  -6.689  -2.994  1.00  0.00     0.167 HD
ATOM     61  C   UNL     1      -5.203  -5.025  -0.996  1.00  0.00     0.074 A 
ATOM     62  C   UNL     1      -3.921  -5.424  -0.411  1.00  0.00     0.031 C 
ATOM     63  C   UNL     1      -5.534  -4.747  -2.288  1.00  0.00     0.031 A 
BRANCH  50  64
ATOM     64  C   UNL     1      -0.120  -5.896  -2.899  1.00  0.00    -0.014 A 
ATOM     65  C   UNL     1       0.904  -5.602  -1.967  1.00  0.00     0.010 A 
ATOM     66  C   UNL     1      -0.047  -7.104  -3.606  1.00  0.00     0.010 A 
ATOM     67  C   UNL     1       1.941  -6.494  -1.718  1.00  0.00     0.020 A 
ATOM     68  C   UNL     1       0.986  -8.016  -3.346  1.00  0.00     0.020 A 
ATOM     69  C   UNL     1       1.964  -7.707  -2.396  1.00  0.00     0.054 A 
BRANCH  69  70
ATOM     70  S   UNL     1       3.267  -8.886  -1.962  1.00  0.00     0.124 S 
ATOM     71  O   UNL     1       4.471  -8.181  -2.395  1.00  0.00    -0.237 OA
ATOM     72  O   UNL     1       3.100  -9.020  -0.518  1.00  0.00    -0.237 OA
ATOM     73  O   UNL     1       2.928 -10.074  -2.741  1.00  0.00    -0.744 OA
ENDBRANCH  69  70
ENDBRANCH  50  64
BRANCH  51  74
ATOM     74  C   UNL     1      -4.896  -3.450   3.328  1.00  0.00    -0.014 A 
ATOM     75  C   UNL     1      -4.031  -2.688   4.127  1.00  0.00     0.010 A 
ATOM     76  C   UNL     1      -5.312  -4.705   3.870  1.00  0.00     0.010 A 
ATOM     77  C   UNL     1      -3.505  -3.205   5.336  1.00  0.00     0.020 A 
ATOM     78  C   UNL     1      -4.782  -5.232   5.069  1.00  0.00     0.020 A 
ATOM     79  C   UNL     1      -3.839  -4.493   5.772  1.00  0.00     0.054 A 
BRANCH  79  80
ATOM     80  S   UNL     1      -2.938  -5.215   7.190  1.00  0.00     0.124 S 
ATOM     81  O   UNL     1      -1.584  -5.345   6.660  1.00  0.00    -0.237 OA
ATOM     82  O   UNL     1      -3.108  -4.201   8.228  1.00  0.00    -0.237 OA
ATOM     83  O   UNL     1      -3.630  -6.477   7.444  1.00  0.00    -0.744 OA
ENDBRANCH  79  80
ENDBRANCH  51  74
BRANCH  63  84
ATOM     84  C   UNL     1      -6.873  -4.157  -2.641  1.00  0.00    -0.014 A 
ATOM     85  C   UNL     1      -7.491  -4.706  -3.776  1.00  0.00     0.010 A 
ATOM     86  C   UNL     1      -7.474  -3.039  -2.029  1.00  0.00     0.010 A 
ATOM     87  C   UNL     1      -8.657  -4.162  -4.299  1.00  0.00     0.020 A 
ATOM     88  C   UNL     1      -8.667  -2.496  -2.537  1.00  0.00     0.020 A 
ATOM     89  C   UNL     1      -9.242  -3.061  -3.677  1.00  0.00     0.054 A 
BRANCH  89  90
ATOM     90  S   UNL     1     -10.768  -2.417  -4.406  1.00  0.00     0.124 S 
ATOM     91  O   UNL     1     -10.296  -1.879  -5.681  1.00  0.00    -0.237 OA
ATOM     92  O   UNL     1     -11.600  -3.615  -4.506  1.00  0.00    -0.237 OA
ATOM     93  O   UNL     1     -11.230  -1.420  -3.445  1.00  0.00    -0.744 OA
ENDBRANCH  89  90
ENDBRANCH  63  84
ENDBRANCH  37  38
ENDBRANCH  30  32
ENDBRANCH  29  30
ENDBRANCH  28  29
ENDBRANCH   1  28
TORSDOF 19
