REMARK SMILES NC(=O)c1c(-c2ccc(Cl)cc2)csc1NC(=O)[C@H]1[C@@H](C(=O)OCCOC(=O)c2ccc(-c3c4nc(c(-c5ccc(S(=O)(=O)[O-])cc5)c5ccc([nH]5)c(-c5ccc(S(=O)(=O)[O-])cc5)c5nc(c(-c6ccc(S(=O)(=O)[O-])cc6)c6ccc3[nH]6)C=C5)C=C4)cc2)[C@@H]2CC[C@H]1O2
REMARK SMILES IDX 24 1 23 2 21 3 22 4 20 5 19 6 92 7 89 8 91 9 93 10 90 11
REMARK SMILES IDX 17 12 16 13 18 15 15 16 4 17 5 18 13 19 14 20 2 21 1 22 3 25
REMARK SMILES IDX 6 26 7 27 12 28 8 29 11 30 9 31 10 32 25 33 26 34 27 35
REMARK SMILES IDX 28 36 29 37 30 38 88 39 31 40 87 41 32 42 33 43 34 44 81 45
REMARK SMILES IDX 35 46 86 47 80 48 82 49 36 50 85 51 79 52 78 53 37 55 67 56
REMARK SMILES IDX 48 57 66 58 49 59 52 60 65 61 83 62 50 63 51 64 64 66 84 67
REMARK SMILES IDX 53 68 38 69 39 70 47 71 40 72 46 73 41 74 42 75 43 76 44 77
REMARK SMILES IDX 45 78 68 79 69 80 77 81 70 82 76 83 71 84 72 85 73 86 74 87
REMARK SMILES IDX 75 88 54 89 55 90 63 91 56 92 62 93 57 94 58 95 59 96 60 97
REMARK SMILES IDX 61 98
REMARK H PARENT 16 14 1 23 1 24 82 54 52 65
REMARK Flexibility Score: inf
ROOT
ATOM      1  C   UNL     1      -0.557   0.488   9.892  1.00  0.00     0.274 C 
ENDROOT
BRANCH   1   2
ATOM      2  O   UNL     1      -0.966   0.626   8.473  1.00  0.00    -0.462 OA
BRANCH   2   3
ATOM      3  C   UNL     1      -1.555   1.799   7.970  1.00  0.00     0.312 C 
ATOM      4  O   UNL     1      -2.217   2.576   8.640  1.00  0.00    -0.252 OA
BRANCH   3   5
ATOM      5  C   UNL     1      -1.231   1.951   6.446  1.00  0.00     0.143 C 
ATOM      6  C   UNL     1       0.177   1.465   6.207  1.00  0.00     0.124 C 
ATOM      7  C   UNL     1       0.789   2.316   5.141  1.00  0.00     0.132 C 
ATOM      8  C   UNL     1      -1.097   3.288   5.657  1.00  0.00     0.133 C 
ATOM      9  C   UNL     1       0.021   2.173   3.840  1.00  0.00     0.035 C 
ATOM     10  O   UNL     1       0.334   3.584   5.622  1.00  0.00    -0.373 OA
ATOM     11  C   UNL     1      -1.202   3.058   4.132  1.00  0.00     0.036 C 
BRANCH   6  12
ATOM     12  C   UNL     1       1.051   1.567   7.404  1.00  0.00     0.231 C 
ATOM     13  N   UNL     1       1.063   2.465   8.433  1.00  0.00    -0.317 N 
ATOM     14  H   UNL     1       1.498   1.971   9.165  1.00  0.00     0.170 HD
ATOM     15  O   UNL     1       1.772   0.556   7.517  1.00  0.00    -0.274 OA
BRANCH  13  16
ATOM     16  C   UNL     1       0.787   3.703   8.995  1.00  0.00     0.108 A 
ATOM     17  C   UNL     1       0.931   4.032  10.357  1.00  0.00     0.082 A 
ATOM     18  C   UNL     1       1.058   5.453  10.552  1.00  0.00     0.007 A 
ATOM     19  C   UNL     1       0.750   6.140   9.402  1.00  0.00     0.076 A 
ATOM     20  S   UNL     1       0.450   5.082   8.088  1.00  0.00    -0.125 S 
BRANCH  17  21
ATOM     21  C   UNL     1       1.071   3.147  11.517  1.00  0.00     0.252 C 
ATOM     22  N   UNL     1      -0.080   2.948  12.228  1.00  0.00    -0.365 N 
ATOM     23  H   UNL     1      -0.073   2.366  13.022  1.00  0.00     0.159 HD
ATOM     24  H   UNL     1      -0.914   3.387  11.945  1.00  0.00     0.159 HD
ATOM     25  O   UNL     1       2.136   2.715  11.945  1.00  0.00    -0.269 OA
ENDBRANCH  17  21
BRANCH  18  26
ATOM     26  C   UNL     1       1.466   6.085  11.807  1.00  0.00    -0.017 A 
ATOM     27  C   UNL     1       0.616   6.954  12.492  1.00  0.00     0.010 A 
ATOM     28  C   UNL     1       2.676   5.696  12.414  1.00  0.00     0.010 A 
ATOM     29  C   UNL     1       0.960   7.404  13.773  1.00  0.00     0.021 A 
ATOM     30  C   UNL     1       3.011   6.129  13.698  1.00  0.00     0.021 A 
ATOM     31  C   UNL     1       2.147   6.981  14.375  1.00  0.00     0.041 A 
ATOM     32  Cl  UNL     1       2.531   7.493  15.972  1.00  0.00    -0.084 Cl
ENDBRANCH  18  26
ENDBRANCH  13  16
ENDBRANCH   6  12
ENDBRANCH   3   5
ENDBRANCH   2   3
ENDBRANCH   1   2
BRANCH   1  33
ATOM     33  C   UNL     1       0.964  -0.053  10.174  1.00  0.00     0.275 C 
BRANCH  33  34
ATOM     34  O   UNL     1       2.044   0.995  10.077  1.00  0.00    -0.458 OA
BRANCH  34  35
ATOM     35  C   UNL     1       3.384   0.840   9.746  1.00  0.00     0.338 C 
ATOM     36  O   UNL     1       3.973  -0.230   9.741  1.00  0.00    -0.246 OA
BRANCH  35  37
ATOM     37  C   UNL     1       4.002   2.183   9.219  1.00  0.00     0.060 A 
ATOM     38  C   UNL     1       3.888   2.553   7.863  1.00  0.00     0.016 A 
ATOM     39  C   UNL     1       4.687   3.103  10.018  1.00  0.00     0.016 A 
ATOM     40  C   UNL     1       4.247   3.829   7.356  1.00  0.00     0.010 A 
ATOM     41  C   UNL     1       5.179   4.346   9.480  1.00  0.00     0.010 A 
ATOM     42  C   UNL     1       4.947   4.744   8.143  1.00  0.00    -0.014 A 
BRANCH  42  43
ATOM     43  C   UNL     1       5.696   5.873   7.451  1.00  0.00     0.031 A 
ATOM     44  C   UNL     1       7.031   5.523   6.812  1.00  0.00     0.074 A 
ATOM     45  C   UNL     1       5.245   7.135   7.236  1.00  0.00     0.049 A 
ATOM     46  N   UNL     1       7.890   6.285   6.177  1.00  0.00    -0.248 NA
ATOM     47  C   UNL     1       7.429   4.109   6.886  1.00  0.00     0.031 C 
ATOM     48  C   UNL     1       3.936   7.659   7.609  1.00  0.00     0.029 A 
ATOM     49  N   UNL     1       5.856   8.219   6.614  1.00  0.00    -0.354 N 
ATOM     50  C   UNL     1       8.929   5.445   5.788  1.00  0.00     0.074 A 
ATOM     51  C   UNL     1       8.591   4.118   6.255  1.00  0.00     0.031 C 
ATOM     52  C   UNL     1       3.841   8.948   7.219  1.00  0.00     0.029 A 
ATOM     53  C   UNL     1       5.098   9.374   6.595  1.00  0.00     0.049 A 
ATOM     54  H   UNL     1       6.756   8.166   6.219  1.00  0.00     0.167 HD
ATOM     55  C   UNL     1      10.073   5.727   5.117  1.00  0.00     0.031 A 
ATOM     56  C   UNL     1       5.373  10.628   6.152  1.00  0.00     0.031 A 
ATOM     57  C   UNL     1      10.473   7.026   4.653  1.00  0.00     0.049 A 
ATOM     58  C   UNL     1       6.723  10.959   5.538  1.00  0.00     0.074 A 
ATOM     59  C   UNL     1      11.653   7.382   4.019  1.00  0.00     0.029 A 
ATOM     60  N   UNL     1       9.720   8.180   4.768  1.00  0.00    -0.354 N 
ATOM     61  N   UNL     1       7.716  10.158   5.238  1.00  0.00    -0.248 NA
ATOM     62  C   UNL     1       6.990  12.375   5.210  1.00  0.00     0.031 C 
ATOM     63  C   UNL     1      11.636   8.763   3.799  1.00  0.00     0.029 A 
ATOM     64  C   UNL     1      10.420   9.254   4.239  1.00  0.00     0.049 A 
ATOM     65  H   UNL     1       8.821   8.232   5.167  1.00  0.00     0.167 HD
ATOM     66  C   UNL     1       8.702  10.964   4.664  1.00  0.00     0.074 A 
ATOM     67  C   UNL     1       8.189  12.314   4.645  1.00  0.00     0.031 C 
ATOM     68  C   UNL     1       9.924  10.605   4.197  1.00  0.00     0.031 A 
BRANCH  55  69
ATOM     69  C   UNL     1      11.032   4.586   4.913  1.00  0.00    -0.014 A 
ATOM     70  C   UNL     1      10.789   3.587   3.954  1.00  0.00     0.010 A 
ATOM     71  C   UNL     1      12.200   4.525   5.695  1.00  0.00     0.010 A 
ATOM     72  C   UNL     1      11.679   2.520   3.813  1.00  0.00     0.020 A 
ATOM     73  C   UNL     1      13.104   3.475   5.537  1.00  0.00     0.020 A 
ATOM     74  C   UNL     1      12.828   2.468   4.610  1.00  0.00     0.054 A 
BRANCH  74  75
ATOM     75  S   UNL     1      13.969   1.075   4.404  1.00  0.00     0.124 S 
ATOM     76  O   UNL     1      13.230  -0.015   5.036  1.00  0.00    -0.237 OA
ATOM     77  O   UNL     1      14.105   0.983   2.953  1.00  0.00    -0.237 OA
ATOM     78  O   UNL     1      15.172   1.504   5.113  1.00  0.00    -0.744 OA
ENDBRANCH  74  75
ENDBRANCH  55  69
BRANCH  56  79
ATOM     79  C   UNL     1       4.378  11.742   6.310  1.00  0.00    -0.014 A 
ATOM     80  C   UNL     1       3.813  12.383   5.189  1.00  0.00     0.010 A 
ATOM     81  C   UNL     1       4.066  12.236   7.590  1.00  0.00     0.010 A 
ATOM     82  C   UNL     1       2.973  13.495   5.344  1.00  0.00     0.020 A 
ATOM     83  C   UNL     1       3.205  13.329   7.752  1.00  0.00     0.020 A 
ATOM     84  C   UNL     1       2.671  13.959   6.627  1.00  0.00     0.054 A 
BRANCH  84  85
ATOM     85  S   UNL     1       1.539  15.369   6.815  1.00  0.00     0.124 S 
ATOM     86  O   UNL     1       2.378  16.493   6.411  1.00  0.00    -0.237 OA
ATOM     87  O   UNL     1       0.454  15.028   5.899  1.00  0.00    -0.237 OA
ATOM     88  O   UNL     1       1.181  15.332   8.232  1.00  0.00    -0.744 OA
ENDBRANCH  84  85
ENDBRANCH  56  79
BRANCH  68  89
ATOM     89  C   UNL     1      10.806  11.663   3.575  1.00  0.00    -0.014 A 
ATOM     90  C   UNL     1      11.449  12.639   4.357  1.00  0.00     0.010 A 
ATOM     91  C   UNL     1      11.068  11.625   2.191  1.00  0.00     0.010 A 
ATOM     92  C   UNL     1      12.316  13.568   3.766  1.00  0.00     0.020 A 
ATOM     93  C   UNL     1      11.951  12.536   1.600  1.00  0.00     0.020 A 
ATOM     94  C   UNL     1      12.562  13.511   2.391  1.00  0.00     0.054 A 
BRANCH  94  95
ATOM     95  S   UNL     1      13.731  14.691   1.656  1.00  0.00     0.124 S 
ATOM     96  O   UNL     1      12.956  15.928   1.653  1.00  0.00    -0.237 OA
ATOM     97  O   UNL     1      14.855  14.656   2.589  1.00  0.00    -0.237 OA
ATOM     98  O   UNL     1      14.010  14.128   0.336  1.00  0.00    -0.744 OA
ENDBRANCH  94  95
ENDBRANCH  68  89
ENDBRANCH  42  43
ENDBRANCH  35  37
ENDBRANCH  34  35
ENDBRANCH  33  34
ENDBRANCH   1  33
TORSDOF 18
