REMARK SMILES CCCc1cc(OC(F)(F)F)cc2c1O[C@H](C(F)(F)F)C(C(=O)OCCOC(=O)c1ccc(-c3c4nc(c(-c5ccc(S(=O)(=O)[O-])cc5)c5ccc([nH]5)c(-c5ccc(S(=O)(=O)[O-])cc5)c5nc(c(-c6ccc(S(=O)(=O)[O-])cc6)c6ccc3[nH]6)C=C5)C=C4)cc1)=C2
REMARK SMILES IDX 26 1 25 2 24 3 22 4 23 5 21 6 4 7 5 8 14 9 6 10 13 11 15 12
REMARK SMILES IDX 12 13 90 14 16 15 3 16 2 17 1 18 7 19 8 20 9 21 10 22 11 23
REMARK SMILES IDX 17 24 18 25 19 26 20 27 27 28 28 29 29 30 30 31 31 32 89 33
REMARK SMILES IDX 32 34 88 35 33 36 34 37 35 38 82 39 36 40 87 41 81 42 83 43
REMARK SMILES IDX 37 44 86 45 80 46 79 47 38 49 68 50 49 51 67 52 50 53 53 54
REMARK SMILES IDX 66 55 84 56 51 57 52 58 65 60 85 61 54 62 39 63 40 64 48 65
REMARK SMILES IDX 41 66 47 67 42 68 43 69 44 70 45 71 46 72 69 73 70 74 78 75
REMARK SMILES IDX 71 76 77 77 72 78 73 79 74 80 75 81 76 82 55 83 56 84 64 85
REMARK SMILES IDX 57 86 63 87 58 88 59 89 60 90 61 91 62 92
REMARK H PARENT 83 48 53 59
REMARK Flexibility Score: inf
ROOT
ATOM      1  C   UNL     1      -4.551   3.121  -4.793  1.00  0.00     0.275 C 
ENDROOT
BRANCH   1   2
ATOM      2  C   UNL     1      -4.848   3.894  -3.507  1.00  0.00     0.275 C 
BRANCH   2   3
ATOM      3  O   UNL     1      -3.675   3.975  -2.670  1.00  0.00    -0.459 OA
BRANCH   3   4
ATOM      4  C   UNL     1      -3.577   2.991  -1.745  1.00  0.00     0.338 C 
ATOM      5  O   UNL     1      -4.392   2.105  -1.540  1.00  0.00    -0.246 OA
BRANCH   4   6
ATOM      6  C   UNL     1      -2.307   3.052  -1.007  1.00  0.00     0.087 C 
ATOM      7  C   UNL     1       0.635   2.579   1.918  1.00  0.00    -0.002 A 
ATOM      8  C   UNL     1       1.309   3.734   2.366  1.00  0.00     0.054 A 
ATOM      9  C   UNL     1      -0.368   2.750   0.957  1.00  0.00     0.131 A 
ATOM     10  C   UNL     1       0.994   5.007   1.874  1.00  0.00     0.130 A 
ATOM     11  C   UNL     1      -0.717   4.029   0.472  1.00  0.00     0.021 A 
ATOM     12  O   UNL     1      -1.046   1.640   0.527  1.00  0.00    -0.475 OA
ATOM     13  C   UNL     1      -0.024   5.147   0.928  1.00  0.00     0.058 A 
ATOM     14  C   UNL     1      -1.867   4.175  -0.426  1.00  0.00     0.027 C 
ATOM     15  C   UNL     1      -1.595   1.743  -0.805  1.00  0.00     0.316 C 
BRANCH   7  16
ATOM     16  C   UNL     1       0.970   1.262   2.601  1.00  0.00     0.039 C 
BRANCH  16  17
ATOM     17  C   UNL     1       0.814  -0.075   1.862  1.00  0.00     0.001 C 
ATOM     18  C   UNL     1       1.749  -0.226   0.674  1.00  0.00     0.004 C 
ENDBRANCH  16  17
ENDBRANCH   7  16
BRANCH  10  19
ATOM     19  O   UNL     1       1.579   6.186   2.242  1.00  0.00    -0.406 OA
BRANCH  19  20
ATOM     20  C   UNL     1       2.534   6.152   3.287  1.00  0.00     0.573 C 
ATOM     21  F   UNL     1       1.995   5.663   4.425  1.00  0.00    -0.132 F 
ATOM     22  F   UNL     1       3.612   5.418   2.942  1.00  0.00    -0.132 F 
ATOM     23  F   UNL     1       2.947   7.416   3.532  1.00  0.00    -0.132 F 
ENDBRANCH  19  20
ENDBRANCH  10  19
BRANCH  15  24
ATOM     24  C   UNL     1      -0.530   1.502  -1.894  1.00  0.00     0.430 C 
ATOM     25  F   UNL     1      -1.040   1.723  -3.131  1.00  0.00    -0.167 F 
ATOM     26  F   UNL     1       0.545   2.314  -1.771  1.00  0.00    -0.167 F 
ATOM     27  F   UNL     1      -0.082   0.227  -1.871  1.00  0.00    -0.167 F 
ENDBRANCH  15  24
ENDBRANCH   4   6
ENDBRANCH   3   4
ENDBRANCH   2   3
ENDBRANCH   1   2
BRANCH   1  28
ATOM     28  O   UNL     1      -4.166   1.776  -4.466  1.00  0.00    -0.458 OA
BRANCH  28  29
ATOM     29  C   UNL     1      -3.338   1.165  -5.347  1.00  0.00     0.338 C 
ATOM     30  O   UNL     1      -2.970   1.623  -6.421  1.00  0.00    -0.246 OA
BRANCH  29  31
ATOM     31  C   UNL     1      -2.914  -0.160  -4.825  1.00  0.00     0.060 A 
ATOM     32  C   UNL     1      -2.940  -0.447  -3.459  1.00  0.00     0.016 A 
ATOM     33  C   UNL     1      -2.408  -1.117  -5.706  1.00  0.00     0.016 A 
ATOM     34  C   UNL     1      -2.370  -1.623  -2.967  1.00  0.00     0.010 A 
ATOM     35  C   UNL     1      -1.951  -2.351  -5.219  1.00  0.00     0.010 A 
ATOM     36  C   UNL     1      -1.895  -2.613  -3.838  1.00  0.00    -0.014 A 
BRANCH  36  37
ATOM     37  C   UNL     1      -1.346  -3.905  -3.319  1.00  0.00     0.031 A 
ATOM     38  C   UNL     1       0.012  -4.398  -3.765  1.00  0.00     0.074 A 
ATOM     39  C   UNL     1      -2.059  -4.665  -2.459  1.00  0.00     0.049 A 
ATOM     40  N   UNL     1       0.547  -5.585  -3.624  1.00  0.00    -0.248 NA
ATOM     41  C   UNL     1       0.868  -3.440  -4.482  1.00  0.00     0.031 C 
ATOM     42  C   UNL     1      -3.369  -4.325  -1.897  1.00  0.00     0.029 A 
ATOM     43  N   UNL     1      -1.776  -5.890  -1.900  1.00  0.00    -0.354 N 
ATOM     44  C   UNL     1       1.762  -5.540  -4.301  1.00  0.00     0.074 A 
ATOM     45  C   UNL     1       1.889  -4.205  -4.845  1.00  0.00     0.031 C 
ATOM     46  C   UNL     1      -3.746  -5.282  -1.038  1.00  0.00     0.029 A 
ATOM     47  C   UNL     1      -2.764  -6.359  -1.066  1.00  0.00     0.049 A 
ATOM     48  H   UNL     1      -0.944  -6.385  -2.080  1.00  0.00     0.167 HD
ATOM     49  C   UNL     1       2.684  -6.521  -4.462  1.00  0.00     0.031 A 
ATOM     50  C   UNL     1      -2.907  -7.538  -0.430  1.00  0.00     0.031 A 
ATOM     51  C   UNL     1       2.595  -7.830  -3.866  1.00  0.00     0.049 A 
ATOM     52  C   UNL     1      -1.877  -8.613  -0.625  1.00  0.00     0.074 A 
ATOM     53  C   UNL     1       3.493  -8.881  -3.958  1.00  0.00     0.029 A 
ATOM     54  N   UNL     1       1.564  -8.260  -3.046  1.00  0.00    -0.354 N 
ATOM     55  N   UNL     1      -0.777  -8.578  -1.337  1.00  0.00    -0.248 NA
ATOM     56  C   UNL     1      -2.123  -9.895   0.049  1.00  0.00     0.031 C 
ATOM     57  C   UNL     1       2.988  -9.957  -3.220  1.00  0.00     0.029 A 
ATOM     58  C   UNL     1       1.798  -9.562  -2.632  1.00  0.00     0.049 A 
ATOM     59  H   UNL     1       0.780  -7.720  -2.795  1.00  0.00     0.167 HD
ATOM     60  C   UNL     1      -0.199  -9.833  -1.196  1.00  0.00     0.074 A 
ATOM     61  C   UNL     1      -1.055 -10.595  -0.309  1.00  0.00     0.031 C 
ATOM     62  C   UNL     1       0.936 -10.314  -1.759  1.00  0.00     0.031 A 
BRANCH  49  63
ATOM     63  C   UNL     1       3.861  -6.236  -5.358  1.00  0.00    -0.014 A 
ATOM     64  C   UNL     1       4.915  -5.399  -4.951  1.00  0.00     0.010 A 
ATOM     65  C   UNL     1       3.934  -6.863  -6.617  1.00  0.00     0.010 A 
ATOM     66  C   UNL     1       6.000  -5.165  -5.802  1.00  0.00     0.020 A 
ATOM     67  C   UNL     1       5.029  -6.652  -7.459  1.00  0.00     0.020 A 
ATOM     68  C   UNL     1       6.048  -5.789  -7.053  1.00  0.00     0.054 A 
BRANCH  68  69
ATOM     69  S   UNL     1       7.478  -5.490  -8.129  1.00  0.00     0.124 S 
ATOM     70  O   UNL     1       7.192  -4.154  -8.644  1.00  0.00    -0.237 OA
ATOM     71  O   UNL     1       8.604  -5.577  -7.202  1.00  0.00    -0.237 OA
ATOM     72  O   UNL     1       7.403  -6.567  -9.113  1.00  0.00    -0.744 OA
ENDBRANCH  68  69
ENDBRANCH  49  63
BRANCH  50  73
ATOM     73  C   UNL     1      -4.113  -7.783   0.407  1.00  0.00    -0.014 A 
ATOM     74  C   UNL     1      -4.008  -7.845   1.807  1.00  0.00     0.010 A 
ATOM     75  C   UNL     1      -5.378  -7.925  -0.193  1.00  0.00     0.010 A 
ATOM     76  C   UNL     1      -5.148  -8.044   2.592  1.00  0.00     0.020 A 
ATOM     77  C   UNL     1      -6.522  -8.095   0.589  1.00  0.00     0.020 A 
ATOM     78  C   UNL     1      -6.399  -8.162   1.978  1.00  0.00     0.054 A 
BRANCH  78  79
ATOM     79  S   UNL     1      -7.878  -8.337   3.015  1.00  0.00     0.124 S 
ATOM     80  O   UNL     1      -7.837  -9.753   3.363  1.00  0.00    -0.237 OA
ATOM     81  O   UNL     1      -7.613  -7.407   4.110  1.00  0.00    -0.237 OA
ATOM     82  O   UNL     1      -8.965  -7.940   2.123  1.00  0.00    -0.744 OA
ENDBRANCH  78  79
ENDBRANCH  50  73
BRANCH  62  83
ATOM     83  C   UNL     1       1.328 -11.724  -1.414  1.00  0.00    -0.014 A 
ATOM     84  C   UNL     1       0.648 -12.821  -1.972  1.00  0.00     0.010 A 
ATOM     85  C   UNL     1       2.404 -11.954  -0.538  1.00  0.00     0.010 A 
ATOM     86  C   UNL     1       1.015 -14.126  -1.631  1.00  0.00     0.020 A 
ATOM     87  C   UNL     1       2.787 -13.258  -0.212  1.00  0.00     0.020 A 
ATOM     88  C   UNL     1       2.079 -14.336  -0.748  1.00  0.00     0.054 A 
BRANCH  88  89
ATOM     89  S   UNL     1       2.554 -16.037  -0.336  1.00  0.00     0.124 S 
ATOM     90  O   UNL     1       1.518 -16.419   0.619  1.00  0.00    -0.237 OA
ATOM     91  O   UNL     1       2.495 -16.712  -1.630  1.00  0.00    -0.237 OA
ATOM     92  O   UNL     1       3.897 -15.895   0.224  1.00  0.00    -0.744 OA
ENDBRANCH  88  89
ENDBRANCH  62  83
ENDBRANCH  36  37
ENDBRANCH  29  31
ENDBRANCH  28  29
ENDBRANCH   1  28
TORSDOF 19
