REMARK SMILES Cc1nnc(SCC(=O)Nc2cccc(C(=O)OCCOC(=O)c3ccc(-c4c5nc(c(-c6ccc(S(=O)(=O)[O-])cc6)c6ccc([nH]6)c(-c6ccc(S(=O)(=O)[O-])cc6)c6nc(c(-c7ccc(S(=O)(=O)[O-])cc7)c7ccc4[nH]7)C=C6)C=C5)cc3)c2)n1-c1ccccc1
REMARK SMILES IDX 19 1 18 2 16 3 17 4 15 5 11 6 12 7 84 8 13 9 14 10 10 11
REMARK SMILES IDX 8 12 9 13 7 15 6 16 5 17 1 18 2 19 3 20 85 21 4 22 86 23
REMARK SMILES IDX 87 24 91 25 88 26 90 27 89 28 20 29 21 30 22 31 23 32 24 33
REMARK SMILES IDX 25 34 83 35 26 36 82 37 27 38 28 39 29 40 76 41 30 42 81 43
REMARK SMILES IDX 75 44 77 45 31 46 80 47 74 48 73 49 32 51 62 52 43 53 61 54
REMARK SMILES IDX 44 55 47 56 60 57 78 58 45 59 46 60 59 62 79 63 48 64 33 65
REMARK SMILES IDX 34 66 42 67 35 68 41 69 36 70 37 71 38 72 39 73 40 74 63 75
REMARK SMILES IDX 64 76 72 77 65 78 71 79 66 80 67 81 68 82 69 83 70 84 49 85
REMARK SMILES IDX 50 86 58 87 51 88 57 89 52 90 53 91 54 92 55 93 56 94
REMARK H PARENT 10 14 77 50 47 61
REMARK Flexibility Score: inf
ROOT
ATOM      1  C   UNL     1      -2.142  -1.546   6.999  1.00  0.00     0.275 C 
ENDROOT
BRANCH   1   2
ATOM      2  O   UNL     1      -1.441  -0.293   7.071  1.00  0.00    -0.458 OA
BRANCH   2   3
ATOM      3  C   UNL     1      -1.098   0.186   8.302  1.00  0.00     0.338 C 
ATOM      4  O   UNL     1      -1.549  -0.161   9.365  1.00  0.00    -0.246 OA
BRANCH   3   5
ATOM      5  C   UNL     1       0.008   1.180   8.147  1.00  0.00     0.062 A 
ATOM      6  C   UNL     1       1.444   2.471   6.706  1.00  0.00     0.042 A 
ATOM      7  C   UNL     1       2.046   3.067   7.811  1.00  0.00     0.026 A 
ATOM      8  C   UNL     1       0.520   1.463   6.885  1.00  0.00     0.041 A 
ATOM      9  C   UNL     1       1.609   2.732   9.093  1.00  0.00     0.003 A 
ATOM     10  C   UNL     1       0.566   1.812   9.261  1.00  0.00     0.016 A 
BRANCH   6  11
ATOM     11  N   UNL     1       1.726   2.974   5.439  1.00  0.00    -0.325 N 
ATOM     12  C   UNL     1       0.812   3.452   4.548  1.00  0.00     0.234 C 
ATOM     13  O   UNL     1       1.249   4.374   3.841  1.00  0.00    -0.274 OA
ATOM     14  H   UNL     1       2.671   2.985   5.162  1.00  0.00     0.169 HD
BRANCH  12  15
ATOM     15  C   UNL     1      -0.681   3.168   4.556  1.00  0.00     0.178 C 
BRANCH  15  16
ATOM     16  S   UNL     1      -1.397   1.579   4.126  1.00  0.00    -0.076 SA
BRANCH  16  17
ATOM     17  C   UNL     1      -0.350   0.649   3.115  1.00  0.00     0.196 A 
ATOM     18  C   UNL     1       1.062  -0.347  -0.084  1.00  0.00     0.090 C 
ATOM     19  C   UNL     1       0.538  -0.199   1.293  1.00  0.00     0.135 A 
ATOM     20  N   UNL     1       0.496  -1.146   2.209  1.00  0.00    -0.134 NA
ATOM     21  N   UNL     1       0.015   0.961   1.824  1.00  0.00    -0.274 N 
ATOM     22  N   UNL     1      -0.072  -0.617   3.345  1.00  0.00    -0.123 NA
BRANCH  21  23
ATOM     23  C   UNL     1      -0.147   2.190   1.178  1.00  0.00     0.049 A 
ATOM     24  C   UNL     1       0.837   3.155   1.360  1.00  0.00     0.027 A 
ATOM     25  C   UNL     1      -1.355   2.482   0.546  1.00  0.00     0.027 A 
ATOM     26  C   UNL     1       0.562   4.472   1.003  1.00  0.00     0.002 A 
ATOM     27  C   UNL     1      -1.602   3.797   0.156  1.00  0.00     0.002 A 
ATOM     28  C   UNL     1      -0.660   4.795   0.418  1.00  0.00     0.000 A 
ENDBRANCH  21  23
ENDBRANCH  16  17
ENDBRANCH  15  16
ENDBRANCH  12  15
ENDBRANCH   6  11
ENDBRANCH   3   5
ENDBRANCH   2   3
ENDBRANCH   1   2
BRANCH   1  29
ATOM     29  C   UNL     1      -1.167  -2.716   6.947  1.00  0.00     0.275 C 
BRANCH  29  30
ATOM     30  O   UNL     1      -0.426  -2.758   8.160  1.00  0.00    -0.458 OA
BRANCH  30  31
ATOM     31  C   UNL     1       0.745  -2.087   8.130  1.00  0.00     0.338 C 
ATOM     32  O   UNL     1       1.207  -1.438   7.205  1.00  0.00    -0.246 OA
BRANCH  31  33
ATOM     33  C   UNL     1       1.486  -2.361   9.358  1.00  0.00     0.060 A 
ATOM     34  C   UNL     1       2.723  -1.718   9.491  1.00  0.00     0.016 A 
ATOM     35  C   UNL     1       1.163  -3.535  10.042  1.00  0.00     0.016 A 
ATOM     36  C   UNL     1       3.747  -2.421  10.073  1.00  0.00     0.010 A 
ATOM     37  C   UNL     1       2.194  -4.259  10.562  1.00  0.00     0.010 A 
ATOM     38  C   UNL     1       3.481  -3.727  10.483  1.00  0.00    -0.014 A 
BRANCH  38  39
ATOM     39  C   UNL     1       4.576  -4.556  10.921  1.00  0.00     0.031 A 
ATOM     40  C   UNL     1       4.931  -4.283  12.330  1.00  0.00     0.074 A 
ATOM     41  C   UNL     1       5.012  -5.570  10.149  1.00  0.00     0.049 A 
ATOM     42  N   UNL     1       6.010  -3.748  12.795  1.00  0.00    -0.248 NA
ATOM     43  C   UNL     1       3.841  -4.395  13.323  1.00  0.00     0.031 C 
ATOM     44  C   UNL     1       4.436  -6.049   8.886  1.00  0.00     0.029 A 
ATOM     45  N   UNL     1       5.963  -6.498  10.414  1.00  0.00    -0.354 N 
ATOM     46  C   UNL     1       5.812  -3.700  14.171  1.00  0.00     0.074 A 
ATOM     47  C   UNL     1       4.395  -3.809  14.380  1.00  0.00     0.031 C 
ATOM     48  C   UNL     1       4.865  -7.311   8.657  1.00  0.00     0.029 A 
ATOM     49  C   UNL     1       5.818  -7.678   9.693  1.00  0.00     0.049 A 
ATOM     50  H   UNL     1       6.691  -6.350  11.060  1.00  0.00     0.167 HD
ATOM     51  C   UNL     1       6.824  -3.962  15.041  1.00  0.00     0.031 A 
ATOM     52  C   UNL     1       6.350  -8.886  10.017  1.00  0.00     0.031 A 
ATOM     53  C   UNL     1       8.109  -3.856  14.399  1.00  0.00     0.049 A 
ATOM     54  C   UNL     1       7.410  -8.634  11.034  1.00  0.00     0.074 A 
ATOM     55  C   UNL     1       8.761  -2.851  13.712  1.00  0.00     0.029 A 
ATOM     56  N   UNL     1       8.729  -5.033  14.043  1.00  0.00    -0.354 N 
ATOM     57  N   UNL     1       8.505  -7.969  10.785  1.00  0.00    -0.248 NA
ATOM     58  C   UNL     1       7.026  -8.687  12.439  1.00  0.00     0.031 C 
ATOM     59  C   UNL     1       9.426  -3.511  12.639  1.00  0.00     0.029 A 
ATOM     60  C   UNL     1       9.214  -4.885  12.769  1.00  0.00     0.049 A 
ATOM     61  H   UNL     1       8.809  -5.838  14.604  1.00  0.00     0.167 HD
ATOM     62  C   UNL     1       8.707  -7.174  11.907  1.00  0.00     0.074 A 
ATOM     63  C   UNL     1       7.816  -7.725  12.928  1.00  0.00     0.031 C 
ATOM     64  C   UNL     1       9.347  -5.969  11.816  1.00  0.00     0.031 A 
BRANCH  51  65
ATOM     65  C   UNL     1       6.611  -4.759  16.309  1.00  0.00    -0.014 A 
ATOM     66  C   UNL     1       7.708  -4.972  17.163  1.00  0.00     0.010 A 
ATOM     67  C   UNL     1       5.454  -5.532  16.559  1.00  0.00     0.010 A 
ATOM     68  C   UNL     1       7.672  -5.961  18.156  1.00  0.00     0.020 A 
ATOM     69  C   UNL     1       5.388  -6.482  17.574  1.00  0.00     0.020 A 
ATOM     70  C   UNL     1       6.515  -6.718  18.343  1.00  0.00     0.054 A 
BRANCH  70  71
ATOM     71  S   UNL     1       6.511  -8.066  19.545  1.00  0.00     0.124 S 
ATOM     72  O   UNL     1       7.466  -8.996  18.952  1.00  0.00    -0.237 OA
ATOM     73  O   UNL     1       6.950  -7.391  20.763  1.00  0.00    -0.237 OA
ATOM     74  O   UNL     1       5.120  -8.514  19.553  1.00  0.00    -0.744 OA
ENDBRANCH  70  71
ENDBRANCH  51  65
BRANCH  52  75
ATOM     75  C   UNL     1       5.738 -10.228   9.805  1.00  0.00    -0.014 A 
ATOM     76  C   UNL     1       6.484 -11.411   9.976  1.00  0.00     0.010 A 
ATOM     77  C   UNL     1       4.339 -10.360   9.679  1.00  0.00     0.010 A 
ATOM     78  C   UNL     1       5.849 -12.665  10.065  1.00  0.00     0.020 A 
ATOM     79  C   UNL     1       3.700 -11.604   9.757  1.00  0.00     0.020 A 
ATOM     80  C   UNL     1       4.457 -12.752   9.972  1.00  0.00     0.054 A 
BRANCH  80  81
ATOM     81  S   UNL     1       3.628 -14.347  10.251  1.00  0.00     0.124 S 
ATOM     82  O   UNL     1       3.998 -15.104   9.059  1.00  0.00    -0.237 OA
ATOM     83  O   UNL     1       4.229 -14.804  11.501  1.00  0.00    -0.237 OA
ATOM     84  O   UNL     1       2.214 -13.989  10.343  1.00  0.00    -0.744 OA
ENDBRANCH  80  81
ENDBRANCH  52  75
BRANCH  64  85
ATOM     85  C   UNL     1      10.071  -5.631  10.531  1.00  0.00    -0.014 A 
ATOM     86  C   UNL     1       9.431  -5.472   9.285  1.00  0.00     0.010 A 
ATOM     87  C   UNL     1      11.429  -5.285  10.634  1.00  0.00     0.010 A 
ATOM     88  C   UNL     1      10.139  -4.994   8.171  1.00  0.00     0.020 A 
ATOM     89  C   UNL     1      12.134  -4.792   9.534  1.00  0.00     0.020 A 
ATOM     90  C   UNL     1      11.489  -4.655   8.305  1.00  0.00     0.054 A 
BRANCH  90  91
ATOM     91  S   UNL     1      12.393  -3.983   6.881  1.00  0.00     0.124 S 
ATOM     92  O   UNL     1      12.488  -5.137   5.991  1.00  0.00    -0.237 OA
ATOM     93  O   UNL     1      11.523  -2.903   6.421  1.00  0.00    -0.237 OA
ATOM     94  O   UNL     1      13.664  -3.539   7.453  1.00  0.00    -0.744 OA
ENDBRANCH  90  91
ENDBRANCH  64  85
ENDBRANCH  38  39
ENDBRANCH  31  33
ENDBRANCH  30  31
ENDBRANCH  29  30
ENDBRANCH   1  29
TORSDOF 19
