REMARK SMILES C[C@@]1(C(=O)N[C@@H](CO)C(=O)OCCOC(=O)c2ccc(-c3c4nc(c(-c5ccc(S(=O)(=O)[O-])cc5)c5ccc([nH]5)c(-c5ccc(S(=O)(=O)[O-])cc5)c5nc(c(-c6ccc(S(=O)(=O)[O-])cc6)c6ccc3[nH]6)C=C5)C=C4)cc2)CCCO1
REMARK SMILES IDX 13 1 12 2 11 3 9 4 10 5 6 6 5 7 3 8 4 9 2 11 1 12 77 13
REMARK SMILES IDX 80 14 78 15 79 16 7 17 8 18 14 20 15 21 16 22 17 23 18 24
REMARK SMILES IDX 76 25 19 26 75 27 20 28 21 29 22 30 69 31 23 32 74 33 68 34
REMARK SMILES IDX 70 35 24 36 73 37 67 38 66 39 25 41 55 42 36 43 54 44 37 45
REMARK SMILES IDX 40 46 53 47 71 48 38 49 39 50 52 52 72 53 41 54 26 55 27 56
REMARK SMILES IDX 35 57 28 58 34 59 29 60 30 61 31 62 32 63 33 64 56 65 57 66
REMARK SMILES IDX 65 67 58 68 64 69 59 70 60 71 61 72 62 73 63 74 42 75 43 76
REMARK SMILES IDX 51 77 44 78 50 79 45 80 46 81 47 82 48 83 49 84
REMARK H PARENT 5 10 8 19 70 40 40 51
REMARK Flexibility Score: inf
ROOT
ATOM      1  C   UNL     1       3.155  -4.451  -5.657  1.00  0.00     0.275 C 
ENDROOT
BRANCH   1   2
ATOM      2  C   UNL     1       2.201  -3.632  -6.515  1.00  0.00     0.274 C 
BRANCH   2   3
ATOM      3  O   UNL     1       1.746  -2.490  -5.763  1.00  0.00    -0.460 OA
BRANCH   3   4
ATOM      4  C   UNL     1       0.424  -2.476  -5.429  1.00  0.00     0.331 C 
ATOM      5  O   UNL     1      -0.396  -3.321  -5.769  1.00  0.00    -0.250 OA
BRANCH   4   6
ATOM      6  C   UNL     1       0.052  -1.241  -4.603  1.00  0.00     0.218 C 
BRANCH   6   7
ATOM      7  N   UNL     1       1.220  -0.536  -4.064  1.00  0.00    -0.338 N 
ATOM      8  C   UNL     1       1.425   0.029  -2.839  1.00  0.00     0.252 C 
ATOM      9  O   UNL     1       2.492   0.629  -2.684  1.00  0.00    -0.272 OA
ATOM     10  H   UNL     1       1.979  -0.458  -4.687  1.00  0.00     0.164 HD
BRANCH   8  11
ATOM     11  C   UNL     1       0.385  -0.126  -1.690  1.00  0.00     0.143 C 
ATOM     12  C   UNL     1       0.755   0.816  -0.534  1.00  0.00     0.053 C 
ATOM     13  C   UNL     1       0.323  -1.567  -1.172  1.00  0.00     0.048 C 
ATOM     14  O   UNL     1      -0.947   0.201  -2.125  1.00  0.00    -0.365 OA
ATOM     15  C   UNL     1      -1.148  -1.933  -1.175  1.00  0.00     0.032 C 
ATOM     16  C   UNL     1      -1.860  -0.620  -1.387  1.00  0.00     0.162 C 
ENDBRANCH   8  11
ENDBRANCH   6   7
BRANCH   6  17
ATOM     17  C   UNL     1      -0.797  -0.314  -5.478  1.00  0.00     0.193 C 
BRANCH  17  18
ATOM     18  O   UNL     1       0.010   0.361  -6.449  1.00  0.00    -0.394 OA
ATOM     19  H   UNL     1       0.675   0.903  -5.996  1.00  0.00     0.210 HD
ENDBRANCH  17  18
ENDBRANCH   6  17
ENDBRANCH   4   6
ENDBRANCH   3   4
ENDBRANCH   2   3
ENDBRANCH   1   2
BRANCH   1  20
ATOM     20  O   UNL     1       2.444  -4.933  -4.501  1.00  0.00    -0.458 OA
BRANCH  20  21
ATOM     21  C   UNL     1       3.057  -4.727  -3.313  1.00  0.00     0.338 C 
ATOM     22  O   UNL     1       4.159  -4.237  -3.134  1.00  0.00    -0.246 OA
BRANCH  21  23
ATOM     23  C   UNL     1       2.195  -5.186  -2.203  1.00  0.00     0.060 A 
ATOM     24  C   UNL     1       0.824  -4.932  -2.199  1.00  0.00     0.016 A 
ATOM     25  C   UNL     1       2.795  -5.762  -1.081  1.00  0.00     0.016 A 
ATOM     26  C   UNL     1       0.088  -5.139  -1.026  1.00  0.00     0.010 A 
ATOM     27  C   UNL     1       2.029  -6.053   0.055  1.00  0.00     0.010 A 
ATOM     28  C   UNL     1       0.677  -5.680   0.130  1.00  0.00    -0.014 A 
BRANCH  28  29
ATOM     29  C   UNL     1      -0.071  -5.764   1.429  1.00  0.00     0.031 A 
ATOM     30  C   UNL     1       0.530  -5.190   2.698  1.00  0.00     0.074 A 
ATOM     31  C   UNL     1      -1.303  -6.310   1.511  1.00  0.00     0.049 A 
ATOM     32  N   UNL     1       0.158  -5.364   3.943  1.00  0.00    -0.248 NA
ATOM     33  C   UNL     1       1.715  -4.328   2.551  1.00  0.00     0.031 C 
ATOM     34  C   UNL     1      -2.070  -6.869   0.397  1.00  0.00     0.029 A 
ATOM     35  N   UNL     1      -2.143  -6.460   2.591  1.00  0.00    -0.354 N 
ATOM     36  C   UNL     1       1.122  -4.733   4.725  1.00  0.00     0.074 A 
ATOM     37  C   UNL     1       2.078  -4.142   3.813  1.00  0.00     0.031 C 
ATOM     38  C   UNL     1      -3.291  -7.217   0.831  1.00  0.00     0.029 A 
ATOM     39  C   UNL     1      -3.361  -7.014   2.275  1.00  0.00     0.049 A 
ATOM     40  H   UNL     1      -1.894  -6.195   3.506  1.00  0.00     0.167 HD
ATOM     41  C   UNL     1       1.215  -4.662   6.076  1.00  0.00     0.031 A 
ATOM     42  C   UNL     1      -4.407  -7.363   3.049  1.00  0.00     0.031 A 
ATOM     43  C   UNL     1       0.220  -5.152   6.993  1.00  0.00     0.049 A 
ATOM     44  C   UNL     1      -4.317  -7.223   4.541  1.00  0.00     0.074 A 
ATOM     45  C   UNL     1       0.234  -5.122   8.378  1.00  0.00     0.029 A 
ATOM     46  N   UNL     1      -0.988  -5.718   6.620  1.00  0.00    -0.354 N 
ATOM     47  N   UNL     1      -3.332  -6.752   5.264  1.00  0.00    -0.248 NA
ATOM     48  C   UNL     1      -5.469  -7.699   5.322  1.00  0.00     0.031 C 
ATOM     49  C   UNL     1      -0.962  -5.683   8.843  1.00  0.00     0.029 A 
ATOM     50  C   UNL     1      -1.731  -6.031   7.747  1.00  0.00     0.049 A 
ATOM     51  H   UNL     1      -1.276  -5.875   5.692  1.00  0.00     0.167 HD
ATOM     52  C   UNL     1      -3.736  -6.894   6.587  1.00  0.00     0.074 A 
ATOM     53  C   UNL     1      -5.071  -7.456   6.564  1.00  0.00     0.031 C 
ATOM     54  C   UNL     1      -3.051  -6.603   7.720  1.00  0.00     0.031 A 
BRANCH  41  55
ATOM     55  C   UNL     1       2.475  -4.077   6.656  1.00  0.00    -0.014 A 
ATOM     56  C   UNL     1       2.711  -2.693   6.679  1.00  0.00     0.010 A 
ATOM     57  C   UNL     1       3.423  -4.944   7.233  1.00  0.00     0.010 A 
ATOM     58  C   UNL     1       3.892  -2.188   7.234  1.00  0.00     0.020 A 
ATOM     59  C   UNL     1       4.593  -4.443   7.808  1.00  0.00     0.020 A 
ATOM     60  C   UNL     1       4.829  -3.067   7.788  1.00  0.00     0.054 A 
BRANCH  60  61
ATOM     61  S   UNL     1       6.345  -2.394   8.523  1.00  0.00     0.124 S 
ATOM     62  O   UNL     1       7.172  -2.162   7.341  1.00  0.00    -0.237 OA
ATOM     63  O   UNL     1       5.872  -1.192   9.204  1.00  0.00    -0.237 OA
ATOM     64  O   UNL     1       6.804  -3.465   9.405  1.00  0.00    -0.744 OA
ENDBRANCH  60  61
ENDBRANCH  41  55
BRANCH  42  65
ATOM     65  C   UNL     1      -5.626  -7.935   2.417  1.00  0.00    -0.014 A 
ATOM     66  C   UNL     1      -6.802  -7.171   2.324  1.00  0.00     0.010 A 
ATOM     67  C   UNL     1      -5.601  -9.229   1.867  1.00  0.00     0.010 A 
ATOM     68  C   UNL     1      -7.929  -7.688   1.679  1.00  0.00     0.020 A 
ATOM     69  C   UNL     1      -6.716  -9.738   1.199  1.00  0.00     0.020 A 
ATOM     70  C   UNL     1      -7.876  -8.964   1.113  1.00  0.00     0.054 A 
BRANCH  70  71
ATOM     71  S   UNL     1      -9.305  -9.583   0.180  1.00  0.00     0.124 S 
ATOM     72  O   UNL     1     -10.134 -10.149   1.239  1.00  0.00    -0.237 OA
ATOM     73  O   UNL     1      -9.825  -8.374  -0.455  1.00  0.00    -0.237 OA
ATOM     74  O   UNL     1      -8.709 -10.550  -0.739  1.00  0.00    -0.744 OA
ENDBRANCH  70  71
ENDBRANCH  42  65
BRANCH  54  75
ATOM     75  C   UNL     1      -3.733  -6.888   9.028  1.00  0.00    -0.014 A 
ATOM     76  C   UNL     1      -3.825  -8.203   9.518  1.00  0.00     0.010 A 
ATOM     77  C   UNL     1      -4.266  -5.832   9.787  1.00  0.00     0.010 A 
ATOM     78  C   UNL     1      -4.469  -8.461  10.731  1.00  0.00     0.020 A 
ATOM     79  C   UNL     1      -4.898  -6.085  11.008  1.00  0.00     0.020 A 
ATOM     80  C   UNL     1      -5.010  -7.401  11.464  1.00  0.00     0.054 A 
BRANCH  80  81
ATOM     81  S   UNL     1      -5.828  -7.753  13.045  1.00  0.00     0.124 S 
ATOM     82  O   UNL     1      -7.136  -8.234  12.608  1.00  0.00    -0.237 OA
ATOM     83  O   UNL     1      -4.957  -8.761  13.645  1.00  0.00    -0.237 OA
ATOM     84  O   UNL     1      -5.834  -6.460  13.725  1.00  0.00    -0.744 OA
ENDBRANCH  80  81
ENDBRANCH  54  75
ENDBRANCH  28  29
ENDBRANCH  21  23
ENDBRANCH  20  21
ENDBRANCH   1  20
TORSDOF 18
