REMARK SMILES Cc1ccc(-c2nn(CCC(=O)OCCOC(=O)c3ccc(-c4c5nc(c(-c6ccc(S(=O)(=O)[O-])cc6)c6ccc([nH]6)c(-c6ccc(S(=O)(=O)[O-])cc6)c6nc(c(-c7ccc(S(=O)(=O)[O-])cc7)c7ccc4[nH]7)C=C6)C=C5)cc3)c(=O)c3noc(C)c23)cc1C
REMARK SMILES IDX 14 1 13 2 11 3 12 4 10 5 9 6 8 7 6 8 7 9 86 10 81 11 84 12
REMARK SMILES IDX 79 13 82 14 83 15 85 16 80 17 5 18 1 19 2 20 3 21 88 22 4 23
REMARK SMILES IDX 87 24 89 25 15 26 16 27 17 28 18 29 19 30 20 31 78 32 21 33
REMARK SMILES IDX 77 34 22 35 23 36 24 37 71 38 25 39 76 40 70 41 72 42 26 43
REMARK SMILES IDX 75 44 69 45 68 46 27 48 57 49 38 50 56 51 39 52 42 53 55 54
REMARK SMILES IDX 73 55 40 56 41 57 54 59 74 60 43 61 28 62 29 63 37 64 30 65
REMARK SMILES IDX 36 66 31 67 32 68 33 69 34 70 35 71 58 72 59 73 67 74 60 75
REMARK SMILES IDX 66 76 61 77 62 78 63 79 64 80 65 81 44 82 45 83 53 84 46 85
REMARK SMILES IDX 52 86 47 87 48 88 49 89 50 90 51 91
REMARK H PARENT 72 47 42 58
REMARK Flexibility Score: inf
ROOT
ATOM      1  C   UNL     1      -7.317  -5.718  -0.907  1.00  0.00     0.274 C 
ENDROOT
BRANCH   1   2
ATOM      2  O   UNL     1      -6.396  -4.696  -1.327  1.00  0.00    -0.462 OA
BRANCH   2   3
ATOM      3  C   UNL     1      -6.416  -4.347  -2.632  1.00  0.00     0.307 C 
ATOM      4  O   UNL     1      -6.989  -4.971  -3.518  1.00  0.00    -0.252 OA
BRANCH   3   5
ATOM      5  C   UNL     1      -5.578  -3.123  -2.906  1.00  0.00     0.146 C 
BRANCH   5   6
ATOM      6  C   UNL     1      -5.823  -1.962  -1.943  1.00  0.00     0.160 C 
BRANCH   6   7
ATOM      7  N   UNL     1      -4.981  -2.034  -0.748  1.00  0.00    -0.227 N 
ATOM      8  C   UNL     1      -2.844  -1.536   0.098  1.00  0.00     0.104 A 
ATOM      9  N   UNL     1      -3.702  -1.471  -0.881  1.00  0.00    -0.169 NA
ATOM     10  C   UNL     1      -3.172  -2.273   1.286  1.00  0.00     0.078 A 
ATOM     11  C   UNL     1      -4.471  -2.773   1.454  1.00  0.00     0.183 A 
ATOM     12  C   UNL     1      -2.514  -2.647   2.433  1.00  0.00     0.143 A 
ATOM     13  C   UNL     1      -5.488  -2.581   0.450  1.00  0.00     0.296 A 
ATOM     14  N   UNL     1      -4.610  -3.442   2.603  1.00  0.00    -0.074 NA
ATOM     15  O   UNL     1      -3.374  -3.360   3.218  1.00  0.00    -0.360 OA
ATOM     16  C   UNL     1      -1.163  -2.477   2.992  1.00  0.00     0.091 C 
ATOM     17  O   UNL     1      -6.658  -2.909   0.641  1.00  0.00    -0.265 OA
BRANCH   8  18
ATOM     18  C   UNL     1      -1.586  -0.785   0.009  1.00  0.00     0.003 A 
ATOM     19  C   UNL     1       2.005   1.582  -0.013  1.00  0.00     0.044 C 
ATOM     20  C   UNL     1       0.770   0.723  -0.026  1.00  0.00    -0.048 A 
ATOM     21  C   UNL     1      -0.485   1.355  -0.013  1.00  0.00     0.004 A 
ATOM     22  C   UNL     1       0.838  -0.687  -0.051  1.00  0.00    -0.048 A 
ATOM     23  C   UNL     1      -1.659   0.607   0.003  1.00  0.00     0.011 A 
ATOM     24  C   UNL     1      -0.354  -1.433  -0.050  1.00  0.00     0.014 A 
ATOM     25  C   UNL     1       2.135  -1.449  -0.063  1.00  0.00     0.044 C 
ENDBRANCH   8  18
ENDBRANCH   6   7
ENDBRANCH   5   6
ENDBRANCH   3   5
ENDBRANCH   2   3
ENDBRANCH   1   2
BRANCH   1  26
ATOM     26  C   UNL     1      -8.693  -5.148  -0.555  1.00  0.00     0.275 C 
BRANCH  26  27
ATOM     27  O   UNL     1      -9.279  -4.470  -1.683  1.00  0.00    -0.458 OA
BRANCH  27  28
ATOM     28  C   UNL     1      -9.444  -3.141  -1.509  1.00  0.00     0.338 C 
ATOM     29  O   UNL     1      -9.162  -2.474  -0.525  1.00  0.00    -0.246 OA
BRANCH  28  30
ATOM     30  C   UNL     1     -10.101  -2.506  -2.650  1.00  0.00     0.060 A 
ATOM     31  C   UNL     1      -9.461  -2.336  -3.882  1.00  0.00     0.016 A 
ATOM     32  C   UNL     1     -11.306  -1.865  -2.372  1.00  0.00     0.016 A 
ATOM     33  C   UNL     1     -10.034  -1.489  -4.838  1.00  0.00     0.010 A 
ATOM     34  C   UNL     1     -11.869  -1.029  -3.323  1.00  0.00     0.010 A 
ATOM     35  C   UNL     1     -11.241  -0.830  -4.562  1.00  0.00    -0.014 A 
BRANCH  35  36
ATOM     36  C   UNL     1     -11.897  -0.003  -5.598  1.00  0.00     0.031 A 
ATOM     37  C   UNL     1     -13.322  -0.376  -5.846  1.00  0.00     0.074 A 
ATOM     38  C   UNL     1     -11.528   1.269  -5.872  1.00  0.00     0.049 A 
ATOM     39  N   UNL     1     -14.266  -0.019  -5.024  1.00  0.00    -0.248 NA
ATOM     40  C   UNL     1     -13.736  -1.381  -6.822  1.00  0.00     0.031 C 
ATOM     41  C   UNL     1     -10.725   2.103  -4.970  1.00  0.00     0.029 A 
ATOM     42  N   UNL     1     -11.964   2.147  -6.842  1.00  0.00    -0.354 N 
ATOM     43  C   UNL     1     -15.366  -0.800  -5.300  1.00  0.00     0.074 A 
ATOM     44  C   UNL     1     -15.010  -1.598  -6.454  1.00  0.00     0.031 C 
ATOM     45  C   UNL     1     -10.890   3.397  -5.316  1.00  0.00     0.029 A 
ATOM     46  C   UNL     1     -11.669   3.481  -6.550  1.00  0.00     0.049 A 
ATOM     47  H   UNL     1     -12.437   1.863  -7.658  1.00  0.00     0.167 HD
ATOM     48  C   UNL     1     -16.486  -0.780  -4.532  1.00  0.00     0.031 A 
ATOM     49  C   UNL     1     -12.440   4.557  -6.875  1.00  0.00     0.031 A 
ATOM     50  C   UNL     1     -16.439   0.076  -3.382  1.00  0.00     0.049 A 
ATOM     51  C   UNL     1     -13.702   4.298  -6.092  1.00  0.00     0.074 A 
ATOM     52  C   UNL     1     -16.124  -0.047  -2.045  1.00  0.00     0.029 A 
ATOM     53  N   UNL     1     -16.677   1.418  -3.557  1.00  0.00    -0.354 N 
ATOM     54  N   UNL     1     -13.901   4.540  -4.826  1.00  0.00    -0.248 NA
ATOM     55  C   UNL     1     -14.710   3.439  -6.718  1.00  0.00     0.031 C 
ATOM     56  C   UNL     1     -15.747   1.265  -1.616  1.00  0.00     0.029 A 
ATOM     57  C   UNL     1     -15.805   2.090  -2.737  1.00  0.00     0.049 A 
ATOM     58  H   UNL     1     -17.345   1.821  -4.157  1.00  0.00     0.167 HD
ATOM     59  C   UNL     1     -14.887   3.638  -4.427  1.00  0.00     0.074 A 
ATOM     60  C   UNL     1     -15.360   3.009  -5.646  1.00  0.00     0.031 C 
ATOM     61  C   UNL     1     -15.140   3.316  -3.126  1.00  0.00     0.031 A 
BRANCH  48  62
ATOM     62  C   UNL     1     -17.739  -1.471  -4.887  1.00  0.00    -0.014 A 
ATOM     63  C   UNL     1     -18.708  -0.732  -5.586  1.00  0.00     0.010 A 
ATOM     64  C   UNL     1     -18.060  -2.737  -4.380  1.00  0.00     0.010 A 
ATOM     65  C   UNL     1     -20.003  -1.223  -5.727  1.00  0.00     0.020 A 
ATOM     66  C   UNL     1     -19.358  -3.240  -4.532  1.00  0.00     0.020 A 
ATOM     67  C   UNL     1     -20.326  -2.466  -5.181  1.00  0.00     0.054 A 
BRANCH  67  68
ATOM     68  S   UNL     1     -22.050  -3.015  -5.285  1.00  0.00     0.124 S 
ATOM     69  O   UNL     1     -22.745  -1.999  -4.499  1.00  0.00    -0.237 OA
ATOM     70  O   UNL     1     -22.300  -2.979  -6.723  1.00  0.00    -0.237 OA
ATOM     71  O   UNL     1     -22.024  -4.351  -4.693  1.00  0.00    -0.744 OA
ENDBRANCH  67  68
ENDBRANCH  48  62
BRANCH  49  72
ATOM     72  C   UNL     1     -12.500   4.954  -8.322  1.00  0.00    -0.014 A 
ATOM     73  C   UNL     1     -11.311   4.961  -9.082  1.00  0.00     0.010 A 
ATOM     74  C   UNL     1     -13.682   5.363  -8.969  1.00  0.00     0.010 A 
ATOM     75  C   UNL     1     -11.323   5.236 -10.455  1.00  0.00     0.020 A 
ATOM     76  C   UNL     1     -13.710   5.612 -10.349  1.00  0.00     0.020 A 
ATOM     77  C   UNL     1     -12.531   5.525 -11.088  1.00  0.00     0.054 A 
BRANCH  77  78
ATOM     78  S   UNL     1     -12.546   5.718 -12.891  1.00  0.00     0.124 S 
ATOM     79  O   UNL     1     -11.823   6.973 -13.074  1.00  0.00    -0.237 OA
ATOM     80  O   UNL     1     -11.845   4.517 -13.337  1.00  0.00    -0.237 OA
ATOM     81  O   UNL     1     -13.968   5.760 -13.221  1.00  0.00    -0.744 OA
ENDBRANCH  77  78
ENDBRANCH  49  72
BRANCH  61  82
ATOM     82  C   UNL     1     -14.481   4.159  -2.079  1.00  0.00    -0.014 A 
ATOM     83  C   UNL     1     -14.953   5.458  -1.837  1.00  0.00     0.010 A 
ATOM     84  C   UNL     1     -13.462   3.638  -1.260  1.00  0.00     0.010 A 
ATOM     85  C   UNL     1     -14.463   6.200  -0.760  1.00  0.00     0.020 A 
ATOM     86  C   UNL     1     -12.977   4.370  -0.172  1.00  0.00     0.020 A 
ATOM     87  C   UNL     1     -13.495   5.642   0.081  1.00  0.00     0.054 A 
BRANCH  87  88
ATOM     88  S   UNL     1     -12.980   6.579   1.546  1.00  0.00     0.124 S 
ATOM     89  O   UNL     1     -12.341   7.755   0.963  1.00  0.00    -0.237 OA
ATOM     90  O   UNL     1     -14.251   6.828   2.224  1.00  0.00    -0.237 OA
ATOM     91  O   UNL     1     -12.079   5.668   2.248  1.00  0.00    -0.744 OA
ENDBRANCH  87  88
ENDBRANCH  61  82
ENDBRANCH  35  36
ENDBRANCH  28  30
ENDBRANCH  27  28
ENDBRANCH  26  27
ENDBRANCH   1  26
TORSDOF 17
