REMARK SMILES C[C@H]1[C@H](C(=O)OCCOC(=O)c2ccc(-c3c4nc(c(-c5ccc(S(=O)(=O)[O-])cc5)c5ccc([nH]5)c(-c5ccc(S(=O)(=O)[O-])cc5)c5nc(c(-c6ccc(S(=O)(=O)[O-])cc6)c6ccc3[nH]6)C=C5)C=C4)cc2)CCN1C(=O)CC[NH2+]C1CC1
REMARK SMILES IDX 7 1 6 2 4 3 5 4 3 5 1 6 2 7 74 8 72 9 73 10 75 11 76 12
REMARK SMILES IDX 77 13 78 14 79 15 80 18 81 19 82 20 8 21 9 22 10 23 11 24
REMARK SMILES IDX 12 25 13 26 71 27 14 28 70 29 15 30 16 31 17 32 64 33 18 34
REMARK SMILES IDX 69 35 63 36 65 37 19 38 68 39 62 40 61 41 20 43 50 44 31 45
REMARK SMILES IDX 49 46 32 47 35 48 48 49 66 50 33 51 34 52 47 54 67 55 36 56
REMARK SMILES IDX 21 57 22 58 30 59 23 60 29 61 24 62 25 63 26 64 27 65 28 66
REMARK SMILES IDX 51 67 52 68 60 69 53 70 59 71 54 72 55 73 56 74 57 75 58 76
REMARK SMILES IDX 37 77 38 78 46 79 39 80 45 81 40 82 41 83 42 84 43 85 44 86
REMARK H PARENT 79 16 79 17 65 42 35 53
REMARK Flexibility Score: inf
ROOT
ATOM      1  C   UNL     1      -0.478   2.827   3.457  1.00  0.00     0.274 C 
ENDROOT
BRANCH   1   2
ATOM      2  O   UNL     1      -0.570   1.797   2.450  1.00  0.00    -0.462 OA
BRANCH   2   3
ATOM      3  C   UNL     1      -1.065   2.181   1.246  1.00  0.00     0.311 C 
ATOM      4  O   UNL     1      -1.486   3.304   0.993  1.00  0.00    -0.252 OA
BRANCH   3   5
ATOM      5  C   UNL     1      -1.094   1.068   0.223  1.00  0.00     0.123 C 
ATOM      6  C   UNL     1       0.955   0.331  -1.044  1.00  0.00     0.032 C 
ATOM      7  C   UNL     1       0.133   0.133   0.233  1.00  0.00     0.096 C 
ATOM      8  N   UNL     1      -0.428  -1.220   0.259  1.00  0.00    -0.339 N 
ATOM      9  C   UNL     1      -2.303   0.148   0.403  1.00  0.00     0.039 C 
ATOM     10  C   UNL     1      -1.821  -1.190  -0.130  1.00  0.00     0.121 C 
BRANCH   8  11
ATOM     11  C   UNL     1       0.203  -2.401   0.597  1.00  0.00     0.228 C 
ATOM     12  O   UNL     1      -0.342  -3.494   0.426  1.00  0.00    -0.275 OA
BRANCH  11  13
ATOM     13  C   UNL     1       1.583  -2.336   1.235  1.00  0.00     0.161 C 
BRANCH  13  14
ATOM     14  C   UNL     1       2.716  -2.452   0.214  1.00  0.00     0.270 C 
BRANCH  14  15
ATOM     15  N   UNL     1       3.640  -1.318   0.321  1.00  0.00    -0.343 N 
ATOM     16  H   UNL     1       4.108  -1.372   1.226  1.00  0.00     0.346 HD
ATOM     17  H   UNL     1       3.078  -0.473   0.214  1.00  0.00     0.346 HD
BRANCH  15  18
ATOM     18  C   UNL     1       4.667  -1.272  -0.725  1.00  0.00     0.182 C 
ATOM     19  C   UNL     1       4.330  -1.198  -2.189  1.00  0.00     0.071 C 
ATOM     20  C   UNL     1       4.851   0.018  -1.486  1.00  0.00     0.071 C 
ENDBRANCH  15  18
ENDBRANCH  14  15
ENDBRANCH  13  14
ENDBRANCH  11  13
ENDBRANCH   8  11
ENDBRANCH   3   5
ENDBRANCH   2   3
ENDBRANCH   1   2
BRANCH   1  21
ATOM     21  C   UNL     1       0.951   3.362   3.599  1.00  0.00     0.275 C 
BRANCH  21  22
ATOM     22  O   UNL     1       1.369   4.103   2.439  1.00  0.00    -0.458 OA
BRANCH  22  23
ATOM     23  C   UNL     1       2.005   3.373   1.496  1.00  0.00     0.338 C 
ATOM     24  O   UNL     1       2.250   2.179   1.523  1.00  0.00    -0.246 OA
BRANCH  23  25
ATOM     25  C   UNL     1       2.295   4.205   0.322  1.00  0.00     0.060 A 
ATOM     26  C   UNL     1       1.627   3.923  -0.871  1.00  0.00     0.016 A 
ATOM     27  C   UNL     1       3.306   5.164   0.363  1.00  0.00     0.016 A 
ATOM     28  C   UNL     1       2.008   4.555  -2.050  1.00  0.00     0.010 A 
ATOM     29  C   UNL     1       3.658   5.830  -0.813  1.00  0.00     0.010 A 
ATOM     30  C   UNL     1       3.027   5.515  -2.030  1.00  0.00    -0.014 A 
BRANCH  30  31
ATOM     31  C   UNL     1       3.446   6.193  -3.279  1.00  0.00     0.031 A 
ATOM     32  C   UNL     1       4.801   5.917  -3.865  1.00  0.00     0.074 A 
ATOM     33  C   UNL     1       2.619   7.077  -3.867  1.00  0.00     0.049 A 
ATOM     34  N   UNL     1       5.418   6.535  -4.838  1.00  0.00    -0.248 NA
ATOM     35  C   UNL     1       5.562   4.802  -3.278  1.00  0.00     0.031 C 
ATOM     36  C   UNL     1       1.258   7.387  -3.424  1.00  0.00     0.029 A 
ATOM     37  N   UNL     1       2.810   7.890  -4.955  1.00  0.00    -0.354 N 
ATOM     38  C   UNL     1       6.654   5.910  -4.959  1.00  0.00     0.074 A 
ATOM     39  C   UNL     1       6.699   4.864  -3.959  1.00  0.00     0.031 C 
ATOM     40  C   UNL     1       0.740   8.329  -4.228  1.00  0.00     0.029 A 
ATOM     41  C   UNL     1       1.752   8.732  -5.199  1.00  0.00     0.049 A 
ATOM     42  H   UNL     1       3.625   7.872  -5.506  1.00  0.00     0.167 HD
ATOM     43  C   UNL     1       7.660   6.193  -5.820  1.00  0.00     0.031 A 
ATOM     44  C   UNL     1       1.626   9.748  -6.075  1.00  0.00     0.031 A 
ATOM     45  C   UNL     1       7.604   7.232  -6.812  1.00  0.00     0.049 A 
ATOM     46  C   UNL     1       2.780  10.087  -6.976  1.00  0.00     0.074 A 
ATOM     47  C   UNL     1       8.572   7.599  -7.731  1.00  0.00     0.029 A 
ATOM     48  N   UNL     1       6.519   8.071  -7.018  1.00  0.00    -0.354 N 
ATOM     49  N   UNL     1       3.953   9.506  -7.060  1.00  0.00    -0.248 NA
ATOM     50  C   UNL     1       2.598  11.221  -7.892  1.00  0.00     0.031 C 
ATOM     51  C   UNL     1       8.086   8.684  -8.468  1.00  0.00     0.029 A 
ATOM     52  C   UNL     1       6.798   8.963  -8.038  1.00  0.00     0.049 A 
ATOM     53  H   UNL     1       5.674   8.036  -6.513  1.00  0.00     0.167 HD
ATOM     54  C   UNL     1       4.641  10.190  -8.055  1.00  0.00     0.074 A 
ATOM     55  C   UNL     1       3.754  11.225  -8.546  1.00  0.00     0.031 C 
ATOM     56  C   UNL     1       5.896   9.977  -8.521  1.00  0.00     0.031 A 
BRANCH  43  57
ATOM     57  C   UNL     1       8.927   5.393  -5.694  1.00  0.00    -0.014 A 
ATOM     58  C   UNL     1       9.002   4.066  -6.151  1.00  0.00     0.010 A 
ATOM     59  C   UNL     1      10.073   5.995  -5.142  1.00  0.00     0.010 A 
ATOM     60  C   UNL     1      10.190   3.341  -6.022  1.00  0.00     0.020 A 
ATOM     61  C   UNL     1      11.269   5.280  -5.031  1.00  0.00     0.020 A 
ATOM     62  C   UNL     1      11.314   3.951  -5.456  1.00  0.00     0.054 A 
BRANCH  62  63
ATOM     63  S   UNL     1      12.848   2.994  -5.307  1.00  0.00     0.124 S 
ATOM     64  O   UNL     1      12.555   2.135  -4.162  1.00  0.00    -0.237 OA
ATOM     65  O   UNL     1      12.932   2.313  -6.597  1.00  0.00    -0.237 OA
ATOM     66  O   UNL     1      13.870   4.012  -5.076  1.00  0.00    -0.744 OA
ENDBRANCH  62  63
ENDBRANCH  43  57
BRANCH  44  67
ATOM     67  C   UNL     1       0.370  10.543  -6.102  1.00  0.00    -0.014 A 
ATOM     68  C   UNL     1      -0.535  10.412  -7.168  1.00  0.00     0.010 A 
ATOM     69  C   UNL     1       0.059  11.412  -5.039  1.00  0.00     0.010 A 
ATOM     70  C   UNL     1      -1.728  11.140  -7.175  1.00  0.00     0.020 A 
ATOM     71  C   UNL     1      -1.143  12.123  -5.031  1.00  0.00     0.020 A 
ATOM     72  C   UNL     1      -2.025  11.990  -6.104  1.00  0.00     0.054 A 
BRANCH  72  73
ATOM     73  S   UNL     1      -3.608  12.876  -6.099  1.00  0.00     0.124 S 
ATOM     74  O   UNL     1      -3.346  13.969  -7.029  1.00  0.00    -0.237 OA
ATOM     75  O   UNL     1      -4.545  11.858  -6.566  1.00  0.00    -0.237 OA
ATOM     76  O   UNL     1      -3.773  13.267  -4.700  1.00  0.00    -0.744 OA
ENDBRANCH  72  73
ENDBRANCH  44  67
BRANCH  56  77
ATOM     77  C   UNL     1       6.376  10.845  -9.650  1.00  0.00    -0.014 A 
ATOM     78  C   UNL     1       6.826  12.155  -9.416  1.00  0.00     0.010 A 
ATOM     79  C   UNL     1       6.466  10.304 -10.945  1.00  0.00     0.010 A 
ATOM     80  C   UNL     1       7.356  12.913 -10.463  1.00  0.00     0.020 A 
ATOM     81  C   UNL     1       7.011  11.053 -11.990  1.00  0.00     0.020 A 
ATOM     82  C   UNL     1       7.449  12.356 -11.743  1.00  0.00     0.054 A 
BRANCH  82  83
ATOM     83  S   UNL     1       8.220  13.327 -13.068  1.00  0.00     0.124 S 
ATOM     84  O   UNL     1       7.155  14.262 -13.418  1.00  0.00    -0.237 OA
ATOM     85  O   UNL     1       9.380  13.916 -12.404  1.00  0.00    -0.237 OA
ATOM     86  O   UNL     1       8.534  12.329 -14.088  1.00  0.00    -0.744 OA
ENDBRANCH  82  83
ENDBRANCH  56  77
ENDBRANCH  30  31
ENDBRANCH  23  25
ENDBRANCH  22  23
ENDBRANCH  21  22
ENDBRANCH   1  21
TORSDOF 19
