REMARK SMILES O=C(OCCOC(=O)[C@@]1(Cl)C[C@@H]2CC[C@H]1C2)c1ccc(-c2c3nc(c(-c4ccc(S(=O)(=O)[O-])cc4)c4ccc([nH]4)c(-c4ccc(S(=O)(=O)[O-])cc4)c4nc(c(-c5ccc(S(=O)(=O)[O-])cc5)c5ccc2[nH]5)C=C4)C=C3)cc1
REMARK SMILES IDX 3 1 2 2 1 3 17 4 18 5 76 6 19 7 75 8 20 9 21 10 22 11 69 12
REMARK SMILES IDX 23 13 74 14 68 15 70 16 24 17 73 18 67 19 66 20 25 22 55 23
REMARK SMILES IDX 36 24 54 25 37 26 40 27 53 28 71 29 38 30 39 31 52 33 72 34
REMARK SMILES IDX 41 35 26 36 27 37 35 38 28 39 34 40 29 41 30 42 31 43 32 44
REMARK SMILES IDX 33 45 56 46 57 47 65 48 58 49 64 50 59 51 60 52 61 53 62 54
REMARK SMILES IDX 63 55 42 56 43 57 51 58 44 59 50 60 45 61 46 62 47 63 48 64
REMARK SMILES IDX 49 65 4 66 5 67 6 68 7 69 8 70 9 71 11 72 15 73 10 74 12 75
REMARK SMILES IDX 14 76 16 77 13 78
REMARK H PARENT 70 21 40 32
REMARK Flexibility Score: inf
ROOT
ATOM      1  O   UNL     1      -1.250   4.730   0.819  1.00  0.00    -0.458 OA
ENDROOT
BRANCH   1   2
ATOM      2  C   UNL     1      -0.810   4.652   2.094  1.00  0.00     0.338 C 
ATOM      3  O   UNL     1      -0.635   5.701   2.715  1.00  0.00    -0.246 OA
BRANCH   2   4
ATOM      4  C   UNL     1      -0.406   3.375   2.761  1.00  0.00     0.060 A 
ATOM      5  C   UNL     1      -0.910   2.094   2.516  1.00  0.00     0.016 A 
ATOM      6  C   UNL     1       0.589   3.501   3.740  1.00  0.00     0.016 A 
ATOM      7  C   UNL     1      -0.361   0.963   3.146  1.00  0.00     0.010 A 
ATOM      8  C   UNL     1       1.167   2.376   4.332  1.00  0.00     0.010 A 
ATOM      9  C   UNL     1       0.702   1.089   4.042  1.00  0.00    -0.014 A 
BRANCH   9  10
ATOM     10  C   UNL     1       1.272  -0.084   4.756  1.00  0.00     0.031 A 
ATOM     11  C   UNL     1       1.199  -0.116   6.263  1.00  0.00     0.074 A 
ATOM     12  C   UNL     1       1.903  -1.075   4.091  1.00  0.00     0.049 A 
ATOM     13  N   UNL     1       1.645  -1.019   7.096  1.00  0.00    -0.248 NA
ATOM     14  C   UNL     1       0.590   1.053   6.923  1.00  0.00     0.031 C 
ATOM     15  C   UNL     1       2.128  -1.133   2.643  1.00  0.00     0.029 A 
ATOM     16  N   UNL     1       2.487  -2.230   4.554  1.00  0.00    -0.354 N 
ATOM     17  C   UNL     1       1.384  -0.512   8.364  1.00  0.00     0.074 A 
ATOM     18  C   UNL     1       0.876   0.828   8.193  1.00  0.00     0.031 C 
ATOM     19  C   UNL     1       2.790  -2.265   2.340  1.00  0.00     0.029 A 
ATOM     20  C   UNL     1       3.026  -3.022   3.565  1.00  0.00     0.049 A 
ATOM     21  H   UNL     1       2.517  -2.470   5.509  1.00  0.00     0.167 HD
ATOM     22  C   UNL     1       1.463  -1.129   9.566  1.00  0.00     0.031 A 
ATOM     23  C   UNL     1       3.611  -4.235   3.639  1.00  0.00     0.031 A 
ATOM     24  C   UNL     1       1.894  -2.485   9.727  1.00  0.00     0.049 A 
ATOM     25  C   UNL     1       3.670  -4.927   4.979  1.00  0.00     0.074 A 
ATOM     26  C   UNL     1       1.915  -3.259  10.871  1.00  0.00     0.029 A 
ATOM     27  N   UNL     1       2.366  -3.277   8.691  1.00  0.00    -0.354 N 
ATOM     28  N   UNL     1       3.278  -4.487   6.153  1.00  0.00    -0.248 NA
ATOM     29  C   UNL     1       4.199  -6.298   4.996  1.00  0.00     0.031 C 
ATOM     30  C   UNL     1       2.418  -4.519  10.528  1.00  0.00     0.029 A 
ATOM     31  C   UNL     1       2.677  -4.535   9.165  1.00  0.00     0.049 A 
ATOM     32  H   UNL     1       2.464  -2.985   7.756  1.00  0.00     0.167 HD
ATOM     33  C   UNL     1       3.452  -5.551   7.033  1.00  0.00     0.074 A 
ATOM     34  C   UNL     1       3.993  -6.649   6.258  1.00  0.00     0.031 C 
ATOM     35  C   UNL     1       3.174  -5.620   8.358  1.00  0.00     0.031 A 
BRANCH  22  36
ATOM     36  C   UNL     1       1.001  -0.338  10.760  1.00  0.00    -0.014 A 
ATOM     37  C   UNL     1      -0.355   0.027  10.889  1.00  0.00     0.010 A 
ATOM     38  C   UNL     1       1.923   0.112  11.719  1.00  0.00     0.010 A 
ATOM     39  C   UNL     1      -0.762   0.905  11.894  1.00  0.00     0.020 A 
ATOM     40  C   UNL     1       1.512   0.962  12.751  1.00  0.00     0.020 A 
ATOM     41  C   UNL     1       0.179   1.381  12.810  1.00  0.00     0.054 A 
BRANCH  41  42
ATOM     42  S   UNL     1      -0.370   2.557  14.076  1.00  0.00     0.124 S 
ATOM     43  O   UNL     1      -0.480   3.795  13.305  1.00  0.00    -0.237 OA
ATOM     44  O   UNL     1      -1.628   1.984  14.528  1.00  0.00    -0.237 OA
ATOM     45  O   UNL     1       0.716   2.533  15.060  1.00  0.00    -0.744 OA
ENDBRANCH  41  42
ENDBRANCH  22  36
BRANCH  23  46
ATOM     46  C   UNL     1       4.090  -4.932   2.410  1.00  0.00    -0.014 A 
ATOM     47  C   UNL     1       3.371  -6.027   1.894  1.00  0.00     0.010 A 
ATOM     48  C   UNL     1       5.277  -4.537   1.768  1.00  0.00     0.010 A 
ATOM     49  C   UNL     1       3.850  -6.739   0.789  1.00  0.00     0.020 A 
ATOM     50  C   UNL     1       5.748  -5.234   0.648  1.00  0.00     0.020 A 
ATOM     51  C   UNL     1       5.040  -6.341   0.176  1.00  0.00     0.054 A 
BRANCH  51  52
ATOM     52  S   UNL     1       5.635  -7.281  -1.260  1.00  0.00     0.124 S 
ATOM     53  O   UNL     1       6.071  -8.531  -0.646  1.00  0.00    -0.237 OA
ATOM     54  O   UNL     1       4.440  -7.369  -2.095  1.00  0.00    -0.237 OA
ATOM     55  O   UNL     1       6.704  -6.443  -1.800  1.00  0.00    -0.744 OA
ENDBRANCH  51  52
ENDBRANCH  23  46
BRANCH  35  56
ATOM     56  C   UNL     1       3.367  -6.944   9.042  1.00  0.00    -0.014 A 
ATOM     57  C   UNL     1       4.648  -7.429   9.351  1.00  0.00     0.010 A 
ATOM     58  C   UNL     1       2.234  -7.667   9.461  1.00  0.00     0.010 A 
ATOM     59  C   UNL     1       4.794  -8.627  10.055  1.00  0.00     0.020 A 
ATOM     60  C   UNL     1       2.376  -8.850  10.187  1.00  0.00     0.020 A 
ATOM     61  C   UNL     1       3.657  -9.327  10.471  1.00  0.00     0.054 A 
BRANCH  61  62
ATOM     62  S   UNL     1       3.870 -10.839  11.450  1.00  0.00     0.124 S 
ATOM     63  O   UNL     1       4.255 -11.809  10.429  1.00  0.00    -0.237 OA
ATOM     64  O   UNL     1       4.923 -10.466  12.392  1.00  0.00    -0.237 OA
ATOM     65  O   UNL     1       2.554 -11.050  12.049  1.00  0.00    -0.744 OA
ENDBRANCH  61  62
ENDBRANCH  35  56
ENDBRANCH   9  10
ENDBRANCH   2   4
ENDBRANCH   1   2
BRANCH   1  66
ATOM     66  C   UNL     1      -1.558   3.684  -0.112  1.00  0.00     0.275 C 
BRANCH  66  67
ATOM     67  C   UNL     1      -0.360   3.118  -0.871  1.00  0.00     0.274 C 
BRANCH  67  68
ATOM     68  O   UNL     1       0.808   2.859  -0.073  1.00  0.00    -0.461 OA
BRANCH  68  69
ATOM     69  C   UNL     1       1.851   3.728  -0.263  1.00  0.00     0.327 C 
ATOM     70  O   UNL     1       1.736   4.805  -0.842  1.00  0.00    -0.250 OA
BRANCH  69  71
ATOM     71  C   UNL     1       3.201   3.129   0.184  1.00  0.00     0.145 C 
ATOM     72  C   UNL     1       4.311   4.203   0.325  1.00  0.00     0.039 C 
ATOM     73  C   UNL     1       3.170   2.518   1.605  1.00  0.00     0.022 C 
ATOM     74  Cl  UNL     1       3.621   1.934  -1.088  1.00  0.00    -0.106 Cl
ATOM     75  C   UNL     1       4.768   4.059   1.789  1.00  0.00    -0.008 C 
ATOM     76  C   UNL     1       4.424   1.684   1.929  1.00  0.00     0.006 C 
ATOM     77  C   UNL     1       3.449   3.753   2.475  1.00  0.00     0.009 C 
ATOM     78  C   UNL     1       5.534   2.741   1.979  1.00  0.00     0.004 C 
ENDBRANCH  69  71
ENDBRANCH  68  69
ENDBRANCH  67  68
ENDBRANCH  66  67
ENDBRANCH   1  66
TORSDOF 14
