REMARK SMILES Cc1cc(NC(=O)c2ccc(Br)cc2N)ccc1C(=O)OCCOC(=O)c1ccc(-c2c3nc(c(-c4ccc(S(=O)(=O)[O-])cc4)c4ccc([nH]4)c(-c4ccc(S(=O)(=O)[O-])cc4)c4nc(c(-c5ccc(S(=O)(=O)[O-])cc5)c5ccc2[nH]5)C=C4)C=C3)cc1
REMARK SMILES IDX 22 1 21 2 19 3 20 4 18 5 1 6 2 7 3 8 4 9 17 10 16 11 5 12
REMARK SMILES IDX 6 13 7 15 8 16 9 17 14 18 10 19 13 20 11 21 12 22 15 23
REMARK SMILES IDX 23 26 24 27 25 28 26 29 27 30 28 31 86 32 29 33 85 34 30 35
REMARK SMILES IDX 31 36 32 37 79 38 33 39 84 40 78 41 80 42 34 43 83 44 77 45
REMARK SMILES IDX 76 46 35 48 65 49 46 50 64 51 47 52 50 53 63 54 81 55 48 56
REMARK SMILES IDX 49 57 62 59 82 60 51 61 36 62 37 63 45 64 38 65 44 66 39 67
REMARK SMILES IDX 40 68 41 69 42 70 43 71 66 72 67 73 75 74 68 75 74 76 69 77
REMARK SMILES IDX 70 78 71 79 72 80 73 81 52 82 53 83 61 84 54 85 60 86 55 87
REMARK SMILES IDX 56 88 57 89 58 90 59 91
REMARK H PARENT 5 14 15 24 15 25 80 47 50 58
REMARK Flexibility Score: inf
ROOT
ATOM      1  C   UNL     1       3.506   2.697  -2.009  1.00  0.00     0.275 C 
ENDROOT
BRANCH   1   2
ATOM      2  O   UNL     1       2.468   1.716  -2.165  1.00  0.00    -0.458 OA
BRANCH   2   3
ATOM      3  C   UNL     1       2.125   1.116  -0.998  1.00  0.00     0.338 C 
ATOM      4  O   UNL     1       2.646   1.292   0.078  1.00  0.00    -0.246 OA
BRANCH   3   5
ATOM      5  C   UNL     1       1.166   0.016  -1.175  1.00  0.00     0.063 A 
ATOM      6  C   UNL     1       3.095  -1.611  -0.750  1.00  0.00     0.045 C 
ATOM      7  C   UNL     1       1.642  -1.280  -0.947  1.00  0.00    -0.035 A 
ATOM      8  C   UNL     1       0.714  -2.313  -0.817  1.00  0.00     0.030 A 
ATOM      9  C   UNL     1      -0.658  -2.058  -0.771  1.00  0.00     0.041 A 
ATOM     10  C   UNL     1      -0.208   0.258  -1.303  1.00  0.00     0.018 A 
ATOM     11  C   UNL     1      -1.124  -0.782  -1.089  1.00  0.00     0.027 A 
BRANCH   9  12
ATOM     12  N   UNL     1      -1.576  -3.046  -0.370  1.00  0.00    -0.322 N 
ATOM     13  C   UNL     1      -1.349  -4.169   0.412  1.00  0.00     0.257 C 
ATOM     14  H   UNL     1      -2.501  -2.925  -0.685  1.00  0.00     0.170 HD
ATOM     15  O   UNL     1      -2.142  -5.109   0.396  1.00  0.00    -0.269 OA
BRANCH  13  16
ATOM     16  C   UNL     1      -0.161  -4.241   1.314  1.00  0.00     0.063 A 
ATOM     17  C   UNL     1       0.660  -5.375   1.185  1.00  0.00     0.017 A 
ATOM     18  C   UNL     1       0.176  -3.213   2.223  1.00  0.00     0.045 A 
ATOM     19  C   UNL     1       1.835  -5.480   1.930  1.00  0.00     0.016 A 
ATOM     20  C   UNL     1       1.341  -3.360   2.990  1.00  0.00     0.042 A 
ATOM     21  C   UNL     1       2.172  -4.469   2.826  1.00  0.00     0.020 A 
ATOM     22  Br  UNL     1       3.768  -4.600   3.831  1.00  0.00    -0.051 Br
BRANCH  18  23
ATOM     23  N   UNL     1      -0.653  -2.126   2.493  1.00  0.00    -0.398 N 
ATOM     24  H   UNL     1      -1.478  -1.995   1.972  1.00  0.00     0.156 HD
ATOM     25  H   UNL     1      -0.414  -1.489   3.204  1.00  0.00     0.156 HD
ENDBRANCH  18  23
ENDBRANCH  13  16
ENDBRANCH   9  12
ENDBRANCH   3   5
ENDBRANCH   2   3
ENDBRANCH   1   2
BRANCH   1  26
ATOM     26  C   UNL     1       3.280   3.938  -2.890  1.00  0.00     0.275 C 
BRANCH  26  27
ATOM     27  O   UNL     1       2.101   4.755  -2.689  1.00  0.00    -0.458 OA
BRANCH  27  28
ATOM     28  C   UNL     1       0.991   4.160  -2.181  1.00  0.00     0.338 C 
ATOM     29  O   UNL     1       0.264   3.414  -2.829  1.00  0.00    -0.246 OA
BRANCH  28  30
ATOM     30  C   UNL     1       1.020   4.271  -0.699  1.00  0.00     0.060 A 
ATOM     31  C   UNL     1       0.160   3.481   0.079  1.00  0.00     0.016 A 
ATOM     32  C   UNL     1       2.140   4.877  -0.124  1.00  0.00     0.016 A 
ATOM     33  C   UNL     1       0.493   3.181   1.395  1.00  0.00     0.010 A 
ATOM     34  C   UNL     1       2.564   4.444   1.101  1.00  0.00     0.010 A 
ATOM     35  C   UNL     1       1.723   3.634   1.871  1.00  0.00    -0.014 A 
BRANCH  35  36
ATOM     36  C   UNL     1       2.093   3.642   3.270  1.00  0.00     0.031 A 
ATOM     37  C   UNL     1       2.685   2.448   3.908  1.00  0.00     0.074 A 
ATOM     38  C   UNL     1       1.921   4.886   3.783  1.00  0.00     0.049 A 
ATOM     39  N   UNL     1       2.595   2.176   5.162  1.00  0.00    -0.248 NA
ATOM     40  C   UNL     1       3.401   1.395   3.179  1.00  0.00     0.031 C 
ATOM     41  C   UNL     1       2.332   5.498   5.029  1.00  0.00     0.029 A 
ATOM     42  N   UNL     1       1.181   5.924   3.207  1.00  0.00    -0.354 N 
ATOM     43  C   UNL     1       3.535   1.194   5.434  1.00  0.00     0.074 A 
ATOM     44  C   UNL     1       3.850   0.605   4.163  1.00  0.00     0.031 C 
ATOM     45  C   UNL     1       1.528   6.564   5.257  1.00  0.00     0.029 A 
ATOM     46  C   UNL     1       0.503   6.578   4.211  1.00  0.00     0.049 A 
ATOM     47  H   UNL     1       1.150   6.149   2.249  1.00  0.00     0.167 HD
ATOM     48  C   UNL     1       4.120   1.171   6.667  1.00  0.00     0.031 A 
ATOM     49  C   UNL     1      -0.834   6.335   4.395  1.00  0.00     0.031 A 
ATOM     50  C   UNL     1       3.553   2.247   7.476  1.00  0.00     0.049 A 
ATOM     51  C   UNL     1      -1.005   5.592   5.705  1.00  0.00     0.074 A 
ATOM     52  C   UNL     1       3.989   3.543   7.694  1.00  0.00     0.029 A 
ATOM     53  N   UNL     1       2.202   2.216   7.793  1.00  0.00    -0.354 N 
ATOM     54  N   UNL     1      -0.192   4.663   6.143  1.00  0.00    -0.248 NA
ATOM     55  C   UNL     1      -2.009   5.985   6.688  1.00  0.00     0.031 C 
ATOM     56  C   UNL     1       2.847   4.323   8.024  1.00  0.00     0.029 A 
ATOM     57  C   UNL     1       1.731   3.500   7.993  1.00  0.00     0.049 A 
ATOM     58  H   UNL     1       1.658   1.398   7.865  1.00  0.00     0.167 HD
ATOM     59  C   UNL     1      -0.445   4.453   7.474  1.00  0.00     0.074 A 
ATOM     60  C   UNL     1      -1.619   5.269   7.754  1.00  0.00     0.031 C 
ATOM     61  C   UNL     1       0.333   3.714   8.320  1.00  0.00     0.031 A 
BRANCH  48  62
ATOM     62  C   UNL     1       5.408   0.464   7.047  1.00  0.00    -0.014 A 
ATOM     63  C   UNL     1       6.110   0.922   8.187  1.00  0.00     0.010 A 
ATOM     64  C   UNL     1       6.003  -0.604   6.348  1.00  0.00     0.010 A 
ATOM     65  C   UNL     1       7.351   0.399   8.573  1.00  0.00     0.020 A 
ATOM     66  C   UNL     1       7.256  -1.136   6.721  1.00  0.00     0.020 A 
ATOM     67  C   UNL     1       7.927  -0.623   7.829  1.00  0.00     0.054 A 
BRANCH  67  68
ATOM     68  S   UNL     1       9.541  -1.268   8.347  1.00  0.00     0.124 S 
ATOM     69  O   UNL     1      10.401  -0.092   8.229  1.00  0.00    -0.237 OA
ATOM     70  O   UNL     1       9.279  -1.718   9.711  1.00  0.00    -0.237 OA
ATOM     71  O   UNL     1       9.817  -2.333   7.385  1.00  0.00    -0.744 OA
ENDBRANCH  67  68
ENDBRANCH  48  62
BRANCH  49  72
ATOM     72  C   UNL     1      -1.664   6.144   3.149  1.00  0.00    -0.014 A 
ATOM     73  C   UNL     1      -1.585   7.144   2.147  1.00  0.00     0.010 A 
ATOM     74  C   UNL     1      -2.329   4.951   2.813  1.00  0.00     0.010 A 
ATOM     75  C   UNL     1      -2.017   6.917   0.833  1.00  0.00     0.020 A 
ATOM     76  C   UNL     1      -2.793   4.726   1.494  1.00  0.00     0.020 A 
ATOM     77  C   UNL     1      -2.599   5.696   0.505  1.00  0.00     0.054 A 
BRANCH  77  78
ATOM     78  S   UNL     1      -2.882   5.323  -1.261  1.00  0.00     0.124 S 
ATOM     79  O   UNL     1      -4.137   6.017  -1.528  1.00  0.00    -0.237 OA
ATOM     80  O   UNL     1      -1.696   5.903  -1.889  1.00  0.00    -0.237 OA
ATOM     81  O   UNL     1      -2.951   3.863  -1.286  1.00  0.00    -0.744 OA
ENDBRANCH  77  78
ENDBRANCH  49  72
BRANCH  61  82
ATOM     82  C   UNL     1      -0.149   3.184   9.642  1.00  0.00    -0.014 A 
ATOM     83  C   UNL     1      -1.507   3.004   9.934  1.00  0.00     0.010 A 
ATOM     84  C   UNL     1       0.791   2.681  10.574  1.00  0.00     0.010 A 
ATOM     85  C   UNL     1      -1.914   2.449  11.146  1.00  0.00     0.020 A 
ATOM     86  C   UNL     1       0.396   2.057  11.753  1.00  0.00     0.020 A 
ATOM     87  C   UNL     1      -0.959   1.986  12.050  1.00  0.00     0.054 A 
BRANCH  87  88
ATOM     88  S   UNL     1      -1.506   1.257  13.605  1.00  0.00     0.124 S 
ATOM     89  O   UNL     1      -1.710   2.445  14.430  1.00  0.00    -0.237 OA
ATOM     90  O   UNL     1      -2.723   0.545  13.220  1.00  0.00    -0.237 OA
ATOM     91  O   UNL     1      -0.389   0.403  13.997  1.00  0.00    -0.744 OA
ENDBRANCH  87  88
ENDBRANCH  61  82
ENDBRANCH  35  36
ENDBRANCH  28  30
ENDBRANCH  27  28
ENDBRANCH  26  27
ENDBRANCH   1  26
TORSDOF 17
