REMARK SMILES O=C1C[C@H](c2cn[nH]c2C(=O)OCCOC(=O)c2ccc(-c3c4nc(c(-c5ccc(S(=O)(=O)[O-])cc5)c5ccc([nH]5)c(-c5ccc(S(=O)(=O)[O-])cc5)c5nc(c(-c6ccc(S(=O)(=O)[O-])cc6)c6ccc3[nH]6)C=C5)C=C4)cc2)c2c(-c3cccs3)n[nH]c2N1
REMARK SMILES IDX 14 1 13 2 12 3 10 4 11 5 9 6 5 7 6 8 7 9 8 10 4 12 1 13 2 14
REMARK SMILES IDX 3 15 88 16 87 17 78 19 86 20 79 21 85 22 80 24 81 25 84 26
REMARK SMILES IDX 82 27 83 28 15 29 16 30 17 31 18 32 19 33 77 34 20 35 76 36
REMARK SMILES IDX 21 37 22 38 23 39 70 40 24 41 75 42 69 43 71 44 25 45 74 46
REMARK SMILES IDX 68 47 67 48 26 50 56 51 37 52 55 53 38 54 41 55 54 56 72 57
REMARK SMILES IDX 39 58 40 59 53 61 73 62 42 63 27 64 28 65 36 66 29 67 35 68
REMARK SMILES IDX 30 69 31 70 32 71 33 72 34 73 57 74 58 75 66 76 59 77 65 78
REMARK SMILES IDX 60 79 61 80 62 81 63 82 64 83 43 84 44 85 52 86 45 87 51 88
REMARK SMILES IDX 46 89 47 90 48 91 49 92 50 93
REMARK H PARENT 8 11 88 18 86 23 71 49 41 60
REMARK Flexibility Score: inf
ROOT
ATOM      1  C   UNL     1       5.840  -2.872  -2.113  1.00  0.00     0.275 C 
ENDROOT
BRANCH   1   2
ATOM      2  C   UNL     1       6.897  -1.870  -1.716  1.00  0.00     0.275 C 
BRANCH   2   3
ATOM      3  O   UNL     1       6.259  -0.592  -1.566  1.00  0.00    -0.457 OA
BRANCH   3   4
ATOM      4  C   UNL     1       6.396   0.323  -2.542  1.00  0.00     0.356 C 
ATOM      5  O   UNL     1       7.117   0.184  -3.528  1.00  0.00    -0.244 OA
BRANCH   4   6
ATOM      6  C   UNL     1       5.573   1.483  -2.313  1.00  0.00     0.147 A 
ATOM      7  C   UNL     1       4.740   1.989  -1.309  1.00  0.00     0.013 A 
ATOM      8  C   UNL     1       4.331   3.251  -1.844  1.00  0.00     0.140 A 
ATOM      9  N   UNL     1       4.812   3.503  -3.056  1.00  0.00    -0.183 NA
ATOM     10  N   UNL     1       5.504   2.397  -3.337  1.00  0.00    -0.271 N 
ATOM     11  H   UNL     1       5.933   2.247  -4.211  1.00  0.00     0.190 HD
BRANCH   7  12
ATOM     12  C   UNL     1       4.277   1.547   0.072  1.00  0.00     0.069 C 
ATOM     13  O   UNL     1       1.039  -0.289  -0.256  1.00  0.00    -0.275 OA
ATOM     14  C   UNL     1       2.208  -0.060   0.057  1.00  0.00     0.226 C 
ATOM     15  C   UNL     1       2.739   1.369   0.149  1.00  0.00     0.114 C 
ATOM     16  N   UNL     1       3.008  -1.084   0.502  1.00  0.00    -0.311 N 
ATOM     17  C   UNL     1       4.301  -0.821   0.852  1.00  0.00     0.132 A 
ATOM     18  H   UNL     1       2.652  -2.000   0.567  1.00  0.00     0.171 HD
ATOM     19  C   UNL     1       4.945   0.378   0.696  1.00  0.00     0.031 A 
ATOM     20  N   UNL     1       5.215  -1.704   1.333  1.00  0.00    -0.262 N 
ATOM     21  C   UNL     1       6.275   0.125   1.121  1.00  0.00     0.108 A 
ATOM     22  N   UNL     1       6.442  -1.161   1.484  1.00  0.00    -0.173 NA
ATOM     23  H   UNL     1       5.004  -2.641   1.548  1.00  0.00     0.192 HD
BRANCH  21  24
ATOM     24  C   UNL     1       7.415   1.081   0.952  1.00  0.00     0.055 A 
ATOM     25  C   UNL     1       8.511   0.831   0.151  1.00  0.00     0.022 A 
ATOM     26  S   UNL     1       7.441   2.658   1.595  1.00  0.00    -0.142 S 
ATOM     27  C   UNL     1       9.328   1.987  -0.012  1.00  0.00     0.012 A 
ATOM     28  C   UNL     1       8.895   3.032   0.773  1.00  0.00     0.065 A 
ENDBRANCH  21  24
ENDBRANCH   7  12
ENDBRANCH   4   6
ENDBRANCH   3   4
ENDBRANCH   2   3
ENDBRANCH   1   2
BRANCH   1  29
ATOM     29  O   UNL     1       5.603  -2.709  -3.499  1.00  0.00    -0.458 OA
BRANCH  29  30
ATOM     30  C   UNL     1       4.642  -1.843  -3.880  1.00  0.00     0.338 C 
ATOM     31  O   UNL     1       4.002  -1.076  -3.188  1.00  0.00    -0.246 OA
BRANCH  30  32
ATOM     32  C   UNL     1       4.401  -2.115  -5.296  1.00  0.00     0.060 A 
ATOM     33  C   UNL     1       3.495  -1.313  -5.990  1.00  0.00     0.016 A 
ATOM     34  C   UNL     1       4.908  -3.313  -5.830  1.00  0.00     0.016 A 
ATOM     35  C   UNL     1       2.955  -1.818  -7.153  1.00  0.00     0.010 A 
ATOM     36  C   UNL     1       4.354  -3.823  -6.963  1.00  0.00     0.010 A 
ATOM     37  C   UNL     1       3.330  -3.105  -7.560  1.00  0.00    -0.014 A 
BRANCH  37  38
ATOM     38  C   UNL     1       2.729  -3.687  -8.729  1.00  0.00     0.031 A 
ATOM     39  C   UNL     1       3.248  -3.086  -9.970  1.00  0.00     0.074 A 
ATOM     40  C   UNL     1       1.934  -4.768  -8.667  1.00  0.00     0.049 A 
ATOM     41  N   UNL     1       2.654  -2.205 -10.699  1.00  0.00    -0.248 NA
ATOM     42  C   UNL     1       4.667  -3.294 -10.305  1.00  0.00     0.031 C 
ATOM     43  C   UNL     1       1.629  -5.628  -7.520  1.00  0.00     0.029 A 
ATOM     44  N   UNL     1       1.305  -5.392  -9.688  1.00  0.00    -0.354 N 
ATOM     45  C   UNL     1       3.533  -1.943 -11.737  1.00  0.00     0.074 A 
ATOM     46  C   UNL     1       4.819  -2.432 -11.312  1.00  0.00     0.031 C 
ATOM     47  C   UNL     1       1.070  -6.779  -7.965  1.00  0.00     0.029 A 
ATOM     48  C   UNL     1       0.846  -6.668  -9.398  1.00  0.00     0.049 A 
ATOM     49  H   UNL     1       1.183  -4.973 -10.571  1.00  0.00     0.167 HD
ATOM     50  C   UNL     1       3.073  -1.627 -12.977  1.00  0.00     0.031 A 
ATOM     51  C   UNL     1       0.382  -7.567 -10.304  1.00  0.00     0.031 A 
ATOM     52  C   UNL     1       1.664  -1.321 -12.955  1.00  0.00     0.049 A 
ATOM     53  C   UNL     1      -0.002  -6.793 -11.517  1.00  0.00     0.074 A 
ATOM     54  C   UNL     1       0.891  -0.376 -12.311  1.00  0.00     0.029 A 
ATOM     55  N   UNL     1       0.807  -2.336 -13.322  1.00  0.00    -0.354 N 
ATOM     56  N   UNL     1      -0.980  -5.928 -11.531  1.00  0.00    -0.248 NA
ATOM     57  C   UNL     1       1.000  -6.609 -12.558  1.00  0.00     0.031 C 
ATOM     58  C   UNL     1      -0.290  -1.071 -11.918  1.00  0.00     0.029 A 
ATOM     59  C   UNL     1      -0.218  -2.377 -12.410  1.00  0.00     0.049 A 
ATOM     60  H   UNL     1       0.912  -2.928 -14.101  1.00  0.00     0.167 HD
ATOM     61  C   UNL     1      -0.501  -4.856 -12.274  1.00  0.00     0.074 A 
ATOM     62  C   UNL     1       0.684  -5.372 -12.958  1.00  0.00     0.031 C 
ATOM     63  C   UNL     1      -0.938  -3.582 -12.041  1.00  0.00     0.031 A 
BRANCH  50  64
ATOM     64  C   UNL     1       3.792  -2.015 -14.238  1.00  0.00    -0.014 A 
ATOM     65  C   UNL     1       3.309  -1.533 -15.467  1.00  0.00     0.010 A 
ATOM     66  C   UNL     1       4.765  -3.037 -14.282  1.00  0.00     0.010 A 
ATOM     67  C   UNL     1       3.748  -2.079 -16.679  1.00  0.00     0.020 A 
ATOM     68  C   UNL     1       5.243  -3.556 -15.483  1.00  0.00     0.020 A 
ATOM     69  C   UNL     1       4.709  -3.092 -16.676  1.00  0.00     0.054 A 
BRANCH  69  70
ATOM     70  S   UNL     1       5.215  -3.838 -18.242  1.00  0.00     0.124 S 
ATOM     71  O   UNL     1       3.985  -4.495 -18.673  1.00  0.00    -0.237 OA
ATOM     72  O   UNL     1       5.621  -2.671 -19.020  1.00  0.00    -0.237 OA
ATOM     73  O   UNL     1       6.304  -4.734 -17.858  1.00  0.00    -0.744 OA
ENDBRANCH  69  70
ENDBRANCH  50  64
BRANCH  51  74
ATOM     74  C   UNL     1       0.593  -9.037 -10.327  1.00  0.00    -0.014 A 
ATOM     75  C   UNL     1      -0.124  -9.857 -11.221  1.00  0.00     0.010 A 
ATOM     76  C   UNL     1       1.711  -9.601  -9.679  1.00  0.00     0.010 A 
ATOM     77  C   UNL     1       0.304 -11.165 -11.509  1.00  0.00     0.020 A 
ATOM     78  C   UNL     1       2.141 -10.906  -9.957  1.00  0.00     0.020 A 
ATOM     79  C   UNL     1       1.450 -11.674 -10.891  1.00  0.00     0.054 A 
BRANCH  79  80
ATOM     80  S   UNL     1       2.106 -13.290 -11.409  1.00  0.00     0.124 S 
ATOM     81  O   UNL     1       1.112 -14.215 -10.875  1.00  0.00    -0.237 OA
ATOM     82  O   UNL     1       2.140 -13.168 -12.864  1.00  0.00    -0.237 OA
ATOM     83  O   UNL     1       3.418 -13.350 -10.766  1.00  0.00    -0.744 OA
ENDBRANCH  79  80
ENDBRANCH  51  74
BRANCH  63  84
ATOM     84  C   UNL     1      -2.157  -3.390 -11.162  1.00  0.00    -0.014 A 
ATOM     85  C   UNL     1      -2.231  -3.774  -9.807  1.00  0.00     0.010 A 
ATOM     86  C   UNL     1      -3.224  -2.653 -11.703  1.00  0.00     0.010 A 
ATOM     87  C   UNL     1      -3.358  -3.455  -9.030  1.00  0.00     0.020 A 
ATOM     88  C   UNL     1      -4.338  -2.316 -10.932  1.00  0.00     0.020 A 
ATOM     89  C   UNL     1      -4.407  -2.729  -9.602  1.00  0.00     0.054 A 
BRANCH  89  90
ATOM     90  S   UNL     1      -5.855  -2.294  -8.596  1.00  0.00     0.124 S 
ATOM     91  O   UNL     1      -6.480  -3.593  -8.361  1.00  0.00    -0.237 OA
ATOM     92  O   UNL     1      -5.258  -1.661  -7.422  1.00  0.00    -0.237 OA
ATOM     93  O   UNL     1      -6.618  -1.390  -9.456  1.00  0.00    -0.744 OA
ENDBRANCH  89  90
ENDBRANCH  63  84
ENDBRANCH  37  38
ENDBRANCH  30  32
ENDBRANCH  29  30
ENDBRANCH   1  29
TORSDOF 16
