REMARK SMILES COc1ccc(OC)c(N2C(=O)c3ccc(C(=O)OCCOC(=O)c4ccc(-c5c6nc(c(-c7ccc(S(=O)(=O)[O-])cc7)c7ccc([nH]7)c(-c7ccc(S(=O)(=O)[O-])cc7)c7nc(c(-c8ccc(S(=O)(=O)[O-])cc8)c8ccc5[nH]8)C=C7)C=C6)cc4)cc3C2=O)c1
REMARK SMILES IDX 21 1 20 2 19 3 17 4 18 5 16 6 10 7 11 8 87 9 12 10 13 11
REMARK SMILES IDX 86 12 88 13 14 14 85 15 15 16 9 17 3 18 4 19 89 20 5 21 6 22
REMARK SMILES IDX 2 23 1 24 7 25 8 26 22 27 23 28 24 29 25 30 26 31 84 32
REMARK SMILES IDX 27 33 83 34 28 35 29 36 30 37 77 38 31 39 82 40 76 41 78 42
REMARK SMILES IDX 32 43 81 44 75 45 74 46 33 48 63 49 44 50 62 51 45 52 48 53
REMARK SMILES IDX 61 54 79 55 46 56 47 57 60 59 80 60 49 61 34 62 35 63 43 64
REMARK SMILES IDX 36 65 42 66 37 67 38 68 39 69 40 70 41 71 64 72 65 73 73 74
REMARK SMILES IDX 66 75 72 76 67 77 68 78 69 79 70 80 71 81 50 82 51 83 59 84
REMARK SMILES IDX 52 85 58 86 53 87 54 88 55 89 56 90 57 91
REMARK H PARENT 78 47 48 58
REMARK Flexibility Score: inf
ROOT
ATOM      1  C   UNL     1      12.956   4.387  -0.319  1.00  0.00     0.275 C 
ENDROOT
BRANCH   1   2
ATOM      2  C   UNL     1      12.033   5.204  -1.220  1.00  0.00     0.275 C 
BRANCH   2   3
ATOM      3  O   UNL     1      10.660   4.805  -1.036  1.00  0.00    -0.458 OA
BRANCH   3   4
ATOM      4  C   UNL     1      10.137   4.106  -2.065  1.00  0.00     0.338 C 
ATOM      5  O   UNL     1      10.668   3.819  -3.124  1.00  0.00    -0.246 OA
BRANCH   4   6
ATOM      6  C   UNL     1       8.783   3.639  -1.743  1.00  0.00     0.060 A 
ATOM      7  N   UNL     1       4.284   2.973  -2.313  1.00  0.00    -0.238 N 
ATOM      8  C   UNL     1       5.010   1.912  -1.817  1.00  0.00     0.266 C 
ATOM      9  C   UNL     1       5.111   4.056  -2.533  1.00  0.00     0.266 C 
ATOM     10  O   UNL     1       4.701   0.762  -1.556  1.00  0.00    -0.268 OA
ATOM     11  C   UNL     1       6.374   2.363  -1.663  1.00  0.00     0.053 A 
ATOM     12  C   UNL     1       6.467   3.632  -2.192  1.00  0.00     0.054 A 
ATOM     13  O   UNL     1       4.898   5.230  -2.773  1.00  0.00    -0.268 OA
ATOM     14  C   UNL     1       7.439   1.717  -1.081  1.00  0.00     0.015 A 
ATOM     15  C   UNL     1       7.675   4.298  -2.281  1.00  0.00     0.030 A 
ATOM     16  C   UNL     1       8.651   2.397  -1.086  1.00  0.00     0.016 A 
BRANCH   7  17
ATOM     17  C   UNL     1       2.869   2.920  -2.476  1.00  0.00     0.098 A 
ATOM     18  C   UNL     1       0.769   1.819  -1.819  1.00  0.00     0.121 A 
ATOM     19  C   UNL     1       0.081   2.584  -2.754  1.00  0.00     0.050 A 
ATOM     20  C   UNL     1       2.140   2.014  -1.675  1.00  0.00     0.077 A 
ATOM     21  C   UNL     1       0.763   3.520  -3.539  1.00  0.00     0.052 A 
ATOM     22  C   UNL     1       2.150   3.691  -3.401  1.00  0.00     0.143 A 
BRANCH  18  23
ATOM     23  O   UNL     1       0.023   0.910  -1.119  1.00  0.00    -0.497 OA
ATOM     24  C   UNL     1       0.726   0.086  -0.186  1.00  0.00     0.278 C 
ENDBRANCH  18  23
BRANCH  22  25
ATOM     25  O   UNL     1       2.799   4.468  -4.324  1.00  0.00    -0.495 OA
ATOM     26  C   UNL     1       2.550   5.860  -4.113  1.00  0.00     0.278 C 
ENDBRANCH  22  25
ENDBRANCH   7  17
ENDBRANCH   4   6
ENDBRANCH   3   4
ENDBRANCH   2   3
ENDBRANCH   1   2
BRANCH   1  27
ATOM     27  O   UNL     1      12.911   2.991  -0.674  1.00  0.00    -0.458 OA
BRANCH  27  28
ATOM     28  C   UNL     1      12.267   2.202   0.214  1.00  0.00     0.338 C 
ATOM     29  O   UNL     1      11.729   2.547   1.254  1.00  0.00    -0.246 OA
BRANCH  28  30
ATOM     30  C   UNL     1      12.231   0.804  -0.242  1.00  0.00     0.060 A 
ATOM     31  C   UNL     1      11.438   0.457  -1.335  1.00  0.00     0.016 A 
ATOM     32  C   UNL     1      12.784  -0.188   0.567  1.00  0.00     0.016 A 
ATOM     33  C   UNL     1      11.062  -0.874  -1.514  1.00  0.00     0.010 A 
ATOM     34  C   UNL     1      12.522  -1.533   0.289  1.00  0.00     0.010 A 
ATOM     35  C   UNL     1      11.611  -1.895  -0.719  1.00  0.00    -0.014 A 
BRANCH  35  36
ATOM     36  C   UNL     1      11.233  -3.325  -0.928  1.00  0.00     0.031 A 
ATOM     37  C   UNL     1      10.716  -4.166   0.218  1.00  0.00     0.074 A 
ATOM     38  C   UNL     1      11.361  -3.889  -2.148  1.00  0.00     0.049 A 
ATOM     39  N   UNL     1      10.533  -5.462   0.276  1.00  0.00    -0.248 NA
ATOM     40  C   UNL     1      10.377  -3.462   1.466  1.00  0.00     0.031 C 
ATOM     41  C   UNL     1      11.810  -3.201  -3.361  1.00  0.00     0.029 A 
ATOM     42  N   UNL     1      11.119  -5.173  -2.572  1.00  0.00    -0.354 N 
ATOM     43  C   UNL     1      10.124  -5.736   1.578  1.00  0.00     0.074 A 
ATOM     44  C   UNL     1      10.084  -4.470   2.278  1.00  0.00     0.031 C 
ATOM     45  C   UNL     1      11.762  -4.051  -4.396  1.00  0.00     0.029 A 
ATOM     46  C   UNL     1      11.386  -5.370  -3.907  1.00  0.00     0.049 A 
ATOM     47  H   UNL     1      10.787  -5.884  -1.977  1.00  0.00     0.167 HD
ATOM     48  C   UNL     1       9.818  -6.931   2.141  1.00  0.00     0.031 A 
ATOM     49  C   UNL     1      11.384  -6.490  -4.655  1.00  0.00     0.031 A 
ATOM     50  C   UNL     1       9.812  -8.184   1.430  1.00  0.00     0.049 A 
ATOM     51  C   UNL     1      11.066  -7.805  -4.007  1.00  0.00     0.074 A 
ATOM     52  C   UNL     1       9.500  -9.446   1.910  1.00  0.00     0.029 A 
ATOM     53  N   UNL     1      10.116  -8.335   0.086  1.00  0.00    -0.354 N 
ATOM     54  N   UNL     1      10.746  -8.050  -2.760  1.00  0.00    -0.248 NA
ATOM     55  C   UNL     1      11.131  -8.997  -4.863  1.00  0.00     0.031 C 
ATOM     56  C   UNL     1       9.654 -10.364   0.865  1.00  0.00     0.029 A 
ATOM     57  C   UNL     1      10.013  -9.668  -0.278  1.00  0.00     0.049 A 
ATOM     58  H   UNL     1      10.368  -7.602  -0.521  1.00  0.00     0.167 HD
ATOM     59  C   UNL     1      10.565  -9.425  -2.682  1.00  0.00     0.074 A 
ATOM     60  C   UNL     1      10.789  -9.954  -4.012  1.00  0.00     0.031 C 
ATOM     61  C   UNL     1      10.248 -10.181  -1.603  1.00  0.00     0.031 A 
BRANCH  48  62
ATOM     62  C   UNL     1       9.505  -6.953   3.617  1.00  0.00    -0.014 A 
ATOM     63  C   UNL     1       8.293  -6.453   4.124  1.00  0.00     0.010 A 
ATOM     64  C   UNL     1      10.432  -7.527   4.508  1.00  0.00     0.010 A 
ATOM     65  C   UNL     1       8.034  -6.485   5.498  1.00  0.00     0.020 A 
ATOM     66  C   UNL     1      10.165  -7.585   5.880  1.00  0.00     0.020 A 
ATOM     67  C   UNL     1       8.975  -7.044   6.369  1.00  0.00     0.054 A 
BRANCH  67  68
ATOM     68  S   UNL     1       8.613  -7.080   8.147  1.00  0.00     0.124 S 
ATOM     69  O   UNL     1       8.836  -5.687   8.526  1.00  0.00    -0.237 OA
ATOM     70  O   UNL     1       7.222  -7.525   8.184  1.00  0.00    -0.237 OA
ATOM     71  O   UNL     1       9.583  -8.034   8.679  1.00  0.00    -0.744 OA
ENDBRANCH  67  68
ENDBRANCH  48  62
BRANCH  49  72
ATOM     72  C   UNL     1      11.754  -6.410  -6.094  1.00  0.00    -0.014 A 
ATOM     73  C   UNL     1      10.783  -6.586  -7.093  1.00  0.00     0.010 A 
ATOM     74  C   UNL     1      13.077  -6.109  -6.469  1.00  0.00     0.010 A 
ATOM     75  C   UNL     1      11.127  -6.461  -8.442  1.00  0.00     0.020 A 
ATOM     76  C   UNL     1      13.418  -5.954  -7.814  1.00  0.00     0.020 A 
ATOM     77  C   UNL     1      12.442  -6.139  -8.793  1.00  0.00     0.054 A 
BRANCH  77  78
ATOM     78  S   UNL     1      12.852  -5.899 -10.545  1.00  0.00     0.124 S 
ATOM     79  O   UNL     1      12.938  -7.274 -11.026  1.00  0.00    -0.237 OA
ATOM     80  O   UNL     1      11.713  -5.127 -11.036  1.00  0.00    -0.237 OA
ATOM     81  O   UNL     1      14.116  -5.168 -10.501  1.00  0.00    -0.744 OA
ENDBRANCH  77  78
ENDBRANCH  49  72
BRANCH  61  82
ATOM     82  C   UNL     1      10.102 -11.662  -1.824  1.00  0.00    -0.014 A 
ATOM     83  C   UNL     1      11.229 -12.482  -2.007  1.00  0.00     0.010 A 
ATOM     84  C   UNL     1       8.821 -12.243  -1.816  1.00  0.00     0.010 A 
ATOM     85  C   UNL     1      11.075 -13.856  -2.210  1.00  0.00     0.020 A 
ATOM     86  C   UNL     1       8.665 -13.619  -1.995  1.00  0.00     0.020 A 
ATOM     87  C   UNL     1       9.793 -14.415  -2.206  1.00  0.00     0.054 A 
BRANCH  87  88
ATOM     88  S   UNL     1       9.620 -16.206  -2.437  1.00  0.00     0.124 S 
ATOM     89  O   UNL     1       9.842 -16.350  -3.873  1.00  0.00    -0.237 OA
ATOM     90  O   UNL     1      10.673 -16.745  -1.580  1.00  0.00    -0.237 OA
ATOM     91  O   UNL     1       8.257 -16.482  -1.986  1.00  0.00    -0.744 OA
ENDBRANCH  87  88
ENDBRANCH  61  82
ENDBRANCH  35  36
ENDBRANCH  28  30
ENDBRANCH  27  28
ENDBRANCH   1  27
TORSDOF 17
