REMARK SMILES O=C(OCCOC(=O)c1ccc(-c2ccc(Cl)cc2)cc1F)c1ccc(-c2c3nc(c(-c4ccc(S(=O)(=O)[O-])cc4)c4ccc([nH]4)c(-c4ccc(S(=O)(=O)[O-])cc4)c4nc(c(-c5ccc(S(=O)(=O)[O-])cc5)c5ccc2[nH]5)C=C4)C=C3)cc1
REMARK SMILES IDX 4 1 3 2 2 3 1 4 23 5 24 6 82 7 25 8 81 9 26 10 27 11 28 12
REMARK SMILES IDX 75 13 29 14 80 15 74 16 76 17 30 18 79 19 73 20 72 21 31 23
REMARK SMILES IDX 61 24 42 25 60 26 43 27 46 28 59 29 77 30 44 31 45 32 58 34
REMARK SMILES IDX 78 35 47 36 32 37 33 38 41 39 34 40 40 41 35 42 36 43 37 44
REMARK SMILES IDX 38 45 39 46 62 47 63 48 71 49 64 50 70 51 65 52 66 53 67 54
REMARK SMILES IDX 68 55 69 56 48 57 49 58 57 59 50 60 56 61 51 62 52 63 53 64
REMARK SMILES IDX 54 65 55 66 5 67 6 68 7 69 8 70 9 71 10 72 21 73 11 74 20 75
REMARK SMILES IDX 22 76 12 77 13 78 14 79 19 80 15 81 18 82 16 83 17 84
REMARK H PARENT 76 22 46 33
REMARK Flexibility Score: inf
ROOT
ATOM      1  C   UNL     1       4.124   0.610  -1.541  1.00  0.00     0.275 C 
ENDROOT
BRANCH   1   2
ATOM      2  O   UNL     1       3.106  -0.333  -1.161  1.00  0.00    -0.458 OA
BRANCH   2   3
ATOM      3  C   UNL     1       2.976  -1.071  -0.035  1.00  0.00     0.338 C 
ATOM      4  O   UNL     1       2.117  -1.953  -0.007  1.00  0.00    -0.246 OA
BRANCH   3   5
ATOM      5  C   UNL     1       3.720  -0.795   1.235  1.00  0.00     0.060 A 
ATOM      6  C   UNL     1       5.009  -0.269   1.338  1.00  0.00     0.016 A 
ATOM      7  C   UNL     1       3.049  -1.123   2.428  1.00  0.00     0.016 A 
ATOM      8  C   UNL     1       5.582   0.002   2.585  1.00  0.00     0.010 A 
ATOM      9  C   UNL     1       3.616  -0.855   3.677  1.00  0.00     0.010 A 
ATOM     10  C   UNL     1       4.889  -0.286   3.761  1.00  0.00    -0.014 A 
BRANCH  10  11
ATOM     11  C   UNL     1       5.559  -0.123   5.070  1.00  0.00     0.031 A 
ATOM     12  C   UNL     1       6.098  -1.343   5.754  1.00  0.00     0.074 A 
ATOM     13  C   UNL     1       5.714   1.096   5.618  1.00  0.00     0.049 A 
ATOM     14  N   UNL     1       6.760  -1.430   6.876  1.00  0.00    -0.248 NA
ATOM     15  C   UNL     1       5.890  -2.631   5.070  1.00  0.00     0.031 C 
ATOM     16  C   UNL     1       5.307   2.356   5.001  1.00  0.00     0.029 A 
ATOM     17  N   UNL     1       6.246   1.477   6.824  1.00  0.00    -0.354 N 
ATOM     18  C   UNL     1       7.087  -2.772   7.010  1.00  0.00     0.074 A 
ATOM     19  C   UNL     1       6.488  -3.474   5.898  1.00  0.00     0.031 C 
ATOM     20  C   UNL     1       5.531   3.365   5.861  1.00  0.00     0.029 A 
ATOM     21  C   UNL     1       6.122   2.823   7.079  1.00  0.00     0.049 A 
ATOM     22  H   UNL     1       6.675   0.847   7.447  1.00  0.00     0.167 HD
ATOM     23  C   UNL     1       7.851  -3.360   7.959  1.00  0.00     0.031 A 
ATOM     24  C   UNL     1       6.450   3.537   8.173  1.00  0.00     0.031 A 
ATOM     25  C   UNL     1       8.408  -2.657   9.080  1.00  0.00     0.049 A 
ATOM     26  C   UNL     1       7.172   2.837   9.291  1.00  0.00     0.074 A 
ATOM     27  C   UNL     1       9.195  -3.150  10.103  1.00  0.00     0.029 A 
ATOM     28  N   UNL     1       8.216  -1.306   9.333  1.00  0.00    -0.354 N 
ATOM     29  N   UNL     1       7.527   1.576   9.374  1.00  0.00    -0.248 NA
ATOM     30  C   UNL     1       7.579   3.658  10.439  1.00  0.00     0.031 C 
ATOM     31  C   UNL     1       9.436  -2.107  11.004  1.00  0.00     0.029 A 
ATOM     32  C   UNL     1       8.844  -0.952  10.514  1.00  0.00     0.049 A 
ATOM     33  H   UNL     1       7.708  -0.690   8.758  1.00  0.00     0.167 HD
ATOM     34  C   UNL     1       8.245   1.462  10.558  1.00  0.00     0.074 A 
ATOM     35  C   UNL     1       8.265   2.781  11.161  1.00  0.00     0.031 C 
ATOM     36  C   UNL     1       8.849   0.370  11.089  1.00  0.00     0.031 A 
BRANCH  23  37
ATOM     37  C   UNL     1       8.097  -4.835   7.812  1.00  0.00    -0.014 A 
ATOM     38  C   UNL     1       8.941  -5.327   6.798  1.00  0.00     0.010 A 
ATOM     39  C   UNL     1       7.462  -5.742   8.677  1.00  0.00     0.010 A 
ATOM     40  C   UNL     1       9.104  -6.702   6.619  1.00  0.00     0.020 A 
ATOM     41  C   UNL     1       7.641  -7.119   8.515  1.00  0.00     0.020 A 
ATOM     42  C   UNL     1       8.444  -7.590   7.474  1.00  0.00     0.054 A 
BRANCH  42  43
ATOM     43  S   UNL     1       8.661  -9.372   7.212  1.00  0.00     0.124 S 
ATOM     44  O   UNL     1       7.861  -9.598   6.011  1.00  0.00    -0.237 OA
ATOM     45  O   UNL     1      10.106  -9.497   7.036  1.00  0.00    -0.237 OA
ATOM     46  O   UNL     1       8.132  -9.969   8.435  1.00  0.00    -0.744 OA
ENDBRANCH  42  43
ENDBRANCH  23  37
BRANCH  24  47
ATOM     47  C   UNL     1       6.114   4.985   8.250  1.00  0.00    -0.014 A 
ATOM     48  C   UNL     1       7.113   5.970   8.162  1.00  0.00     0.010 A 
ATOM     49  C   UNL     1       4.773   5.386   8.406  1.00  0.00     0.010 A 
ATOM     50  C   UNL     1       6.781   7.327   8.246  1.00  0.00     0.020 A 
ATOM     51  C   UNL     1       4.435   6.742   8.470  1.00  0.00     0.020 A 
ATOM     52  C   UNL     1       5.444   7.704   8.399  1.00  0.00     0.054 A 
BRANCH  52  53
ATOM     53  S   UNL     1       5.034   9.472   8.465  1.00  0.00     0.124 S 
ATOM     54  O   UNL     1       5.553   9.857   9.774  1.00  0.00    -0.237 OA
ATOM     55  O   UNL     1       5.758  10.005   7.314  1.00  0.00    -0.237 OA
ATOM     56  O   UNL     1       3.578   9.490   8.339  1.00  0.00    -0.744 OA
ENDBRANCH  52  53
ENDBRANCH  24  47
BRANCH  36  57
ATOM     57  C   UNL     1       9.621   0.563  12.364  1.00  0.00    -0.014 A 
ATOM     58  C   UNL     1       8.964   0.741  13.593  1.00  0.00     0.010 A 
ATOM     59  C   UNL     1      11.026   0.494  12.334  1.00  0.00     0.010 A 
ATOM     60  C   UNL     1       9.703   0.870  14.771  1.00  0.00     0.020 A 
ATOM     61  C   UNL     1      11.766   0.595  13.513  1.00  0.00     0.020 A 
ATOM     62  C   UNL     1      11.099   0.794  14.723  1.00  0.00     0.054 A 
BRANCH  62  63
ATOM     63  S   UNL     1      12.034   0.903  16.273  1.00  0.00     0.124 S 
ATOM     64  O   UNL     1      11.967   2.332  16.567  1.00  0.00    -0.237 OA
ATOM     65  O   UNL     1      11.269   0.040  17.171  1.00  0.00    -0.237 OA
ATOM     66  O   UNL     1      13.358   0.400  15.914  1.00  0.00    -0.744 OA
ENDBRANCH  62  63
ENDBRANCH  36  57
ENDBRANCH  10  11
ENDBRANCH   3   5
ENDBRANCH   2   3
ENDBRANCH   1   2
BRANCH   1  67
ATOM     67  C   UNL     1       3.874   2.047  -1.081  1.00  0.00     0.275 C 
BRANCH  67  68
ATOM     68  O   UNL     1       3.440   2.144   0.281  1.00  0.00    -0.458 OA
BRANCH  68  69
ATOM     69  C   UNL     1       2.099   2.273   0.457  1.00  0.00     0.341 C 
ATOM     70  O   UNL     1       1.246   2.288  -0.415  1.00  0.00    -0.246 OA
BRANCH  69  71
ATOM     71  C   UNL     1       1.779   2.237   1.890  1.00  0.00     0.095 A 
ATOM     72  C   UNL     1       0.837   1.313   2.349  1.00  0.00     0.019 A 
ATOM     73  C   UNL     1       2.394   3.097   2.789  1.00  0.00     0.138 A 
ATOM     74  C   UNL     1       0.579   1.205   3.721  1.00  0.00     0.010 A 
ATOM     75  C   UNL     1       2.104   3.018   4.152  1.00  0.00     0.049 A 
ATOM     76  F   UNL     1       3.281   4.010   2.369  1.00  0.00    -0.206 F 
ATOM     77  C   UNL     1       1.220   2.046   4.648  1.00  0.00    -0.015 A 
BRANCH  77  78
ATOM     78  C   UNL     1       0.981   1.910   6.094  1.00  0.00    -0.018 A 
ATOM     79  C   UNL     1       0.546   3.006   6.858  1.00  0.00     0.010 A 
ATOM     80  C   UNL     1       1.193   0.688   6.756  1.00  0.00     0.010 A 
ATOM     81  C   UNL     1       0.314   2.881   8.232  1.00  0.00     0.021 A 
ATOM     82  C   UNL     1       0.968   0.561   8.132  1.00  0.00     0.021 A 
ATOM     83  C   UNL     1       0.522   1.658   8.862  1.00  0.00     0.041 A 
ATOM     84  Cl  UNL     1       0.214   1.499  10.547  1.00  0.00    -0.084 Cl
ENDBRANCH  77  78
ENDBRANCH  69  71
ENDBRANCH  68  69
ENDBRANCH  67  68
ENDBRANCH   1  67
TORSDOF 15
