REMARK SMILES CCN(Cc1ccccn1)C(=O)NC(=O)CCCC(=O)OCCOC(=O)c1ccc(-c2c3nc(c(-c4ccc(S(=O)(=O)[O-])cc4)c4ccc([nH]4)c(-c4ccc(S(=O)(=O)[O-])cc4)c4nc(c(-c5ccc(S(=O)(=O)[O-])cc5)c5ccc2[nH]5)C=C4)C=C3)cc1
REMARK SMILES IDX 21 1 19 2 20 3 18 4 17 5 16 6 14 7 11 8 12 9 13 10 15 12
REMARK SMILES IDX 3 13 2 14 1 15 4 16 5 17 6 18 10 19 7 20 9 21 8 22 22 23
REMARK SMILES IDX 23 24 24 25 25 26 26 27 27 28 28 29 86 30 29 31 85 32 30 33
REMARK SMILES IDX 31 34 32 35 79 36 33 37 84 38 78 39 80 40 34 41 83 42 77 43
REMARK SMILES IDX 76 44 35 46 65 47 46 48 64 49 47 50 50 51 63 52 81 53 48 54
REMARK SMILES IDX 49 55 62 57 82 58 51 59 36 60 37 61 45 62 38 63 44 64 39 65
REMARK SMILES IDX 40 66 41 67 42 68 43 69 66 70 67 71 75 72 68 73 74 74 69 75
REMARK SMILES IDX 70 76 71 77 72 78 73 79 52 80 53 81 61 82 54 83 60 84 55 85
REMARK SMILES IDX 56 86 57 87 58 88 59 89
REMARK H PARENT 13 11 80 45 50 56
REMARK Flexibility Score: inf
ROOT
ATOM      1  O   UNL     1      -0.624   0.719   2.113  1.00  0.00    -0.462 OA
ENDROOT
BRANCH   1   2
ATOM      2  C   UNL     1       0.065   0.782   0.944  1.00  0.00     0.305 C 
ATOM      3  O   UNL     1       0.263  -0.194   0.227  1.00  0.00    -0.252 OA
BRANCH   2   4
ATOM      4  C   UNL     1       0.681   2.143   0.618  1.00  0.00     0.123 C 
BRANCH   4   5
ATOM      5  C   UNL     1       0.041   3.437   1.097  1.00  0.00     0.022 C 
BRANCH   5   6
ATOM      6  C   UNL     1       0.577   4.184   2.319  1.00  0.00     0.101 C 
BRANCH   6   7
ATOM      7  C   UNL     1       2.050   4.465   2.583  1.00  0.00     0.228 C 
ATOM      8  C   UNL     1       3.356   2.206   2.923  1.00  0.00     0.324 C 
ATOM      9  O   UNL     1       4.509   1.934   2.574  1.00  0.00    -0.248 OA
ATOM     10  N   UNL     1       3.026   3.542   2.905  1.00  0.00    -0.278 N 
ATOM     11  H   UNL     1       3.794   4.040   3.266  1.00  0.00     0.174 HD
ATOM     12  O   UNL     1       2.431   5.646   2.584  1.00  0.00    -0.275 OA
BRANCH   8  13
ATOM     13  N   UNL     1       2.458   1.242   3.266  1.00  0.00    -0.319 N 
BRANCH  13  14
ATOM     14  C   UNL     1       2.790  -0.161   2.942  1.00  0.00     0.118 C 
ATOM     15  C   UNL     1       3.218  -0.425   1.493  1.00  0.00     0.027 C 
ENDBRANCH  13  14
BRANCH  13  16
ATOM     16  C   UNL     1       1.297   1.454   4.123  1.00  0.00     0.177 C 
BRANCH  16  17
ATOM     17  C   UNL     1       1.452   1.905   5.556  1.00  0.00     0.060 A 
ATOM     18  C   UNL     1       1.093   3.204   5.925  1.00  0.00     0.026 A 
ATOM     19  N   UNL     1       1.636   0.926   6.476  1.00  0.00    -0.259 NA
ATOM     20  C   UNL     1       0.842   3.487   7.263  1.00  0.00     0.004 A 
ATOM     21  C   UNL     1       1.398   1.234   7.770  1.00  0.00     0.111 A 
ATOM     22  C   UNL     1       0.979   2.479   8.205  1.00  0.00     0.020 A 
ENDBRANCH  16  17
ENDBRANCH  13  16
ENDBRANCH   8  13
ENDBRANCH   6   7
ENDBRANCH   5   6
ENDBRANCH   4   5
ENDBRANCH   2   4
ENDBRANCH   1   2
BRANCH   1  23
ATOM     23  C   UNL     1      -1.051  -0.608   2.539  1.00  0.00     0.274 C 
BRANCH  23  24
ATOM     24  C   UNL     1      -2.437  -0.564   3.193  1.00  0.00     0.275 C 
BRANCH  24  25
ATOM     25  O   UNL     1      -3.431  -0.537   2.162  1.00  0.00    -0.458 OA
BRANCH  25  26
ATOM     26  C   UNL     1      -3.508   0.661   1.537  1.00  0.00     0.338 C 
ATOM     27  O   UNL     1      -3.392   1.757   2.064  1.00  0.00    -0.246 OA
BRANCH  26  28
ATOM     28  C   UNL     1      -3.384   0.411   0.086  1.00  0.00     0.060 A 
ATOM     29  C   UNL     1      -2.664   1.349  -0.664  1.00  0.00     0.016 A 
ATOM     30  C   UNL     1      -3.855  -0.764  -0.511  1.00  0.00     0.016 A 
ATOM     31  C   UNL     1      -2.395   1.117  -2.006  1.00  0.00     0.010 A 
ATOM     32  C   UNL     1      -3.635  -0.975  -1.869  1.00  0.00     0.010 A 
ATOM     33  C   UNL     1      -2.929  -0.020  -2.619  1.00  0.00    -0.014 A 
BRANCH  33  34
ATOM     34  C   UNL     1      -3.037  -0.044  -4.088  1.00  0.00     0.031 A 
ATOM     35  C   UNL     1      -4.224   0.661  -4.682  1.00  0.00     0.074 A 
ATOM     36  C   UNL     1      -2.127  -0.669  -4.851  1.00  0.00     0.049 A 
ATOM     37  N   UNL     1      -4.608   0.733  -5.926  1.00  0.00    -0.248 NA
ATOM     38  C   UNL     1      -5.095   1.387  -3.737  1.00  0.00     0.031 C 
ATOM     39  C   UNL     1      -0.908  -1.315  -4.365  1.00  0.00     0.029 A 
ATOM     40  N   UNL     1      -2.100  -0.868  -6.206  1.00  0.00    -0.354 N 
ATOM     41  C   UNL     1      -5.760   1.511  -5.911  1.00  0.00     0.074 A 
ATOM     42  C   UNL     1      -6.022   1.879  -4.541  1.00  0.00     0.031 C 
ATOM     43  C   UNL     1      -0.261  -1.862  -5.411  1.00  0.00     0.029 A 
ATOM     44  C   UNL     1      -1.041  -1.636  -6.626  1.00  0.00     0.049 A 
ATOM     45  H   UNL     1      -2.774  -0.496  -6.819  1.00  0.00     0.167 HD
ATOM     46  C   UNL     1      -6.541   1.873  -6.952  1.00  0.00     0.031 A 
ATOM     47  C   UNL     1      -0.766  -2.121  -7.853  1.00  0.00     0.031 A 
ATOM     48  C   UNL     1      -6.305   1.436  -8.297  1.00  0.00     0.049 A 
ATOM     49  C   UNL     1      -1.714  -1.796  -8.982  1.00  0.00     0.074 A 
ATOM     50  C   UNL     1      -7.050   1.693  -9.431  1.00  0.00     0.029 A 
ATOM     51  N   UNL     1      -5.245   0.625  -8.680  1.00  0.00    -0.354 N 
ATOM     52  N   UNL     1      -2.801  -1.058  -8.962  1.00  0.00    -0.248 NA
ATOM     53  C   UNL     1      -1.401  -2.370 -10.298  1.00  0.00     0.031 C 
ATOM     54  C   UNL     1      -6.469   0.991 -10.493  1.00  0.00     0.029 A 
ATOM     55  C   UNL     1      -5.327   0.352 -10.031  1.00  0.00     0.049 A 
ATOM     56  H   UNL     1      -4.540   0.295  -8.078  1.00  0.00     0.167 HD
ATOM     57  C   UNL     1      -3.286  -1.057 -10.266  1.00  0.00     0.074 A 
ATOM     58  C   UNL     1      -2.367  -1.859 -11.050  1.00  0.00     0.031 C 
ATOM     59  C   UNL     1      -4.387  -0.449 -10.775  1.00  0.00     0.031 A 
BRANCH  46  60
ATOM     60  C   UNL     1      -7.745   2.717  -6.642  1.00  0.00    -0.014 A 
ATOM     61  C   UNL     1      -7.610   4.065  -6.260  1.00  0.00     0.010 A 
ATOM     62  C   UNL     1      -9.028   2.147  -6.706  1.00  0.00     0.010 A 
ATOM     63  C   UNL     1      -8.736   4.815  -5.910  1.00  0.00     0.020 A 
ATOM     64  C   UNL     1     -10.158   2.901  -6.382  1.00  0.00     0.020 A 
ATOM     65  C   UNL     1     -10.003   4.227  -5.970  1.00  0.00     0.054 A 
BRANCH  65  66
ATOM     66  S   UNL     1     -11.448   5.225  -5.519  1.00  0.00     0.124 S 
ATOM     67  O   UNL     1     -11.306   5.322  -4.068  1.00  0.00    -0.237 OA
ATOM     68  O   UNL     1     -11.221   6.466  -6.255  1.00  0.00    -0.237 OA
ATOM     69  O   UNL     1     -12.580   4.427  -5.982  1.00  0.00    -0.744 OA
ENDBRANCH  65  66
ENDBRANCH  46  60
BRANCH  47  70
ATOM     70  C   UNL     1       0.426  -2.988  -8.072  1.00  0.00    -0.014 A 
ATOM     71  C   UNL     1       1.505  -2.544  -8.857  1.00  0.00     0.010 A 
ATOM     72  C   UNL     1       0.484  -4.274  -7.503  1.00  0.00     0.010 A 
ATOM     73  C   UNL     1       2.609  -3.375  -9.083  1.00  0.00     0.020 A 
ATOM     74  C   UNL     1       1.597  -5.096  -7.703  1.00  0.00     0.020 A 
ATOM     75  C   UNL     1       2.648  -4.646  -8.503  1.00  0.00     0.054 A 
BRANCH  75  76
ATOM     76  S   UNL     1       4.108  -5.690  -8.776  1.00  0.00     0.124 S 
ATOM     77  O   UNL     1       3.941  -6.088 -10.170  1.00  0.00    -0.237 OA
ATOM     78  O   UNL     1       5.210  -4.769  -8.508  1.00  0.00    -0.237 OA
ATOM     79  O   UNL     1       3.950  -6.763  -7.796  1.00  0.00    -0.744 OA
ENDBRANCH  75  76
ENDBRANCH  47  70
BRANCH  59  80
ATOM     80  C   UNL     1      -4.636  -0.592 -12.252  1.00  0.00    -0.014 A 
ATOM     81  C   UNL     1      -5.103  -1.798 -12.800  1.00  0.00     0.010 A 
ATOM     82  C   UNL     1      -4.479   0.531 -13.085  1.00  0.00     0.010 A 
ATOM     83  C   UNL     1      -5.386  -1.885 -14.165  1.00  0.00     0.020 A 
ATOM     84  C   UNL     1      -4.789   0.456 -14.443  1.00  0.00     0.020 A 
ATOM     85  C   UNL     1      -5.230  -0.756 -14.977  1.00  0.00     0.054 A 
BRANCH  85  86
ATOM     86  S   UNL     1      -5.660  -0.879 -16.734  1.00  0.00     0.124 S 
ATOM     87  O   UNL     1      -4.543  -1.653 -17.266  1.00  0.00    -0.237 OA
ATOM     88  O   UNL     1      -6.946  -1.570 -16.702  1.00  0.00    -0.237 OA
ATOM     89  O   UNL     1      -5.719   0.513 -17.174  1.00  0.00    -0.744 OA
ENDBRANCH  85  86
ENDBRANCH  59  80
ENDBRANCH  33  34
ENDBRANCH  26  28
ENDBRANCH  25  26
ENDBRANCH  24  25
ENDBRANCH  23  24
ENDBRANCH   1  23
TORSDOF 21
