REMARK SMILES COC[C@@H](C)N(C)C(=O)N1CCC(CC(=O)OCCOC(=O)c2ccc(-c3c4nc(c(-c5ccc(S(=O)(=O)[O-])cc5)c5ccc([nH]5)c(-c5ccc(S(=O)(=O)[O-])cc5)c5nc(c(-c6ccc(S(=O)(=O)[O-])cc6)c6ccc3[nH]6)C=C5)C=C4)cc2)CC1
REMARK SMILES IDX 18 1 17 2 15 3 16 4 14 5 13 6 8 7 9 8 10 9 11 10 84 11 12 12
REMARK SMILES IDX 83 13 6 14 7 15 4 16 5 17 3 18 2 19 1 20 19 21 20 22 21 23
REMARK SMILES IDX 22 24 23 25 24 26 82 27 25 28 81 29 26 30 27 31 28 32 75 33
REMARK SMILES IDX 29 34 80 35 74 36 76 37 30 38 79 39 73 40 72 41 31 43 61 44
REMARK SMILES IDX 42 45 60 46 43 47 46 48 59 49 77 50 44 51 45 52 58 54 78 55
REMARK SMILES IDX 47 56 32 57 33 58 41 59 34 60 40 61 35 62 36 63 37 64 38 65
REMARK SMILES IDX 39 66 62 67 63 68 71 69 64 70 70 71 65 72 66 73 67 74 68 75
REMARK SMILES IDX 69 76 48 77 49 78 57 79 50 80 56 81 51 82 52 83 53 84 54 85
REMARK SMILES IDX 55 86
REMARK H PARENT 76 42 46 53
REMARK Flexibility Score: inf
ROOT
ATOM      1  C   UNL     1       8.834  -1.536  -8.381  1.00  0.00     0.274 C 
ENDROOT
BRANCH   1   2
ATOM      2  O   UNL     1       7.676  -0.909  -7.800  1.00  0.00    -0.462 OA
BRANCH   2   3
ATOM      3  C   UNL     1       7.415   0.368  -8.171  1.00  0.00     0.306 C 
ATOM      4  O   UNL     1       8.122   1.037  -8.914  1.00  0.00    -0.252 OA
BRANCH   3   5
ATOM      5  C   UNL     1       6.172   0.927  -7.508  1.00  0.00     0.126 C 
BRANCH   5   6
ATOM      6  C   UNL     1       4.964  -0.022  -7.404  1.00  0.00     0.003 C 
ATOM      7  C   UNL     1       2.381  -0.769  -4.517  1.00  0.00     0.320 C 
ATOM      8  O   UNL     1       3.229  -0.808  -3.624  1.00  0.00    -0.248 OA
ATOM      9  N   UNL     1       2.728  -1.020  -5.830  1.00  0.00    -0.325 N 
ATOM     10  C   UNL     1       3.875  -1.875  -6.076  1.00  0.00     0.121 C 
ATOM     11  C   UNL     1       2.442  -0.074  -6.904  1.00  0.00     0.121 C 
ATOM     12  C   UNL     1       5.135  -1.042  -6.263  1.00  0.00     0.026 C 
ATOM     13  C   UNL     1       3.670   0.800  -7.191  1.00  0.00     0.026 C 
BRANCH   7  14
ATOM     14  N   UNL     1       1.041  -0.538  -4.246  1.00  0.00    -0.323 N 
ATOM     15  C   UNL     1      -0.040  -0.859  -5.169  1.00  0.00     0.149 C 
BRANCH  14  16
ATOM     16  C   UNL     1       0.637  -0.133  -2.880  1.00  0.00     0.109 C 
ATOM     17  C   UNL     1       1.177   1.257  -2.538  1.00  0.00     0.033 C 
BRANCH  16  18
ATOM     18  C   UNL     1       0.990  -1.210  -1.823  1.00  0.00     0.184 C 
BRANCH  18  19
ATOM     19  O   UNL     1       0.265  -1.067  -0.596  1.00  0.00    -0.383 OA
ATOM     20  C   UNL     1       0.944  -0.289   0.380  1.00  0.00     0.194 C 
ENDBRANCH  18  19
ENDBRANCH  16  18
ENDBRANCH  14  16
ENDBRANCH   7  14
ENDBRANCH   5   6
ENDBRANCH   3   5
ENDBRANCH   2   3
ENDBRANCH   1   2
BRANCH   1  21
ATOM     21  C   UNL     1       8.434  -2.463  -9.528  1.00  0.00     0.275 C 
BRANCH  21  22
ATOM     22  O   UNL     1       7.981  -1.707 -10.665  1.00  0.00    -0.458 OA
BRANCH  22  23
ATOM     23  C   UNL     1       6.642  -1.580 -10.794  1.00  0.00     0.338 C 
ATOM     24  O   UNL     1       5.773  -2.082 -10.098  1.00  0.00    -0.246 OA
BRANCH  23  25
ATOM     25  C   UNL     1       6.368  -0.632 -11.881  1.00  0.00     0.060 A 
ATOM     26  C   UNL     1       5.964   0.667 -11.560  1.00  0.00     0.016 A 
ATOM     27  C   UNL     1       6.492  -1.034 -13.211  1.00  0.00     0.016 A 
ATOM     28  C   UNL     1       5.700   1.582 -12.578  1.00  0.00     0.010 A 
ATOM     29  C   UNL     1       6.234  -0.114 -14.228  1.00  0.00     0.010 A 
ATOM     30  C   UNL     1       5.841   1.201 -13.919  1.00  0.00    -0.014 A 
BRANCH  30  31
ATOM     31  C   UNL     1       5.598   2.172 -15.011  1.00  0.00     0.031 A 
ATOM     32  C   UNL     1       4.376   2.045 -15.873  1.00  0.00     0.074 A 
ATOM     33  C   UNL     1       6.501   3.141 -15.251  1.00  0.00     0.049 A 
ATOM     34  N   UNL     1       4.061   2.703 -16.958  1.00  0.00    -0.248 NA
ATOM     35  C   UNL     1       3.379   1.044 -15.461  1.00  0.00     0.031 C 
ATOM     36  C   UNL     1       7.708   3.388 -14.458  1.00  0.00     0.029 A 
ATOM     37  N   UNL     1       6.554   4.088 -16.243  1.00  0.00    -0.354 N 
ATOM     38  C   UNL     1       2.840   2.184 -17.374  1.00  0.00     0.074 A 
ATOM     39  C   UNL     1       2.478   1.149 -16.428  1.00  0.00     0.031 C 
ATOM     40  C   UNL     1       8.386   4.411 -15.002  1.00  0.00     0.029 A 
ATOM     41  C   UNL     1       7.694   4.855 -16.208  1.00  0.00     0.049 A 
ATOM     42  H   UNL     1       5.844   4.205 -16.916  1.00  0.00     0.167 HD
ATOM     43  C   UNL     1       2.095   2.538 -18.448  1.00  0.00     0.031 A 
ATOM     44  C   UNL     1       8.152   5.782 -17.072  1.00  0.00     0.031 A 
ATOM     45  C   UNL     1       2.470   3.561 -19.389  1.00  0.00     0.049 A 
ATOM     46  C   UNL     1       7.348   6.098 -18.302  1.00  0.00     0.074 A 
ATOM     47  C   UNL     1       1.773   4.006 -20.499  1.00  0.00     0.029 A 
ATOM     48  N   UNL     1       3.647   4.292 -19.336  1.00  0.00    -0.354 N 
ATOM     49  N   UNL     1       6.191   5.607 -18.678  1.00  0.00    -0.248 NA
ATOM     50  C   UNL     1       7.915   7.085 -19.231  1.00  0.00     0.031 C 
ATOM     51  C   UNL     1       2.554   4.969 -21.147  1.00  0.00     0.029 A 
ATOM     52  C   UNL     1       3.713   5.161 -20.412  1.00  0.00     0.049 A 
ATOM     53  H   UNL     1       4.335   4.205 -18.637  1.00  0.00     0.167 HD
ATOM     54  C   UNL     1       5.886   6.234 -19.880  1.00  0.00     0.074 A 
ATOM     55  C   UNL     1       6.971   7.152 -20.161  1.00  0.00     0.031 C 
ATOM     56  C   UNL     1       4.806   6.062 -20.681  1.00  0.00     0.031 A 
BRANCH  43  57
ATOM     57  C   UNL     1       0.817   1.781 -18.687  1.00  0.00    -0.014 A 
ATOM     58  C   UNL     1      -0.316   1.989 -17.880  1.00  0.00     0.010 A 
ATOM     59  C   UNL     1       0.736   0.876 -19.761  1.00  0.00     0.010 A 
ATOM     60  C   UNL     1      -1.494   1.276 -18.120  1.00  0.00     0.020 A 
ATOM     61  C   UNL     1      -0.448   0.179 -20.018  1.00  0.00     0.020 A 
ATOM     62  C   UNL     1      -1.551   0.371 -19.184  1.00  0.00     0.054 A 
BRANCH  62  63
ATOM     63  S   UNL     1      -3.096  -0.531 -19.481  1.00  0.00     0.124 S 
ATOM     64  O   UNL     1      -3.090  -1.504 -18.392  1.00  0.00    -0.237 OA
ATOM     65  O   UNL     1      -4.107   0.519 -19.378  1.00  0.00    -0.237 OA
ATOM     66  O   UNL     1      -2.920  -1.092 -20.818  1.00  0.00    -0.744 OA
ENDBRANCH  62  63
ENDBRANCH  43  57
BRANCH  44  67
ATOM     67  C   UNL     1       9.464   6.439 -16.824  1.00  0.00    -0.014 A 
ATOM     68  C   UNL     1       9.527   7.793 -16.452  1.00  0.00     0.010 A 
ATOM     69  C   UNL     1      10.658   5.705 -16.943  1.00  0.00     0.010 A 
ATOM     70  C   UNL     1      10.763   8.402 -16.211  1.00  0.00     0.020 A 
ATOM     71  C   UNL     1      11.893   6.303 -16.678  1.00  0.00     0.020 A 
ATOM     72  C   UNL     1      11.938   7.652 -16.323  1.00  0.00     0.054 A 
BRANCH  72  73
ATOM     73  S   UNL     1      13.525   8.447 -15.948  1.00  0.00     0.124 S 
ATOM     74  O   UNL     1      13.747   9.259 -17.140  1.00  0.00    -0.237 OA
ATOM     75  O   UNL     1      13.229   9.186 -14.723  1.00  0.00    -0.237 OA
ATOM     76  O   UNL     1      14.439   7.319 -15.778  1.00  0.00    -0.744 OA
ENDBRANCH  72  73
ENDBRANCH  44  67
BRANCH  56  77
ATOM     77  C   UNL     1       4.734   6.895 -21.932  1.00  0.00    -0.014 A 
ATOM     78  C   UNL     1       5.536   6.595 -23.047  1.00  0.00     0.010 A 
ATOM     79  C   UNL     1       3.808   7.951 -22.015  1.00  0.00     0.010 A 
ATOM     80  C   UNL     1       5.426   7.350 -24.218  1.00  0.00     0.020 A 
ATOM     81  C   UNL     1       3.679   8.692 -23.192  1.00  0.00     0.020 A 
ATOM     82  C   UNL     1       4.497   8.393 -24.283  1.00  0.00     0.054 A 
BRANCH  82  83
ATOM     83  S   UNL     1       4.332   9.321 -25.834  1.00  0.00     0.124 S 
ATOM     84  O   UNL     1       5.527  10.159 -25.815  1.00  0.00    -0.237 OA
ATOM     85  O   UNL     1       4.322   8.263 -26.842  1.00  0.00    -0.237 OA
ATOM     86  O   UNL     1       3.067  10.035 -25.677  1.00  0.00    -0.744 OA
ENDBRANCH  82  83
ENDBRANCH  56  77
ENDBRANCH  30  31
ENDBRANCH  23  25
ENDBRANCH  22  23
ENDBRANCH  21  22
ENDBRANCH   1  21
TORSDOF 19
