REMARK SMILES Cc1cccc(N2C(=O)/C(=C/c3ccc(C(=O)OCCOC(=O)c4ccc(-c5c6nc(c(-c7ccc(S(=O)(=O)[O-])cc7)c7ccc([nH]7)c(-c7ccc(S(=O)(=O)[O-])cc7)c7nc(c(-c8ccc(S(=O)(=O)[O-])cc8)c8ccc5[nH]8)C=C7)C=C6)cc4)cc3)c3ccccc3C2=O)c1
REMARK SMILES IDX 20 1 19 2 18 3 16 4 17 5 15 6 12 7 13 8 85 9 14 10 84 11
REMARK SMILES IDX 11 12 7 13 8 14 92 15 9 16 10 17 91 18 93 19 86 20 90 21
REMARK SMILES IDX 87 22 89 23 88 24 6 25 1 26 2 27 3 28 94 29 4 30 5 31 21 32
REMARK SMILES IDX 22 33 23 34 24 35 25 36 83 37 26 38 82 39 27 40 28 41 29 42
REMARK SMILES IDX 76 43 30 44 81 45 75 46 77 47 31 48 80 49 74 50 73 51 32 53
REMARK SMILES IDX 62 54 43 55 61 56 44 57 47 58 60 59 78 60 45 61 46 62 59 64
REMARK SMILES IDX 79 65 48 66 33 67 34 68 42 69 35 70 41 71 36 72 37 73 38 74
REMARK SMILES IDX 39 75 40 76 63 77 64 78 72 79 65 80 71 81 66 82 67 83 68 84
REMARK SMILES IDX 69 85 70 86 49 87 50 88 58 89 51 90 57 91 52 92 53 93 54 94
REMARK SMILES IDX 55 95 56 96
REMARK H PARENT 77 52 47 63
REMARK Flexibility Score: inf
ROOT
ATOM      1  C   UNL     1      -4.012  13.692   2.040  1.00  0.00     0.275 C 
ENDROOT
BRANCH   1   2
ATOM      2  C   UNL     1      -4.840  12.417   1.781  1.00  0.00     0.275 C 
BRANCH   2   3
ATOM      3  O   UNL     1      -4.032  11.342   1.280  1.00  0.00    -0.458 OA
BRANCH   3   4
ATOM      4  C   UNL     1      -4.755  10.296   0.795  1.00  0.00     0.338 C 
ATOM      5  O   UNL     1      -5.949  10.154   0.937  1.00  0.00    -0.246 OA
BRANCH   4   6
ATOM      6  C   UNL     1      -3.891   9.286   0.115  1.00  0.00     0.060 A 
ATOM      7  C   UNL     1      -2.349   7.109  -0.708  1.00  0.00    -0.025 A 
ATOM      8  C   UNL     1      -1.727   8.323  -0.406  1.00  0.00     0.009 A 
ATOM      9  C   UNL     1      -3.744   7.050  -0.807  1.00  0.00     0.009 A 
ATOM     10  C   UNL     1      -2.499   9.409   0.018  1.00  0.00     0.016 A 
ATOM     11  C   UNL     1      -4.513   8.129  -0.373  1.00  0.00     0.016 A 
BRANCH   7  12
ATOM     12  C   UNL     1      -1.563   5.867  -0.661  1.00  0.00     0.022 C 
ATOM     13  N   UNL     1      -1.672   2.462   0.444  1.00  0.00    -0.242 N 
ATOM     14  C   UNL     1      -0.973   3.638   0.086  1.00  0.00     0.265 C 
ATOM     15  C   UNL     1      -3.015   2.513   0.889  1.00  0.00     0.265 C 
ATOM     16  O   UNL     1       0.147   3.712  -0.420  1.00  0.00    -0.268 OA
ATOM     17  C   UNL     1      -1.740   4.909   0.282  1.00  0.00     0.049 C 
ATOM     18  C   UNL     1      -3.471   3.768   1.536  1.00  0.00     0.048 A 
ATOM     19  O   UNL     1      -3.852   1.614   0.847  1.00  0.00    -0.268 OA
ATOM     20  C   UNL     1      -2.748   4.937   1.348  1.00  0.00    -0.000 A 
ATOM     21  C   UNL     1      -4.611   3.766   2.356  1.00  0.00     0.014 A 
ATOM     22  C   UNL     1      -3.074   6.064   2.117  1.00  0.00     0.010 A 
ATOM     23  C   UNL     1      -4.994   4.925   3.030  1.00  0.00     0.001 A 
ATOM     24  C   UNL     1      -4.208   6.068   2.932  1.00  0.00     0.001 A 
BRANCH  13  25
ATOM     25  C   UNL     1      -1.021   1.163   0.254  1.00  0.00     0.053 A 
ATOM     26  C   UNL     1       2.534  -0.267  -0.022  1.00  0.00     0.044 C 
ATOM     27  C   UNL     1       1.037  -0.195   0.037  1.00  0.00    -0.049 A 
ATOM     28  C   UNL     1       0.278  -1.356  -0.084  1.00  0.00     0.003 A 
ATOM     29  C   UNL     1       0.384   1.038   0.228  1.00  0.00     0.030 A 
ATOM     30  C   UNL     1      -1.106  -1.277  -0.036  1.00  0.00     0.002 A 
ATOM     31  C   UNL     1      -1.740  -0.037   0.124  1.00  0.00     0.027 A 
ENDBRANCH  13  25
ENDBRANCH   7  12
ENDBRANCH   4   6
ENDBRANCH   3   4
ENDBRANCH   2   3
ENDBRANCH   1   2
BRANCH   1  32
ATOM     32  O   UNL     1      -3.334  14.311   0.924  1.00  0.00    -0.458 OA
BRANCH  32  33
ATOM     33  C   UNL     1      -2.669  13.483   0.068  1.00  0.00     0.338 C 
ATOM     34  O   UNL     1      -1.646  12.888   0.360  1.00  0.00    -0.246 OA
BRANCH  33  35
ATOM     35  C   UNL     1      -3.581  13.180  -1.074  1.00  0.00     0.060 A 
ATOM     36  C   UNL     1      -3.343  12.065  -1.891  1.00  0.00     0.016 A 
ATOM     37  C   UNL     1      -4.828  13.809  -1.087  1.00  0.00     0.016 A 
ATOM     38  C   UNL     1      -4.390  11.502  -2.624  1.00  0.00     0.010 A 
ATOM     39  C   UNL     1      -5.884  13.178  -1.689  1.00  0.00     0.010 A 
ATOM     40  C   UNL     1      -5.668  12.041  -2.479  1.00  0.00    -0.014 A 
BRANCH  40  41
ATOM     41  C   UNL     1      -6.808  11.717  -3.322  1.00  0.00     0.031 A 
ATOM     42  C   UNL     1      -7.641  10.514  -3.159  1.00  0.00     0.074 A 
ATOM     43  C   UNL     1      -7.116  12.730  -4.164  1.00  0.00     0.049 A 
ATOM     44  N   UNL     1      -8.331   9.985  -4.111  1.00  0.00    -0.248 NA
ATOM     45  C   UNL     1      -7.758   9.772  -1.907  1.00  0.00     0.031 C 
ATOM     46  C   UNL     1      -8.318  12.983  -4.930  1.00  0.00     0.029 A 
ATOM     47  N   UNL     1      -6.231  13.736  -4.584  1.00  0.00    -0.354 N 
ATOM     48  C   UNL     1      -9.215   9.094  -3.529  1.00  0.00     0.074 A 
ATOM     49  C   UNL     1      -8.715   8.879  -2.195  1.00  0.00     0.031 C 
ATOM     50  C   UNL     1      -8.005  13.835  -5.928  1.00  0.00     0.029 A 
ATOM     51  C   UNL     1      -6.555  14.016  -5.904  1.00  0.00     0.049 A 
ATOM     52  H   UNL     1      -5.521  14.158  -4.049  1.00  0.00     0.167 HD
ATOM     53  C   UNL     1     -10.389   8.810  -4.164  1.00  0.00     0.031 A 
ATOM     54  C   UNL     1      -5.686  13.722  -6.916  1.00  0.00     0.031 A 
ATOM     55  C   UNL     1     -10.473   9.563  -5.410  1.00  0.00     0.049 A 
ATOM     56  C   UNL     1      -6.327  12.727  -7.846  1.00  0.00     0.074 A 
ATOM     57  C   UNL     1     -11.089  10.769  -5.699  1.00  0.00     0.029 A 
ATOM     58  N   UNL     1      -9.594   9.294  -6.447  1.00  0.00    -0.354 N 
ATOM     59  N   UNL     1      -7.147  11.789  -7.458  1.00  0.00    -0.248 NA
ATOM     60  C   UNL     1      -6.149  12.773  -9.291  1.00  0.00     0.031 C 
ATOM     61  C   UNL     1     -10.505  11.274  -6.883  1.00  0.00     0.029 A 
ATOM     62  C   UNL     1      -9.554  10.364  -7.316  1.00  0.00     0.049 A 
ATOM     63  H   UNL     1      -9.075   8.463  -6.548  1.00  0.00     0.167 HD
ATOM     64  C   UNL     1      -7.698  11.204  -8.568  1.00  0.00     0.074 A 
ATOM     65  C   UNL     1      -7.003  11.815  -9.688  1.00  0.00     0.031 C 
ATOM     66  C   UNL     1      -8.733  10.319  -8.510  1.00  0.00     0.031 A 
BRANCH  53  67
ATOM     67  C   UNL     1     -11.614   8.167  -3.543  1.00  0.00    -0.014 A 
ATOM     68  C   UNL     1     -12.880   8.464  -4.100  1.00  0.00     0.010 A 
ATOM     69  C   UNL     1     -11.618   7.305  -2.431  1.00  0.00     0.010 A 
ATOM     70  C   UNL     1     -14.081   8.012  -3.541  1.00  0.00     0.020 A 
ATOM     71  C   UNL     1     -12.821   6.846  -1.852  1.00  0.00     0.020 A 
ATOM     72  C   UNL     1     -14.046   7.218  -2.404  1.00  0.00     0.054 A 
BRANCH  72  73
ATOM     73  S   UNL     1     -15.622   6.681  -1.685  1.00  0.00     0.124 S 
ATOM     74  O   UNL     1     -16.246   7.951  -1.317  1.00  0.00    -0.237 OA
ATOM     75  O   UNL     1     -16.252   5.971  -2.794  1.00  0.00    -0.237 OA
ATOM     76  O   UNL     1     -15.222   5.841  -0.558  1.00  0.00    -0.744 OA
ENDBRANCH  72  73
ENDBRANCH  53  67
BRANCH  54  77
ATOM     77  C   UNL     1      -4.234  13.728  -6.538  1.00  0.00    -0.014 A 
ATOM     78  C   UNL     1      -3.661  14.952  -6.122  1.00  0.00     0.010 A 
ATOM     79  C   UNL     1      -3.540  12.538  -6.246  1.00  0.00     0.010 A 
ATOM     80  C   UNL     1      -2.497  14.981  -5.344  1.00  0.00     0.020 A 
ATOM     81  C   UNL     1      -2.361  12.566  -5.476  1.00  0.00     0.020 A 
ATOM     82  C   UNL     1      -1.871  13.784  -4.998  1.00  0.00     0.054 A 
BRANCH  82  83
ATOM     83  S   UNL     1      -0.530  13.844  -3.766  1.00  0.00     0.124 S 
ATOM     84  O   UNL     1       0.549  14.483  -4.512  1.00  0.00    -0.237 OA
ATOM     85  O   UNL     1      -1.130  14.653  -2.707  1.00  0.00    -0.237 OA
ATOM     86  O   UNL     1      -0.317  12.439  -3.428  1.00  0.00    -0.744 OA
ENDBRANCH  82  83
ENDBRANCH  54  77
BRANCH  66  87
ATOM     87  C   UNL     1      -9.185   9.421  -9.630  1.00  0.00    -0.014 A 
ATOM     88  C   UNL     1      -8.377   9.084 -10.722  1.00  0.00     0.010 A 
ATOM     89  C   UNL     1     -10.431   8.755  -9.515  1.00  0.00     0.010 A 
ATOM     90  C   UNL     1      -8.823   8.186 -11.698  1.00  0.00     0.020 A 
ATOM     91  C   UNL     1     -10.861   7.816 -10.451  1.00  0.00     0.020 A 
ATOM     92  C   UNL     1     -10.064   7.563 -11.558  1.00  0.00     0.054 A 
BRANCH  92  93
ATOM     93  S   UNL     1     -10.605   6.378 -12.808  1.00  0.00     0.124 S 
ATOM     94  O   UNL     1     -11.165   7.260 -13.829  1.00  0.00    -0.237 OA
ATOM     95  O   UNL     1      -9.362   5.705 -13.176  1.00  0.00    -0.237 OA
ATOM     96  O   UNL     1     -11.571   5.545 -12.099  1.00  0.00    -0.744 OA
ENDBRANCH  92  93
ENDBRANCH  66  87
ENDBRANCH  40  41
ENDBRANCH  33  35
ENDBRANCH  32  33
ENDBRANCH   1  32
TORSDOF 16
