REMARK SMILES COc1cc([C@@H]2CC(=O)Nc3c(C(=O)OCCOC(=O)c4ccc(-c5c6nc(c(-c7ccc(S(=O)(=O)[O-])cc7)c7ccc([nH]7)c(-c7ccc(S(=O)(=O)[O-])cc7)c7nc(c(-c8ccc(S(=O)(=O)[O-])cc8)c8ccc5[nH]8)C=C7)C=C6)cc4)cn(-c4ccc(F)cc4)c32)c(OC)c2c1OCO2
REMARK SMILES IDX 17 1 16 2 15 3 13 4 14 5 12 6 6 7 7 8 90 9 8 10 11 11 82 12
REMARK SMILES IDX 9 13 10 14 81 15 5 17 3 18 4 19 95 20 94 21 96 22 91 23
REMARK SMILES IDX 98 24 97 25 2 26 1 27 92 28 93 29 83 30 84 31 89 32 85 33
REMARK SMILES IDX 88 34 86 35 87 36 18 37 19 38 20 39 21 40 22 41 80 42 23 43
REMARK SMILES IDX 79 44 24 45 25 46 26 47 73 48 27 49 78 50 72 51 74 52 28 53
REMARK SMILES IDX 77 54 71 55 70 56 29 58 59 59 40 60 58 61 41 62 44 63 57 64
REMARK SMILES IDX 75 65 42 66 43 67 56 69 76 70 45 71 30 72 31 73 39 74 32 75
REMARK SMILES IDX 38 76 33 77 34 78 35 79 36 80 37 81 60 82 61 83 69 84 62 85
REMARK SMILES IDX 68 86 63 87 64 88 65 89 66 90 67 91 46 92 47 93 55 94 48 95
REMARK SMILES IDX 54 96 49 97 50 98 51 99 52 100 53 101
REMARK H PARENT 10 16 74 57 44 68
REMARK Flexibility Score: inf
ROOT
ATOM      1  C   UNL     1      -0.607  -2.094 -12.390  1.00  0.00     0.275 C 
ENDROOT
BRANCH   1   2
ATOM      2  C   UNL     1       0.667  -1.867 -11.586  1.00  0.00     0.275 C 
BRANCH   2   3
ATOM      3  O   UNL     1       0.420  -1.961 -10.174  1.00  0.00    -0.458 OA
BRANCH   3   4
ATOM      4  C   UNL     1      -0.026  -0.822  -9.558  1.00  0.00     0.341 C 
ATOM      5  O   UNL     1      -0.014   0.294 -10.071  1.00  0.00    -0.246 OA
BRANCH   4   6
ATOM      6  C   UNL     1      -0.545  -1.081  -8.227  1.00  0.00     0.102 A 
ATOM      7  C   UNL     1      -0.664  -2.888  -5.006  1.00  0.00     0.082 C 
ATOM      8  C   UNL     1      -0.495  -4.329  -5.526  1.00  0.00     0.115 C 
ATOM      9  C   UNL     1      -0.849  -1.960  -6.168  1.00  0.00     0.055 A 
ATOM     10  C   UNL     1       0.298  -4.462  -6.820  1.00  0.00     0.225 C 
ATOM     11  C   UNL     1      -0.399  -2.239  -7.436  1.00  0.00     0.078 A 
ATOM     12  N   UNL     1      -1.504  -0.746  -6.211  1.00  0.00    -0.317 N 
ATOM     13  O   UNL     1       0.936  -5.482  -7.086  1.00  0.00    -0.275 OA
ATOM     14  N   UNL     1       0.191  -3.445  -7.734  1.00  0.00    -0.324 N 
ATOM     15  C   UNL     1      -1.334  -0.218  -7.475  1.00  0.00     0.109 A 
ATOM     16  H   UNL     1       0.551  -3.583  -8.640  1.00  0.00     0.170 HD
BRANCH   7  17
ATOM     17  C   UNL     1       0.482  -2.474  -4.069  1.00  0.00     0.012 A 
ATOM     18  C   UNL     1       1.101  -1.784  -1.793  1.00  0.00     0.165 A 
ATOM     19  C   UNL     1       0.167  -2.297  -2.695  1.00  0.00     0.059 A 
ATOM     20  C   UNL     1       2.383  -1.558  -2.251  1.00  0.00     0.211 A 
ATOM     21  C   UNL     1       2.728  -1.775  -3.570  1.00  0.00     0.211 A 
ATOM     22  O   UNL     1       3.440  -1.124  -1.507  1.00  0.00    -0.449 OA
ATOM     23  C   UNL     1       1.805  -2.217  -4.507  1.00  0.00     0.168 A 
ATOM     24  O   UNL     1       4.042  -1.481  -3.795  1.00  0.00    -0.449 OA
ATOM     25  C   UNL     1       4.499  -1.169  -2.473  1.00  0.00     0.468 C 
BRANCH  18  26
ATOM     26  O   UNL     1       0.670  -1.570  -0.516  1.00  0.00    -0.493 OA
ATOM     27  C   UNL     1       0.999  -0.269  -0.030  1.00  0.00     0.278 C 
ENDBRANCH  18  26
BRANCH  23  28
ATOM     28  O   UNL     1       2.055  -2.413  -5.828  1.00  0.00    -0.492 OA
ATOM     29  C   UNL     1       3.369  -2.271  -6.339  1.00  0.00     0.278 C 
ENDBRANCH  23  28
ENDBRANCH   7  17
BRANCH  12  30
ATOM     30  C   UNL     1      -2.213  -0.122  -5.162  1.00  0.00     0.046 A 
ATOM     31  C   UNL     1      -1.548   0.183  -3.971  1.00  0.00     0.029 A 
ATOM     32  C   UNL     1      -3.580   0.143  -5.303  1.00  0.00     0.029 A 
ATOM     33  C   UNL     1      -2.265   0.667  -2.880  1.00  0.00     0.041 A 
ATOM     34  C   UNL     1      -4.293   0.631  -4.204  1.00  0.00     0.041 A 
ATOM     35  C   UNL     1      -3.634   0.871  -3.000  1.00  0.00     0.123 A 
ATOM     36  F   UNL     1      -4.325   1.307  -1.939  1.00  0.00    -0.207 F 
ENDBRANCH  12  30
ENDBRANCH   4   6
ENDBRANCH   3   4
ENDBRANCH   2   3
ENDBRANCH   1   2
BRANCH   1  37
ATOM     37  O   UNL     1      -1.501  -0.994 -12.249  1.00  0.00    -0.458 OA
BRANCH  37  38
ATOM     38  C   UNL     1      -2.442  -1.137 -11.288  1.00  0.00     0.338 C 
ATOM     39  O   UNL     1      -2.465  -1.976 -10.403  1.00  0.00    -0.246 OA
BRANCH  38  40
ATOM     40  C   UNL     1      -3.564  -0.244 -11.581  1.00  0.00     0.060 A 
ATOM     41  C   UNL     1      -4.611  -0.207 -10.656  1.00  0.00     0.016 A 
ATOM     42  C   UNL     1      -3.697   0.269 -12.879  1.00  0.00     0.016 A 
ATOM     43  C   UNL     1      -5.860   0.163 -11.103  1.00  0.00     0.010 A 
ATOM     44  C   UNL     1      -4.945   0.619 -13.327  1.00  0.00     0.010 A 
ATOM     45  C   UNL     1      -6.021   0.480 -12.457  1.00  0.00    -0.014 A 
BRANCH  45  46
ATOM     46  C   UNL     1      -7.353   0.764 -12.941  1.00  0.00     0.031 A 
ATOM     47  C   UNL     1      -7.857   2.075 -12.483  1.00  0.00     0.074 A 
ATOM     48  C   UNL     1      -7.994  -0.035 -13.814  1.00  0.00     0.049 A 
ATOM     49  N   UNL     1      -8.794   2.292 -11.625  1.00  0.00    -0.248 NA
ATOM     50  C   UNL     1      -7.104   3.279 -12.873  1.00  0.00     0.031 C 
ATOM     51  C   UNL     1      -7.472  -1.191 -14.549  1.00  0.00     0.029 A 
ATOM     52  N   UNL     1      -9.242   0.108 -14.325  1.00  0.00    -0.354 N 
ATOM     53  C   UNL     1      -8.901   3.674 -11.532  1.00  0.00     0.074 A 
ATOM     54  C   UNL     1      -7.720   4.216 -12.154  1.00  0.00     0.031 C 
ATOM     55  C   UNL     1      -8.301  -1.466 -15.585  1.00  0.00     0.029 A 
ATOM     56  C   UNL     1      -9.466  -0.598 -15.501  1.00  0.00     0.049 A 
ATOM     57  H   UNL     1      -9.932   0.665 -13.899  1.00  0.00     0.167 HD
ATOM     58  C   UNL     1     -10.071   4.271 -11.182  1.00  0.00     0.031 A 
ATOM     59  C   UNL     1     -10.489  -0.395 -16.372  1.00  0.00     0.031 A 
ATOM     60  C   UNL     1     -11.009   3.326 -10.636  1.00  0.00     0.049 A 
ATOM     61  C   UNL     1     -11.550   0.342 -15.634  1.00  0.00     0.074 A 
ATOM     62  C   UNL     1     -11.011   2.483  -9.542  1.00  0.00     0.029 A 
ATOM     63  N   UNL     1     -11.981   2.853 -11.488  1.00  0.00    -0.354 N 
ATOM     64  N   UNL     1     -12.224  -0.177 -14.646  1.00  0.00    -0.248 NA
ATOM     65  C   UNL     1     -11.523   1.798 -15.670  1.00  0.00     0.031 C 
ATOM     66  C   UNL     1     -11.638   1.289 -10.002  1.00  0.00     0.029 A 
ATOM     67  C   UNL     1     -12.052   1.494 -11.320  1.00  0.00     0.049 A 
ATOM     68  H   UNL     1     -12.525   3.392 -12.107  1.00  0.00     0.167 HD
ATOM     69  C   UNL     1     -12.320   0.841 -13.707  1.00  0.00     0.074 A 
ATOM     70  C   UNL     1     -11.948   2.058 -14.429  1.00  0.00     0.031 C 
ATOM     71  C   UNL     1     -12.408   0.567 -12.372  1.00  0.00     0.031 A 
BRANCH  58  72
ATOM     72  C   UNL     1     -10.508   5.608 -11.717  1.00  0.00    -0.014 A 
ATOM     73  C   UNL     1     -11.702   6.172 -11.227  1.00  0.00     0.010 A 
ATOM     74  C   UNL     1      -9.947   6.190 -12.873  1.00  0.00     0.010 A 
ATOM     75  C   UNL     1     -12.335   7.223 -11.901  1.00  0.00     0.020 A 
ATOM     76  C   UNL     1     -10.546   7.266 -13.527  1.00  0.00     0.020 A 
ATOM     77  C   UNL     1     -11.756   7.754 -13.054  1.00  0.00     0.054 A 
BRANCH  77  78
ATOM     78  S   UNL     1     -12.632   9.044 -13.968  1.00  0.00     0.124 S 
ATOM     79  O   UNL     1     -13.812   8.329 -14.441  1.00  0.00    -0.237 OA
ATOM     80  O   UNL     1     -12.868  10.047 -12.933  1.00  0.00    -0.237 OA
ATOM     81  O   UNL     1     -11.678   9.437 -15.003  1.00  0.00    -0.744 OA
ENDBRANCH  77  78
ENDBRANCH  58  72
BRANCH  59  82
ATOM     82  C   UNL     1     -10.437  -0.432 -17.860  1.00  0.00    -0.014 A 
ATOM     83  C   UNL     1     -11.616  -0.328 -18.625  1.00  0.00     0.010 A 
ATOM     84  C   UNL     1      -9.209  -0.262 -18.531  1.00  0.00     0.010 A 
ATOM     85  C   UNL     1     -11.569   0.020 -19.988  1.00  0.00     0.020 A 
ATOM     86  C   UNL     1      -9.154   0.076 -19.889  1.00  0.00     0.020 A 
ATOM     87  C   UNL     1     -10.336   0.247 -20.604  1.00  0.00     0.054 A 
BRANCH  87  88
ATOM     88  S   UNL     1     -10.285   0.915 -22.295  1.00  0.00     0.124 S 
ATOM     89  O   UNL     1     -10.700  -0.232 -23.096  1.00  0.00    -0.237 OA
ATOM     90  O   UNL     1     -11.237   2.020 -22.230  1.00  0.00    -0.237 OA
ATOM     91  O   UNL     1      -8.888   1.316 -22.463  1.00  0.00    -0.744 OA
ENDBRANCH  87  88
ENDBRANCH  59  82
BRANCH  71  92
ATOM     92  C   UNL     1     -12.695  -0.854 -11.945  1.00  0.00    -0.014 A 
ATOM     93  C   UNL     1     -11.880  -1.961 -12.259  1.00  0.00     0.010 A 
ATOM     94  C   UNL     1     -13.778  -1.049 -11.070  1.00  0.00     0.010 A 
ATOM     95  C   UNL     1     -12.174  -3.235 -11.747  1.00  0.00     0.020 A 
ATOM     96  C   UNL     1     -14.063  -2.308 -10.540  1.00  0.00     0.020 A 
ATOM     97  C   UNL     1     -13.271  -3.399 -10.895  1.00  0.00     0.054 A 
BRANCH  97  98
ATOM     98  S   UNL     1     -13.654  -5.044 -10.232  1.00  0.00     0.124 S 
ATOM     99  O   UNL     1     -14.066  -5.778 -11.425  1.00  0.00    -0.237 OA
ATOM    100  O   UNL     1     -12.383  -5.461  -9.642  1.00  0.00    -0.237 OA
ATOM    101  O   UNL     1     -14.721  -4.790  -9.264  1.00  0.00    -0.744 OA
ENDBRANCH  97  98
ENDBRANCH  71  92
ENDBRANCH  45  46
ENDBRANCH  38  40
ENDBRANCH  37  38
ENDBRANCH   1  37
TORSDOF 18
