REMARK SMILES C[NH+]1CCC([NH+]2CCC(Oc3ccc4ccccc4c3)(C(=O)OCCOC(=O)c3ccc(-c4c5nc(c(-c6ccc(S(=O)(=O)[O-])cc6)c6ccc([nH]6)c(-c6ccc(S(=O)(=O)[O-])cc6)c6nc(c(-c7ccc(S(=O)(=O)[O-])cc7)c7ccc4[nH]7)C=C6)C=C5)cc3)CC2)CC1
REMARK SMILES IDX 25 1 24 2 23 3 21 4 22 5 9 6 6 7 7 8 90 9 8 11 89 12 5 13
REMARK SMILES IDX 1 14 2 15 3 16 92 17 4 19 91 20 10 21 11 22 12 23 20 24
REMARK SMILES IDX 13 25 19 26 14 27 18 28 15 29 17 30 16 31 26 32 27 33 28 34
REMARK SMILES IDX 29 35 30 36 88 37 31 38 87 39 32 40 33 41 34 42 81 43 35 44
REMARK SMILES IDX 86 45 80 46 82 47 36 48 85 49 79 50 78 51 37 53 67 54 48 55
REMARK SMILES IDX 66 56 49 57 52 58 65 59 83 60 50 61 51 62 64 64 84 65 53 66
REMARK SMILES IDX 38 67 39 68 47 69 40 70 46 71 41 72 42 73 43 74 44 75 45 76
REMARK SMILES IDX 68 77 69 78 77 79 70 80 76 81 71 82 72 83 73 84 74 85 75 86
REMARK SMILES IDX 54 87 55 88 63 89 56 90 62 91 57 92 58 93 59 94 60 95 61 96
REMARK H PARENT 6 10 2 18 82 52 52 63
REMARK Flexibility Score: inf
ROOT
ATOM      1  C   UNL     1       3.544  -4.301   3.516  1.00  0.00     0.275 C 
ENDROOT
BRANCH   1   2
ATOM      2  C   UNL     1       4.794  -3.541   3.950  1.00  0.00     0.274 C 
BRANCH   2   3
ATOM      3  O   UNL     1       4.774  -2.184   3.456  1.00  0.00    -0.459 OA
BRANCH   3   4
ATOM      4  C   UNL     1       5.490  -1.945   2.318  1.00  0.00     0.351 C 
ATOM      5  O   UNL     1       6.067  -2.823   1.682  1.00  0.00    -0.247 OA
BRANCH   4   6
ATOM      6  C   UNL     1       5.595  -0.445   1.977  1.00  0.00     0.216 C 
ATOM      7  N   UNL     1       3.111   0.478   0.680  1.00  0.00    -0.332 N 
ATOM      8  C   UNL     1       3.143   0.224   2.126  1.00  0.00     0.267 C 
ATOM      9  C   UNL     1       4.029  -0.426  -0.025  1.00  0.00     0.267 C 
ATOM     10  H   UNL     1       3.429   1.440   0.556  1.00  0.00     0.348 HD
ATOM     11  C   UNL     1       4.551   0.430   2.684  1.00  0.00     0.122 C 
ATOM     12  C   UNL     1       5.474  -0.265   0.450  1.00  0.00     0.122 C 
BRANCH   7  13
ATOM     13  C   UNL     1       1.744   0.433   0.086  1.00  0.00     0.195 C 
ATOM     14  C   UNL     1      -2.552   0.424  -0.292  1.00  0.00     0.332 C 
ATOM     15  N   UNL     1      -1.185   0.420   0.237  1.00  0.00    -0.337 N 
ATOM     16  C   UNL     1      -0.471   1.636  -0.175  1.00  0.00     0.268 C 
ATOM     17  C   UNL     1      -0.470  -0.776  -0.221  1.00  0.00     0.268 C 
ATOM     18  H   UNL     1      -1.230   0.404   1.256  1.00  0.00     0.347 HD
ATOM     19  C   UNL     1       0.926   1.684   0.452  1.00  0.00     0.126 C 
ATOM     20  C   UNL     1       0.928  -0.835   0.393  1.00  0.00     0.126 C 
ENDBRANCH   7  13
BRANCH   6  21
ATOM     21  O   UNL     1       6.910  -0.206   2.558  1.00  0.00    -0.475 OA
BRANCH  21  22
ATOM     22  C   UNL     1       7.698   0.722   1.948  1.00  0.00     0.121 A 
ATOM     23  C   UNL     1       7.571   2.065   2.274  1.00  0.00     0.047 A 
ATOM     24  C   UNL     1       8.709   0.291   1.089  1.00  0.00     0.055 A 
ATOM     25  C   UNL     1       8.421   3.001   1.688  1.00  0.00     0.012 A 
ATOM     26  C   UNL     1       9.580   1.222   0.499  1.00  0.00    -0.015 A 
ATOM     27  C   UNL     1       9.427   2.596   0.798  1.00  0.00    -0.018 A 
ATOM     28  C   UNL     1      10.602   0.823  -0.378  1.00  0.00     0.009 A 
ATOM     29  C   UNL     1      10.291   3.531   0.208  1.00  0.00     0.009 A 
ATOM     30  C   UNL     1      11.457   1.766  -0.954  1.00  0.00     0.001 A 
ATOM     31  C   UNL     1      11.300   3.118  -0.662  1.00  0.00     0.001 A 
ENDBRANCH  21  22
ENDBRANCH   6  21
ENDBRANCH   4   6
ENDBRANCH   3   4
ENDBRANCH   2   3
ENDBRANCH   1   2
BRANCH   1  32
ATOM     32  O   UNL     1       3.547  -4.425   2.086  1.00  0.00    -0.458 OA
BRANCH  32  33
ATOM     33  C   UNL     1       2.338  -4.397   1.484  1.00  0.00     0.338 C 
ATOM     34  O   UNL     1       1.251  -4.382   2.049  1.00  0.00    -0.246 OA
BRANCH  33  35
ATOM     35  C   UNL     1       2.495  -4.324   0.010  1.00  0.00     0.060 A 
ATOM     36  C   UNL     1       3.689  -3.898  -0.578  1.00  0.00     0.016 A 
ATOM     37  C   UNL     1       1.384  -4.568  -0.802  1.00  0.00     0.016 A 
ATOM     38  C   UNL     1       3.743  -3.619  -1.944  1.00  0.00     0.010 A 
ATOM     39  C   UNL     1       1.471  -4.385  -2.187  1.00  0.00     0.010 A 
ATOM     40  C   UNL     1       2.646  -3.886  -2.774  1.00  0.00    -0.014 A 
BRANCH  40  41
ATOM     41  C   UNL     1       2.725  -3.679  -4.247  1.00  0.00     0.031 A 
ATOM     42  C   UNL     1       1.733  -2.796  -4.958  1.00  0.00     0.074 A 
ATOM     43  C   UNL     1       3.670  -4.318  -4.966  1.00  0.00     0.049 A 
ATOM     44  N   UNL     1       1.479  -2.702  -6.238  1.00  0.00    -0.248 NA
ATOM     45  C   UNL     1       0.910  -1.911  -4.118  1.00  0.00     0.031 C 
ATOM     46  C   UNL     1       4.727  -5.171  -4.418  1.00  0.00     0.029 A 
ATOM     47  N   UNL     1       3.888  -4.354  -6.322  1.00  0.00    -0.354 N 
ATOM     48  C   UNL     1       0.426  -1.801  -6.354  1.00  0.00     0.074 A 
ATOM     49  C   UNL     1       0.098  -1.363  -5.013  1.00  0.00     0.031 C 
ATOM     50  C   UNL     1       5.497  -5.619  -5.419  1.00  0.00     0.029 A 
ATOM     51  C   UNL     1       4.931  -5.172  -6.685  1.00  0.00     0.049 A 
ATOM     52  H   UNL     1       3.350  -3.844  -6.969  1.00  0.00     0.167 HD
ATOM     53  C   UNL     1      -0.214  -1.389  -7.476  1.00  0.00     0.031 A 
ATOM     54  C   UNL     1       5.356  -5.578  -7.897  1.00  0.00     0.031 A 
ATOM     55  C   UNL     1       0.145  -1.793  -8.810  1.00  0.00     0.049 A 
ATOM     56  C   UNL     1       4.617  -5.136  -9.122  1.00  0.00     0.074 A 
ATOM     57  C   UNL     1      -0.439  -1.422 -10.011  1.00  0.00     0.029 A 
ATOM     58  N   UNL     1       1.194  -2.643  -9.125  1.00  0.00    -0.354 N 
ATOM     59  N   UNL     1       3.567  -4.355  -9.209  1.00  0.00    -0.248 NA
ATOM     60  C   UNL     1       5.102  -5.651 -10.408  1.00  0.00     0.031 C 
ATOM     61  C   UNL     1       0.238  -2.073 -11.049  1.00  0.00     0.029 A 
ATOM     62  C   UNL     1       1.267  -2.818 -10.497  1.00  0.00     0.049 A 
ATOM     63  H   UNL     1       1.797  -3.062  -8.470  1.00  0.00     0.167 HD
ATOM     64  C   UNL     1       3.261  -4.289 -10.561  1.00  0.00     0.074 A 
ATOM     65  C   UNL     1       4.250  -5.090 -11.256  1.00  0.00     0.031 C 
ATOM     66  C   UNL     1       2.245  -3.631 -11.171  1.00  0.00     0.031 A 
BRANCH  53  67
ATOM     67  C   UNL     1      -1.407  -0.485  -7.311  1.00  0.00    -0.014 A 
ATOM     68  C   UNL     1      -1.259   0.883  -7.025  1.00  0.00     0.010 A 
ATOM     69  C   UNL     1      -2.698  -1.007  -7.513  1.00  0.00     0.010 A 
ATOM     70  C   UNL     1      -2.384   1.707  -6.916  1.00  0.00     0.020 A 
ATOM     71  C   UNL     1      -3.824  -0.184  -7.424  1.00  0.00     0.020 A 
ATOM     72  C   UNL     1      -3.660   1.167  -7.111  1.00  0.00     0.054 A 
BRANCH  72  73
ATOM     73  S   UNL     1      -5.105   2.259  -6.992  1.00  0.00     0.124 S 
ATOM     74  O   UNL     1      -5.257   2.396  -5.546  1.00  0.00    -0.237 OA
ATOM     75  O   UNL     1      -4.661   3.461  -7.693  1.00  0.00    -0.237 OA
ATOM     76  O   UNL     1      -6.163   1.507  -7.663  1.00  0.00    -0.744 OA
ENDBRANCH  72  73
ENDBRANCH  53  67
BRANCH  54  77
ATOM     77  C   UNL     1       6.506  -6.515  -7.982  1.00  0.00    -0.014 A 
ATOM     78  C   UNL     1       7.768  -6.057  -8.394  1.00  0.00     0.010 A 
ATOM     79  C   UNL     1       6.358  -7.853  -7.571  1.00  0.00     0.010 A 
ATOM     80  C   UNL     1       8.868  -6.919  -8.378  1.00  0.00     0.020 A 
ATOM     81  C   UNL     1       7.460  -8.709  -7.530  1.00  0.00     0.020 A 
ATOM     82  C   UNL     1       8.709  -8.236  -7.937  1.00  0.00     0.054 A 
BRANCH  82  83
ATOM     83  S   UNL     1      10.167  -9.309  -7.809  1.00  0.00     0.124 S 
ATOM     84  O   UNL     1      10.305  -9.797  -9.177  1.00  0.00    -0.237 OA
ATOM     85  O   UNL     1      11.207  -8.388  -7.357  1.00  0.00    -0.237 OA
ATOM     86  O   UNL     1       9.763 -10.308  -6.821  1.00  0.00    -0.744 OA
ENDBRANCH  82  83
ENDBRANCH  54  77
BRANCH  66  87
ATOM     87  C   UNL     1       2.163  -3.746 -12.666  1.00  0.00    -0.014 A 
ATOM     88  C   UNL     1       1.652  -4.907 -13.271  1.00  0.00     0.010 A 
ATOM     89  C   UNL     1       2.584  -2.675 -13.473  1.00  0.00     0.010 A 
ATOM     90  C   UNL     1       1.593  -5.008 -14.663  1.00  0.00     0.020 A 
ATOM     91  C   UNL     1       2.511  -2.766 -14.865  1.00  0.00     0.020 A 
ATOM     92  C   UNL     1       2.030  -3.939 -15.451  1.00  0.00     0.054 A 
BRANCH  92  93
ATOM     93  S   UNL     1       1.927  -4.080 -17.257  1.00  0.00     0.124 S 
ATOM     94  O   UNL     1       3.094  -4.903 -17.563  1.00  0.00    -0.237 OA
ATOM     95  O   UNL     1       0.632  -4.725 -17.459  1.00  0.00    -0.237 OA
ATOM     96  O   UNL     1       2.003  -2.694 -17.715  1.00  0.00    -0.744 OA
ENDBRANCH  92  93
ENDBRANCH  66  87
ENDBRANCH  40  41
ENDBRANCH  33  35
ENDBRANCH  32  33
ENDBRANCH   1  32
TORSDOF 17
