REMARK SMILES COc1ccc(N2/C(=[NH+]/C(=O)CCCC(=O)OCCOC(=O)c3ccc(-c4c5nc(c(-c6ccc(S(=O)(=O)[O-])cc6)c6ccc([nH]6)c(-c6ccc(S(=O)(=O)[O-])cc6)c6nc(c(-c7ccc(S(=O)(=O)[O-])cc7)c7ccc4[nH]7)C=C6)C=C5)cc3)S[C@@H]3CS(=O)(=O)C[C@H]32)cc1Cl
REMARK SMILES IDX 18 1 17 2 15 3 16 4 14 5 13 6 12 7 10 8 7 9 8 10 90 11 9 12
REMARK SMILES IDX 83 13 84 14 89 15 85 17 86 18 11 19 87 20 88 21 6 22 3 23
REMARK SMILES IDX 4 24 92 25 5 26 91 27 93 28 2 29 1 30 19 31 20 32 21 33
REMARK SMILES IDX 22 34 23 35 24 36 82 37 25 38 81 39 26 40 27 41 28 42 75 43
REMARK SMILES IDX 29 44 80 45 74 46 76 47 30 48 79 49 73 50 72 51 31 53 61 54
REMARK SMILES IDX 42 55 60 56 43 57 46 58 59 59 77 60 44 61 45 62 58 64 78 65
REMARK SMILES IDX 47 66 32 67 33 68 41 69 34 70 40 71 35 72 36 73 37 74 38 75
REMARK SMILES IDX 39 76 62 77 63 78 71 79 64 80 70 81 65 82 66 83 67 84 68 85
REMARK SMILES IDX 69 86 48 87 49 88 57 89 50 90 56 91 51 92 52 93 53 94 54 95
REMARK SMILES IDX 55 96
REMARK H PARENT 9 16 76 52 46 63
REMARK Flexibility Score: inf
ROOT
ATOM      1  C   UNL     1       3.654   5.110   3.443  1.00  0.00     0.274 C 
ENDROOT
BRANCH   1   2
ATOM      2  O   UNL     1       4.321   4.275   4.407  1.00  0.00    -0.462 OA
BRANCH   2   3
ATOM      3  C   UNL     1       4.640   3.023   4.004  1.00  0.00     0.305 C 
ATOM      4  O   UNL     1       4.374   2.565   2.900  1.00  0.00    -0.252 OA
BRANCH   3   5
ATOM      5  C   UNL     1       5.345   2.200   5.064  1.00  0.00     0.123 C 
BRANCH   5   6
ATOM      6  C   UNL     1       6.125   2.924   6.156  1.00  0.00     0.024 C 
BRANCH   6   7
ATOM      7  C   UNL     1       5.393   3.925   7.050  1.00  0.00     0.128 C 
BRANCH   7   8
ATOM      8  C   UNL     1       4.082   3.507   7.698  1.00  0.00     0.307 C 
ATOM      9  N   UNL     1       1.629   0.979   6.763  1.00  0.00    -0.217 N 
ATOM     10  C   UNL     1       2.594   1.761   7.407  1.00  0.00     0.319 C 
ATOM     11  C   UNL     1       1.129  -0.133   7.569  1.00  0.00     0.212 C 
ATOM     12  N   UNL     1       3.226   2.773   6.915  1.00  0.00    -0.204 N 
ATOM     13  S   UNL     1       2.812   1.129   9.078  1.00  0.00    -0.029 SA
ATOM     14  C   UNL     1       1.164   0.413   9.001  1.00  0.00     0.120 C 
ATOM     15  C   UNL     1      -0.302  -0.590   7.391  1.00  0.00     0.188 C 
ATOM     16  H   UNL     1       3.094   3.021   5.971  1.00  0.00     0.316 HD
ATOM     17  C   UNL     1       0.744  -0.724   9.892  1.00  0.00     0.156 C 
ATOM     18  S   UNL     1      -0.647  -1.395   8.965  1.00  0.00     0.155 S 
ATOM     19  O   UNL     1       3.769   3.981   8.790  1.00  0.00    -0.247 OA
ATOM     20  O   UNL     1      -1.869  -0.836   9.503  1.00  0.00    -0.229 OA
ATOM     21  O   UNL     1      -0.447  -2.819   8.815  1.00  0.00    -0.229 OA
BRANCH   9  22
ATOM     22  C   UNL     1       1.408   0.942   5.383  1.00  0.00     0.130 A 
ATOM     23  C   UNL     1       0.882   0.822   2.588  1.00  0.00     0.137 A 
ATOM     24  C   UNL     1       0.002   1.461   3.473  1.00  0.00     0.052 A 
ATOM     25  C   UNL     1       2.040   0.240   3.116  1.00  0.00     0.087 A 
ATOM     26  C   UNL     1       0.258   1.521   4.846  1.00  0.00     0.056 A 
ATOM     27  C   UNL     1       2.282   0.291   4.505  1.00  0.00     0.076 A 
ATOM     28  Cl  UNL     1       3.271  -0.529   2.178  1.00  0.00    -0.080 Cl
BRANCH  23  29
ATOM     29  O   UNL     1       0.456   0.920   1.293  1.00  0.00    -0.495 OA
ATOM     30  C   UNL     1       0.876  -0.051   0.345  1.00  0.00     0.278 C 
ENDBRANCH  23  29
ENDBRANCH   9  22
ENDBRANCH   7   8
ENDBRANCH   6   7
ENDBRANCH   5   6
ENDBRANCH   3   5
ENDBRANCH   2   3
ENDBRANCH   1   2
BRANCH   1  31
ATOM     31  C   UNL     1       4.637   6.050   2.737  1.00  0.00     0.275 C 
BRANCH  31  32
ATOM     32  O   UNL     1       5.543   5.335   1.876  1.00  0.00    -0.458 OA
BRANCH  32  33
ATOM     33  C   UNL     1       6.700   4.947   2.462  1.00  0.00     0.338 C 
ATOM     34  O   UNL     1       7.067   5.193   3.599  1.00  0.00    -0.246 OA
BRANCH  33  35
ATOM     35  C   UNL     1       7.423   4.016   1.579  1.00  0.00     0.060 A 
ATOM     36  C   UNL     1       7.602   2.708   2.031  1.00  0.00     0.016 A 
ATOM     37  C   UNL     1       7.992   4.429   0.375  1.00  0.00     0.016 A 
ATOM     38  C   UNL     1       8.347   1.800   1.292  1.00  0.00     0.010 A 
ATOM     39  C   UNL     1       8.748   3.515  -0.371  1.00  0.00     0.010 A 
ATOM     40  C   UNL     1       8.938   2.199   0.090  1.00  0.00    -0.014 A 
BRANCH  40  41
ATOM     41  C   UNL     1       9.805   1.240  -0.633  1.00  0.00     0.031 A 
ATOM     42  C   UNL     1      11.297   1.418  -0.605  1.00  0.00     0.074 A 
ATOM     43  C   UNL     1       9.257   0.179  -1.256  1.00  0.00     0.049 A 
ATOM     44  N   UNL     1      12.222   0.716  -1.205  1.00  0.00    -0.248 NA
ATOM     45  C   UNL     1      11.817   2.532   0.206  1.00  0.00     0.031 C 
ATOM     46  C   UNL     1       7.826  -0.133  -1.295  1.00  0.00     0.029 A 
ATOM     47  N   UNL     1       9.839  -0.839  -1.967  1.00  0.00    -0.354 N 
ATOM     48  C   UNL     1      13.430   1.316  -0.869  1.00  0.00     0.074 A 
ATOM     49  C   UNL     1      13.121   2.445  -0.018  1.00  0.00     0.031 C 
ATOM     50  C   UNL     1       7.644  -1.269  -1.988  1.00  0.00     0.029 A 
ATOM     51  C   UNL     1       8.935  -1.738  -2.481  1.00  0.00     0.049 A 
ATOM     52  H   UNL     1      10.812  -0.919  -2.096  1.00  0.00     0.167 HD
ATOM     53  C   UNL     1      14.682   0.957  -1.240  1.00  0.00     0.031 A 
ATOM     54  C   UNL     1       9.125  -2.805  -3.282  1.00  0.00     0.031 A 
ATOM     55  C   UNL     1      14.983  -0.176  -2.075  1.00  0.00     0.049 A 
ATOM     56  C   UNL     1      10.523  -3.151  -3.718  1.00  0.00     0.074 A 
ATOM     57  C   UNL     1      16.220  -0.626  -2.502  1.00  0.00     0.029 A 
ATOM     58  N   UNL     1      14.038  -1.042  -2.604  1.00  0.00    -0.354 N 
ATOM     59  N   UNL     1      11.653  -2.563  -3.403  1.00  0.00    -0.248 NA
ATOM     60  C   UNL     1      10.671  -4.304  -4.616  1.00  0.00     0.031 C 
ATOM     61  C   UNL     1      16.020  -1.738  -3.326  1.00  0.00     0.029 A 
ATOM     62  C   UNL     1      14.663  -2.012  -3.369  1.00  0.00     0.049 A 
ATOM     63  H   UNL     1      13.067  -0.977  -2.458  1.00  0.00     0.167 HD
ATOM     64  C   UNL     1      12.648  -3.289  -4.049  1.00  0.00     0.074 A 
ATOM     65  C   UNL     1      11.988  -4.369  -4.754  1.00  0.00     0.031 C 
ATOM     66  C   UNL     1      13.988  -3.080  -4.061  1.00  0.00     0.031 A 
BRANCH  53  67
ATOM     67  C   UNL     1      15.824   1.822  -0.781  1.00  0.00    -0.014 A 
ATOM     68  C   UNL     1      16.281   1.787   0.548  1.00  0.00     0.010 A 
ATOM     69  C   UNL     1      16.490   2.638  -1.714  1.00  0.00     0.010 A 
ATOM     70  C   UNL     1      17.371   2.570   0.941  1.00  0.00     0.020 A 
ATOM     71  C   UNL     1      17.594   3.405  -1.331  1.00  0.00     0.020 A 
ATOM     72  C   UNL     1      18.021   3.374  -0.002  1.00  0.00     0.054 A 
BRANCH  72  73
ATOM     73  S   UNL     1      19.461   4.344   0.523  1.00  0.00     0.124 S 
ATOM     74  O   UNL     1      18.838   5.412   1.300  1.00  0.00    -0.237 OA
ATOM     75  O   UNL     1      20.237   3.377   1.294  1.00  0.00    -0.237 OA
ATOM     76  O   UNL     1      20.073   4.766  -0.736  1.00  0.00    -0.744 OA
ENDBRANCH  72  73
ENDBRANCH  53  67
BRANCH  54  77
ATOM     77  C   UNL     1       7.960  -3.597  -3.763  1.00  0.00    -0.014 A 
ATOM     78  C   UNL     1       7.761  -4.922  -3.337  1.00  0.00     0.010 A 
ATOM     79  C   UNL     1       7.048  -3.028  -4.672  1.00  0.00     0.010 A 
ATOM     80  C   UNL     1       6.689  -5.671  -3.832  1.00  0.00     0.020 A 
ATOM     81  C   UNL     1       5.959  -3.764  -5.146  1.00  0.00     0.020 A 
ATOM     82  C   UNL     1       5.797  -5.088  -4.736  1.00  0.00     0.054 A 
BRANCH  82  83
ATOM     83  S   UNL     1       4.393  -6.064  -5.344  1.00  0.00     0.124 S 
ATOM     84  O   UNL     1       5.030  -6.925  -6.335  1.00  0.00    -0.237 OA
ATOM     85  O   UNL     1       3.922  -6.733  -4.133  1.00  0.00    -0.237 OA
ATOM     86  O   UNL     1       3.484  -5.054  -5.880  1.00  0.00    -0.744 OA
ENDBRANCH  82  83
ENDBRANCH  54  77
BRANCH  66  87
ATOM     87  C   UNL     1      14.828  -4.061  -4.832  1.00  0.00    -0.014 A 
ATOM     88  C   UNL     1      14.840  -4.064  -6.238  1.00  0.00     0.010 A 
ATOM     89  C   UNL     1      15.641  -4.974  -4.136  1.00  0.00     0.010 A 
ATOM     90  C   UNL     1      15.619  -4.991  -6.934  1.00  0.00     0.020 A 
ATOM     91  C   UNL     1      16.442  -5.884  -4.829  1.00  0.00     0.020 A 
ATOM     92  C   UNL     1      16.411  -5.899  -6.225  1.00  0.00     0.054 A 
BRANCH  92  93
ATOM     93  S   UNL     1      17.432  -7.080  -7.148  1.00  0.00     0.124 S 
ATOM     94  O   UNL     1      16.443  -8.064  -7.578  1.00  0.00    -0.237 OA
ATOM     95  O   UNL     1      18.000  -6.254  -8.211  1.00  0.00    -0.237 OA
ATOM     96  O   UNL     1      18.394  -7.554  -6.157  1.00  0.00    -0.744 OA
ENDBRANCH  92  93
ENDBRANCH  66  87
ENDBRANCH  40  41
ENDBRANCH  33  35
ENDBRANCH  32  33
ENDBRANCH  31  32
ENDBRANCH   1  31
TORSDOF 19
