REMARK SMILES Cc1oc2cc3c(cc2c1C)[C@H](C)[C@@H](CC(=O)N[C@H](CC1=c2ccccc2=NC1)C(=O)OCCOC(=O)c1ccc(-c2c4nc(c(-c5ccc(S(=O)(=O)[O-])cc5)c5ccc([nH]5)c(-c5ccc(S(=O)(=O)[O-])cc5)c5nc(c(-c6ccc(S(=O)(=O)[O-])cc6)c6ccc2[nH]6)C=C5)C=C4)cc1)C(=O)O3
REMARK SMILES IDX 33 1 32 2 30 3 31 4 19 5 18 6 16 7 17 8 15 10 14 11 1 12
REMARK SMILES IDX 2 13 3 14 10 15 4 16 9 17 11 18 5 19 8 20 6 21 7 22 100 23
REMARK SMILES IDX 12 24 98 25 13 26 99 27 20 28 21 29 22 30 29 31 23 32 27 33
REMARK SMILES IDX 28 34 24 35 26 36 25 37 34 38 35 39 36 40 37 41 38 42 39 43
REMARK SMILES IDX 97 44 40 45 96 46 41 47 42 48 43 49 90 50 44 51 95 52 89 53
REMARK SMILES IDX 91 54 45 55 94 56 88 57 87 58 46 60 76 61 57 62 75 63 58 64
REMARK SMILES IDX 61 65 74 66 92 67 59 68 60 69 73 71 93 72 62 73 47 74 48 75
REMARK SMILES IDX 56 76 49 77 55 78 50 79 51 80 52 81 53 82 54 83 77 84 78 85
REMARK SMILES IDX 86 86 79 87 85 88 80 89 81 90 82 91 83 92 84 93 63 94 64 95
REMARK SMILES IDX 72 96 65 97 71 98 66 99 67 100 68 101 69 102 70 103
REMARK H PARENT 18 9 91 59 61 70
REMARK Flexibility Score: inf
ROOT
ATOM      1  C   UNL     1      -0.958   3.701  13.119  1.00  0.00     0.274 C 
ENDROOT
BRANCH   1   2
ATOM      2  O   UNL     1      -1.804   3.643  11.913  1.00  0.00    -0.461 OA
BRANCH   2   3
ATOM      3  C   UNL     1      -1.109   3.048  10.937  1.00  0.00     0.329 C 
ATOM      4  O   UNL     1       0.090   2.945  11.108  1.00  0.00    -0.250 OA
BRANCH   3   5
ATOM      5  C   UNL     1      -1.619   2.609   9.612  1.00  0.00     0.196 C 
BRANCH   5   6
ATOM      6  N   UNL     1      -1.274   3.835   8.790  1.00  0.00    -0.342 N 
ATOM      7  C   UNL     1      -0.142   4.575   8.467  1.00  0.00     0.221 C 
ATOM      8  O   UNL     1      -0.471   5.550   7.752  1.00  0.00    -0.275 OA
ATOM      9  H   UNL     1      -2.077   4.213   8.365  1.00  0.00     0.164 HD
BRANCH   7  10
ATOM     10  C   UNL     1       1.480   4.445   8.716  1.00  0.00     0.116 C 
BRANCH  10  11
ATOM     11  C   UNL     1       2.212   4.185  10.094  1.00  0.00     0.116 C 
ATOM     12  C   UNL     1       5.242   2.379  17.826  1.00  0.00     0.088 C 
ATOM     13  C   UNL     1       5.060   2.753  16.403  1.00  0.00     0.105 A 
ATOM     14  O   UNL     1       3.772   2.743  15.989  1.00  0.00    -0.461 OA
ATOM     15  C   UNL     1       5.895   3.052  15.327  1.00  0.00    -0.002 A 
ATOM     16  C   UNL     1       3.785   3.043  14.674  1.00  0.00     0.138 A 
ATOM     17  C   UNL     1       5.041   3.379  14.204  1.00  0.00     0.024 A 
ATOM     18  C   UNL     1       7.370   2.945  15.331  1.00  0.00     0.049 C 
ATOM     19  C   UNL     1       2.697   2.884  13.859  1.00  0.00     0.095 A 
ATOM     20  C   UNL     1       5.136   3.816  12.825  1.00  0.00     0.020 A 
ATOM     21  C   UNL     1       2.917   3.126  12.506  1.00  0.00     0.138 A 
ATOM     22  C   UNL     1       3.996   3.795  11.977  1.00  0.00    -0.001 A 
ATOM     23  O   UNL     1       2.239   2.325  11.565  1.00  0.00    -0.426 OA
ATOM     24  C   UNL     1       3.792   4.188  10.473  1.00  0.00     0.035 C 
ATOM     25  C   UNL     1       2.077   2.718  10.235  1.00  0.00     0.315 C 
ATOM     26  C   UNL     1       4.551   5.432  10.111  1.00  0.00     0.014 C 
ATOM     27  O   UNL     1       1.744   1.977   9.314  1.00  0.00    -0.251 OA
ENDBRANCH  10  11
ENDBRANCH   7  10
ENDBRANCH   5   6
BRANCH   5  28
ATOM     28  C   UNL     1      -3.095   1.901   9.665  1.00  0.00     0.070 C 
BRANCH  28  29
ATOM     29  C   UNL     1      -3.418   0.656  10.695  1.00  0.00    -0.037 C 
ATOM     30  C   UNL     1      -3.287  -0.698  10.515  1.00  0.00     0.001 A 
ATOM     31  C   UNL     1      -2.629   0.846  11.929  1.00  0.00     0.174 C 
ATOM     32  C   UNL     1      -3.638  -1.728  11.587  1.00  0.00     0.010 A 
ATOM     33  C   UNL     1      -1.796  -0.638  10.638  1.00  0.00     0.065 A 
ATOM     34  N   UNL     1      -1.360   0.296  11.439  1.00  0.00    -0.280 NA
ATOM     35  C   UNL     1      -2.720  -2.668  11.938  1.00  0.00     0.001 A 
ATOM     36  C   UNL     1      -1.073  -1.880  10.330  1.00  0.00     0.028 A 
ATOM     37  C   UNL     1      -1.512  -2.862  11.136  1.00  0.00     0.002 A 
ENDBRANCH  28  29
ENDBRANCH   5  28
ENDBRANCH   3   5
ENDBRANCH   2   3
ENDBRANCH   1   2
BRANCH   1  38
ATOM     38  C   UNL     1      -0.613   2.290  13.802  1.00  0.00     0.275 C 
BRANCH  38  39
ATOM     39  O   UNL     1       0.339   1.453  13.019  1.00  0.00    -0.458 OA
BRANCH  39  40
ATOM     40  C   UNL     1       0.731   0.152  13.220  1.00  0.00     0.338 C 
ATOM     41  O   UNL     1       0.322  -0.556  14.130  1.00  0.00    -0.246 OA
BRANCH  40  42
ATOM     42  C   UNL     1       1.866  -0.286  12.256  1.00  0.00     0.060 A 
ATOM     43  C   UNL     1       3.143  -0.603  12.732  1.00  0.00     0.016 A 
ATOM     44  C   UNL     1       1.752  -0.267  10.861  1.00  0.00     0.016 A 
ATOM     45  C   UNL     1       4.266  -0.720  11.847  1.00  0.00     0.010 A 
ATOM     46  C   UNL     1       2.868  -0.404   9.974  1.00  0.00     0.010 A 
ATOM     47  C   UNL     1       4.166  -0.551  10.449  1.00  0.00    -0.014 A 
BRANCH  47  48
ATOM     48  C   UNL     1       5.372  -0.621   9.534  1.00  0.00     0.031 A 
ATOM     49  C   UNL     1       5.159  -1.010   8.065  1.00  0.00     0.074 A 
ATOM     50  C   UNL     1       6.518   0.054   9.823  1.00  0.00     0.049 A 
ATOM     51  N   UNL     1       4.969  -0.220   7.037  1.00  0.00    -0.248 NA
ATOM     52  C   UNL     1       5.000  -2.428   7.718  1.00  0.00     0.031 C 
ATOM     53  C   UNL     1       6.567   1.497  10.079  1.00  0.00     0.029 A 
ATOM     54  N   UNL     1       7.854  -0.282   9.679  1.00  0.00    -0.354 N 
ATOM     55  C   UNL     1       4.689  -1.024   5.917  1.00  0.00     0.074 A 
ATOM     56  C   UNL     1       4.700  -2.383   6.411  1.00  0.00     0.031 C 
ATOM     57  C   UNL     1       7.831   1.949   9.949  1.00  0.00     0.029 A 
ATOM     58  C   UNL     1       8.717   0.820   9.701  1.00  0.00     0.049 A 
ATOM     59  H   UNL     1       8.167  -1.209   9.571  1.00  0.00     0.167 HD
ATOM     60  C   UNL     1       4.510  -0.576   4.633  1.00  0.00     0.031 A 
ATOM     61  C   UNL     1       9.926   0.908   9.070  1.00  0.00     0.031 A 
ATOM     62  C   UNL     1       4.678   0.835   4.457  1.00  0.00     0.049 A 
ATOM     63  C   UNL     1       9.469   1.230   7.665  1.00  0.00     0.074 A 
ATOM     64  C   UNL     1       3.900   1.960   4.312  1.00  0.00     0.029 A 
ATOM     65  N   UNL     1       5.963   1.308   4.349  1.00  0.00    -0.354 N 
ATOM     66  N   UNL     1       9.046   2.387   7.224  1.00  0.00    -0.248 NA
ATOM     67  C   UNL     1       9.082   0.079   6.847  1.00  0.00     0.031 C 
ATOM     68  C   UNL     1       4.764   3.058   4.626  1.00  0.00     0.029 A 
ATOM     69  C   UNL     1       6.004   2.522   4.980  1.00  0.00     0.049 A 
ATOM     70  H   UNL     1       6.715   0.858   3.901  1.00  0.00     0.167 HD
ATOM     71  C   UNL     1       8.081   2.082   6.258  1.00  0.00     0.074 A 
ATOM     72  C   UNL     1       8.142   0.640   6.102  1.00  0.00     0.031 C 
ATOM     73  C   UNL     1       7.151   2.956   5.763  1.00  0.00     0.031 A 
BRANCH  60  74
ATOM     74  C   UNL     1       4.381  -1.420   3.393  1.00  0.00    -0.014 A 
ATOM     75  C   UNL     1       3.162  -1.950   2.936  1.00  0.00     0.010 A 
ATOM     76  C   UNL     1       5.496  -1.500   2.530  1.00  0.00     0.010 A 
ATOM     77  C   UNL     1       3.070  -2.542   1.657  1.00  0.00     0.020 A 
ATOM     78  C   UNL     1       5.408  -2.073   1.255  1.00  0.00     0.020 A 
ATOM     79  C   UNL     1       4.194  -2.597   0.823  1.00  0.00     0.054 A 
BRANCH  79  80
ATOM     80  S   UNL     1       4.057  -3.333  -0.837  1.00  0.00     0.124 S 
ATOM     81  O   UNL     1       3.753  -4.728  -0.531  1.00  0.00    -0.237 OA
ATOM     82  O   UNL     1       2.966  -2.569  -1.438  1.00  0.00    -0.237 OA
ATOM     83  O   UNL     1       5.372  -3.102  -1.431  1.00  0.00    -0.744 OA
ENDBRANCH  79  80
ENDBRANCH  60  74
BRANCH  61  84
ATOM     84  C   UNL     1      10.905  -0.182   9.397  1.00  0.00    -0.014 A 
ATOM     85  C   UNL     1      11.496  -1.062   8.476  1.00  0.00     0.010 A 
ATOM     86  C   UNL     1      11.188  -0.387  10.765  1.00  0.00     0.010 A 
ATOM     87  C   UNL     1      12.109  -2.245   8.914  1.00  0.00     0.020 A 
ATOM     88  C   UNL     1      11.826  -1.546  11.211  1.00  0.00     0.020 A 
ATOM     89  C   UNL     1      12.210  -2.506  10.281  1.00  0.00     0.054 A 
BRANCH  89  90
ATOM     90  S   UNL     1      12.721  -4.157  10.828  1.00  0.00     0.124 S 
ATOM     91  O   UNL     1      11.647  -4.990  10.291  1.00  0.00    -0.237 OA
ATOM     92  O   UNL     1      14.024  -4.314  10.191  1.00  0.00    -0.237 OA
ATOM     93  O   UNL     1      12.748  -4.045  12.284  1.00  0.00    -0.744 OA
ENDBRANCH  89  90
ENDBRANCH  61  84
BRANCH  73  94
ATOM     94  C   UNL     1       7.206   4.389   6.210  1.00  0.00    -0.014 A 
ATOM     95  C   UNL     1       6.056   4.985   6.760  1.00  0.00     0.010 A 
ATOM     96  C   UNL     1       8.320   5.202   5.960  1.00  0.00     0.010 A 
ATOM     97  C   UNL     1       5.971   6.366   6.940  1.00  0.00     0.020 A 
ATOM     98  C   UNL     1       8.258   6.586   6.180  1.00  0.00     0.020 A 
ATOM     99  C   UNL     1       7.071   7.162   6.635  1.00  0.00     0.054 A 
BRANCH  99 100
ATOM    100  S   UNL     1       6.886   8.957   6.787  1.00  0.00     0.124 S 
ATOM    101  O   UNL     1       5.786   9.236   5.867  1.00  0.00    -0.237 OA
ATOM    102  O   UNL     1       6.573   9.123   8.204  1.00  0.00    -0.237 OA
ATOM    103  O   UNL     1       8.186   9.478   6.373  1.00  0.00    -0.744 OA
ENDBRANCH  99 100
ENDBRANCH  73  94
ENDBRANCH  47  48
ENDBRANCH  40  42
ENDBRANCH  39  40
ENDBRANCH  38  39
ENDBRANCH   1  38
TORSDOF 19
