REMARK SMILES CC[C@](C)(NC(=O)Nc1cccnc1)C(=O)OCCOC(=O)c1ccc(-c2c3nc(c(-c4ccc(S(=O)(=O)[O-])cc4)c4ccc([nH]4)c(-c4ccc(S(=O)(=O)[O-])cc4)c4nc(c(-c5ccc(S(=O)(=O)[O-])cc5)c5ccc2[nH]5)C=C4)C=C3)cc1
REMARK SMILES IDX 19 1 18 2 17 3 15 4 16 5 3 6 4 7 2 8 1 9 5 10 6 11 7 13 8 14
REMARK SMILES IDX 9 16 10 17 14 18 11 19 13 20 12 21 20 22 21 23 22 24 23 25
REMARK SMILES IDX 24 26 82 27 25 28 81 29 26 30 27 31 28 32 75 33 29 34 80 35
REMARK SMILES IDX 74 36 76 37 30 38 79 39 73 40 72 41 31 43 61 44 42 45 60 46
REMARK SMILES IDX 43 47 46 48 59 49 77 50 44 51 45 52 58 54 78 55 47 56 32 57
REMARK SMILES IDX 33 58 41 59 34 60 40 61 35 62 36 63 37 64 38 65 39 66 62 67
REMARK SMILES IDX 63 68 71 69 64 70 70 71 65 72 66 73 67 74 68 75 69 76 48 77
REMARK SMILES IDX 49 78 57 79 50 80 56 81 51 82 52 83 53 84 54 85 55 86
REMARK H PARENT 5 12 8 15 76 42 46 53
REMARK Flexibility Score: inf
ROOT
ATOM      1  C   UNL     1       4.380   4.579   0.980  1.00  0.00     0.275 C 
ENDROOT
BRANCH   1   2
ATOM      2  C   UNL     1       4.041   4.521  -0.663  1.00  0.00     0.274 C 
BRANCH   2   3
ATOM      3  O   UNL     1       2.604   4.453  -1.125  1.00  0.00    -0.460 OA
BRANCH   3   4
ATOM      4  C   UNL     1       1.959   3.535  -1.996  1.00  0.00     0.331 C 
ATOM      5  O   UNL     1       2.337   3.335  -3.148  1.00  0.00    -0.249 OA
BRANCH   4   6
ATOM      6  C   UNL     1       0.586   2.848  -1.359  1.00  0.00     0.136 C 
ATOM      7  C   UNL     1       0.271   1.421  -0.776  1.00  0.00     0.047 C 
BRANCH   6   8
ATOM      8  C   UNL     1      -0.564   3.125  -2.353  1.00  0.00     0.037 C 
ATOM      9  C   UNL     1      -0.702   1.970  -3.366  1.00  0.00     0.007 C 
ENDBRANCH   6   8
BRANCH   6  10
ATOM     10  N   UNL     1       0.595   3.596  -0.161  1.00  0.00    -0.322 N 
ATOM     11  C   UNL     1       1.582   3.344   0.719  1.00  0.00     0.320 C 
ATOM     12  H   UNL     1      -0.093   4.276   0.023  1.00  0.00     0.166 HD
ATOM     13  O   UNL     1       1.596   4.081   1.709  1.00  0.00    -0.248 OA
ATOM     14  N   UNL     1       2.529   2.339   0.570  1.00  0.00    -0.307 N 
ATOM     15  H   UNL     1       2.836   2.211   1.497  1.00  0.00     0.171 HD
BRANCH  14  16
ATOM     16  C   UNL     1       3.334   1.366  -0.147  1.00  0.00     0.061 A 
ATOM     17  C   UNL     1       3.777   1.314  -1.464  1.00  0.00     0.029 A 
ATOM     18  C   UNL     1       4.007   0.422   0.649  1.00  0.00     0.137 A 
ATOM     19  C   UNL     1       4.697   0.355  -1.931  1.00  0.00     0.022 A 
ATOM     20  N   UNL     1       4.910  -0.520   0.256  1.00  0.00    -0.263 NA
ATOM     21  C   UNL     1       5.216  -0.554  -1.044  1.00  0.00     0.111 A 
ENDBRANCH  14  16
ENDBRANCH   6  10
ENDBRANCH   4   6
ENDBRANCH   3   4
ENDBRANCH   2   3
ENDBRANCH   1   2
BRANCH   1  22
ATOM     22  O   UNL     1       4.260   3.330   1.835  1.00  0.00    -0.458 OA
BRANCH  22  23
ATOM     23  C   UNL     1       3.958   3.336   3.197  1.00  0.00     0.338 C 
ATOM     24  O   UNL     1       4.105   4.311   3.930  1.00  0.00    -0.246 OA
BRANCH  23  25
ATOM     25  C   UNL     1       3.352   1.983   3.694  1.00  0.00     0.060 A 
ATOM     26  C   UNL     1       2.056   1.556   3.316  1.00  0.00     0.016 A 
ATOM     27  C   UNL     1       4.030   1.103   4.540  1.00  0.00     0.016 A 
ATOM     28  C   UNL     1       1.520   0.280   3.582  1.00  0.00     0.010 A 
ATOM     29  C   UNL     1       3.442  -0.146   4.929  1.00  0.00     0.010 A 
ATOM     30  C   UNL     1       2.177  -0.575   4.453  1.00  0.00    -0.014 A 
BRANCH  30  31
ATOM     31  C   UNL     1       1.343  -1.620   5.151  1.00  0.00     0.031 A 
ATOM     32  C   UNL     1       0.753  -1.215   6.488  1.00  0.00     0.074 A 
ATOM     33  C   UNL     1       0.959  -2.809   4.630  1.00  0.00     0.049 A 
ATOM     34  N   UNL     1       0.085  -1.917   7.366  1.00  0.00    -0.248 NA
ATOM     35  C   UNL     1       0.952   0.193   6.875  1.00  0.00     0.031 C 
ATOM     36  C   UNL     1       1.273  -3.310   3.293  1.00  0.00     0.029 A 
ATOM     37  N   UNL     1       0.196  -3.823   5.184  1.00  0.00    -0.354 N 
ATOM     38  C   UNL     1      -0.154  -1.054   8.432  1.00  0.00     0.074 A 
ATOM     39  C   UNL     1       0.439   0.218   8.092  1.00  0.00     0.031 C 
ATOM     40  C   UNL     1       0.726  -4.534   3.139  1.00  0.00     0.029 A 
ATOM     41  C   UNL     1       0.057  -4.935   4.378  1.00  0.00     0.049 A 
ATOM     42  H   UNL     1      -0.213  -3.756   6.077  1.00  0.00     0.167 HD
ATOM     43  C   UNL     1      -0.803  -1.286   9.598  1.00  0.00     0.031 A 
ATOM     44  C   UNL     1      -0.513  -6.141   4.617  1.00  0.00     0.031 A 
ATOM     45  C   UNL     1      -1.430  -2.532   9.942  1.00  0.00     0.049 A 
ATOM     46  C   UNL     1      -1.151  -6.420   5.964  1.00  0.00     0.074 A 
ATOM     47  C   UNL     1      -2.100  -2.863  11.107  1.00  0.00     0.029 A 
ATOM     48  N   UNL     1      -1.476  -3.648   9.123  1.00  0.00    -0.354 N 
ATOM     49  N   UNL     1      -1.302  -5.618   6.991  1.00  0.00    -0.248 NA
ATOM     50  C   UNL     1      -1.698  -7.771   6.180  1.00  0.00     0.031 C 
ATOM     51  C   UNL     1      -2.499  -4.199  11.017  1.00  0.00     0.029 A 
ATOM     52  C   UNL     1      -2.147  -4.675   9.764  1.00  0.00     0.049 A 
ATOM     53  H   UNL     1      -1.089  -3.702   8.219  1.00  0.00     0.167 HD
ATOM     54  C   UNL     1      -1.998  -6.352   7.952  1.00  0.00     0.074 A 
ATOM     55  C   UNL     1      -2.245  -7.659   7.383  1.00  0.00     0.031 C 
ATOM     56  C   UNL     1      -2.405  -5.971   9.190  1.00  0.00     0.031 A 
BRANCH  43  57
ATOM     57  C   UNL     1      -0.793  -0.181  10.623  1.00  0.00    -0.014 A 
ATOM     58  C   UNL     1      -1.516   1.011  10.444  1.00  0.00     0.010 A 
ATOM     59  C   UNL     1      -0.036  -0.352  11.797  1.00  0.00     0.010 A 
ATOM     60  C   UNL     1      -1.443   2.031  11.397  1.00  0.00     0.020 A 
ATOM     61  C   UNL     1       0.009   0.649  12.770  1.00  0.00     0.020 A 
ATOM     62  C   UNL     1      -0.680   1.843  12.554  1.00  0.00     0.054 A 
BRANCH  62  63
ATOM     63  S   UNL     1      -0.620   3.172  13.786  1.00  0.00     0.124 S 
ATOM     64  O   UNL     1       0.202   4.173  13.110  1.00  0.00    -0.237 OA
ATOM     65  O   UNL     1      -2.029   3.522  13.946  1.00  0.00    -0.237 OA
ATOM     66  O   UNL     1      -0.001   2.541  14.949  1.00  0.00    -0.744 OA
ENDBRANCH  62  63
ENDBRANCH  43  57
BRANCH  44  67
ATOM     67  C   UNL     1      -0.483  -7.225   3.581  1.00  0.00    -0.014 A 
ATOM     68  C   UNL     1      -1.671  -7.709   2.998  1.00  0.00     0.010 A 
ATOM     69  C   UNL     1       0.736  -7.823   3.212  1.00  0.00     0.010 A 
ATOM     70  C   UNL     1      -1.640  -8.767   2.079  1.00  0.00     0.020 A 
ATOM     71  C   UNL     1       0.775  -8.860   2.270  1.00  0.00     0.020 A 
ATOM     72  C   UNL     1      -0.415  -9.331   1.714  1.00  0.00     0.054 A 
BRANCH  72  73
ATOM     73  S   UNL     1      -0.391 -10.657   0.473  1.00  0.00     0.124 S 
ATOM     74  O   UNL     1      -0.969 -11.777   1.208  1.00  0.00    -0.237 OA
ATOM     75  O   UNL     1      -1.222 -10.103  -0.594  1.00  0.00    -0.237 OA
ATOM     76  O   UNL     1       1.026 -10.790   0.141  1.00  0.00    -0.744 OA
ENDBRANCH  72  73
ENDBRANCH  44  67
BRANCH  56  77
ATOM     77  C   UNL     1      -3.233  -6.943   9.996  1.00  0.00    -0.014 A 
ATOM     78  C   UNL     1      -2.689  -8.123  10.533  1.00  0.00     0.010 A 
ATOM     79  C   UNL     1      -4.582  -6.636  10.259  1.00  0.00     0.010 A 
ATOM     80  C   UNL     1      -3.490  -9.001  11.271  1.00  0.00     0.020 A 
ATOM     81  C   UNL     1      -5.378  -7.493  11.024  1.00  0.00     0.020 A 
ATOM     82  C   UNL     1      -4.832  -8.682  11.508  1.00  0.00     0.054 A 
BRANCH  82  83
ATOM     83  S   UNL     1      -5.849  -9.831  12.476  1.00  0.00     0.124 S 
ATOM     84  O   UNL     1      -6.042 -10.932  11.537  1.00  0.00    -0.237 OA
ATOM     85  O   UNL     1      -4.996 -10.126  13.625  1.00  0.00    -0.237 OA
ATOM     86  O   UNL     1      -7.051  -9.057  12.783  1.00  0.00    -0.744 OA
ENDBRANCH  82  83
ENDBRANCH  56  77
ENDBRANCH  30  31
ENDBRANCH  23  25
ENDBRANCH  22  23
ENDBRANCH   1  22
TORSDOF 17
