REMARK SMILES [NH3+][C@@H](CCCCC(=O)OCCOC(=O)c1ccc(-c2c3nc(c(-c4ccc(S(=O)(=O)[O-])cc4)c4ccc([nH]4)c(-c4ccc(S(=O)(=O)[O-])cc4)c4nc(c(-c5ccc(S(=O)(=O)[O-])cc5)c5ccc2[nH]5)C=C4)C=C3)cc1)c1ccc(-c2ccccc2)cc1
REMARK SMILES IDX 9 1 7 2 8 3 6 4 5 5 4 6 3 7 2 8 1 9 75 13 76 14 86 15 77 16
REMARK SMILES IDX 85 17 78 18 79 19 80 20 84 21 81 22 83 23 82 24 10 25 11 26
REMARK SMILES IDX 12 27 13 28 14 29 15 30 16 31 74 32 17 33 73 34 18 35 19 36
REMARK SMILES IDX 20 37 67 38 21 39 72 40 66 41 68 42 22 43 71 44 65 45 64 46
REMARK SMILES IDX 23 48 53 49 34 50 52 51 35 52 38 53 51 54 69 55 36 56 37 57
REMARK SMILES IDX 50 59 70 60 39 61 24 62 25 63 33 64 26 65 32 66 27 67 28 68
REMARK SMILES IDX 29 69 30 70 31 71 54 72 55 73 63 74 56 75 62 76 57 77 58 78
REMARK SMILES IDX 59 79 60 80 61 81 40 82 41 83 49 84 42 85 48 86 43 87 44 88
REMARK SMILES IDX 45 89 46 90 47 91
REMARK H PARENT 1 10 1 11 1 12 68 47 38 58
REMARK Flexibility Score: inf
ROOT
ATOM      1  O   UNL     1       0.367   0.293  -5.621  1.00  0.00    -0.462 OA
ENDROOT
BRANCH   1   2
ATOM      2  C   UNL     1      -0.739   1.022  -5.319  1.00  0.00     0.305 C 
ATOM      3  O   UNL     1      -1.414   1.646  -6.127  1.00  0.00    -0.252 OA
BRANCH   2   4
ATOM      4  C   UNL     1      -1.042   1.006  -3.843  1.00  0.00     0.123 C 
BRANCH   4   5
ATOM      5  C   UNL     1      -0.657  -0.293  -3.130  1.00  0.00     0.012 C 
BRANCH   5   6
ATOM      6  C   UNL     1       0.745  -0.323  -2.502  1.00  0.00     0.007 C 
BRANCH   6   7
ATOM      7  C   UNL     1       1.158   0.872  -1.625  1.00  0.00     0.070 C 
BRANCH   7   8
ATOM      8  C   UNL     1       0.555   0.983  -0.203  1.00  0.00     0.211 C 
BRANCH   8   9
ATOM      9  N   UNL     1       1.125  -0.046   0.677  1.00  0.00    -0.351 N 
ATOM     10  H   UNL     1       2.143  -0.029   0.606  1.00  0.00     0.345 HD
ATOM     11  H   UNL     1       0.780  -0.964   0.395  1.00  0.00     0.345 HD
ATOM     12  H   UNL     1       0.849   0.139   1.641  1.00  0.00     0.345 HD
ENDBRANCH   8   9
BRANCH   8  13
ATOM     13  C   UNL     1      -0.962   1.036  -0.166  1.00  0.00     0.009 A 
ATOM     14  C   UNL     1      -1.629   2.210  -0.545  1.00  0.00     0.010 A 
ATOM     15  C   UNL     1      -1.746  -0.071   0.186  1.00  0.00     0.010 A 
ATOM     16  C   UNL     1      -3.030   2.261  -0.607  1.00  0.00     0.009 A 
ATOM     17  C   UNL     1      -3.143  -0.023   0.108  1.00  0.00     0.009 A 
ATOM     18  C   UNL     1      -3.816   1.140  -0.297  1.00  0.00    -0.018 A 
BRANCH  18  19
ATOM     19  C   UNL     1      -5.291   1.165  -0.402  1.00  0.00    -0.018 A 
ATOM     20  C   UNL     1      -5.942   1.779  -1.487  1.00  0.00     0.009 A 
ATOM     21  C   UNL     1      -6.099   0.546   0.571  1.00  0.00     0.009 A 
ATOM     22  C   UNL     1      -7.337   1.769  -1.598  1.00  0.00     0.001 A 
ATOM     23  C   UNL     1      -7.492   0.530   0.460  1.00  0.00     0.001 A 
ATOM     24  C   UNL     1      -8.110   1.141  -0.626  1.00  0.00     0.000 A 
ENDBRANCH  18  19
ENDBRANCH   8  13
ENDBRANCH   7   8
ENDBRANCH   6   7
ENDBRANCH   5   6
ENDBRANCH   4   5
ENDBRANCH   2   4
ENDBRANCH   1   2
BRANCH   1  25
ATOM     25  C   UNL     1       0.577   0.032  -7.019  1.00  0.00     0.274 C 
BRANCH  25  26
ATOM     26  C   UNL     1      -0.030  -1.325  -7.376  1.00  0.00     0.275 C 
BRANCH  26  27
ATOM     27  O   UNL     1      -1.462  -1.272  -7.230  1.00  0.00    -0.458 OA
BRANCH  27  28
ATOM     28  C   UNL     1      -2.019  -2.219  -6.442  1.00  0.00     0.338 C 
ATOM     29  O   UNL     1      -1.456  -3.141  -5.873  1.00  0.00    -0.246 OA
BRANCH  28  30
ATOM     30  C   UNL     1      -3.465  -1.975  -6.357  1.00  0.00     0.060 A 
ATOM     31  C   UNL     1      -3.959  -1.045  -5.438  1.00  0.00     0.016 A 
ATOM     32  C   UNL     1      -4.338  -2.728  -7.142  1.00  0.00     0.016 A 
ATOM     33  C   UNL     1      -5.336  -0.869  -5.295  1.00  0.00     0.010 A 
ATOM     34  C   UNL     1      -5.715  -2.530  -7.017  1.00  0.00     0.010 A 
ATOM     35  C   UNL     1      -6.226  -1.610  -6.084  1.00  0.00    -0.014 A 
BRANCH  35  36
ATOM     36  C   UNL     1      -7.695  -1.465  -5.916  1.00  0.00     0.031 A 
ATOM     37  C   UNL     1      -8.492  -2.591  -5.319  1.00  0.00     0.074 A 
ATOM     38  C   UNL     1      -8.317  -0.344  -6.326  1.00  0.00     0.049 A 
ATOM     39  N   UNL     1      -9.790  -2.731  -5.232  1.00  0.00    -0.248 NA
ATOM     40  C   UNL     1      -7.725  -3.712  -4.753  1.00  0.00     0.031 C 
ATOM     41  C   UNL     1      -7.657   0.835  -6.888  1.00  0.00     0.029 A 
ATOM     42  N   UNL     1      -9.652  -0.022  -6.345  1.00  0.00    -0.354 N 
ATOM     43  C   UNL     1      -9.998  -3.966  -4.630  1.00  0.00     0.074 A 
ATOM     44  C   UNL     1      -8.692  -4.541  -4.383  1.00  0.00     0.031 C 
ATOM     45  C   UNL     1      -8.590   1.750  -7.202  1.00  0.00     0.029 A 
ATOM     46  C   UNL     1      -9.913   1.203  -6.912  1.00  0.00     0.049 A 
ATOM     47  H   UNL     1     -10.355  -0.611  -5.987  1.00  0.00     0.167 HD
ATOM     48  C   UNL     1     -11.170  -4.567  -4.312  1.00  0.00     0.031 A 
ATOM     49  C   UNL     1     -11.084   1.803  -7.201  1.00  0.00     0.031 A 
ATOM     50  C   UNL     1     -12.466  -3.992  -4.552  1.00  0.00     0.049 A 
ATOM     51  C   UNL     1     -12.373   1.099  -6.882  1.00  0.00     0.074 A 
ATOM     52  C   UNL     1     -13.712  -4.522  -4.263  1.00  0.00     0.029 A 
ATOM     53  N   UNL     1     -12.685  -2.753  -5.135  1.00  0.00    -0.354 N 
ATOM     54  N   UNL     1     -12.554  -0.078  -6.332  1.00  0.00    -0.248 NA
ATOM     55  C   UNL     1     -13.617   1.801  -7.227  1.00  0.00     0.031 C 
ATOM     56  C   UNL     1     -14.686  -3.618  -4.704  1.00  0.00     0.029 A 
ATOM     57  C   UNL     1     -14.045  -2.506  -5.226  1.00  0.00     0.049 A 
ATOM     58  H   UNL     1     -11.979  -2.139  -5.439  1.00  0.00     0.167 HD
ATOM     59  C   UNL     1     -13.931  -0.251  -6.251  1.00  0.00     0.074 A 
ATOM     60  C   UNL     1     -14.536   0.948  -6.794  1.00  0.00     0.031 C 
ATOM     61  C   UNL     1     -14.631  -1.308  -5.771  1.00  0.00     0.031 A 
BRANCH  48  62
ATOM     62  C   UNL     1     -11.097  -5.941  -3.701  1.00  0.00    -0.014 A 
ATOM     63  C   UNL     1     -10.686  -6.124  -2.368  1.00  0.00     0.010 A 
ATOM     64  C   UNL     1     -11.464  -7.062  -4.465  1.00  0.00     0.010 A 
ATOM     65  C   UNL     1     -10.604  -7.409  -1.825  1.00  0.00     0.020 A 
ATOM     66  C   UNL     1     -11.405  -8.348  -3.919  1.00  0.00     0.020 A 
ATOM     67  C   UNL     1     -10.955  -8.514  -2.607  1.00  0.00     0.054 A 
BRANCH  67  68
ATOM     68  S   UNL     1     -10.844 -10.172  -1.879  1.00  0.00     0.124 S 
ATOM     69  O   UNL     1      -9.405 -10.420  -1.916  1.00  0.00    -0.237 OA
ATOM     70  O   UNL     1     -11.414  -9.980  -0.548  1.00  0.00    -0.237 OA
ATOM     71  O   UNL     1     -11.642 -11.000  -2.781  1.00  0.00    -0.744 OA
ENDBRANCH  67  68
ENDBRANCH  48  62
BRANCH  49  72
ATOM     72  C   UNL     1     -11.086   3.136  -7.861  1.00  0.00    -0.014 A 
ATOM     73  C   UNL     1     -11.453   4.288  -7.144  1.00  0.00     0.010 A 
ATOM     74  C   UNL     1     -10.698   3.261  -9.208  1.00  0.00     0.010 A 
ATOM     75  C   UNL     1     -11.437   5.541  -7.764  1.00  0.00     0.020 A 
ATOM     76  C   UNL     1     -10.659   4.515  -9.823  1.00  0.00     0.020 A 
ATOM     77  C   UNL     1     -11.038   5.647  -9.100  1.00  0.00     0.054 A 
BRANCH  77  78
ATOM     78  S   UNL     1     -10.957   7.290  -9.866  1.00  0.00     0.124 S 
ATOM     79  O   UNL     1     -12.362   7.559 -10.155  1.00  0.00    -0.237 OA
ATOM     80  O   UNL     1     -10.360   8.105  -8.811  1.00  0.00    -0.237 OA
ATOM     81  O   UNL     1     -10.105   7.078 -11.035  1.00  0.00    -0.744 OA
ENDBRANCH  77  78
ENDBRANCH  49  72
BRANCH  61  82
ATOM     82  C   UNL     1     -16.131  -1.204  -5.783  1.00  0.00    -0.014 A 
ATOM     83  C   UNL     1     -16.860  -1.356  -6.976  1.00  0.00     0.010 A 
ATOM     84  C   UNL     1     -16.823  -1.000  -4.575  1.00  0.00     0.010 A 
ATOM     85  C   UNL     1     -18.255  -1.279  -6.964  1.00  0.00     0.020 A 
ATOM     86  C   UNL     1     -18.219  -0.943  -4.557  1.00  0.00     0.020 A 
ATOM     87  C   UNL     1     -18.926  -1.069  -5.755  1.00  0.00     0.054 A 
BRANCH  87  88
ATOM     88  S   UNL     1     -20.740  -1.015  -5.755  1.00  0.00     0.124 S 
ATOM     89  O   UNL     1     -21.003   0.326  -6.269  1.00  0.00    -0.237 OA
ATOM     90  O   UNL     1     -21.097  -2.112  -6.651  1.00  0.00    -0.237 OA
ATOM     91  O   UNL     1     -21.091  -1.226  -4.353  1.00  0.00    -0.744 OA
ENDBRANCH  87  88
ENDBRANCH  61  82
ENDBRANCH  35  36
ENDBRANCH  28  30
ENDBRANCH  27  28
ENDBRANCH  26  27
ENDBRANCH  25  26
ENDBRANCH   1  25
TORSDOF 21
