REMARK SMILES O=C(N[C@@H](Cc1ccc(O)cc1)C(=O)N[C@@H](Cc1c[nH]c2ccccc12)C(=O)N[C@@H](CO)C(=O)OCCOC(=O)c1ccc(-c2c3nc(c(-c4ccc(S(=O)(=O)[O-])cc4)c4ccc([nH]4)c(-c4ccc(S(=O)(=O)[O-])cc4)c4nc(c(-c5ccc(S(=O)(=O)[O-])cc5)c5ccc2[nH]5)C=C4)C=C3)cc1)c1ccc(F)cc1
REMARK SMILES IDX 33 1 34 2 30 3 29 4 27 5 28 6 16 8 15 9 13 10 14 11 4 13
REMARK SMILES IDX 3 14 1 15 2 16 101 18 102 19 107 20 103 21 106 22 104 23
REMARK SMILES IDX 105 24 5 25 6 26 7 27 12 28 8 29 11 30 9 31 10 32 17 34
REMARK SMILES IDX 18 35 19 36 26 37 20 38 21 39 25 40 22 42 24 43 23 44 31 45
REMARK SMILES IDX 32 46 35 48 36 49 37 50 38 51 39 52 40 53 41 54 42 55 100 56
REMARK SMILES IDX 43 57 99 58 44 59 45 60 46 61 93 62 47 63 98 64 92 65 94 66
REMARK SMILES IDX 48 67 97 68 91 69 90 70 49 72 79 73 60 74 78 75 61 76 64 77
REMARK SMILES IDX 77 78 95 79 62 80 63 81 76 83 96 84 65 85 50 86 51 87 59 88
REMARK SMILES IDX 52 89 58 90 53 91 54 92 55 93 56 94 57 95 80 96 81 97 89 98
REMARK SMILES IDX 82 99 88 100 83 101 84 102 85 103 86 104 87 105 66 106
REMARK SMILES IDX 67 107 75 108 68 109 74 110 69 111 70 112 71 113 72 114
REMARK SMILES IDX 73 115
REMARK H PARENT 29 7 15 12 3 17 10 33 20 41 32 47 94 71 64 82
REMARK Flexibility Score: inf
ROOT
ATOM      1  C   UNL     1       4.867  -8.899   0.314  1.00  0.00     0.331 C 
ATOM      2  O   UNL     1       5.269  -9.911  -0.255  1.00  0.00    -0.250 OA
ENDROOT
BRANCH   1   3
ATOM      3  C   UNL     1       5.431  -7.470   0.027  1.00  0.00     0.218 C 
BRANCH   3   4
ATOM      4  N   UNL     1       5.120  -6.455   1.053  1.00  0.00    -0.339 N 
ATOM      5  C   UNL     1       4.000  -5.664   0.964  1.00  0.00     0.243 C 
ATOM      6  O   UNL     1       2.986  -6.022   1.572  1.00  0.00    -0.273 OA
ATOM      7  H   UNL     1       5.730  -6.342   1.817  1.00  0.00     0.164 HD
BRANCH   5   8
ATOM      8  C   UNL     1       4.016  -4.318   0.184  1.00  0.00     0.175 C 
BRANCH   8   9
ATOM      9  N   UNL     1       5.302  -3.716  -0.161  1.00  0.00    -0.342 N 
ATOM     10  C   UNL     1       5.732  -2.427   0.003  1.00  0.00     0.243 C 
ATOM     11  O   UNL     1       6.885  -2.184  -0.381  1.00  0.00    -0.273 OA
ATOM     12  H   UNL     1       5.955  -4.327  -0.572  1.00  0.00     0.164 HD
BRANCH  10  13
ATOM     13  C   UNL     1       4.951  -1.325   0.795  1.00  0.00     0.176 C 
BRANCH  13  14
ATOM     14  N   UNL     1       3.493  -1.249   0.619  1.00  0.00    -0.340 N 
ATOM     15  O   UNL     1       1.467  -0.356   0.335  1.00  0.00    -0.269 OA
ATOM     16  C   UNL     1       2.682  -0.214   0.234  1.00  0.00     0.251 C 
ATOM     17  H   UNL     1       3.017  -2.088   0.812  1.00  0.00     0.164 HD
BRANCH  16  18
ATOM     18  C   UNL     1       3.239   1.081  -0.206  1.00  0.00     0.040 A 
ATOM     19  C   UNL     1       4.198   1.165  -1.222  1.00  0.00     0.017 A 
ATOM     20  C   UNL     1       2.756   2.245   0.407  1.00  0.00     0.017 A 
ATOM     21  C   UNL     1       4.732   2.410  -1.563  1.00  0.00     0.040 A 
ATOM     22  C   UNL     1       3.287   3.487   0.057  1.00  0.00     0.040 A 
ATOM     23  C   UNL     1       4.281   3.556  -0.913  1.00  0.00     0.123 A 
ATOM     24  F   UNL     1       4.816   4.743  -1.228  1.00  0.00    -0.207 F 
ENDBRANCH  16  18
ENDBRANCH  13  14
BRANCH  13  25
ATOM     25  C   UNL     1       5.357  -1.297   2.288  1.00  0.00     0.070 C 
BRANCH  25  26
ATOM     26  C   UNL     1       5.067  -2.555   3.072  1.00  0.00    -0.045 A 
ATOM     27  C   UNL     1       3.790  -2.797   3.599  1.00  0.00     0.007 A 
ATOM     28  C   UNL     1       6.071  -3.521   3.244  1.00  0.00     0.007 A 
ATOM     29  C   UNL     1       3.501  -4.017   4.213  1.00  0.00     0.046 A 
ATOM     30  C   UNL     1       5.790  -4.727   3.884  1.00  0.00     0.046 A 
ATOM     31  C   UNL     1       4.498  -4.981   4.324  1.00  0.00     0.115 A 
BRANCH  31  32
ATOM     32  O   UNL     1       4.223  -6.226   4.806  1.00  0.00    -0.508 OA
ATOM     33  H   UNL     1       3.361  -6.431   5.111  1.00  0.00     0.293 HD
ENDBRANCH  31  32
ENDBRANCH  25  26
ENDBRANCH  13  25
ENDBRANCH  10  13
ENDBRANCH   8   9
BRANCH   8  34
ATOM     34  C   UNL     1       2.996  -4.218  -0.968  1.00  0.00     0.072 C 
BRANCH  34  35
ATOM     35  C   UNL     1       3.287  -5.072  -2.166  1.00  0.00    -0.020 A 
ATOM     36  C   UNL     1       3.823  -4.675  -3.376  1.00  0.00     0.087 A 
ATOM     37  C   UNL     1       3.014  -6.465  -2.290  1.00  0.00     0.003 A 
ATOM     38  N   UNL     1       3.906  -5.771  -4.197  1.00  0.00    -0.361 N 
ATOM     39  C   UNL     1       3.488  -6.894  -3.527  1.00  0.00     0.046 A 
ATOM     40  C   UNL     1       2.452  -7.416  -1.430  1.00  0.00     0.010 A 
ATOM     41  H   UNL     1       4.219  -5.754  -5.130  1.00  0.00     0.166 HD
ATOM     42  C   UNL     1       3.478  -8.239  -3.921  1.00  0.00     0.026 A 
ATOM     43  C   UNL     1       2.443  -8.759  -1.812  1.00  0.00     0.001 A 
ATOM     44  C   UNL     1       2.964  -9.172  -3.025  1.00  0.00     0.002 A 
ENDBRANCH  34  35
ENDBRANCH   8  34
ENDBRANCH   5   8
ENDBRANCH   3   4
BRANCH   3  45
ATOM     45  C   UNL     1       6.925  -7.533  -0.303  1.00  0.00     0.193 C 
BRANCH  45  46
ATOM     46  O   UNL     1       7.715  -7.874   0.832  1.00  0.00    -0.394 OA
ATOM     47  H   UNL     1       7.606  -7.197   1.518  1.00  0.00     0.210 HD
ENDBRANCH  45  46
ENDBRANCH   3  45
ENDBRANCH   1   3
BRANCH   1  48
ATOM     48  O   UNL     1       3.783  -8.896   1.164  1.00  0.00    -0.460 OA
BRANCH  48  49
ATOM     49  C   UNL     1       3.062 -10.149   1.231  1.00  0.00     0.274 C 
BRANCH  49  50
ATOM     50  C   UNL     1       1.585 -10.012   1.684  1.00  0.00     0.275 C 
BRANCH  50  51
ATOM     51  O   UNL     1       0.863  -8.923   1.051  1.00  0.00    -0.458 OA
BRANCH  51  52
ATOM     52  C   UNL     1      -0.307  -9.203   0.407  1.00  0.00     0.338 C 
ATOM     53  O   UNL     1      -0.813 -10.307   0.275  1.00  0.00    -0.246 OA
BRANCH  52  54
ATOM     54  C   UNL     1      -0.781  -7.989  -0.313  1.00  0.00     0.060 A 
ATOM     55  C   UNL     1      -0.599  -7.940  -1.684  1.00  0.00     0.016 A 
ATOM     56  C   UNL     1      -1.378  -6.889   0.289  1.00  0.00     0.016 A 
ATOM     57  C   UNL     1      -0.788  -6.739  -2.396  1.00  0.00     0.010 A 
ATOM     58  C   UNL     1      -1.642  -5.711  -0.473  1.00  0.00     0.010 A 
ATOM     59  C   UNL     1      -1.229  -5.536  -1.816  1.00  0.00    -0.014 A 
BRANCH  59  60
ATOM     60  C   UNL     1      -1.358  -4.204  -2.608  1.00  0.00     0.031 A 
ATOM     61  C   UNL     1      -1.804  -2.890  -1.945  1.00  0.00     0.074 A 
ATOM     62  C   UNL     1      -1.024  -4.010  -3.917  1.00  0.00     0.049 A 
ATOM     63  N   UNL     1      -2.457  -1.867  -2.458  1.00  0.00    -0.248 NA
ATOM     64  C   UNL     1      -1.410  -2.679  -0.545  1.00  0.00     0.031 C 
ATOM     65  C   UNL     1      -0.222  -4.872  -4.784  1.00  0.00     0.029 A 
ATOM     66  N   UNL     1      -1.379  -2.974  -4.779  1.00  0.00    -0.354 N 
ATOM     67  C   UNL     1      -2.646  -0.955  -1.417  1.00  0.00     0.074 A 
ATOM     68  C   UNL     1      -2.026  -1.542  -0.247  1.00  0.00     0.031 C 
ATOM     69  C   UNL     1      -0.271  -4.429  -6.047  1.00  0.00     0.029 A 
ATOM     70  C   UNL     1      -1.093  -3.231  -6.105  1.00  0.00     0.049 A 
ATOM     71  H   UNL     1      -1.794  -2.136  -4.471  1.00  0.00     0.167 HD
ATOM     72  C   UNL     1      -3.261   0.258  -1.417  1.00  0.00     0.031 A 
ATOM     73  C   UNL     1      -1.454  -2.641  -7.267  1.00  0.00     0.031 A 
ATOM     74  C   UNL     1      -3.746   0.957  -2.585  1.00  0.00     0.049 A 
ATOM     75  C   UNL     1      -2.326  -1.425  -7.288  1.00  0.00     0.074 A 
ATOM     76  C   UNL     1      -4.395   2.183  -2.650  1.00  0.00     0.029 A 
ATOM     77  N   UNL     1      -3.590   0.532  -3.890  1.00  0.00    -0.354 N 
ATOM     78  N   UNL     1      -2.747  -0.708  -6.280  1.00  0.00    -0.248 NA
ATOM     79  C   UNL     1      -2.785  -0.950  -8.604  1.00  0.00     0.031 C 
ATOM     80  C   UNL     1      -4.682   2.469  -3.991  1.00  0.00     0.029 A 
ATOM     81  C   UNL     1      -4.166   1.446  -4.763  1.00  0.00     0.049 A 
ATOM     82  H   UNL     1      -3.137  -0.298  -4.162  1.00  0.00     0.167 HD
ATOM     83  C   UNL     1      -3.523   0.301  -6.837  1.00  0.00     0.074 A 
ATOM     84  C   UNL     1      -3.499   0.119  -8.271  1.00  0.00     0.031 C 
ATOM     85  C   UNL     1      -4.195   1.285  -6.193  1.00  0.00     0.031 A 
BRANCH  72  86
ATOM     86  C   UNL     1      -3.549   0.898  -0.078  1.00  0.00    -0.014 A 
ATOM     87  C   UNL     1      -2.564   1.538   0.692  1.00  0.00     0.010 A 
ATOM     88  C   UNL     1      -4.882   0.898   0.382  1.00  0.00     0.010 A 
ATOM     89  C   UNL     1      -2.899   2.116   1.924  1.00  0.00     0.020 A 
ATOM     90  C   UNL     1      -5.225   1.497   1.595  1.00  0.00     0.020 A 
ATOM     91  C   UNL     1      -4.225   2.080   2.373  1.00  0.00     0.054 A 
BRANCH  91  92
ATOM     92  S   UNL     1      -4.635   2.813   3.982  1.00  0.00     0.124 S 
ATOM     93  O   UNL     1      -4.130   1.803   4.909  1.00  0.00    -0.237 OA
ATOM     94  O   UNL     1      -3.895   4.072   3.965  1.00  0.00    -0.237 OA
ATOM     95  O   UNL     1      -6.089   2.949   3.943  1.00  0.00    -0.744 OA
ENDBRANCH  91  92
ENDBRANCH  72  86
BRANCH  73  96
ATOM     96  C   UNL     1      -1.054  -3.286  -8.552  1.00  0.00    -0.014 A 
ATOM     97  C   UNL     1      -0.057  -2.727  -9.367  1.00  0.00     0.010 A 
ATOM     98  C   UNL     1      -1.647  -4.507  -8.926  1.00  0.00     0.010 A 
ATOM     99  C   UNL     1       0.368  -3.400 -10.517  1.00  0.00     0.020 A 
ATOM    100  C   UNL     1      -1.207  -5.193 -10.059  1.00  0.00     0.020 A 
ATOM    101  C   UNL     1      -0.198  -4.637 -10.845  1.00  0.00     0.054 A 
BRANCH 101 102
ATOM    102  S   UNL     1       0.466  -5.564 -12.257  1.00  0.00     0.124 S 
ATOM    103  O   UNL     1      -0.140  -4.871 -13.389  1.00  0.00    -0.237 OA
ATOM    104  O   UNL     1       1.908  -5.385 -12.102  1.00  0.00    -0.237 OA
ATOM    105  O   UNL     1      -0.010  -6.926 -12.024  1.00  0.00    -0.744 OA
ENDBRANCH 101 102
ENDBRANCH  73  96
BRANCH  85 106
ATOM    106  C   UNL     1      -4.981   2.254  -7.031  1.00  0.00    -0.014 A 
ATOM    107  C   UNL     1      -6.206   1.871  -7.609  1.00  0.00     0.010 A 
ATOM    108  C   UNL     1      -4.507   3.562  -7.239  1.00  0.00     0.010 A 
ATOM    109  C   UNL     1      -6.930   2.770  -8.397  1.00  0.00     0.020 A 
ATOM    110  C   UNL     1      -5.239   4.470  -8.013  1.00  0.00     0.020 A 
ATOM    111  C   UNL     1      -6.441   4.064  -8.598  1.00  0.00     0.054 A 
BRANCH 111 112
ATOM    112  S   UNL     1      -7.417   5.223  -9.598  1.00  0.00     0.124 S 
ATOM    113  O   UNL     1      -7.184   4.728 -10.952  1.00  0.00    -0.237 OA
ATOM    114  O   UNL     1      -8.771   5.030  -9.084  1.00  0.00    -0.237 OA
ATOM    115  O   UNL     1      -6.823   6.524  -9.299  1.00  0.00    -0.744 OA
ENDBRANCH 111 112
ENDBRANCH  85 106
ENDBRANCH  59  60
ENDBRANCH  52  54
ENDBRANCH  51  52
ENDBRANCH  50  51
ENDBRANCH  49  50
ENDBRANCH  48  49
ENDBRANCH   1  48
TORSDOF 27
