REMARK SMILES N#C[C@@H]1CN(C(=O)NCCCC(=O)OCCOC(=O)c2ccc(-c3c4nc(c(-c5ccc(S(=O)(=O)[O-])cc5)c5ccc([nH]5)c(-c5ccc(S(=O)(=O)[O-])cc5)c5nc(c(-c6ccc(S(=O)(=O)[O-])cc6)c6ccc3[nH]6)C=C5)C=C4)cc2)CCO1
REMARK SMILES IDX 15 1 14 2 12 3 13 4 11 5 10 6 9 7 8 8 6 9 7 10 5 12 3 13
REMARK SMILES IDX 4 14 82 15 81 16 80 17 2 18 1 19 16 20 17 21 18 22 19 23
REMARK SMILES IDX 20 24 21 25 79 26 22 27 78 28 23 29 24 30 25 31 72 32 26 33
REMARK SMILES IDX 77 34 71 35 73 36 27 37 76 38 70 39 69 40 28 42 58 43 39 44
REMARK SMILES IDX 57 45 40 46 43 47 56 48 74 49 41 50 42 51 55 53 75 54 44 55
REMARK SMILES IDX 29 56 30 57 38 58 31 59 37 60 32 61 33 62 34 63 35 64 36 65
REMARK SMILES IDX 59 66 60 67 68 68 61 69 67 70 62 71 63 72 64 73 65 74 66 75
REMARK SMILES IDX 45 76 46 77 54 78 47 79 53 80 48 81 49 82 50 83 51 84 52 85
REMARK H PARENT 8 11 73 41 43 52
REMARK Flexibility Score: inf
ROOT
ATOM      1  C   UNL     1      -0.688   5.904  -0.860  1.00  0.00     0.274 C 
ENDROOT
BRANCH   1   2
ATOM      2  O   UNL     1       0.358   5.325  -1.660  1.00  0.00    -0.462 OA
BRANCH   2   3
ATOM      3  C   UNL     1       1.068   6.143  -2.475  1.00  0.00     0.305 C 
ATOM      4  O   UNL     1       0.836   7.330  -2.651  1.00  0.00    -0.252 OA
BRANCH   3   5
ATOM      5  C   UNL     1       2.176   5.391  -3.184  1.00  0.00     0.124 C 
BRANCH   5   6
ATOM      6  C   UNL     1       3.046   4.541  -2.255  1.00  0.00     0.033 C 
BRANCH   6   7
ATOM      7  C   UNL     1       2.382   3.230  -1.833  1.00  0.00     0.118 C 
BRANCH   7   8
ATOM      8  N   UNL     1       2.454   2.253  -2.904  1.00  0.00    -0.338 N 
ATOM      9  C   UNL     1       3.116   1.128  -3.200  1.00  0.00     0.317 C 
ATOM     10  O   UNL     1       2.829   0.626  -4.291  1.00  0.00    -0.249 OA
ATOM     11  H   UNL     1       1.829   2.488  -3.628  1.00  0.00     0.165 HD
BRANCH   9  12
ATOM     12  N   UNL     1       4.008   0.537  -2.362  1.00  0.00    -0.319 N 
ATOM     13  C   UNL     1       3.682  -0.009  -0.006  1.00  0.00     0.240 C 
ATOM     14  C   UNL     1       4.385   0.910  -1.006  1.00  0.00     0.169 C 
ATOM     15  O   UNL     1       4.157  -1.373  -0.267  1.00  0.00    -0.360 OA
ATOM     16  C   UNL     1       3.878  -1.799  -1.624  1.00  0.00     0.183 C 
ATOM     17  C   UNL     1       4.449  -0.828  -2.673  1.00  0.00     0.150 C 
BRANCH  13  18
ATOM     18  C   UNL     1       2.162  -0.009  -0.006  1.00  0.00     0.096 C 
ATOM     19  N   UNL     1       0.901  -0.009  -0.006  1.00  0.00    -0.195 NA
ENDBRANCH  13  18
ENDBRANCH   9  12
ENDBRANCH   7   8
ENDBRANCH   6   7
ENDBRANCH   5   6
ENDBRANCH   3   5
ENDBRANCH   2   3
ENDBRANCH   1   2
BRANCH   1  20
ATOM     20  C   UNL     1      -0.192   6.165   0.563  1.00  0.00     0.275 C 
BRANCH  20  21
ATOM     21  O   UNL     1       0.697   7.296   0.584  1.00  0.00    -0.458 OA
BRANCH  21  22
ATOM     22  C   UNL     1       2.017   7.011   0.627  1.00  0.00     0.338 C 
ATOM     23  O   UNL     1       2.533   5.907   0.749  1.00  0.00    -0.246 OA
BRANCH  22  24
ATOM     24  C   UNL     1       2.777   8.241   0.358  1.00  0.00     0.060 A 
ATOM     25  C   UNL     1       3.563   8.307  -0.796  1.00  0.00     0.016 A 
ATOM     26  C   UNL     1       2.735   9.314   1.250  1.00  0.00     0.016 A 
ATOM     27  C   UNL     1       4.310   9.451  -1.067  1.00  0.00     0.010 A 
ATOM     28  C   UNL     1       3.485  10.462   0.977  1.00  0.00     0.010 A 
ATOM     29  C   UNL     1       4.281  10.534  -0.179  1.00  0.00    -0.014 A 
BRANCH  29  30
ATOM     30  C   UNL     1       5.117  11.730  -0.441  1.00  0.00     0.031 A 
ATOM     31  C   UNL     1       6.368  11.954   0.359  1.00  0.00     0.074 A 
ATOM     32  C   UNL     1       4.758  12.606  -1.398  1.00  0.00     0.049 A 
ATOM     33  N   UNL     1       7.199  12.963   0.327  1.00  0.00    -0.248 NA
ATOM     34  C   UNL     1       6.730  10.903   1.323  1.00  0.00     0.031 C 
ATOM     35  C   UNL     1       3.591  12.473  -2.270  1.00  0.00     0.029 A 
ATOM     36  N   UNL     1       5.342  13.782  -1.794  1.00  0.00    -0.354 N 
ATOM     37  C   UNL     1       8.176  12.679   1.274  1.00  0.00     0.074 A 
ATOM     38  C   UNL     1       7.821  11.412   1.878  1.00  0.00     0.031 C 
ATOM     39  C   UNL     1       3.547  13.526  -3.104  1.00  0.00     0.029 A 
ATOM     40  C   UNL     1       4.656  14.426  -2.796  1.00  0.00     0.049 A 
ATOM     41  H   UNL     1       6.173  14.132  -1.399  1.00  0.00     0.167 HD
ATOM     42  C   UNL     1       9.268  13.407   1.609  1.00  0.00     0.031 A 
ATOM     43  C   UNL     1       4.882  15.617  -3.383  1.00  0.00     0.031 A 
ATOM     44  C   UNL     1       9.608  14.673   1.016  1.00  0.00     0.049 A 
ATOM     45  C   UNL     1       6.061  16.442  -2.945  1.00  0.00     0.074 A 
ATOM     46  C   UNL     1      10.694  15.488   1.288  1.00  0.00     0.029 A 
ATOM     47  N   UNL     1       8.865  15.312   0.034  1.00  0.00    -0.354 N 
ATOM     48  N   UNL     1       6.974  16.160  -2.046  1.00  0.00    -0.248 NA
ATOM     49  C   UNL     1       6.239  17.745  -3.599  1.00  0.00     0.031 C 
ATOM     50  C   UNL     1      10.582  16.641   0.503  1.00  0.00     0.029 A 
ATOM     51  C   UNL     1       9.455  16.521  -0.295  1.00  0.00     0.049 A 
ATOM     52  H   UNL     1       8.040  14.958  -0.369  1.00  0.00     0.167 HD
ATOM     53  C   UNL     1       7.846  17.243  -2.040  1.00  0.00     0.074 A 
ATOM     54  C   UNL     1       7.358  18.178  -3.034  1.00  0.00     0.031 C 
ATOM     55  C   UNL     1       8.953  17.444  -1.282  1.00  0.00     0.031 A 
BRANCH  42  56
ATOM     56  C   UNL     1      10.147  12.862   2.702  1.00  0.00    -0.014 A 
ATOM     57  C   UNL     1      10.977  11.748   2.482  1.00  0.00     0.010 A 
ATOM     58  C   UNL     1      10.147  13.477   3.967  1.00  0.00     0.010 A 
ATOM     59  C   UNL     1      11.752  11.228   3.522  1.00  0.00     0.020 A 
ATOM     60  C   UNL     1      10.939  12.975   5.003  1.00  0.00     0.020 A 
ATOM     61  C   UNL     1      11.720  11.839   4.779  1.00  0.00     0.054 A 
BRANCH  61  62
ATOM     62  S   UNL     1      12.726  11.139   6.117  1.00  0.00     0.124 S 
ATOM     63  O   UNL     1      11.953   9.954   6.483  1.00  0.00    -0.237 OA
ATOM     64  O   UNL     1      14.002  10.876   5.457  1.00  0.00    -0.237 OA
ATOM     65  O   UNL     1      12.754  12.200   7.121  1.00  0.00    -0.744 OA
ENDBRANCH  61  62
ENDBRANCH  42  56
BRANCH  43  66
ATOM     66  C   UNL     1       3.956  16.106  -4.440  1.00  0.00    -0.014 A 
ATOM     67  C   UNL     1       4.365  16.149  -5.784  1.00  0.00     0.010 A 
ATOM     68  C   UNL     1       2.650  16.510  -4.109  1.00  0.00     0.010 A 
ATOM     69  C   UNL     1       3.486  16.591  -6.777  1.00  0.00     0.020 A 
ATOM     70  C   UNL     1       1.760  16.930  -5.101  1.00  0.00     0.020 A 
ATOM     71  C   UNL     1       2.187  16.976  -6.430  1.00  0.00     0.054 A 
BRANCH  71  72
ATOM     72  S   UNL     1       1.040  17.481  -7.742  1.00  0.00     0.124 S 
ATOM     73  O   UNL     1       1.517  18.823  -8.061  1.00  0.00    -0.237 OA
ATOM     74  O   UNL     1       1.268  16.468  -8.770  1.00  0.00    -0.237 OA
ATOM     75  O   UNL     1      -0.268  17.418  -7.095  1.00  0.00    -0.744 OA
ENDBRANCH  71  72
ENDBRANCH  43  66
BRANCH  55  76
ATOM     76  C   UNL     1       9.729  18.712  -1.516  1.00  0.00    -0.014 A 
ATOM     77  C   UNL     1       9.252  19.951  -1.055  1.00  0.00     0.010 A 
ATOM     78  C   UNL     1      10.978  18.652  -2.160  1.00  0.00     0.010 A 
ATOM     79  C   UNL     1       9.999  21.115  -1.260  1.00  0.00     0.020 A 
ATOM     80  C   UNL     1      11.738  19.810  -2.346  1.00  0.00     0.020 A 
ATOM     81  C   UNL     1      11.237  21.037  -1.906  1.00  0.00     0.054 A 
BRANCH  81  82
ATOM     82  S   UNL     1      12.210  22.552  -2.121  1.00  0.00     0.124 S 
ATOM     83  O   UNL     1      11.513  23.207  -3.224  1.00  0.00    -0.237 OA
ATOM     84  O   UNL     1      12.082  23.206  -0.821  1.00  0.00    -0.237 OA
ATOM     85  O   UNL     1      13.550  22.061  -2.434  1.00  0.00    -0.744 OA
ENDBRANCH  81  82
ENDBRANCH  55  76
ENDBRANCH  29  30
ENDBRANCH  22  24
ENDBRANCH  21  22
ENDBRANCH  20  21
ENDBRANCH   1  20
TORSDOF 19
