REMARK SMILES CC[C@@H](C)N(CC(=O)OCCOC(=O)c1ccc(-c2c3nc(c(-c4ccc(S(=O)(=O)[O-])cc4)c4ccc([nH]4)c(-c4ccc(S(=O)(=O)[O-])cc4)c4nc(c(-c5ccc(S(=O)(=O)[O-])cc5)c5ccc2[nH]5)C=C4)C=C3)cc1)C(=O)NCc1cscc1C
REMARK SMILES IDX 10 1 9 2 7 3 8 4 6 5 5 6 3 7 4 8 2 9 1 10 75 11 76 12 77 13
REMARK SMILES IDX 78 15 79 16 80 17 83 18 81 19 82 20 84 21 11 22 12 23 13 24
REMARK SMILES IDX 14 25 15 26 16 27 74 28 17 29 73 30 18 31 19 32 20 33 67 34
REMARK SMILES IDX 21 35 72 36 66 37 68 38 22 39 71 40 65 41 64 42 23 44 53 45
REMARK SMILES IDX 34 46 52 47 35 48 38 49 51 50 69 51 36 52 37 53 50 55 70 56
REMARK SMILES IDX 39 57 24 58 25 59 33 60 26 61 32 62 27 63 28 64 29 65 30 66
REMARK SMILES IDX 31 67 54 68 55 69 63 70 56 71 62 72 57 73 58 74 59 75 60 76
REMARK SMILES IDX 61 77 40 78 41 79 49 80 42 81 48 82 43 83 44 84 45 85 46 86
REMARK SMILES IDX 47 87
REMARK H PARENT 77 14 68 43 38 54
REMARK Flexibility Score: inf
ROOT
ATOM      1  C   UNL     1       2.603   0.932   6.963  1.00  0.00     0.274 C 
ENDROOT
BRANCH   1   2
ATOM      2  O   UNL     1       1.627   0.554   5.966  1.00  0.00    -0.461 OA
BRANCH   2   3
ATOM      3  C   UNL     1       1.946  -0.569   5.263  1.00  0.00     0.325 C 
ATOM      4  O   UNL     1       2.989  -1.201   5.414  1.00  0.00    -0.250 OA
BRANCH   3   5
ATOM      5  C   UNL     1       0.813  -1.096   4.379  1.00  0.00     0.244 C 
BRANCH   5   6
ATOM      6  N   UNL     1       0.042  -0.129   3.598  1.00  0.00    -0.311 N 
BRANCH   6   7
ATOM      7  C   UNL     1       0.839   0.475   2.494  1.00  0.00     0.084 C 
ATOM      8  C   UNL     1       0.666   1.993   2.371  1.00  0.00     0.031 C 
BRANCH   7   9
ATOM      9  C   UNL     1       0.616  -0.304   1.179  1.00  0.00     0.021 C 
ATOM     10  C   UNL     1       1.428   0.210   0.002  1.00  0.00     0.006 C 
ENDBRANCH   7   9
ENDBRANCH   6   7
BRANCH   6  11
ATOM     11  C   UNL     1      -1.314   0.048   3.575  1.00  0.00     0.318 C 
ATOM     12  O   UNL     1      -1.861   0.700   2.676  1.00  0.00    -0.249 OA
ATOM     13  N   UNL     1      -2.182  -0.427   4.472  1.00  0.00    -0.334 N 
ATOM     14  H   UNL     1      -3.103  -0.254   4.170  1.00  0.00     0.165 HD
BRANCH  13  15
ATOM     15  C   UNL     1      -2.204  -1.111   5.742  1.00  0.00     0.154 C 
BRANCH  15  16
ATOM     16  C   UNL     1      -2.701  -0.232   6.860  1.00  0.00    -0.015 A 
ATOM     17  C   UNL     1      -3.347  -0.773   7.963  1.00  0.00     0.070 A 
ATOM     18  C   UNL     1      -2.503   1.196   7.038  1.00  0.00    -0.035 A 
ATOM     19  S   UNL     1      -3.667   0.363   9.191  1.00  0.00    -0.152 S 
ATOM     20  C   UNL     1      -2.966   1.614   8.274  1.00  0.00     0.068 A 
ATOM     21  C   UNL     1      -1.847   2.125   6.071  1.00  0.00     0.045 C 
ENDBRANCH  15  16
ENDBRANCH  13  15
ENDBRANCH   6  11
ENDBRANCH   5   6
ENDBRANCH   3   5
ENDBRANCH   2   3
ENDBRANCH   1   2
BRANCH   1  22
ATOM     22  C   UNL     1       2.322   0.300   8.330  1.00  0.00     0.275 C 
BRANCH  22  23
ATOM     23  O   UNL     1       2.045  -1.107   8.209  1.00  0.00    -0.458 OA
BRANCH  23  24
ATOM     24  C   UNL     1       0.727  -1.401   8.301  1.00  0.00     0.338 C 
ATOM     25  O   UNL     1      -0.163  -0.603   8.542  1.00  0.00    -0.246 OA
BRANCH  24  26
ATOM     26  C   UNL     1       0.422  -2.824   8.062  1.00  0.00     0.060 A 
ATOM     27  C   UNL     1       1.012  -3.564   7.034  1.00  0.00     0.016 A 
ATOM     28  C   UNL     1      -0.605  -3.384   8.829  1.00  0.00     0.016 A 
ATOM     29  C   UNL     1       0.549  -4.855   6.757  1.00  0.00     0.010 A 
ATOM     30  C   UNL     1      -1.021  -4.693   8.596  1.00  0.00     0.010 A 
ATOM     31  C   UNL     1      -0.446  -5.440   7.560  1.00  0.00    -0.014 A 
BRANCH  31  32
ATOM     32  C   UNL     1      -0.731  -6.892   7.480  1.00  0.00     0.031 A 
ATOM     33  C   UNL     1      -2.044  -7.430   6.990  1.00  0.00     0.074 A 
ATOM     34  C   UNL     1       0.201  -7.722   7.986  1.00  0.00     0.049 A 
ATOM     35  N   UNL     1      -2.462  -8.670   6.974  1.00  0.00    -0.248 NA
ATOM     36  C   UNL     1      -3.013  -6.460   6.459  1.00  0.00     0.031 C 
ATOM     37  C   UNL     1       1.493  -7.298   8.534  1.00  0.00     0.029 A 
ATOM     38  N   UNL     1       0.198  -9.081   8.152  1.00  0.00    -0.354 N 
ATOM     39  C   UNL     1      -3.747  -8.636   6.445  1.00  0.00     0.074 A 
ATOM     40  C   UNL     1      -4.043  -7.245   6.160  1.00  0.00     0.031 C 
ATOM     41  C   UNL     1       2.154  -8.372   8.983  1.00  0.00     0.029 A 
ATOM     42  C   UNL     1       1.319  -9.551   8.792  1.00  0.00     0.049 A 
ATOM     43  H   UNL     1      -0.534  -9.663   7.845  1.00  0.00     0.167 HD
ATOM     44  C   UNL     1      -4.595  -9.670   6.223  1.00  0.00     0.031 A 
ATOM     45  C   UNL     1       1.638 -10.787   9.211  1.00  0.00     0.031 A 
ATOM     46  C   UNL     1      -4.290 -11.048   6.522  1.00  0.00     0.049 A 
ATOM     47  C   UNL     1       0.686 -11.910   8.956  1.00  0.00     0.074 A 
ATOM     48  C   UNL     1      -5.058 -12.175   6.275  1.00  0.00     0.029 A 
ATOM     49  N   UNL     1      -3.131 -11.489   7.146  1.00  0.00    -0.354 N 
ATOM     50  N   UNL     1      -0.501 -11.863   8.402  1.00  0.00    -0.248 NA
ATOM     51  C   UNL     1       1.119 -13.249   9.368  1.00  0.00     0.031 C 
ATOM     52  C   UNL     1      -4.381 -13.290   6.784  1.00  0.00     0.029 A 
ATOM     53  C   UNL     1      -3.174 -12.864   7.312  1.00  0.00     0.049 A 
ATOM     54  H   UNL     1      -2.388 -10.909   7.428  1.00  0.00     0.167 HD
ATOM     55  C   UNL     1      -0.959 -13.172   8.389  1.00  0.00     0.074 A 
ATOM     56  C   UNL     1       0.086 -13.987   8.980  1.00  0.00     0.031 C 
ATOM     57  C   UNL     1      -2.137 -13.655   7.926  1.00  0.00     0.031 A 
BRANCH  44  58
ATOM     58  C   UNL     1      -5.950  -9.363   5.641  1.00  0.00    -0.014 A 
ATOM     59  C   UNL     1      -6.102  -9.057   4.277  1.00  0.00     0.010 A 
ATOM     60  C   UNL     1      -7.098  -9.469   6.449  1.00  0.00     0.010 A 
ATOM     61  C   UNL     1      -7.375  -8.842   3.736  1.00  0.00     0.020 A 
ATOM     62  C   UNL     1      -8.373  -9.271   5.909  1.00  0.00     0.020 A 
ATOM     63  C   UNL     1      -8.502  -8.946   4.557  1.00  0.00     0.054 A 
BRANCH  63  64
ATOM     64  S   UNL     1     -10.147  -8.707   3.825  1.00  0.00     0.124 S 
ATOM     65  O   UNL     1     -10.226  -7.251   3.737  1.00  0.00    -0.237 OA
ATOM     66  O   UNL     1     -10.040  -9.408   2.548  1.00  0.00    -0.237 OA
ATOM     67  O   UNL     1     -11.049  -9.324   4.795  1.00  0.00    -0.744 OA
ENDBRANCH  63  64
ENDBRANCH  44  58
BRANCH  45  68
ATOM     68  C   UNL     1       2.930 -10.988   9.909  1.00  0.00    -0.014 A 
ATOM     69  C   UNL     1       4.041 -11.486   9.209  1.00  0.00     0.010 A 
ATOM     70  C   UNL     1       3.087 -10.553  11.238  1.00  0.00     0.010 A 
ATOM     71  C   UNL     1       5.296 -11.526   9.820  1.00  0.00     0.020 A 
ATOM     72  C   UNL     1       4.344 -10.576  11.845  1.00  0.00     0.020 A 
ATOM     73  C   UNL     1       5.442 -11.061  11.131  1.00  0.00     0.054 A 
BRANCH  73  74
ATOM     74  S   UNL     1       7.101 -10.992  11.862  1.00  0.00     0.124 S 
ATOM     75  O   UNL     1       7.286 -12.365  12.322  1.00  0.00    -0.237 OA
ATOM     76  O   UNL     1       7.934 -10.585  10.732  1.00  0.00    -0.237 OA
ATOM     77  O   UNL     1       6.965  -9.988  12.914  1.00  0.00    -0.744 OA
ENDBRANCH  73  74
ENDBRANCH  45  68
BRANCH  57  78
ATOM     78  C   UNL     1      -2.343 -15.137   8.040  1.00  0.00    -0.014 A 
ATOM     79  C   UNL     1      -2.680 -15.723   9.273  1.00  0.00     0.010 A 
ATOM     80  C   UNL     1      -2.190 -15.952   6.905  1.00  0.00     0.010 A 
ATOM     81  C   UNL     1      -2.821 -17.108   9.378  1.00  0.00     0.020 A 
ATOM     82  C   UNL     1      -2.346 -17.336   7.004  1.00  0.00     0.020 A 
ATOM     83  C   UNL     1      -2.641 -17.907   8.244  1.00  0.00     0.054 A 
BRANCH  83  84
ATOM     84  S   UNL     1      -2.829 -19.705   8.397  1.00  0.00     0.124 S 
ATOM     85  O   UNL     1      -1.535 -20.098   8.946  1.00  0.00    -0.237 OA
ATOM     86  O   UNL     1      -3.965 -19.838   9.306  1.00  0.00    -0.237 OA
ATOM     87  O   UNL     1      -3.084 -20.140   7.025  1.00  0.00    -0.744 OA
ENDBRANCH  83  84
ENDBRANCH  57  78
ENDBRANCH  31  32
ENDBRANCH  24  26
ENDBRANCH  23  24
ENDBRANCH  22  23
ENDBRANCH   1  22
TORSDOF 20
