REMARK SMILES CC(C)C[C@H](NC(=O)[C@H](Cc1ccccc1)NC(=O)CNC(=O)C[NH3+])C(=O)OCCOC(=O)c1ccc(-c2c3nc(c(-c4ccc(S(=O)(=O)[O-])cc4)c4ccc([nH]4)c(-c4ccc(S(=O)(=O)[O-])cc4)c4nc(c(-c5ccc(S(=O)(=O)[O-])cc5)c5ccc2[nH]5)C=C4)C=C3)cc1
REMARK SMILES IDX 26 1 27 2 5 3 4 4 2 5 1 6 3 7 6 8 7 9 8 11 9 12 17 13 18 14
REMARK SMILES IDX 19 16 20 17 21 18 22 19 23 21 24 22 25 23 10 27 11 28 12 29
REMARK SMILES IDX 16 30 13 31 15 32 14 33 28 34 29 35 30 36 31 37 32 38 33 39
REMARK SMILES IDX 34 40 35 41 93 42 36 43 92 44 37 45 38 46 39 47 86 48 40 49
REMARK SMILES IDX 91 50 85 51 87 52 41 53 90 54 84 55 83 56 42 58 72 59 53 60
REMARK SMILES IDX 71 61 54 62 57 63 70 64 88 65 55 66 56 67 69 69 89 70 58 71
REMARK SMILES IDX 43 72 44 73 52 74 45 75 51 76 46 77 47 78 48 79 49 80 50 81
REMARK SMILES IDX 73 82 74 83 82 84 75 85 81 86 76 87 77 88 78 89 79 90 80 91
REMARK SMILES IDX 59 92 60 93 68 94 61 95 67 96 62 97 63 98 64 99 65 100
REMARK SMILES IDX 66 101
REMARK H PARENT 6 10 17 15 21 20 25 24 25 25 25 26 87 57 57 68
REMARK Flexibility Score: inf
ROOT
ATOM      1  C   UNL     1      -5.776  -4.043   2.401  1.00  0.00     0.328 C 
ATOM      2  O   UNL     1      -5.827  -3.943   1.180  1.00  0.00    -0.250 OA
ENDROOT
BRANCH   1   3
ATOM      3  C   UNL     1      -5.880  -2.824   3.328  1.00  0.00     0.192 C 
BRANCH   3   4
ATOM      4  C   UNL     1      -4.542  -2.046   3.364  1.00  0.00     0.040 C 
BRANCH   4   5
ATOM      5  C   UNL     1      -3.220  -2.860   3.333  1.00  0.00    -0.015 C 
ATOM      6  C   UNL     1      -2.749  -3.192   1.907  1.00  0.00     0.007 C 
ATOM      7  C   UNL     1      -2.096  -2.057   3.999  1.00  0.00     0.007 C 
ENDBRANCH   4   5
ENDBRANCH   3   4
BRANCH   3   8
ATOM      8  N   UNL     1      -6.364  -3.164   4.666  1.00  0.00    -0.341 N 
ATOM      9  C   UNL     1      -7.408  -2.669   5.401  1.00  0.00     0.243 C 
ATOM     10  H   UNL     1      -5.850  -3.873   5.116  1.00  0.00     0.164 HD
ATOM     11  O   UNL     1      -7.694  -3.316   6.416  1.00  0.00    -0.273 OA
BRANCH   9  12
ATOM     12  C   UNL     1      -8.241  -1.403   4.988  1.00  0.00     0.175 C 
BRANCH  12  13
ATOM     13  N   UNL     1      -9.363  -1.764   4.112  1.00  0.00    -0.342 N 
ATOM     14  C   UNL     1      -9.783  -1.164   2.957  1.00  0.00     0.240 C 
ATOM     15  H   UNL     1      -9.887  -2.548   4.397  1.00  0.00     0.164 HD
ATOM     16  O   UNL     1     -10.972  -1.263   2.651  1.00  0.00    -0.273 OA
BRANCH  14  17
ATOM     17  C   UNL     1      -8.800  -0.401   2.040  1.00  0.00     0.216 C 
BRANCH  17  18
ATOM     18  N   UNL     1      -8.726   1.037   2.193  1.00  0.00    -0.342 N 
ATOM     19  C   UNL     1      -7.667   1.829   2.520  1.00  0.00     0.275 C 
ATOM     20  H   UNL     1      -9.572   1.516   2.038  1.00  0.00     0.164 HD
ATOM     21  O   UNL     1      -7.855   3.034   2.700  1.00  0.00    -0.268 OA
BRANCH  19  22
ATOM     22  C   UNL     1      -6.278   1.227   2.743  1.00  0.00     0.360 C 
BRANCH  22  23
ATOM     23  N   UNL     1      -6.025   1.076   4.186  1.00  0.00    -0.350 N 
ATOM     24  H   UNL     1      -6.070   1.990   4.637  1.00  0.00     0.344 HD
ATOM     25  H   UNL     1      -5.099   0.672   4.328  1.00  0.00     0.344 HD
ATOM     26  H   UNL     1      -6.730   0.461   4.592  1.00  0.00     0.344 HD
ENDBRANCH  22  23
ENDBRANCH  19  22
ENDBRANCH  17  18
ENDBRANCH  14  17
ENDBRANCH  12  13
BRANCH  12  27
ATOM     27  C   UNL     1      -8.777  -0.757   6.324  1.00  0.00     0.070 C 
BRANCH  27  28
ATOM     28  C   UNL     1      -9.760   0.403   6.349  1.00  0.00    -0.045 A 
ATOM     29  C   UNL     1      -9.978   1.251   5.269  1.00  0.00     0.004 A 
ATOM     30  C   UNL     1     -10.482   0.677   7.524  1.00  0.00     0.004 A 
ATOM     31  C   UNL     1     -10.924   2.280   5.301  1.00  0.00     0.000 A 
ATOM     32  C   UNL     1     -11.415   1.722   7.579  1.00  0.00     0.000 A 
ATOM     33  C   UNL     1     -11.648   2.515   6.460  1.00  0.00     0.000 A 
ENDBRANCH  27  28
ENDBRANCH  12  27
ENDBRANCH   9  12
ENDBRANCH   3   8
ENDBRANCH   1   3
BRANCH   1  34
ATOM     34  O   UNL     1      -5.448  -5.182   3.077  1.00  0.00    -0.461 OA
BRANCH  34  35
ATOM     35  C   UNL     1      -5.049  -6.309   2.269  1.00  0.00     0.274 C 
BRANCH  35  36
ATOM     36  C   UNL     1      -6.146  -7.368   2.150  1.00  0.00     0.275 C 
BRANCH  36  37
ATOM     37  O   UNL     1      -7.264  -6.886   1.388  1.00  0.00    -0.458 OA
BRANCH  37  38
ATOM     38  C   UNL     1      -8.209  -6.258   2.120  1.00  0.00     0.338 C 
ATOM     39  O   UNL     1      -8.226  -6.114   3.337  1.00  0.00    -0.246 OA
BRANCH  38  40
ATOM     40  C   UNL     1      -9.141  -5.568   1.226  1.00  0.00     0.060 A 
ATOM     41  C   UNL     1      -9.074  -4.178   1.198  1.00  0.00     0.016 A 
ATOM     42  C   UNL     1     -10.128  -6.247   0.511  1.00  0.00     0.016 A 
ATOM     43  C   UNL     1     -10.010  -3.460   0.475  1.00  0.00     0.010 A 
ATOM     44  C   UNL     1     -11.084  -5.511  -0.202  1.00  0.00     0.010 A 
ATOM     45  C   UNL     1     -11.045  -4.107  -0.197  1.00  0.00    -0.014 A 
BRANCH  45  46
ATOM     46  C   UNL     1     -12.155  -3.273  -0.718  1.00  0.00     0.031 A 
ATOM     47  C   UNL     1     -13.480  -3.310  -0.009  1.00  0.00     0.074 A 
ATOM     48  C   UNL     1     -11.953  -2.387  -1.712  1.00  0.00     0.049 A 
ATOM     49  N   UNL     1     -14.632  -2.817  -0.381  1.00  0.00    -0.248 NA
ATOM     50  C   UNL     1     -13.511  -4.000   1.292  1.00  0.00     0.031 C 
ATOM     51  C   UNL     1     -10.671  -2.125  -2.370  1.00  0.00     0.029 A 
ATOM     52  N   UNL     1     -12.825  -1.523  -2.325  1.00  0.00    -0.354 N 
ATOM     53  C   UNL     1     -15.536  -3.192   0.607  1.00  0.00     0.074 A 
ATOM     54  C   UNL     1     -14.799  -3.943   1.598  1.00  0.00     0.031 C 
ATOM     55  C   UNL     1     -10.839  -1.153  -3.283  1.00  0.00     0.029 A 
ATOM     56  C   UNL     1     -12.252  -0.790  -3.336  1.00  0.00     0.049 A 
ATOM     57  H   UNL     1     -13.770  -1.437  -2.066  1.00  0.00     0.167 HD
ATOM     58  C   UNL     1     -16.864  -2.941   0.667  1.00  0.00     0.031 A 
ATOM     59  C   UNL     1     -12.813   0.038  -4.240  1.00  0.00     0.031 A 
ATOM     60  C   UNL     1     -17.570  -2.146  -0.303  1.00  0.00     0.049 A 
ATOM     61  C   UNL     1     -14.304   0.237  -4.210  1.00  0.00     0.074 A 
ATOM     62  C   UNL     1     -18.922  -1.863  -0.370  1.00  0.00     0.029 A 
ATOM     63  N   UNL     1     -16.967  -1.483  -1.362  1.00  0.00    -0.354 N 
ATOM     64  N   UNL     1     -15.182  -0.240  -3.359  1.00  0.00    -0.248 NA
ATOM     65  C   UNL     1     -14.884   1.063  -5.277  1.00  0.00     0.031 C 
ATOM     66  C   UNL     1     -19.142  -1.059  -1.494  1.00  0.00     0.029 A 
ATOM     67  C   UNL     1     -17.920  -0.801  -2.097  1.00  0.00     0.049 A 
ATOM     68  H   UNL     1     -16.003  -1.495  -1.560  1.00  0.00     0.167 HD
ATOM     69  C   UNL     1     -16.418   0.233  -3.784  1.00  0.00     0.074 A 
ATOM     70  C   UNL     1     -16.171   1.052  -4.954  1.00  0.00     0.031 C 
ATOM     71  C   UNL     1     -17.647   0.005  -3.259  1.00  0.00     0.031 A 
BRANCH  58  72
ATOM     72  C   UNL     1     -17.647  -3.602   1.769  1.00  0.00    -0.014 A 
ATOM     73  C   UNL     1     -17.572  -3.165   3.103  1.00  0.00     0.010 A 
ATOM     74  C   UNL     1     -18.488  -4.684   1.449  1.00  0.00     0.010 A 
ATOM     75  C   UNL     1     -18.298  -3.822   4.102  1.00  0.00     0.020 A 
ATOM     76  C   UNL     1     -19.233  -5.328   2.440  1.00  0.00     0.020 A 
ATOM     77  C   UNL     1     -19.119  -4.904   3.764  1.00  0.00     0.054 A 
BRANCH  77  78
ATOM     78  S   UNL     1     -20.063  -5.734   5.073  1.00  0.00     0.124 S 
ATOM     79  O   UNL     1     -19.025  -6.508   5.749  1.00  0.00    -0.237 OA
ATOM     80  O   UNL     1     -20.610  -4.615   5.837  1.00  0.00    -0.237 OA
ATOM     81  O   UNL     1     -21.050  -6.524   4.342  1.00  0.00    -0.744 OA
ENDBRANCH  77  78
ENDBRANCH  58  72
BRANCH  59  82
ATOM     82  C   UNL     1     -11.973   0.661  -5.300  1.00  0.00    -0.014 A 
ATOM     83  C   UNL     1     -11.753   2.049  -5.327  1.00  0.00     0.010 A 
ATOM     84  C   UNL     1     -11.376  -0.144  -6.289  1.00  0.00     0.010 A 
ATOM     85  C   UNL     1     -10.953   2.619  -6.324  1.00  0.00     0.020 A 
ATOM     86  C   UNL     1     -10.553   0.418  -7.268  1.00  0.00     0.020 A 
ATOM     87  C   UNL     1     -10.354   1.799  -7.285  1.00  0.00     0.054 A 
BRANCH  87  88
ATOM     88  S   UNL     1      -9.262   2.545  -8.528  1.00  0.00     0.124 S 
ATOM     89  O   UNL     1     -10.219   3.141  -9.454  1.00  0.00    -0.237 OA
ATOM     90  O   UNL     1      -8.476   3.487  -7.735  1.00  0.00    -0.237 OA
ATOM     91  O   UNL     1      -8.511   1.405  -9.049  1.00  0.00    -0.744 OA
ENDBRANCH  87  88
ENDBRANCH  59  82
BRANCH  71  92
ATOM     92  C   UNL     1     -18.814   0.673  -3.931  1.00  0.00    -0.014 A 
ATOM     93  C   UNL     1     -19.317   0.195  -5.154  1.00  0.00     0.010 A 
ATOM     94  C   UNL     1     -19.450   1.758  -3.301  1.00  0.00     0.010 A 
ATOM     95  C   UNL     1     -20.420   0.811  -5.750  1.00  0.00     0.020 A 
ATOM     96  C   UNL     1     -20.567   2.361  -3.883  1.00  0.00     0.020 A 
ATOM     97  C   UNL     1     -21.037   1.892  -5.111  1.00  0.00     0.054 A 
BRANCH  97  98
ATOM     98  S   UNL     1     -22.493   2.648  -5.883  1.00  0.00     0.124 S 
ATOM     99  O   UNL     1     -21.894   3.430  -6.961  1.00  0.00    -0.237 OA
ATOM    100  O   UNL     1     -23.273   1.488  -6.307  1.00  0.00    -0.237 OA
ATOM    101  O   UNL     1     -23.090   3.431  -4.803  1.00  0.00    -0.744 OA
ENDBRANCH  97  98
ENDBRANCH  71  92
ENDBRANCH  45  46
ENDBRANCH  38  40
ENDBRANCH  37  38
ENDBRANCH  36  37
ENDBRANCH  35  36
ENDBRANCH  34  35
ENDBRANCH   1  34
TORSDOF 25
