REMARK SMILES CC[C@@H]([NH3+])C(=O)NCCOCC(=O)OCCOC(=O)c1ccc(-c2c3nc(c(-c4ccc(S(=O)(=O)[O-])cc4)c4ccc([nH]4)c(-c4ccc(S(=O)(=O)[O-])cc4)c4nc(c(-c5ccc(S(=O)(=O)[O-])cc5)c5ccc2[nH]5)C=C4)C=C3)cc1
REMARK SMILES IDX 14 1 12 2 13 3 11 4 10 5 9 6 8 7 7 8 5 9 6 10 3 12 2 13 1 14
REMARK SMILES IDX 4 15 15 19 16 20 17 21 18 22 19 23 20 24 21 25 79 26 22 27
REMARK SMILES IDX 78 28 23 29 24 30 25 31 72 32 26 33 77 34 71 35 73 36 27 37
REMARK SMILES IDX 76 38 70 39 69 40 28 42 58 43 39 44 57 45 40 46 43 47 56 48
REMARK SMILES IDX 74 49 41 50 42 51 55 53 75 54 44 55 29 56 30 57 38 58 31 59
REMARK SMILES IDX 37 60 32 61 33 62 34 63 35 64 36 65 59 66 60 67 68 68 61 69
REMARK SMILES IDX 67 70 62 71 63 72 64 73 65 74 66 75 45 76 46 77 54 78 47 79
REMARK SMILES IDX 53 80 48 81 49 82 50 83 51 84 52 85
REMARK H PARENT 7 11 4 16 4 17 4 18 73 41 43 52
REMARK Flexibility Score: inf
ROOT
ATOM      1  O   UNL     1      -2.316   1.426  -5.067  1.00  0.00    -0.460 OA
ENDROOT
BRANCH   1   2
ATOM      2  C   UNL     1      -2.249   0.166  -5.572  1.00  0.00     0.332 C 
ATOM      3  O   UNL     1      -1.583  -0.154  -6.553  1.00  0.00    -0.250 OA
BRANCH   2   4
ATOM      4  C   UNL     1      -3.053  -0.859  -4.766  1.00  0.00     0.282 C 
BRANCH   4   5
ATOM      5  O   UNL     1      -4.024  -0.459  -3.814  1.00  0.00    -0.368 OA
BRANCH   5   6
ATOM      6  C   UNL     1      -3.514  -0.198  -2.499  1.00  0.00     0.182 C 
BRANCH   6   7
ATOM      7  C   UNL     1      -3.435  -1.456  -1.617  1.00  0.00     0.144 C 
BRANCH   7   8
ATOM      8  N   UNL     1      -2.373  -2.352  -2.015  1.00  0.00    -0.349 N 
ATOM      9  C   UNL     1      -1.119  -2.526  -1.538  1.00  0.00     0.278 C 
ATOM     10  O   UNL     1      -0.440  -3.381  -2.120  1.00  0.00    -0.268 OA
ATOM     11  H   UNL     1      -2.603  -2.941  -2.769  1.00  0.00     0.163 HD
BRANCH   9  12
ATOM     12  C   UNL     1      -0.571  -1.856  -0.259  1.00  0.00     0.270 C 
BRANCH  12  13
ATOM     13  C   UNL     1      -0.686  -0.344  -0.090  1.00  0.00     0.072 C 
ATOM     14  C   UNL     1       0.394   0.221   0.833  1.00  0.00     0.011 C 
ENDBRANCH  12  13
BRANCH  12  15
ATOM     15  N   UNL     1      -1.107  -2.571   0.913  1.00  0.00    -0.347 N 
ATOM     16  H   UNL     1      -2.117  -2.442   0.957  1.00  0.00     0.345 HD
ATOM     17  H   UNL     1      -0.679  -2.200   1.761  1.00  0.00     0.345 HD
ATOM     18  H   UNL     1      -0.894  -3.565   0.831  1.00  0.00     0.345 HD
ENDBRANCH  12  15
ENDBRANCH   9  12
ENDBRANCH   7   8
ENDBRANCH   6   7
ENDBRANCH   5   6
ENDBRANCH   4   5
ENDBRANCH   2   4
ENDBRANCH   1   2
BRANCH   1  19
ATOM     19  C   UNL     1      -1.515   2.414  -5.747  1.00  0.00     0.274 C 
BRANCH  19  20
ATOM     20  C   UNL     1      -0.207   2.722  -5.008  1.00  0.00     0.275 C 
BRANCH  20  21
ATOM     21  O   UNL     1       0.713   1.609  -5.008  1.00  0.00    -0.458 OA
BRANCH  21  22
ATOM     22  C   UNL     1       0.551   0.800  -3.937  1.00  0.00     0.338 C 
ATOM     23  O   UNL     1      -0.291   0.940  -3.068  1.00  0.00    -0.246 OA
BRANCH  22  24
ATOM     24  C   UNL     1       1.476  -0.338  -3.889  1.00  0.00     0.060 A 
ATOM     25  C   UNL     1       1.065  -1.538  -4.458  1.00  0.00     0.016 A 
ATOM     26  C   UNL     1       2.556  -0.310  -2.999  1.00  0.00     0.016 A 
ATOM     27  C   UNL     1       1.683  -2.725  -4.061  1.00  0.00     0.010 A 
ATOM     28  C   UNL     1       3.217  -1.502  -2.660  1.00  0.00     0.010 A 
ATOM     29  C   UNL     1       2.757  -2.735  -3.146  1.00  0.00    -0.014 A 
BRANCH  29  30
ATOM     30  C   UNL     1       3.384  -4.037  -2.752  1.00  0.00     0.031 A 
ATOM     31  C   UNL     1       3.404  -4.545  -1.325  1.00  0.00     0.074 A 
ATOM     32  C   UNL     1       3.909  -4.814  -3.721  1.00  0.00     0.049 A 
ATOM     33  N   UNL     1       3.850  -5.689  -0.858  1.00  0.00    -0.248 NA
ATOM     34  C   UNL     1       2.849  -3.672  -0.284  1.00  0.00     0.031 C 
ATOM     35  C   UNL     1       3.945  -4.473  -5.145  1.00  0.00     0.029 A 
ATOM     36  N   UNL     1       4.505  -6.049  -3.659  1.00  0.00    -0.354 N 
ATOM     37  C   UNL     1       3.586  -5.685   0.511  1.00  0.00     0.074 A 
ATOM     38  C   UNL     1       2.963  -4.415   0.810  1.00  0.00     0.031 C 
ATOM     39  C   UNL     1       4.497  -5.485  -5.825  1.00  0.00     0.029 A 
ATOM     40  C   UNL     1       4.947  -6.500  -4.879  1.00  0.00     0.049 A 
ATOM     41  H   UNL     1       4.606  -6.560  -2.824  1.00  0.00     0.167 HD
ATOM     42  C   UNL     1       3.858  -6.638   1.439  1.00  0.00     0.031 A 
ATOM     43  C   UNL     1       5.689  -7.572  -5.213  1.00  0.00     0.031 A 
ATOM     44  C   UNL     1       4.575  -7.858   1.165  1.00  0.00     0.049 A 
ATOM     45  C   UNL     1       6.136  -8.518  -4.146  1.00  0.00     0.074 A 
ATOM     46  C   UNL     1       4.907  -8.879   2.042  1.00  0.00     0.029 A 
ATOM     47  N   UNL     1       5.117  -8.201  -0.064  1.00  0.00    -0.354 N 
ATOM     48  N   UNL     1       5.851  -8.505  -2.867  1.00  0.00    -0.248 NA
ATOM     49  C   UNL     1       7.020  -9.612  -4.564  1.00  0.00     0.031 C 
ATOM     50  C   UNL     1       5.724  -9.792   1.364  1.00  0.00     0.029 A 
ATOM     51  C   UNL     1       5.840  -9.378   0.048  1.00  0.00     0.049 A 
ATOM     52  H   UNL     1       5.003  -7.685  -0.894  1.00  0.00     0.167 HD
ATOM     53  C   UNL     1       6.526  -9.588  -2.321  1.00  0.00     0.074 A 
ATOM     54  C   UNL     1       7.214 -10.247  -3.415  1.00  0.00     0.031 C 
ATOM     55  C   UNL     1       6.567  -9.998  -1.030  1.00  0.00     0.031 A 
BRANCH  42  56
ATOM     56  C   UNL     1       3.443  -6.388   2.869  1.00  0.00    -0.014 A 
ATOM     57  C   UNL     1       2.110  -6.562   3.284  1.00  0.00     0.010 A 
ATOM     58  C   UNL     1       4.423  -6.091   3.835  1.00  0.00     0.010 A 
ATOM     59  C   UNL     1       1.766  -6.436   4.637  1.00  0.00     0.020 A 
ATOM     60  C   UNL     1       4.087  -5.979   5.188  1.00  0.00     0.020 A 
ATOM     61  C   UNL     1       2.758  -6.147   5.581  1.00  0.00     0.054 A 
BRANCH  61  62
ATOM     62  S   UNL     1       2.295  -6.038   7.334  1.00  0.00     0.124 S 
ATOM     63  O   UNL     1       1.543  -4.785   7.370  1.00  0.00    -0.237 OA
ATOM     64  O   UNL     1       1.505  -7.250   7.534  1.00  0.00    -0.237 OA
ATOM     65  O   UNL     1       3.578  -6.012   8.032  1.00  0.00    -0.744 OA
ENDBRANCH  61  62
ENDBRANCH  42  56
BRANCH  43  66
ATOM     66  C   UNL     1       6.125  -7.713  -6.626  1.00  0.00    -0.014 A 
ATOM     67  C   UNL     1       5.556  -8.679  -7.469  1.00  0.00     0.010 A 
ATOM     68  C   UNL     1       7.034  -6.778  -7.160  1.00  0.00     0.010 A 
ATOM     69  C   UNL     1       5.862  -8.684  -8.834  1.00  0.00     0.020 A 
ATOM     70  C   UNL     1       7.316  -6.761  -8.526  1.00  0.00     0.020 A 
ATOM     71  C   UNL     1       6.726  -7.714  -9.355  1.00  0.00     0.054 A 
BRANCH  71  72
ATOM     72  S   UNL     1       6.994  -7.639 -11.148  1.00  0.00     0.124 S 
ATOM     73  O   UNL     1       7.980  -8.695 -11.351  1.00  0.00    -0.237 OA
ATOM     74  O   UNL     1       5.661  -7.904 -11.683  1.00  0.00    -0.237 OA
ATOM     75  O   UNL     1       7.480  -6.277 -11.361  1.00  0.00    -0.744 OA
ENDBRANCH  71  72
ENDBRANCH  43  66
BRANCH  55  76
ATOM     76  C   UNL     1       7.397 -11.216  -0.736  1.00  0.00    -0.014 A 
ATOM     77  C   UNL     1       8.802 -11.152  -0.754  1.00  0.00     0.010 A 
ATOM     78  C   UNL     1       6.767 -12.441  -0.454  1.00  0.00     0.010 A 
ATOM     79  C   UNL     1       9.563 -12.306  -0.551  1.00  0.00     0.020 A 
ATOM     80  C   UNL     1       7.525 -13.591  -0.225  1.00  0.00     0.020 A 
ATOM     81  C   UNL     1       8.918 -13.521  -0.299  1.00  0.00     0.054 A 
BRANCH  81  82
ATOM     82  S   UNL     1       9.923 -15.011  -0.053  1.00  0.00     0.124 S 
ATOM     83  O   UNL     1      10.321 -15.335  -1.420  1.00  0.00    -0.237 OA
ATOM     84  O   UNL     1      10.995 -14.537   0.819  1.00  0.00    -0.237 OA
ATOM     85  O   UNL     1       8.996 -15.954   0.567  1.00  0.00    -0.744 OA
ENDBRANCH  81  82
ENDBRANCH  55  76
ENDBRANCH  29  30
ENDBRANCH  22  24
ENDBRANCH  21  22
ENDBRANCH  20  21
ENDBRANCH  19  20
ENDBRANCH   1  19
TORSDOF 21
