REMARK SMILES C[C@@](NC(=O)[C@H]1COc2ccccc21)(C(=O)OCCOC(=O)c1ccc(-c2c3nc(c(-c4ccc(S(=O)(=O)[O-])cc4)c4ccc([nH]4)c(-c4ccc(S(=O)(=O)[O-])cc4)c4nc(c(-c5ccc(S(=O)(=O)[O-])cc5)c5ccc2[nH]5)C=C4)C=C3)cc1)C(F)(F)F
REMARK SMILES IDX 19 1 18 2 17 3 15 4 16 5 2 6 1 7 3 8 4 9 5 11 6 12 7 13
REMARK SMILES IDX 14 14 8 15 9 16 13 17 10 18 12 19 11 20 83 21 84 22 85 23
REMARK SMILES IDX 86 24 20 25 21 26 22 27 23 28 24 29 82 30 25 31 81 32 26 33
REMARK SMILES IDX 27 34 28 35 75 36 29 37 80 38 74 39 76 40 30 41 79 42 73 43
REMARK SMILES IDX 72 44 31 46 61 47 42 48 60 49 43 50 46 51 59 52 77 53 44 54
REMARK SMILES IDX 45 55 58 57 78 58 47 59 32 60 33 61 41 62 34 63 40 64 35 65
REMARK SMILES IDX 36 66 37 67 38 68 39 69 62 70 63 71 71 72 64 73 70 74 65 75
REMARK SMILES IDX 66 76 67 77 68 78 69 79 48 80 49 81 57 82 50 83 56 84 51 85
REMARK SMILES IDX 52 86 53 87 54 88 55 89
REMARK H PARENT 3 10 76 45 46 56
REMARK Flexibility Score: inf
ROOT
ATOM      1  C   UNL     1      -3.624   0.352  -0.937  1.00  0.00     0.275 C 
ENDROOT
BRANCH   1   2
ATOM      2  C   UNL     1      -3.098  -0.357   0.315  1.00  0.00     0.274 C 
BRANCH   2   3
ATOM      3  O   UNL     1      -1.671  -0.213   0.505  1.00  0.00    -0.460 OA
BRANCH   3   4
ATOM      4  C   UNL     1      -0.895  -1.249   0.071  1.00  0.00     0.341 C 
ATOM      5  O   UNL     1      -1.351  -2.208  -0.541  1.00  0.00    -0.249 OA
BRANCH   4   6
ATOM      6  C   UNL     1       0.527  -1.205   0.637  1.00  0.00     0.231 C 
ATOM      7  C   UNL     1       1.003   0.256   0.755  1.00  0.00     0.058 C 
BRANCH   6   8
ATOM      8  N   UNL     1       0.680  -1.831   2.001  1.00  0.00    -0.332 N 
ATOM      9  C   UNL     1       0.160  -3.000   2.496  1.00  0.00     0.232 C 
ATOM     10  H   UNL     1       1.238  -1.323   2.633  1.00  0.00     0.164 HD
ATOM     11  O   UNL     1       0.934  -3.732   3.114  1.00  0.00    -0.274 OA
BRANCH   9  12
ATOM     12  C   UNL     1      -1.342  -3.233   2.450  1.00  0.00     0.150 C 
ATOM     13  C   UNL     1      -1.763  -4.668   2.796  1.00  0.00     0.248 C 
ATOM     14  C   UNL     1      -2.068  -2.486   3.518  1.00  0.00     0.010 A 
ATOM     15  O   UNL     1      -2.809  -4.655   3.802  1.00  0.00    -0.492 OA
ATOM     16  C   UNL     1      -2.885  -3.356   4.215  1.00  0.00     0.123 A 
ATOM     17  C   UNL     1      -2.052  -1.133   3.829  1.00  0.00     0.008 A 
ATOM     18  C   UNL     1      -3.713  -2.922   5.232  1.00  0.00     0.047 A 
ATOM     19  C   UNL     1      -2.874  -0.674   4.860  1.00  0.00     0.001 A 
ATOM     20  C   UNL     1      -3.703  -1.565   5.557  1.00  0.00     0.004 A 
ENDBRANCH   9  12
ENDBRANCH   6   8
BRANCH   6  21
ATOM     21  C   UNL     1       1.442  -1.900  -0.392  1.00  0.00     0.422 C 
ATOM     22  F   UNL     1       1.509  -1.223  -1.558  1.00  0.00    -0.168 F 
ATOM     23  F   UNL     1       2.714  -1.949   0.090  1.00  0.00    -0.168 F 
ATOM     24  F   UNL     1       1.083  -3.172  -0.655  1.00  0.00    -0.168 F 
ENDBRANCH   6  21
ENDBRANCH   4   6
ENDBRANCH   3   4
ENDBRANCH   2   3
ENDBRANCH   1   2
BRANCH   1  25
ATOM     25  O   UNL     1      -3.274  -0.338  -2.149  1.00  0.00    -0.458 OA
BRANCH  25  26
ATOM     26  C   UNL     1      -2.088   0.026  -2.689  1.00  0.00     0.338 C 
ATOM     27  O   UNL     1      -1.314   0.864  -2.257  1.00  0.00    -0.246 OA
BRANCH  26  28
ATOM     28  C   UNL     1      -1.753  -0.882  -3.795  1.00  0.00     0.060 A 
ATOM     29  C   UNL     1      -0.712  -1.783  -3.579  1.00  0.00     0.016 A 
ATOM     30  C   UNL     1      -2.374  -0.810  -5.040  1.00  0.00     0.016 A 
ATOM     31  C   UNL     1      -0.254  -2.603  -4.596  1.00  0.00     0.010 A 
ATOM     32  C   UNL     1      -1.930  -1.653  -6.066  1.00  0.00     0.010 A 
ATOM     33  C   UNL     1      -0.863  -2.546  -5.849  1.00  0.00    -0.014 A 
BRANCH  33  34
ATOM     34  C   UNL     1      -0.337  -3.397  -6.935  1.00  0.00     0.031 A 
ATOM     35  C   UNL     1       0.420  -2.762  -8.062  1.00  0.00     0.074 A 
ATOM     36  C   UNL     1      -0.509  -4.731  -6.881  1.00  0.00     0.049 A 
ATOM     37  N   UNL     1       0.797  -3.287  -9.196  1.00  0.00    -0.248 NA
ATOM     38  C   UNL     1       0.800  -1.349  -7.891  1.00  0.00     0.031 C 
ATOM     39  C   UNL     1      -1.141  -5.460  -5.777  1.00  0.00     0.029 A 
ATOM     40  N   UNL     1      -0.172  -5.711  -7.777  1.00  0.00    -0.354 N 
ATOM     41  C   UNL     1       1.406  -2.256  -9.900  1.00  0.00     0.074 A 
ATOM     42  C   UNL     1       1.372  -1.082  -9.057  1.00  0.00     0.031 C 
ATOM     43  C   UNL     1      -1.156  -6.770  -6.069  1.00  0.00     0.029 A 
ATOM     44  C   UNL     1      -0.606  -6.962  -7.406  1.00  0.00     0.049 A 
ATOM     45  H   UNL     1       0.332  -5.537  -8.606  1.00  0.00     0.167 HD
ATOM     46  C   UNL     1       1.924  -2.294 -11.149  1.00  0.00     0.031 A 
ATOM     47  C   UNL     1      -0.620  -8.118  -8.096  1.00  0.00     0.031 A 
ATOM     48  C   UNL     1       1.969  -3.483 -11.956  1.00  0.00     0.049 A 
ATOM     49  C   UNL     1      -0.100  -8.118  -9.506  1.00  0.00     0.074 A 
ATOM     50  C   UNL     1       2.479  -3.639 -13.232  1.00  0.00     0.029 A 
ATOM     51  N   UNL     1       1.487  -4.721 -11.559  1.00  0.00    -0.354 N 
ATOM     52  N   UNL     1       0.434  -7.129 -10.184  1.00  0.00    -0.248 NA
ATOM     53  C   UNL     1      -0.207  -9.378 -10.254  1.00  0.00     0.031 C 
ATOM     54  C   UNL     1       2.263  -4.965 -13.625  1.00  0.00     0.029 A 
ATOM     55  C   UNL     1       1.657  -5.642 -12.577  1.00  0.00     0.049 A 
ATOM     56  H   UNL     1       1.083  -4.916 -10.683  1.00  0.00     0.167 HD
ATOM     57  C   UNL     1       0.721  -7.646 -11.441  1.00  0.00     0.074 A 
ATOM     58  C   UNL     1       0.328  -9.041 -11.420  1.00  0.00     0.031 C 
ATOM     59  C   UNL     1       1.250  -7.022 -12.522  1.00  0.00     0.031 A 
BRANCH  46  60
ATOM     60  C   UNL     1       2.412  -1.003 -11.743  1.00  0.00    -0.014 A 
ATOM     61  C   UNL     1       3.644  -0.438 -11.376  1.00  0.00     0.010 A 
ATOM     62  C   UNL     1       1.631  -0.368 -12.727  1.00  0.00     0.010 A 
ATOM     63  C   UNL     1       4.077   0.754 -11.967  1.00  0.00     0.020 A 
ATOM     64  C   UNL     1       2.067   0.813 -13.332  1.00  0.00     0.020 A 
ATOM     65  C   UNL     1       3.284   1.373 -12.939  1.00  0.00     0.054 A 
BRANCH  65  66
ATOM     66  S   UNL     1       3.881   2.900 -13.716  1.00  0.00     0.124 S 
ATOM     67  O   UNL     1       3.650   3.885 -12.662  1.00  0.00    -0.237 OA
ATOM     68  O   UNL     1       5.282   2.594 -13.993  1.00  0.00    -0.237 OA
ATOM     69  O   UNL     1       3.033   3.042 -14.897  1.00  0.00    -0.744 OA
ENDBRANCH  65  66
ENDBRANCH  46  60
BRANCH  47  70
ATOM     70  C   UNL     1      -1.248  -9.330  -7.504  1.00  0.00    -0.014 A 
ATOM     71  C   UNL     1      -0.474 -10.444  -7.139  1.00  0.00     0.010 A 
ATOM     72  C   UNL     1      -2.640  -9.368  -7.296  1.00  0.00     0.010 A 
ATOM     73  C   UNL     1      -1.082 -11.578  -6.588  1.00  0.00     0.020 A 
ATOM     74  C   UNL     1      -3.248 -10.487  -6.723  1.00  0.00     0.020 A 
ATOM     75  C   UNL     1      -2.466 -11.592  -6.385  1.00  0.00     0.054 A 
BRANCH  75  76
ATOM     76  S   UNL     1      -3.235 -13.049  -5.625  1.00  0.00     0.124 S 
ATOM     77  O   UNL     1      -3.331 -13.965  -6.758  1.00  0.00    -0.237 OA
ATOM     78  O   UNL     1      -2.272 -13.419  -4.591  1.00  0.00    -0.237 OA
ATOM     79  O   UNL     1      -4.508 -12.537  -5.123  1.00  0.00    -0.744 OA
ENDBRANCH  75  76
ENDBRANCH  47  70
BRANCH  59  80
ATOM     80  C   UNL     1       1.438  -7.846 -13.762  1.00  0.00    -0.014 A 
ATOM     81  C   UNL     1       0.346  -8.141 -14.596  1.00  0.00     0.010 A 
ATOM     82  C   UNL     1       2.728  -8.264 -14.133  1.00  0.00     0.010 A 
ATOM     83  C   UNL     1       0.540  -8.856 -15.779  1.00  0.00     0.020 A 
ATOM     84  C   UNL     1       2.928  -8.962 -15.325  1.00  0.00     0.020 A 
ATOM     85  C   UNL     1       1.831  -9.261 -16.137  1.00  0.00     0.054 A 
BRANCH  85  86
ATOM     86  S   UNL     1       2.070 -10.130 -17.710  1.00  0.00     0.124 S 
ATOM     87  O   UNL     1       1.607 -11.477 -17.385  1.00  0.00    -0.237 OA
ATOM     88  O   UNL     1       1.218  -9.378 -18.628  1.00  0.00    -0.237 OA
ATOM     89  O   UNL     1       3.504 -10.006 -17.958  1.00  0.00    -0.744 OA
ENDBRANCH  85  86
ENDBRANCH  59  80
ENDBRANCH  33  34
ENDBRANCH  26  28
ENDBRANCH  25  26
ENDBRANCH   1  25
TORSDOF 17
