REMARK SMILES CSCc1ccc(C(=O)N[C@H]2C=C[C@@H](C(=O)OCCOC(=O)c3ccc(-c4c5nc(c(-c6ccc(S(=O)(=O)[O-])cc6)c6ccc([nH]6)c(-c6ccc(S(=O)(=O)[O-])cc6)c6nc(c(-c7ccc(S(=O)(=O)[O-])cc7)c7ccc4[nH]7)C=C6)C=C5)cc3)C2)o1
REMARK SMILES IDX 18 1 17 2 15 3 16 4 14 5 11 6 12 7 83 8 13 9 10 10 8 11 9 12
REMARK SMILES IDX 7 14 4 15 5 16 84 17 6 18 3 19 2 20 1 21 19 22 20 23 21 24
REMARK SMILES IDX 22 25 23 26 24 27 82 28 25 29 81 30 26 31 27 32 28 33 75 34
REMARK SMILES IDX 29 35 80 36 74 37 76 38 30 39 79 40 73 41 72 42 31 44 61 45
REMARK SMILES IDX 42 46 60 47 43 48 46 49 59 50 77 51 44 52 45 53 58 55 78 56
REMARK SMILES IDX 47 57 32 58 33 59 41 60 34 61 40 62 35 63 36 64 37 65 38 66
REMARK SMILES IDX 39 67 62 68 63 69 71 70 64 71 70 72 65 73 66 74 67 75 68 76
REMARK SMILES IDX 69 77 48 78 49 79 57 80 50 81 56 82 51 83 52 84 53 85 54 86
REMARK SMILES IDX 55 87
REMARK H PARENT 10 13 76 43 46 54
REMARK Flexibility Score: inf
ROOT
ATOM      1  C   UNL     1      -2.460  -4.639  -0.959  1.00  0.00     0.274 C 
ENDROOT
BRANCH   1   2
ATOM      2  O   UNL     1      -2.254  -4.431  -2.367  1.00  0.00    -0.462 OA
BRANCH   2   3
ATOM      3  C   UNL     1      -1.576  -5.379  -3.060  1.00  0.00     0.312 C 
ATOM      4  O   UNL     1      -1.012  -6.343  -2.553  1.00  0.00    -0.252 OA
BRANCH   3   5
ATOM      5  C   UNL     1      -1.683  -5.172  -4.573  1.00  0.00     0.124 C 
ATOM      6  C   UNL     1      -0.946  -3.192  -5.812  1.00  0.00     0.106 C 
ATOM      7  C   UNL     1       0.067  -4.271  -5.876  1.00  0.00    -0.006 C 
ATOM      8  C   UNL     1      -2.124  -3.778  -5.038  1.00  0.00     0.048 C 
ATOM      9  C   UNL     1      -0.351  -5.371  -5.239  1.00  0.00    -0.014 C 
BRANCH   6  10
ATOM     10  N   UNL     1      -0.437  -1.931  -5.317  1.00  0.00    -0.343 N 
ATOM     11  C   UNL     1       0.003  -1.433  -4.116  1.00  0.00     0.287 C 
ATOM     12  O   UNL     1       0.022  -0.197  -4.060  1.00  0.00    -0.266 OA
ATOM     13  H   UNL     1      -0.395  -1.252  -6.029  1.00  0.00     0.164 HD
BRANCH  11  14
ATOM     14  C   UNL     1       0.434  -2.250  -3.000  1.00  0.00     0.191 A 
ATOM     15  C   UNL     1       0.902  -2.527  -0.839  1.00  0.00     0.114 A 
ATOM     16  C   UNL     1       1.272  -3.691  -1.474  1.00  0.00     0.047 A 
ATOM     17  O   UNL     1       0.385  -1.660  -1.754  1.00  0.00    -0.455 OA
ATOM     18  C   UNL     1       1.032  -3.486  -2.854  1.00  0.00     0.056 A 
BRANCH  15  19
ATOM     19  C   UNL     1       1.060  -2.090   0.576  1.00  0.00     0.144 C 
BRANCH  19  20
ATOM     20  S   UNL     1       0.029  -0.701   1.122  1.00  0.00    -0.157 SA
ATOM     21  C   UNL     1       0.864   0.649   0.246  1.00  0.00     0.085 C 
ENDBRANCH  19  20
ENDBRANCH  15  19
ENDBRANCH  11  14
ENDBRANCH   6  10
ENDBRANCH   3   5
ENDBRANCH   2   3
ENDBRANCH   1   2
BRANCH   1  22
ATOM     22  C   UNL     1      -3.953  -4.836  -0.694  1.00  0.00     0.275 C 
BRANCH  22  23
ATOM     23  O   UNL     1      -4.398  -6.098  -1.225  1.00  0.00    -0.458 OA
BRANCH  23  24
ATOM     24  C   UNL     1      -4.800  -6.065  -2.516  1.00  0.00     0.338 C 
ATOM     25  O   UNL     1      -4.888  -5.097  -3.251  1.00  0.00    -0.246 OA
BRANCH  24  26
ATOM     26  C   UNL     1      -5.007  -7.435  -2.989  1.00  0.00     0.060 A 
ATOM     27  C   UNL     1      -3.994  -8.041  -3.735  1.00  0.00     0.016 A 
ATOM     28  C   UNL     1      -6.237  -8.062  -2.808  1.00  0.00     0.016 A 
ATOM     29  C   UNL     1      -4.231  -9.249  -4.376  1.00  0.00     0.010 A 
ATOM     30  C   UNL     1      -6.452  -9.306  -3.401  1.00  0.00     0.010 A 
ATOM     31  C   UNL     1      -5.463  -9.890  -4.214  1.00  0.00    -0.014 A 
BRANCH  31  32
ATOM     32  C   UNL     1      -5.751 -11.150  -4.934  1.00  0.00     0.031 A 
ATOM     33  C   UNL     1      -6.822 -11.161  -5.986  1.00  0.00     0.074 A 
ATOM     34  C   UNL     1      -5.067 -12.270  -4.635  1.00  0.00     0.049 A 
ATOM     35  N   UNL     1      -7.402 -12.179  -6.563  1.00  0.00    -0.248 NA
ATOM     36  C   UNL     1      -7.313  -9.848  -6.441  1.00  0.00     0.031 C 
ATOM     37  C   UNL     1      -3.947 -12.357  -3.693  1.00  0.00     0.029 A 
ATOM     38  N   UNL     1      -5.224 -13.555  -5.084  1.00  0.00    -0.354 N 
ATOM     39  C   UNL     1      -8.358 -11.635  -7.413  1.00  0.00     0.074 A 
ATOM     40  C   UNL     1      -8.281 -10.197  -7.277  1.00  0.00     0.031 C 
ATOM     41  C   UNL     1      -3.521 -13.629  -3.635  1.00  0.00     0.029 A 
ATOM     42  C   UNL     1      -4.385 -14.455  -4.470  1.00  0.00     0.049 A 
ATOM     43  H   UNL     1      -5.874 -13.809  -5.779  1.00  0.00     0.167 HD
ATOM     44  C   UNL     1      -9.226 -12.285  -8.223  1.00  0.00     0.031 A 
ATOM     45  C   UNL     1      -4.354 -15.799  -4.533  1.00  0.00     0.031 A 
ATOM     46  C   UNL     1      -9.275 -13.717  -8.348  1.00  0.00     0.049 A 
ATOM     47  C   UNL     1      -5.373 -16.503  -5.385  1.00  0.00     0.074 A 
ATOM     48  C   UNL     1     -10.130 -14.489  -9.113  1.00  0.00     0.029 A 
ATOM     49  N   UNL     1      -8.415 -14.592  -7.699  1.00  0.00    -0.354 N 
ATOM     50  N   UNL     1      -6.323 -15.985  -6.128  1.00  0.00    -0.248 NA
ATOM     51  C   UNL     1      -5.325 -17.971  -5.401  1.00  0.00     0.031 C 
ATOM     52  C   UNL     1      -9.808 -15.834  -8.902  1.00  0.00     0.029 A 
ATOM     53  C   UNL     1      -8.719 -15.896  -8.045  1.00  0.00     0.049 A 
ATOM     54  H   UNL     1      -7.695 -14.324  -7.083  1.00  0.00     0.167 HD
ATOM     55  C   UNL     1      -6.965 -17.063  -6.724  1.00  0.00     0.074 A 
ATOM     56  C   UNL     1      -6.294 -18.260  -6.259  1.00  0.00     0.031 C 
ATOM     57  C   UNL     1      -8.015 -17.064  -7.582  1.00  0.00     0.031 A 
BRANCH  44  58
ATOM     58  C   UNL     1     -10.215 -11.456  -8.996  1.00  0.00    -0.014 A 
ATOM     59  C   UNL     1      -9.817 -10.683 -10.101  1.00  0.00     0.010 A 
ATOM     60  C   UNL     1     -11.573 -11.475  -8.628  1.00  0.00     0.010 A 
ATOM     61  C   UNL     1     -10.753  -9.916 -10.802  1.00  0.00     0.020 A 
ATOM     62  C   UNL     1     -12.516 -10.729  -9.341  1.00  0.00     0.020 A 
ATOM     63  C   UNL     1     -12.097  -9.941 -10.414  1.00  0.00     0.054 A 
BRANCH  63  64
ATOM     64  S   UNL     1     -13.294  -8.952 -11.352  1.00  0.00     0.124 S 
ATOM     65  O   UNL     1     -12.990  -7.598 -10.896  1.00  0.00    -0.237 OA
ATOM     66  O   UNL     1     -12.935  -9.242 -12.738  1.00  0.00    -0.237 OA
ATOM     67  O   UNL     1     -14.588  -9.477 -10.925  1.00  0.00    -0.744 OA
ENDBRANCH  63  64
ENDBRANCH  44  58
BRANCH  45  68
ATOM     68  C   UNL     1      -3.361 -16.562  -3.729  1.00  0.00    -0.014 A 
ATOM     69  C   UNL     1      -2.309 -17.249  -4.359  1.00  0.00     0.010 A 
ATOM     70  C   UNL     1      -3.456 -16.596  -2.325  1.00  0.00     0.010 A 
ATOM     71  C   UNL     1      -1.383 -17.973  -3.602  1.00  0.00     0.020 A 
ATOM     72  C   UNL     1      -2.516 -17.295  -1.563  1.00  0.00     0.020 A 
ATOM     73  C   UNL     1      -1.493 -17.992  -2.208  1.00  0.00     0.054 A 
BRANCH  73  74
ATOM     74  S   UNL     1      -0.258 -18.904  -1.242  1.00  0.00     0.124 S 
ATOM     75  O   UNL     1      -0.680 -20.287  -1.439  1.00  0.00    -0.237 OA
ATOM     76  O   UNL     1       0.996 -18.525  -1.889  1.00  0.00    -0.237 OA
ATOM     77  O   UNL     1      -0.432 -18.382   0.112  1.00  0.00    -0.744 OA
ENDBRANCH  73  74
ENDBRANCH  45  68
BRANCH  57  78
ATOM     78  C   UNL     1      -8.457 -18.392  -8.127  1.00  0.00    -0.014 A 
ATOM     79  C   UNL     1      -9.213 -19.285  -7.350  1.00  0.00     0.010 A 
ATOM     80  C   UNL     1      -8.173 -18.709  -9.468  1.00  0.00     0.010 A 
ATOM     81  C   UNL     1      -9.666 -20.485  -7.903  1.00  0.00     0.020 A 
ATOM     82  C   UNL     1      -8.643 -19.897 -10.030  1.00  0.00     0.020 A 
ATOM     83  C   UNL     1      -9.380 -20.782  -9.240  1.00  0.00     0.054 A 
BRANCH  83  84
ATOM     84  S   UNL     1     -10.038 -22.312  -9.957  1.00  0.00     0.124 S 
ATOM     85  O   UNL     1      -9.149 -23.321  -9.386  1.00  0.00    -0.237 OA
ATOM     86  O   UNL     1     -11.413 -22.334  -9.464  1.00  0.00    -0.237 OA
ATOM     87  O   UNL     1      -9.902 -22.106 -11.397  1.00  0.00    -0.744 OA
ENDBRANCH  83  84
ENDBRANCH  57  78
ENDBRANCH  31  32
ENDBRANCH  24  26
ENDBRANCH  23  24
ENDBRANCH  22  23
ENDBRANCH   1  22
TORSDOF 18
