REMARK SMILES Cc1noc(C[N@H+]2CCC[C@@H](c3ccc(C(=O)OCCOC(=O)c4ccc(-c5c6nc(c(-c7ccc(S(=O)(=O)[O-])cc7)c7ccc([nH]7)c(-c7ccc(S(=O)(=O)[O-])cc7)c7nc(c(-c8ccc(S(=O)(=O)[O-])cc8)c8ccc5[nH]8)C=C7)C=C6)cc4)cc3)C2)n1
REMARK SMILES IDX 19 1 18 2 16 3 17 4 15 5 12 6 13 7 85 8 14 9 84 10 11 11
REMARK SMILES IDX 7 12 8 13 86 14 9 16 10 17 6 18 5 19 1 20 2 21 3 22 87 23
REMARK SMILES IDX 4 24 20 25 21 26 22 27 23 28 24 29 25 30 83 31 26 32 82 33
REMARK SMILES IDX 27 34 28 35 29 36 76 37 30 38 81 39 75 40 77 41 31 42 80 43
REMARK SMILES IDX 74 44 73 45 32 47 62 48 43 49 61 50 44 51 47 52 60 53 78 54
REMARK SMILES IDX 45 55 46 56 59 58 79 59 48 60 33 61 34 62 42 63 35 64 41 65
REMARK SMILES IDX 36 66 37 67 38 68 39 69 40 70 63 71 64 72 72 73 65 74 71 75
REMARK SMILES IDX 66 76 67 77 68 78 69 79 70 80 49 81 50 82 58 83 51 84 57 85
REMARK SMILES IDX 52 86 53 87 54 88 55 89 56 90
REMARK H PARENT 7 15 77 46 47 57
REMARK Flexibility Score: inf
ROOT
ATOM      1  C   UNL     1      -4.933   9.006  -2.458  1.00  0.00     0.275 C 
ENDROOT
BRANCH   1   2
ATOM      2  O   UNL     1      -3.648   8.363  -2.582  1.00  0.00    -0.458 OA
BRANCH   2   3
ATOM      3  C   UNL     1      -3.528   7.209  -1.880  1.00  0.00     0.338 C 
ATOM      4  O   UNL     1      -4.357   6.731  -1.122  1.00  0.00    -0.246 OA
BRANCH   3   5
ATOM      5  C   UNL     1      -2.271   6.509  -2.221  1.00  0.00     0.060 A 
ATOM      6  C   UNL     1       0.081   5.033  -2.663  1.00  0.00    -0.039 A 
ATOM      7  C   UNL     1      -1.153   4.386  -2.493  1.00  0.00     0.005 A 
ATOM      8  C   UNL     1       0.108   6.436  -2.674  1.00  0.00     0.005 A 
ATOM      9  C   UNL     1      -2.302   5.114  -2.226  1.00  0.00     0.016 A 
ATOM     10  C   UNL     1      -1.068   7.175  -2.472  1.00  0.00     0.016 A 
BRANCH   6  11
ATOM     11  C   UNL     1       1.361   4.207  -2.714  1.00  0.00     0.074 C 
ATOM     12  N   UNL     1       2.528   2.332  -1.431  1.00  0.00    -0.327 N 
ATOM     13  C   UNL     1       2.489   1.497  -2.640  1.00  0.00     0.262 C 
ATOM     14  C   UNL     1       1.451   3.335  -1.433  1.00  0.00     0.270 C 
ATOM     15  H   UNL     1       3.420   2.826  -1.436  1.00  0.00     0.348 HD
ATOM     16  C   UNL     1       2.588   2.354  -3.903  1.00  0.00     0.062 C 
ATOM     17  C   UNL     1       1.431   3.346  -3.983  1.00  0.00     0.020 C 
BRANCH  12  18
ATOM     18  C   UNL     1       2.460   1.499  -0.195  1.00  0.00     0.364 C 
BRANCH  18  19
ATOM     19  C   UNL     1       1.234   0.650  -0.024  1.00  0.00     0.281 A 
ATOM     20  C   UNL     1      -2.138  -0.311   0.255  1.00  0.00     0.093 C 
ATOM     21  C   UNL     1      -0.669  -0.205   0.146  1.00  0.00     0.169 A 
ATOM     22  N   UNL     1       0.125  -1.263  -0.063  1.00  0.00    -0.063 NA
ATOM     23  N   UNL     1      -0.015   1.000   0.203  1.00  0.00    -0.191 NA
ATOM     24  O   UNL     1       1.395  -0.697  -0.177  1.00  0.00    -0.333 OA
ENDBRANCH  18  19
ENDBRANCH  12  18
ENDBRANCH   6  11
ENDBRANCH   3   5
ENDBRANCH   2   3
ENDBRANCH   1   2
BRANCH   1  25
ATOM     25  C   UNL     1      -5.850   8.604  -3.613  1.00  0.00     0.275 C 
BRANCH  25  26
ATOM     26  O   UNL     1      -6.106   7.189  -3.571  1.00  0.00    -0.458 OA
BRANCH  26  27
ATOM     27  C   UNL     1      -6.174   6.572  -4.776  1.00  0.00     0.338 C 
ATOM     28  O   UNL     1      -6.091   7.104  -5.870  1.00  0.00    -0.246 OA
BRANCH  27  29
ATOM     29  C   UNL     1      -6.387   5.118  -4.602  1.00  0.00     0.060 A 
ATOM     30  C   UNL     1      -5.680   4.398  -3.640  1.00  0.00     0.016 A 
ATOM     31  C   UNL     1      -7.229   4.441  -5.484  1.00  0.00     0.016 A 
ATOM     32  C   UNL     1      -5.726   3.000  -3.627  1.00  0.00     0.010 A 
ATOM     33  C   UNL     1      -7.353   3.048  -5.402  1.00  0.00     0.010 A 
ATOM     34  C   UNL     1      -6.566   2.300  -4.508  1.00  0.00    -0.014 A 
BRANCH  34  35
ATOM     35  C   UNL     1      -6.580   0.804  -4.554  1.00  0.00     0.031 A 
ATOM     36  C   UNL     1      -6.301   0.083  -5.855  1.00  0.00     0.074 A 
ATOM     37  C   UNL     1      -6.828   0.066  -3.451  1.00  0.00     0.049 A 
ATOM     38  N   UNL     1      -6.461  -1.183  -6.154  1.00  0.00    -0.248 NA
ATOM     39  C   UNL     1      -5.792   0.897  -6.971  1.00  0.00     0.031 C 
ATOM     40  C   UNL     1      -7.070   0.592  -2.107  1.00  0.00     0.029 A 
ATOM     41  N   UNL     1      -6.905  -1.298  -3.288  1.00  0.00    -0.354 N 
ATOM     42  C   UNL     1      -6.149  -1.300  -7.505  1.00  0.00     0.074 A 
ATOM     43  C   UNL     1      -5.784   0.022  -7.966  1.00  0.00     0.031 C 
ATOM     44  C   UNL     1      -7.209  -0.432  -1.250  1.00  0.00     0.029 A 
ATOM     45  C   UNL     1      -7.156  -1.688  -1.993  1.00  0.00     0.049 A 
ATOM     46  H   UNL     1      -6.790  -1.936  -4.029  1.00  0.00     0.167 HD
ATOM     47  C   UNL     1      -6.167  -2.401  -8.295  1.00  0.00     0.031 A 
ATOM     48  C   UNL     1      -7.359  -2.909  -1.459  1.00  0.00     0.031 A 
ATOM     49  C   UNL     1      -6.465  -3.732  -7.834  1.00  0.00     0.049 A 
ATOM     50  C   UNL     1      -7.374  -4.120  -2.349  1.00  0.00     0.074 A 
ATOM     51  C   UNL     1      -6.508  -4.908  -8.565  1.00  0.00     0.029 A 
ATOM     52  N   UNL     1      -6.738  -4.069  -6.519  1.00  0.00    -0.354 N 
ATOM     53  N   UNL     1      -7.173  -4.193  -3.642  1.00  0.00    -0.248 NA
ATOM     54  C   UNL     1      -7.670  -5.410  -1.708  1.00  0.00     0.031 C 
ATOM     55  C   UNL     1      -6.828  -5.955  -7.692  1.00  0.00     0.029 A 
ATOM     56  C   UNL     1      -6.949  -5.434  -6.415  1.00  0.00     0.049 A 
ATOM     57  H   UNL     1      -6.777  -3.433  -5.769  1.00  0.00     0.167 HD
ATOM     58  C   UNL     1      -7.319  -5.536  -3.970  1.00  0.00     0.074 A 
ATOM     59  C   UNL     1      -7.602  -6.243  -2.738  1.00  0.00     0.031 C 
ATOM     60  C   UNL     1      -7.235  -6.127  -5.186  1.00  0.00     0.031 A 
BRANCH  47  61
ATOM     61  C   UNL     1      -5.895  -2.202  -9.763  1.00  0.00    -0.014 A 
ATOM     62  C   UNL     1      -4.596  -1.964 -10.244  1.00  0.00     0.010 A 
ATOM     63  C   UNL     1      -6.963  -2.274 -10.676  1.00  0.00     0.010 A 
ATOM     64  C   UNL     1      -4.378  -1.753 -11.609  1.00  0.00     0.020 A 
ATOM     65  C   UNL     1      -6.746  -2.086 -12.044  1.00  0.00     0.020 A 
ATOM     66  C   UNL     1      -5.456  -1.804 -12.499  1.00  0.00     0.054 A 
BRANCH  66  67
ATOM     67  S   UNL     1      -5.154  -1.526 -14.266  1.00  0.00     0.124 S 
ATOM     68  O   UNL     1      -5.072  -0.069 -14.330  1.00  0.00    -0.237 OA
ATOM     69  O   UNL     1      -3.898  -2.235 -14.498  1.00  0.00    -0.237 OA
ATOM     70  O   UNL     1      -6.324  -2.115 -14.913  1.00  0.00    -0.744 OA
ENDBRANCH  66  67
ENDBRANCH  47  61
BRANCH  48  71
ATOM     71  C   UNL     1      -7.598  -3.042   0.003  1.00  0.00    -0.014 A 
ATOM     72  C   UNL     1      -6.600  -3.571   0.839  1.00  0.00     0.010 A 
ATOM     73  C   UNL     1      -8.811  -2.609   0.569  1.00  0.00     0.010 A 
ATOM     74  C   UNL     1      -6.808  -3.659   2.219  1.00  0.00     0.020 A 
ATOM     75  C   UNL     1      -9.012  -2.673   1.950  1.00  0.00     0.020 A 
ATOM     76  C   UNL     1      -8.011  -3.203   2.766  1.00  0.00     0.054 A 
BRANCH  76  77
ATOM     77  S   UNL     1      -8.229  -3.235   4.567  1.00  0.00     0.124 S 
ATOM     78  O   UNL     1      -8.614  -4.623   4.801  1.00  0.00    -0.237 OA
ATOM     79  O   UNL     1      -6.907  -2.853   5.057  1.00  0.00    -0.237 OA
ATOM     80  O   UNL     1      -9.278  -2.244   4.797  1.00  0.00    -0.744 OA
ENDBRANCH  76  77
ENDBRANCH  48  71
BRANCH  60  81
ATOM     81  C   UNL     1      -7.435  -7.616  -5.243  1.00  0.00    -0.014 A 
ATOM     82  C   UNL     1      -8.723  -8.174  -5.169  1.00  0.00     0.010 A 
ATOM     83  C   UNL     1      -6.325  -8.463  -5.409  1.00  0.00     0.010 A 
ATOM     84  C   UNL     1      -8.895  -9.560  -5.233  1.00  0.00     0.020 A 
ATOM     85  C   UNL     1      -6.495  -9.848  -5.490  1.00  0.00     0.020 A 
ATOM     86  C   UNL     1      -7.779 -10.389  -5.387  1.00  0.00     0.054 A 
BRANCH  86  87
ATOM     87  S   UNL     1      -8.026 -12.183  -5.503  1.00  0.00     0.124 S 
ATOM     88  O   UNL     1      -8.215 -12.553  -4.103  1.00  0.00    -0.237 OA
ATOM     89  O   UNL     1      -9.212 -12.294  -6.348  1.00  0.00    -0.237 OA
ATOM     90  O   UNL     1      -6.788 -12.662  -6.113  1.00  0.00    -0.744 OA
ENDBRANCH  86  87
ENDBRANCH  60  81
ENDBRANCH  34  35
ENDBRANCH  27  29
ENDBRANCH  26  27
ENDBRANCH  25  26
ENDBRANCH   1  25
TORSDOF 17
