REMARK SMILES C[C@@]([NH2+]CC(=O)NC1CCOCC1)(C(=O)OCCOC(=O)c1ccc(-c2c3nc(c(-c4ccc(S(=O)(=O)[O-])cc4)c4ccc([nH]4)c(-c4ccc(S(=O)(=O)[O-])cc4)c4nc(c(-c5ccc(S(=O)(=O)[O-])cc5)c5ccc2[nH]5)C=C4)C=C3)cc1)C(F)(F)F
REMARK SMILES IDX 17 1 16 2 14 3 15 4 2 5 1 6 3 7 4 10 5 11 6 12 7 13 8 15
REMARK SMILES IDX 9 16 13 17 10 18 12 19 11 20 82 21 83 22 84 23 85 24 18 25
REMARK SMILES IDX 19 26 20 27 21 28 22 29 23 30 81 31 24 32 80 33 25 34 26 35
REMARK SMILES IDX 27 36 74 37 28 38 79 39 73 40 75 41 29 42 78 43 72 44 71 45
REMARK SMILES IDX 30 47 60 48 41 49 59 50 42 51 45 52 58 53 76 54 43 55 44 56
REMARK SMILES IDX 57 58 77 59 46 60 31 61 32 62 40 63 33 64 39 65 34 66 35 67
REMARK SMILES IDX 36 68 37 69 38 70 61 71 62 72 70 73 63 74 69 75 64 76 65 77
REMARK SMILES IDX 66 78 67 79 68 80 47 81 48 82 56 83 49 84 55 85 50 86 51 87
REMARK SMILES IDX 52 88 53 89 54 90
REMARK H PARENT 3 8 3 9 7 14 75 46 45 57
REMARK Flexibility Score: inf
ROOT
ATOM      1  C   UNL     1      -2.637   0.642   1.373  1.00  0.00     0.274 C 
ENDROOT
BRANCH   1   2
ATOM      2  O   UNL     1      -1.176   0.813   1.207  1.00  0.00    -0.457 OA
BRANCH   2   3
ATOM      3  C   UNL     1      -0.422   0.108   2.117  1.00  0.00     0.377 C 
ATOM      4  O   UNL     1      -1.025  -0.616   2.911  1.00  0.00    -0.244 OA
BRANCH   3   5
ATOM      5  C   UNL     1       1.210   0.388   2.189  1.00  0.00     0.287 C 
ATOM      6  C   UNL     1       1.307   1.893   1.833  1.00  0.00     0.103 C 
BRANCH   5   7
ATOM      7  N   UNL     1       1.485   0.038   3.628  1.00  0.00    -0.317 N 
ATOM      8  H   UNL     1       0.886   0.611   4.223  1.00  0.00     0.347 HD
ATOM      9  H   UNL     1       2.474   0.215   3.802  1.00  0.00     0.347 HD
BRANCH   7  10
ATOM     10  C   UNL     1       1.218  -1.442   3.945  1.00  0.00     0.363 C 
BRANCH  10  11
ATOM     11  C   UNL     1       0.654  -2.493   2.863  1.00  0.00     0.275 C 
ATOM     12  O   UNL     1      -0.028  -3.451   3.240  1.00  0.00    -0.268 OA
ATOM     13  N   UNL     1       1.145  -2.506   1.562  1.00  0.00    -0.348 N 
ATOM     14  H   UNL     1       2.123  -2.440   1.480  1.00  0.00     0.163 HD
BRANCH  13  15
ATOM     15  C   UNL     1       0.397  -2.607   0.262  1.00  0.00     0.086 C 
ATOM     16  C   UNL     1       1.154  -3.389  -0.806  1.00  0.00     0.053 C 
ATOM     17  C   UNL     1      -0.135  -1.298  -0.319  1.00  0.00     0.053 C 
ATOM     18  C   UNL     1       0.490  -3.261  -2.176  1.00  0.00     0.162 C 
ATOM     19  C   UNL     1      -0.494  -1.198  -1.783  1.00  0.00     0.162 C 
ATOM     20  O   UNL     1       0.442  -1.895  -2.572  1.00  0.00    -0.381 OA
ENDBRANCH  13  15
ENDBRANCH  10  11
ENDBRANCH   7  10
ENDBRANCH   5   7
BRANCH   5  21
ATOM     21  C   UNL     1       2.507  -0.193   1.417  1.00  0.00     0.455 C 
ATOM     22  F   UNL     1       2.421  -0.401   0.096  1.00  0.00    -0.164 F 
ATOM     23  F   UNL     1       3.537   0.708   1.554  1.00  0.00    -0.164 F 
ATOM     24  F   UNL     1       3.052  -1.304   1.986  1.00  0.00    -0.164 F 
ENDBRANCH   5  21
ENDBRANCH   3   5
ENDBRANCH   2   3
ENDBRANCH   1   2
BRANCH   1  25
ATOM     25  C   UNL     1      -3.374  -0.402   0.467  1.00  0.00     0.275 C 
BRANCH  25  26
ATOM     26  O   UNL     1      -3.083  -1.808   0.715  1.00  0.00    -0.458 OA
BRANCH  26  27
ATOM     27  C   UNL     1      -3.643  -2.682  -0.201  1.00  0.00     0.338 C 
ATOM     28  O   UNL     1      -4.431  -2.360  -1.059  1.00  0.00    -0.246 OA
BRANCH  27  29
ATOM     29  C   UNL     1      -3.011  -4.055  -0.165  1.00  0.00     0.060 A 
ATOM     30  C   UNL     1      -2.216  -4.463   0.892  1.00  0.00     0.016 A 
ATOM     31  C   UNL     1      -3.066  -4.896  -1.291  1.00  0.00     0.016 A 
ATOM     32  C   UNL     1      -1.305  -5.523   0.712  1.00  0.00     0.010 A 
ATOM     33  C   UNL     1      -2.269  -6.070  -1.383  1.00  0.00     0.010 A 
ATOM     34  C   UNL     1      -1.323  -6.389  -0.400  1.00  0.00    -0.014 A 
BRANCH  34  35
ATOM     35  C   UNL     1      -0.408  -7.601  -0.482  1.00  0.00     0.031 A 
ATOM     36  C   UNL     1       0.307  -8.026  -1.766  1.00  0.00     0.074 A 
ATOM     37  C   UNL     1      -0.191  -8.366   0.618  1.00  0.00     0.049 A 
ATOM     38  N   UNL     1       0.886  -9.171  -2.060  1.00  0.00    -0.248 NA
ATOM     39  C   UNL     1       0.399  -7.042  -2.856  1.00  0.00     0.031 C 
ATOM     40  C   UNL     1      -0.721  -8.104   1.960  1.00  0.00     0.029 A 
ATOM     41  N   UNL     1       0.534  -9.528   0.792  1.00  0.00    -0.354 N 
ATOM     42  C   UNL     1       1.346  -9.066  -3.377  1.00  0.00     0.074 A 
ATOM     43  C   UNL     1       1.008  -7.730  -3.817  1.00  0.00     0.031 C 
ATOM     44  C   UNL     1      -0.246  -9.007   2.821  1.00  0.00     0.029 A 
ATOM     45  C   UNL     1       0.439 -10.041   2.068  1.00  0.00     0.049 A 
ATOM     46  H   UNL     1       1.064  -9.948   0.077  1.00  0.00     0.167 HD
ATOM     47  C   UNL     1       1.965 -10.001  -4.150  1.00  0.00     0.031 A 
ATOM     48  C   UNL     1       0.733 -11.249   2.590  1.00  0.00     0.031 A 
ATOM     49  C   UNL     1       2.325 -11.325  -3.691  1.00  0.00     0.049 A 
ATOM     50  C   UNL     1       1.288 -12.311   1.698  1.00  0.00     0.074 A 
ATOM     51  C   UNL     1       2.942 -12.347  -4.398  1.00  0.00     0.029 A 
ATOM     52  N   UNL     1       2.110 -11.812  -2.410  1.00  0.00    -0.354 N 
ATOM     53  N   UNL     1       1.596 -12.233   0.427  1.00  0.00    -0.248 NA
ATOM     54  C   UNL     1       1.508 -13.630   2.302  1.00  0.00     0.031 C 
ATOM     55  C   UNL     1       3.038 -13.468  -3.566  1.00  0.00     0.029 A 
ATOM     56  C   UNL     1       2.553 -13.123  -2.317  1.00  0.00     0.049 A 
ATOM     57  H   UNL     1       1.704 -11.300  -1.673  1.00  0.00     0.167 HD
ATOM     58  C   UNL     1       2.062 -13.493   0.080  1.00  0.00     0.074 A 
ATOM     59  C   UNL     1       2.013 -14.306   1.280  1.00  0.00     0.031 C 
ATOM     60  C   UNL     1       2.492 -13.933  -1.127  1.00  0.00     0.031 A 
BRANCH  47  61
ATOM     61  C   UNL     1       2.243  -9.687  -5.610  1.00  0.00    -0.014 A 
ATOM     62  C   UNL     1       3.268  -8.813  -6.014  1.00  0.00     0.010 A 
ATOM     63  C   UNL     1       1.532 -10.390  -6.607  1.00  0.00     0.010 A 
ATOM     64  C   UNL     1       3.554  -8.629  -7.377  1.00  0.00     0.020 A 
ATOM     65  C   UNL     1       1.832 -10.231  -7.965  1.00  0.00     0.020 A 
ATOM     66  C   UNL     1       2.834  -9.338  -8.344  1.00  0.00     0.054 A 
BRANCH  66  67
ATOM     67  S   UNL     1       3.245  -9.105 -10.099  1.00  0.00     0.124 S 
ATOM     68  O   UNL     1       2.765  -7.747 -10.344  1.00  0.00    -0.237 OA
ATOM     69  O   UNL     1       4.697  -9.269 -10.114  1.00  0.00    -0.237 OA
ATOM     70  O   UNL     1       2.495 -10.159 -10.778  1.00  0.00    -0.744 OA
ENDBRANCH  66  67
ENDBRANCH  47  61
BRANCH  48  71
ATOM     71  C   UNL     1       0.353 -11.542   4.003  1.00  0.00    -0.014 A 
ATOM     72  C   UNL     1       1.327 -11.736   4.994  1.00  0.00     0.010 A 
ATOM     73  C   UNL     1      -1.009 -11.554   4.372  1.00  0.00     0.010 A 
ATOM     74  C   UNL     1       0.947 -11.922   6.328  1.00  0.00     0.020 A 
ATOM     75  C   UNL     1      -1.390 -11.692   5.707  1.00  0.00     0.020 A 
ATOM     76  C   UNL     1      -0.407 -11.885   6.677  1.00  0.00     0.054 A 
BRANCH  76  77
ATOM     77  S   UNL     1      -0.871 -12.033   8.425  1.00  0.00     0.124 S 
ATOM     78  O   UNL     1      -0.662 -13.456   8.673  1.00  0.00    -0.237 OA
ATOM     79  O   UNL     1       0.071 -11.130   9.080  1.00  0.00    -0.237 OA
ATOM     80  O   UNL     1      -2.264 -11.590   8.448  1.00  0.00    -0.744 OA
ENDBRANCH  76  77
ENDBRANCH  48  71
BRANCH  60  81
ATOM     81  C   UNL     1       2.996 -15.348  -1.191  1.00  0.00    -0.014 A 
ATOM     82  C   UNL     1       2.118 -16.443  -1.104  1.00  0.00     0.010 A 
ATOM     83  C   UNL     1       4.375 -15.582  -1.336  1.00  0.00     0.010 A 
ATOM     84  C   UNL     1       2.617 -17.748  -1.117  1.00  0.00     0.020 A 
ATOM     85  C   UNL     1       4.874 -16.885  -1.380  1.00  0.00     0.020 A 
ATOM     86  C   UNL     1       3.993 -17.960  -1.252  1.00  0.00     0.054 A 
BRANCH  86  87
ATOM     87  S   UNL     1       4.613 -19.663  -1.286  1.00  0.00     0.124 S 
ATOM     88  O   UNL     1       4.456 -20.072   0.107  1.00  0.00    -0.237 OA
ATOM     89  O   UNL     1       3.714 -20.312  -2.237  1.00  0.00    -0.237 OA
ATOM     90  O   UNL     1       5.995 -19.520  -1.741  1.00  0.00    -0.744 OA
ENDBRANCH  86  87
ENDBRANCH  60  81
ENDBRANCH  34  35
ENDBRANCH  27  29
ENDBRANCH  26  27
ENDBRANCH  25  26
ENDBRANCH   1  25
TORSDOF 19
