REMARK SMILES CC(C)Nc1ncc(C(=O)N2CCC[C@H](c3cccc(C(=O)OCCOC(=O)c4ccc(-c5c6nc(c(-c7ccc(S(=O)(=O)[O-])cc7)c7ccc([nH]7)c(-c7ccc(S(=O)(=O)[O-])cc7)c7nc(c(-c8ccc(S(=O)(=O)[O-])cc8)c8ccc5[nH]8)C=C7)C=C6)cc4)c3)C2)cn1
REMARK SMILES IDX 24 1 23 2 21 3 22 4 20 5 16 6 17 7 89 8 18 9 19 10 15 11
REMARK SMILES IDX 11 12 12 13 90 14 13 15 14 16 9 17 10 18 8 19 5 20 6 21
REMARK SMILES IDX 92 22 7 23 91 24 4 25 2 27 1 28 3 29 25 30 26 31 27 32 28 33
REMARK SMILES IDX 29 34 30 35 88 36 31 37 87 38 32 39 33 40 34 41 81 42 35 43
REMARK SMILES IDX 86 44 80 45 82 46 36 47 85 48 79 49 78 50 37 52 67 53 48 54
REMARK SMILES IDX 66 55 49 56 52 57 65 58 83 59 50 60 51 61 64 63 84 64 53 65
REMARK SMILES IDX 38 66 39 67 47 68 40 69 46 70 41 71 42 72 43 73 44 74 45 75
REMARK SMILES IDX 68 76 69 77 77 78 70 79 76 80 71 81 72 82 73 83 74 84 75 85
REMARK SMILES IDX 54 86 55 87 63 88 56 89 62 90 57 91 58 92 59 93 60 94 61 95
REMARK H PARENT 4 26 82 51 52 62
REMARK Flexibility Score: inf
ROOT
ATOM      1  C   UNL     1      -4.666  13.316   2.579  1.00  0.00     0.275 C 
ENDROOT
BRANCH   1   2
ATOM      2  O   UNL     1      -4.539  11.944   2.152  1.00  0.00    -0.458 OA
BRANCH   2   3
ATOM      3  C   UNL     1      -4.181  11.757   0.856  1.00  0.00     0.338 C 
ATOM      4  O   UNL     1      -4.026  12.627   0.015  1.00  0.00    -0.246 OA
BRANCH   3   5
ATOM      5  C   UNL     1      -3.865  10.328   0.610  1.00  0.00     0.060 A 
ATOM      6  C   UNL     1      -4.276   7.951   0.937  1.00  0.00    -0.042 A 
ATOM      7  C   UNL     1      -3.134   7.680   0.169  1.00  0.00     0.004 A 
ATOM      8  C   UNL     1      -4.555   9.296   1.250  1.00  0.00     0.019 A 
ATOM      9  C   UNL     1      -2.452   8.702  -0.482  1.00  0.00     0.001 A 
ATOM     10  C   UNL     1      -2.875  10.014  -0.326  1.00  0.00     0.016 A 
BRANCH   6  11
ATOM     11  C   UNL     1      -5.274   6.855   1.323  1.00  0.00     0.039 C 
ATOM     12  N   UNL     1      -5.257   5.470  -0.780  1.00  0.00    -0.338 N 
ATOM     13  C   UNL     1      -6.538   6.009  -1.230  1.00  0.00     0.120 C 
ATOM     14  C   UNL     1      -5.022   5.458   0.678  1.00  0.00     0.128 C 
ATOM     15  C   UNL     1      -6.870   7.349  -0.593  1.00  0.00     0.022 C 
ATOM     16  C   UNL     1      -6.716   7.275   0.930  1.00  0.00     0.012 C 
BRANCH  12  17
ATOM     17  C   UNL     1      -4.325   5.109  -1.752  1.00  0.00     0.257 C 
ATOM     18  O   UNL     1      -4.318   5.589  -2.883  1.00  0.00    -0.269 OA
BRANCH  17  19
ATOM     19  C   UNL     1      -3.369   4.027  -1.482  1.00  0.00     0.076 A 
ATOM     20  C   UNL     1      -1.738   1.852  -1.296  1.00  0.00     0.222 A 
ATOM     21  N   UNL     1      -2.931   1.804  -0.682  1.00  0.00    -0.221 NA
ATOM     22  N   UNL     1      -1.300   2.914  -1.988  1.00  0.00    -0.221 NA
ATOM     23  C   UNL     1      -3.721   2.894  -0.791  1.00  0.00     0.130 A 
ATOM     24  C   UNL     1      -2.138   3.973  -2.092  1.00  0.00     0.130 A 
BRANCH  20  25
ATOM     25  N   UNL     1      -0.989   0.716  -1.193  1.00  0.00    -0.352 N 
ATOM     26  H   UNL     1      -1.447  -0.135  -1.004  1.00  0.00     0.163 HD
BRANCH  25  27
ATOM     27  C   UNL     1       0.448   0.707  -1.350  1.00  0.00     0.076 C 
ATOM     28  C   UNL     1       1.051   0.076  -0.094  1.00  0.00     0.030 C 
ATOM     29  C   UNL     1       0.829  -0.098  -2.588  1.00  0.00     0.030 C 
ENDBRANCH  25  27
ENDBRANCH  20  25
ENDBRANCH  17  19
ENDBRANCH  12  17
ENDBRANCH   6  11
ENDBRANCH   3   5
ENDBRANCH   2   3
ENDBRANCH   1   2
BRANCH   1  30
ATOM     30  C   UNL     1      -3.475  13.726   3.445  1.00  0.00     0.275 C 
BRANCH  30  31
ATOM     31  O   UNL     1      -2.273  13.760   2.655  1.00  0.00    -0.458 OA
BRANCH  31  32
ATOM     32  C   UNL     1      -1.360  12.802   2.938  1.00  0.00     0.338 C 
ATOM     33  O   UNL     1      -1.415  11.960   3.817  1.00  0.00    -0.246 OA
BRANCH  32  34
ATOM     34  C   UNL     1      -0.272  12.854   1.950  1.00  0.00     0.060 A 
ATOM     35  C   UNL     1      -0.521  12.342   0.683  1.00  0.00     0.016 A 
ATOM     36  C   UNL     1       1.014  13.251   2.296  1.00  0.00     0.016 A 
ATOM     37  C   UNL     1       0.520  12.108  -0.209  1.00  0.00     0.010 A 
ATOM     38  C   UNL     1       2.046  13.129   1.353  1.00  0.00     0.010 A 
ATOM     39  C   UNL     1       1.822  12.516   0.103  1.00  0.00    -0.014 A 
BRANCH  39  40
ATOM     40  C   UNL     1       2.943  12.265  -0.851  1.00  0.00     0.031 A 
ATOM     41  C   UNL     1       4.154  11.479  -0.409  1.00  0.00     0.074 A 
ATOM     42  C   UNL     1       2.882  12.716  -2.122  1.00  0.00     0.049 A 
ATOM     43  N   UNL     1       5.296  11.299  -1.024  1.00  0.00    -0.248 NA
ATOM     44  C   UNL     1       4.073  10.820   0.904  1.00  0.00     0.031 C 
ATOM     45  C   UNL     1       1.751  13.429  -2.721  1.00  0.00     0.029 A 
ATOM     46  N   UNL     1       3.793  12.630  -3.148  1.00  0.00    -0.354 N 
ATOM     47  C   UNL     1       6.089  10.563  -0.149  1.00  0.00     0.074 A 
ATOM     48  C   UNL     1       5.300  10.341   1.044  1.00  0.00     0.031 C 
ATOM     49  C   UNL     1       2.011  13.665  -4.015  1.00  0.00     0.029 A 
ATOM     50  C   UNL     1       3.366  13.219  -4.316  1.00  0.00     0.049 A 
ATOM     51  H   UNL     1       4.668  12.188  -3.057  1.00  0.00     0.167 HD
ATOM     52  C   UNL     1       7.357  10.114  -0.320  1.00  0.00     0.031 A 
ATOM     53  C   UNL     1       4.000  13.423  -5.488  1.00  0.00     0.031 A 
ATOM     54  C   UNL     1       8.128  10.310  -1.521  1.00  0.00     0.049 A 
ATOM     55  C   UNL     1       5.428  12.982  -5.634  1.00  0.00     0.074 A 
ATOM     56  C   UNL     1       9.420   9.893  -1.794  1.00  0.00     0.029 A 
ATOM     57  N   UNL     1       7.675  10.970  -2.654  1.00  0.00    -0.354 N 
ATOM     58  N   UNL     1       6.185  12.346  -4.772  1.00  0.00    -0.248 NA
ATOM     59  C   UNL     1       6.093  13.302  -6.904  1.00  0.00     0.031 C 
ATOM     60  C   UNL     1       9.765  10.345  -3.073  1.00  0.00     0.029 A 
ATOM     61  C   UNL     1       8.668  10.990  -3.621  1.00  0.00     0.049 A 
ATOM     62  H   UNL     1       6.780  11.365  -2.757  1.00  0.00     0.167 HD
ATOM     63  C   UNL     1       7.412  12.174  -5.403  1.00  0.00     0.074 A 
ATOM     64  C   UNL     1       7.289  12.759  -6.723  1.00  0.00     0.031 C 
ATOM     65  C   UNL     1       8.537  11.583  -4.929  1.00  0.00     0.031 A 
BRANCH  52  66
ATOM     66  C   UNL     1       8.008   9.416   0.850  1.00  0.00    -0.014 A 
ATOM     67  C   UNL     1       7.588   8.145   1.282  1.00  0.00     0.010 A 
ATOM     68  C   UNL     1       9.059  10.055   1.535  1.00  0.00     0.010 A 
ATOM     69  C   UNL     1       8.158   7.559   2.417  1.00  0.00     0.020 A 
ATOM     70  C   UNL     1       9.655   9.457   2.649  1.00  0.00     0.020 A 
ATOM     71  C   UNL     1       9.180   8.225   3.100  1.00  0.00     0.054 A 
BRANCH  71  72
ATOM     72  S   UNL     1       9.884   7.457   4.586  1.00  0.00     0.124 S 
ATOM     73  O   UNL     1       8.819   7.666   5.564  1.00  0.00    -0.237 OA
ATOM     74  O   UNL     1      10.087   6.072   4.168  1.00  0.00    -0.237 OA
ATOM     75  O   UNL     1      11.107   8.218   4.825  1.00  0.00    -0.744 OA
ENDBRANCH  71  72
ENDBRANCH  52  66
BRANCH  53  76
ATOM     76  C   UNL     1       3.290  14.112  -6.601  1.00  0.00    -0.014 A 
ATOM     77  C   UNL     1       2.920  13.403  -7.757  1.00  0.00     0.010 A 
ATOM     78  C   UNL     1       2.940  15.472  -6.493  1.00  0.00     0.010 A 
ATOM     79  C   UNL     1       2.209  14.038  -8.780  1.00  0.00     0.020 A 
ATOM     80  C   UNL     1       2.204  16.102  -7.500  1.00  0.00     0.020 A 
ATOM     81  C   UNL     1       1.847  15.381  -8.641  1.00  0.00     0.054 A 
BRANCH  81  82
ATOM     82  S   UNL     1       0.852  16.160  -9.944  1.00  0.00     0.124 S 
ATOM     83  O   UNL     1       1.827  16.316 -11.018  1.00  0.00    -0.237 OA
ATOM     84  O   UNL     1      -0.194  15.168 -10.177  1.00  0.00    -0.237 OA
ATOM     85  O   UNL     1       0.394  17.403  -9.327  1.00  0.00    -0.744 OA
ENDBRANCH  81  82
ENDBRANCH  53  76
BRANCH  65  86
ATOM     86  C   UNL     1       9.719  11.508  -5.859  1.00  0.00    -0.014 A 
ATOM     87  C   UNL     1      10.477  12.650  -6.172  1.00  0.00     0.010 A 
ATOM     88  C   UNL     1      10.102  10.263  -6.392  1.00  0.00     0.010 A 
ATOM     89  C   UNL     1      11.579  12.553  -7.026  1.00  0.00     0.020 A 
ATOM     90  C   UNL     1      11.219  10.158  -7.224  1.00  0.00     0.020 A 
ATOM     91  C   UNL     1      11.944  11.307  -7.547  1.00  0.00     0.054 A 
BRANCH  91  92
ATOM     92  S   UNL     1      13.404  11.200  -8.618  1.00  0.00     0.124 S 
ATOM     93  O   UNL     1      12.918  11.803  -9.856  1.00  0.00    -0.237 OA
ATOM     94  O   UNL     1      14.397  11.982  -7.885  1.00  0.00    -0.237 OA
ATOM     95  O   UNL     1      13.678   9.766  -8.688  1.00  0.00    -0.744 OA
ENDBRANCH  91  92
ENDBRANCH  65  86
ENDBRANCH  39  40
ENDBRANCH  32  34
ENDBRANCH  31  32
ENDBRANCH  30  31
ENDBRANCH   1  30
TORSDOF 19
