REMARK SMILES CC(C)C[C@H](C(=O)OCCOC(=O)c1ccc(-c2c3nc(c(-c4ccc(S(=O)(=O)[O-])cc4)c4ccc([nH]4)c(-c4ccc(S(=O)(=O)[O-])cc4)c4nc(c(-c5ccc(S(=O)(=O)[O-])cc5)c5ccc2[nH]5)C=C4)C=C3)cc1)N1C(=O)/C(=C2\C(=O)Nc3ccc(Br)cc32)SC1=S
REMARK SMILES IDX 10 1 9 2 8 3 6 4 7 5 5 6 4 7 2 8 1 9 3 10 74 11 75 12 90 13
REMARK SMILES IDX 76 14 77 15 89 16 91 17 78 18 79 19 88 20 80 21 81 22 82 23
REMARK SMILES IDX 87 24 83 26 85 27 84 28 86 29 11 30 12 31 13 32 14 33 15 34
REMARK SMILES IDX 73 35 16 36 72 37 17 38 18 39 19 40 66 41 20 42 71 43 65 44
REMARK SMILES IDX 67 45 21 46 70 47 64 48 63 49 22 51 52 52 33 53 51 54 34 55
REMARK SMILES IDX 37 56 50 57 68 58 35 59 36 60 49 62 69 63 38 64 23 65 24 66
REMARK SMILES IDX 32 67 25 68 31 69 26 70 27 71 28 72 29 73 30 74 53 75 54 76
REMARK SMILES IDX 62 77 55 78 61 79 56 80 57 81 58 82 59 83 60 84 39 85 40 86
REMARK SMILES IDX 48 87 41 88 47 89 42 90 43 91 44 92 45 93 46 94
REMARK H PARENT 81 25 67 50 37 61
REMARK Flexibility Score: inf
ROOT
ATOM      1  C   UNL     1       1.258  -2.796  -0.636  1.00  0.00     0.275 C 
ENDROOT
BRANCH   1   2
ATOM      2  C   UNL     1      -0.223  -3.048  -0.912  1.00  0.00     0.274 C 
BRANCH   2   3
ATOM      3  O   UNL     1      -0.773  -1.941  -1.644  1.00  0.00    -0.461 OA
BRANCH   3   4
ATOM      4  C   UNL     1      -1.550  -1.062  -0.952  1.00  0.00     0.329 C 
ATOM      5  O   UNL     1      -1.843  -1.159   0.235  1.00  0.00    -0.250 OA
BRANCH   4   6
ATOM      6  C   UNL     1      -2.082   0.067  -1.862  1.00  0.00     0.202 C 
BRANCH   6   7
ATOM      7  C   UNL     1      -1.278   0.240  -3.179  1.00  0.00     0.040 C 
BRANCH   7   8
ATOM      8  C   UNL     1      -1.087   1.700  -3.650  1.00  0.00    -0.015 C 
ATOM      9  C   UNL     1      -0.207   2.515  -2.697  1.00  0.00     0.007 C 
ATOM     10  C   UNL     1      -0.461   1.719  -5.047  1.00  0.00     0.007 C 
ENDBRANCH   7   8
ENDBRANCH   6   7
BRANCH   6  11
ATOM     11  N   UNL     1      -3.530  -0.070  -2.125  1.00  0.00    -0.278 N 
ATOM     12  C   UNL     1      -4.041  -1.331  -2.356  1.00  0.00     0.267 C 
ATOM     13  C   UNL     1      -4.426   0.960  -2.270  1.00  0.00     0.149 C 
ATOM     14  O   UNL     1      -3.606  -2.354  -1.855  1.00  0.00    -0.268 OA
ATOM     15  C   UNL     1      -5.287  -1.262  -3.154  1.00  0.00     0.093 C 
ATOM     16  S   UNL     1      -5.864   0.363  -3.099  1.00  0.00    -0.053 SA
ATOM     17  S   UNL     1      -4.277   2.552  -1.802  1.00  0.00    -0.052 S 
ATOM     18  C   UNL     1      -5.852  -2.311  -3.771  1.00  0.00     0.069 C 
ATOM     19  C   UNL     1      -5.345  -3.733  -3.694  1.00  0.00     0.257 C 
ATOM     20  C   UNL     1      -7.106  -2.384  -4.543  1.00  0.00     0.013 A 
ATOM     21  O   UNL     1      -4.221  -4.160  -3.468  1.00  0.00    -0.269 OA
ATOM     22  N   UNL     1      -6.402  -4.519  -4.096  1.00  0.00    -0.321 N 
ATOM     23  C   UNL     1      -7.415  -3.746  -4.641  1.00  0.00     0.049 A 
ATOM     24  C   UNL     1      -7.880  -1.459  -5.221  1.00  0.00     0.026 A 
ATOM     25  H   UNL     1      -6.433  -5.499  -4.008  1.00  0.00     0.170 HD
ATOM     26  C   UNL     1      -8.517  -4.229  -5.315  1.00  0.00     0.028 A 
ATOM     27  C   UNL     1      -8.980  -1.931  -5.948  1.00  0.00     0.018 A 
ATOM     28  C   UNL     1      -9.311  -3.297  -5.979  1.00  0.00     0.018 A 
ATOM     29  Br  UNL     1     -10.013  -0.712  -6.963  1.00  0.00    -0.051 Br
ENDBRANCH   6  11
ENDBRANCH   4   6
ENDBRANCH   3   4
ENDBRANCH   2   3
ENDBRANCH   1   2
BRANCH   1  30
ATOM     30  O   UNL     1       1.421  -1.651   0.223  1.00  0.00    -0.458 OA
BRANCH  30  31
ATOM     31  C   UNL     1       1.724  -0.494  -0.408  1.00  0.00     0.338 C 
ATOM     32  O   UNL     1       1.937  -0.326  -1.597  1.00  0.00    -0.246 OA
BRANCH  31  33
ATOM     33  C   UNL     1       1.671   0.614   0.552  1.00  0.00     0.060 A 
ATOM     34  C   UNL     1       0.450   1.247   0.784  1.00  0.00     0.016 A 
ATOM     35  C   UNL     1       2.842   1.106   1.123  1.00  0.00     0.016 A 
ATOM     36  C   UNL     1       0.392   2.404   1.549  1.00  0.00     0.010 A 
ATOM     37  C   UNL     1       2.775   2.237   1.942  1.00  0.00     0.010 A 
ATOM     38  C   UNL     1       1.553   2.904   2.144  1.00  0.00    -0.014 A 
BRANCH  38  39
ATOM     39  C   UNL     1       1.486   4.141   2.957  1.00  0.00     0.031 A 
ATOM     40  C   UNL     1       2.179   5.385   2.482  1.00  0.00     0.074 A 
ATOM     41  C   UNL     1       0.789   4.144   4.109  1.00  0.00     0.049 A 
ATOM     42  N   UNL     1       2.356   6.519   3.109  1.00  0.00    -0.248 NA
ATOM     43  C   UNL     1       2.755   5.348   1.128  1.00  0.00     0.031 C 
ATOM     44  C   UNL     1       0.025   3.013   4.642  1.00  0.00     0.029 A 
ATOM     45  N   UNL     1       0.612   5.133   5.042  1.00  0.00    -0.354 N 
ATOM     46  C   UNL     1       3.099   7.315   2.246  1.00  0.00     0.074 A 
ATOM     47  C   UNL     1       3.343   6.534   1.052  1.00  0.00     0.031 C 
ATOM     48  C   UNL     1      -0.549   3.377   5.799  1.00  0.00     0.029 A 
ATOM     49  C   UNL     1      -0.139   4.738   6.123  1.00  0.00     0.049 A 
ATOM     50  H   UNL     1       0.986   6.039   4.946  1.00  0.00     0.167 HD
ATOM     51  C   UNL     1       3.540   8.581   2.438  1.00  0.00     0.031 A 
ATOM     52  C   UNL     1      -0.431   5.385   7.267  1.00  0.00     0.031 A 
ATOM     53  C   UNL     1       3.276   9.353   3.623  1.00  0.00     0.049 A 
ATOM     54  C   UNL     1       0.109   6.770   7.477  1.00  0.00     0.074 A 
ATOM     55  C   UNL     1       3.677  10.644   3.918  1.00  0.00     0.029 A 
ATOM     56  N   UNL     1       2.534   8.907   4.708  1.00  0.00    -0.354 N 
ATOM     57  N   UNL     1       0.847   7.496   6.670  1.00  0.00    -0.248 NA
ATOM     58  C   UNL     1      -0.212   7.420   8.754  1.00  0.00     0.031 C 
ATOM     59  C   UNL     1       3.210  10.965   5.198  1.00  0.00     0.029 A 
ATOM     60  C   UNL     1       2.478   9.891   5.680  1.00  0.00     0.049 A 
ATOM     61  H   UNL     1       2.110   8.021   4.776  1.00  0.00     0.167 HD
ATOM     62  C   UNL     1       1.067   8.694   7.336  1.00  0.00     0.074 A 
ATOM     63  C   UNL     1       0.370   8.602   8.604  1.00  0.00     0.031 C 
ATOM     64  C   UNL     1       1.783   9.774   6.936  1.00  0.00     0.031 A 
BRANCH  51  65
ATOM     65  C   UNL     1       4.395   9.189   1.359  1.00  0.00    -0.014 A 
ATOM     66  C   UNL     1       3.844   9.612   0.137  1.00  0.00     0.010 A 
ATOM     67  C   UNL     1       5.774   9.360   1.585  1.00  0.00     0.010 A 
ATOM     68  C   UNL     1       4.662  10.161  -0.855  1.00  0.00     0.020 A 
ATOM     69  C   UNL     1       6.591   9.930   0.605  1.00  0.00     0.020 A 
ATOM     70  C   UNL     1       6.032  10.310  -0.617  1.00  0.00     0.054 A 
BRANCH  70  71
ATOM     71  S   UNL     1       7.072  11.037  -1.915  1.00  0.00     0.124 S 
ATOM     72  O   UNL     1       7.191   9.929  -2.859  1.00  0.00    -0.237 OA
ATOM     73  O   UNL     1       6.272  12.169  -2.373  1.00  0.00    -0.237 OA
ATOM     74  O   UNL     1       8.303  11.392  -1.214  1.00  0.00    -0.744 OA
ENDBRANCH  70  71
ENDBRANCH  51  65
BRANCH  52  75
ATOM     75  C   UNL     1      -1.240   4.704   8.313  1.00  0.00    -0.014 A 
ATOM     76  C   UNL     1      -2.561   5.108   8.573  1.00  0.00     0.010 A 
ATOM     77  C   UNL     1      -0.700   3.623   9.034  1.00  0.00     0.010 A 
ATOM     78  C   UNL     1      -3.324   4.447   9.541  1.00  0.00     0.020 A 
ATOM     79  C   UNL     1      -1.468   2.944   9.983  1.00  0.00     0.020 A 
ATOM     80  C   UNL     1      -2.773   3.367  10.238  1.00  0.00     0.054 A 
BRANCH  80  81
ATOM     81  S   UNL     1      -3.800   2.481  11.442  1.00  0.00     0.124 S 
ATOM     82  O   UNL     1      -3.773   3.385  12.587  1.00  0.00    -0.237 OA
ATOM     83  O   UNL     1      -5.083   2.374  10.751  1.00  0.00    -0.237 OA
ATOM     84  O   UNL     1      -3.095   1.215  11.626  1.00  0.00    -0.744 OA
ENDBRANCH  80  81
ENDBRANCH  52  75
BRANCH  64  85
ATOM     85  C   UNL     1       1.824  10.950   7.871  1.00  0.00    -0.014 A 
ATOM     86  C   UNL     1       2.619  10.928   9.030  1.00  0.00     0.010 A 
ATOM     87  C   UNL     1       1.091  12.109   7.560  1.00  0.00     0.010 A 
ATOM     88  C   UNL     1       2.656  12.036   9.880  1.00  0.00     0.020 A 
ATOM     89  C   UNL     1       1.143  13.227   8.395  1.00  0.00     0.020 A 
ATOM     90  C   UNL     1       1.915  13.178   9.558  1.00  0.00     0.054 A 
BRANCH  90  91
ATOM     91  S   UNL     1       2.009  14.620  10.654  1.00  0.00     0.124 S 
ATOM     92  O   UNL     1       1.150  14.215  11.762  1.00  0.00    -0.237 OA
ATOM     93  O   UNL     1       3.435  14.701  10.960  1.00  0.00    -0.237 OA
ATOM     94  O   UNL     1       1.494  15.713   9.831  1.00  0.00    -0.744 OA
ENDBRANCH  90  91
ENDBRANCH  64  85
ENDBRANCH  38  39
ENDBRANCH  31  33
ENDBRANCH  30  31
ENDBRANCH   1  30
TORSDOF 17
