REMARK SMILES Cc1c(C(=O)OCCOC(=O)c2ccc(-c3c4nc(c(-c5ccc(S(=O)(=O)[O-])cc5)c5ccc([nH]5)c(-c5ccc(S(=O)(=O)[O-])cc5)c5nc(c(-c6ccc(S(=O)(=O)[O-])cc6)c6ccc3[nH]6)C=C5)C=C4)cc2)cccc1-n1c(C)cc(/C=C2/C(=O)NC(=S)N=C2O)c1C
REMARK SMILES IDX 7 1 6 2 4 3 5 4 3 5 1 6 2 7 75 8 72 9 74 10 73 11 76 12
REMARK SMILES IDX 77 13 91 14 78 15 79 16 80 17 92 18 81 19 82 20 83 21 89 22
REMARK SMILES IDX 84 23 85 24 88 25 86 26 87 28 90 29 8 31 9 32 10 33 11 34
REMARK SMILES IDX 12 35 13 36 71 37 14 38 70 39 15 40 16 41 17 42 64 43 18 44
REMARK SMILES IDX 69 45 63 46 65 47 19 48 68 49 62 50 61 51 20 53 50 54 31 55
REMARK SMILES IDX 49 56 32 57 35 58 48 59 66 60 33 61 34 62 47 64 67 65 36 66
REMARK SMILES IDX 21 67 22 68 30 69 23 70 29 71 24 72 25 73 26 74 27 75 28 76
REMARK SMILES IDX 51 77 52 78 60 79 53 80 59 81 54 82 55 83 56 84 57 85 58 86
REMARK SMILES IDX 37 87 38 88 46 89 39 90 45 91 40 92 41 93 42 94 43 95 44 96
REMARK H PARENT 85 27 90 30 65 52 35 63
REMARK Flexibility Score: inf
ROOT
ATOM      1  C   UNL     1       3.290  -5.001   0.601  1.00  0.00     0.275 C 
ENDROOT
BRANCH   1   2
ATOM      2  O   UNL     1       3.079  -3.725  -0.023  1.00  0.00    -0.458 OA
BRANCH   2   3
ATOM      3  C   UNL     1       1.645  -3.304  -0.272  1.00  0.00     0.338 C 
ATOM      4  O   UNL     1       1.149  -4.463  -0.441  1.00  0.00    -0.246 OA
BRANCH   3   5
ATOM      5  C   UNL     1       0.851  -1.306  -0.344  1.00  0.00     0.065 A 
ATOM      6  C   UNL     1       2.884   0.603   0.181  1.00  0.00     0.047 C 
ATOM      7  C   UNL     1       1.435   0.171  -0.239  1.00  0.00    -0.012 A 
ATOM      8  C   UNL     1       0.600   1.395  -0.397  1.00  0.00     0.049 A 
ATOM      9  C   UNL     1      -0.698  -0.910  -0.549  1.00  0.00     0.016 A 
ATOM     10  C   UNL     1      -0.777   1.457  -0.577  1.00  0.00     0.027 A 
ATOM     11  C   UNL     1      -1.441   0.288  -0.635  1.00  0.00     0.003 A 
BRANCH   8  12
ATOM     12  N   UNL     1       1.141   2.683  -0.200  1.00  0.00    -0.318 N 
ATOM     13  C   UNL     1       1.851   3.405  -1.134  1.00  0.00     0.020 A 
ATOM     14  C   UNL     1       1.054   3.378   0.999  1.00  0.00     0.027 A 
ATOM     15  C   UNL     1       2.179   2.853  -2.480  1.00  0.00     0.065 C 
ATOM     16  C   UNL     1       2.167   4.609  -0.538  1.00  0.00     0.031 A 
ATOM     17  C   UNL     1       1.599   4.632   0.776  1.00  0.00    -0.003 A 
ATOM     18  C   UNL     1       0.482   2.686   2.198  1.00  0.00     0.065 C 
BRANCH  17  19
ATOM     19  C   UNL     1       1.750   5.747   1.661  1.00  0.00     0.029 C 
ATOM     20  C   UNL     1       1.036   6.196   2.712  1.00  0.00     0.102 C 
ATOM     21  C   UNL     1       1.603   7.367   3.433  1.00  0.00     0.262 C 
ATOM     22  C   UNL     1      -0.198   5.698   3.324  1.00  0.00     0.226 C 
ATOM     23  O   UNL     1       2.469   8.110   2.987  1.00  0.00    -0.269 OA
ATOM     24  N   UNL     1       1.085   7.554   4.688  1.00  0.00    -0.297 N 
ATOM     25  N   UNL     1      -0.634   5.950   4.504  1.00  0.00    -0.184 NA
ATOM     26  C   UNL     1       0.071   6.836   5.271  1.00  0.00     0.203 C 
ATOM     27  H   UNL     1       1.481   8.276   5.227  1.00  0.00     0.172 HD
ATOM     28  S   UNL     1      -0.303   7.173   6.870  1.00  0.00    -0.038 S 
BRANCH  22  29
ATOM     29  O   UNL     1      -1.006   4.990   2.539  1.00  0.00    -0.493 OA
ATOM     30  H   UNL     1      -0.741   4.774   1.666  1.00  0.00     0.295 HD
ENDBRANCH  22  29
ENDBRANCH  17  19
ENDBRANCH   8  12
ENDBRANCH   3   5
ENDBRANCH   2   3
ENDBRANCH   1   2
BRANCH   1  31
ATOM     31  C   UNL     1       2.970  -4.877   2.099  1.00  0.00     0.275 C 
BRANCH  31  32
ATOM     32  O   UNL     1       1.588  -4.536   2.383  1.00  0.00    -0.458 OA
BRANCH  32  33
ATOM     33  C   UNL     1       1.287  -3.257   2.740  1.00  0.00     0.338 C 
ATOM     34  O   UNL     1       1.483  -2.738   3.826  1.00  0.00    -0.246 OA
BRANCH  33  35
ATOM     35  C   UNL     1       1.025  -2.476   1.515  1.00  0.00     0.060 A 
ATOM     36  C   UNL     1      -0.257  -3.025   0.384  1.00  0.00     0.016 A 
ATOM     37  C   UNL     1       2.557  -1.840   0.867  1.00  0.00     0.016 A 
ATOM     38  C   UNL     1       0.013  -2.959  -1.454  1.00  0.00     0.010 A 
ATOM     39  C   UNL     1       2.846  -1.806  -0.944  1.00  0.00     0.010 A 
ATOM     40  C   UNL     1       1.587  -2.378  -2.096  1.00  0.00    -0.014 A 
BRANCH  40  41
ATOM     41  C   UNL     1       2.189  -2.886  -3.336  1.00  0.00     0.031 A 
ATOM     42  C   UNL     1       2.843  -1.837  -4.157  1.00  0.00     0.074 A 
ATOM     43  C   UNL     1       2.159  -4.217  -3.592  1.00  0.00     0.049 A 
ATOM     44  N   UNL     1       2.473  -1.488  -5.351  1.00  0.00    -0.248 NA
ATOM     45  C   UNL     1       3.812  -0.874  -3.594  1.00  0.00     0.031 C 
ATOM     46  C   UNL     1       2.899  -5.009  -4.570  1.00  0.00     0.029 A 
ATOM     47  N   UNL     1       1.305  -5.167  -3.050  1.00  0.00    -0.354 N 
ATOM     48  C   UNL     1       3.460  -0.601  -5.755  1.00  0.00     0.074 A 
ATOM     49  C   UNL     1       3.919   0.029  -4.561  1.00  0.00     0.031 C 
ATOM     50  C   UNL     1       2.272  -6.191  -4.757  1.00  0.00     0.029 A 
ATOM     51  C   UNL     1       1.059  -6.194  -3.954  1.00  0.00     0.049 A 
ATOM     52  H   UNL     1       0.924  -5.120  -2.143  1.00  0.00     0.167 HD
ATOM     53  C   UNL     1       4.266  -0.895  -6.820  1.00  0.00     0.031 A 
ATOM     54  C   UNL     1      -0.206  -6.391  -4.437  1.00  0.00     0.031 A 
ATOM     55  C   UNL     1       3.899  -2.192  -7.372  1.00  0.00     0.049 A 
ATOM     56  C   UNL     1      -0.337  -5.851  -5.855  1.00  0.00     0.074 A 
ATOM     57  C   UNL     1       4.469  -3.451  -7.298  1.00  0.00     0.029 A 
ATOM     58  N   UNL     1       2.592  -2.387  -7.766  1.00  0.00    -0.354 N 
ATOM     59  N   UNL     1       0.551  -5.072  -6.415  1.00  0.00    -0.248 NA
ATOM     60  C   UNL     1      -1.445  -6.141  -6.762  1.00  0.00     0.031 C 
ATOM     61  C   UNL     1       3.489  -4.399  -7.713  1.00  0.00     0.029 A 
ATOM     62  C   UNL     1       2.330  -3.712  -8.019  1.00  0.00     0.049 A 
ATOM     63  H   UNL     1       1.928  -1.665  -7.855  1.00  0.00     0.167 HD
ATOM     64  C   UNL     1       0.202  -4.790  -7.710  1.00  0.00     0.074 A 
ATOM     65  C   UNL     1      -1.092  -5.438  -7.856  1.00  0.00     0.031 C 
ATOM     66  C   UNL     1       1.014  -4.058  -8.537  1.00  0.00     0.031 A 
BRANCH  53  67
ATOM     67  C   UNL     1       5.599  -0.215  -7.085  1.00  0.00    -0.014 A 
ATOM     68  C   UNL     1       6.545  -0.868  -7.896  1.00  0.00     0.010 A 
ATOM     69  C   UNL     1       5.974   1.061  -6.604  1.00  0.00     0.010 A 
ATOM     70  C   UNL     1       7.798  -0.311  -8.181  1.00  0.00     0.020 A 
ATOM     71  C   UNL     1       7.243   1.617  -6.848  1.00  0.00     0.020 A 
ATOM     72  C   UNL     1       8.142   0.930  -7.654  1.00  0.00     0.054 A 
BRANCH  72  73
ATOM     73  S   UNL     1       9.742   1.650  -8.101  1.00  0.00     0.124 S 
ATOM     74  O   UNL     1      10.684   0.625  -7.658  1.00  0.00    -0.237 OA
ATOM     75  O   UNL     1       9.617   1.807  -9.547  1.00  0.00    -0.237 OA
ATOM     76  O   UNL     1       9.787   2.898  -7.342  1.00  0.00    -0.744 OA
ENDBRANCH  72  73
ENDBRANCH  53  67
BRANCH  54  77
ATOM     77  C   UNL     1      -1.236  -6.394  -3.344  1.00  0.00    -0.014 A 
ATOM     78  C   UNL     1      -1.056  -7.367  -2.328  1.00  0.00     0.010 A 
ATOM     79  C   UNL     1      -2.062  -5.297  -3.058  1.00  0.00     0.010 A 
ATOM     80  C   UNL     1      -1.500  -7.149  -1.018  1.00  0.00     0.020 A 
ATOM     81  C   UNL     1      -2.557  -5.101  -1.746  1.00  0.00     0.020 A 
ATOM     82  C   UNL     1      -2.228  -6.002  -0.724  1.00  0.00     0.054 A 
BRANCH  82  83
ATOM     83  S   UNL     1      -2.642  -5.678   1.023  1.00  0.00     0.124 S 
ATOM     84  O   UNL     1      -3.526  -6.790   1.351  1.00  0.00    -0.237 OA
ATOM     85  O   UNL     1      -1.340  -5.708   1.684  1.00  0.00    -0.237 OA
ATOM     86  O   UNL     1      -3.281  -4.363   0.984  1.00  0.00    -0.744 OA
ENDBRANCH  82  83
ENDBRANCH  54  77
BRANCH  66  87
ATOM     87  C   UNL     1       0.674  -3.540  -9.922  1.00  0.00    -0.014 A 
ATOM     88  C   UNL     1      -0.318  -4.085 -10.737  1.00  0.00     0.010 A 
ATOM     89  C   UNL     1       1.407  -2.452 -10.477  1.00  0.00     0.010 A 
ATOM     90  C   UNL     1      -0.648  -3.504 -11.967  1.00  0.00     0.020 A 
ATOM     91  C   UNL     1       1.102  -1.870 -11.705  1.00  0.00     0.020 A 
ATOM     92  C   UNL     1       0.053  -2.393 -12.436  1.00  0.00     0.054 A 
BRANCH  92  93
ATOM     93  S   UNL     1      -0.386  -1.700 -14.039  1.00  0.00     0.124 S 
ATOM     94  O   UNL     1      -0.269  -2.863 -14.916  1.00  0.00    -0.237 OA
ATOM     95  O   UNL     1      -1.747  -1.225 -13.802  1.00  0.00    -0.237 OA
ATOM     96  O   UNL     1       0.610  -0.654 -14.258  1.00  0.00    -0.744 OA
ENDBRANCH  92  93
ENDBRANCH  66  87
ENDBRANCH  40  41
ENDBRANCH  33  35
ENDBRANCH  32  33
ENDBRANCH  31  32
ENDBRANCH   1  31
TORSDOF 17
