REMARK SMILES CC[C@H](C)[C@H](NC(=O)[C@H](C)Oc1ccc2c(C)c(C)c(=O)oc2c1C)C(=O)OCCOC(=O)c1ccc(-c2c3nc(c(-c4ccc(S(=O)(=O)[O-])cc4)c4ccc([nH]4)c(-c4ccc(S(=O)(=O)[O-])cc4)c4nc(c(-c5ccc(S(=O)(=O)[O-])cc5)c5ccc2[nH]5)C=C4)C=C3)cc1
REMARK SMILES IDX 29 1 28 2 26 3 27 4 5 5 3 6 4 7 2 8 1 9 6 10 7 11 8 13 9 14
REMARK SMILES IDX 10 15 11 16 12 17 13 18 24 19 14 20 23 21 25 22 15 23 22 24
REMARK SMILES IDX 16 25 20 26 17 27 18 28 21 29 19 30 30 31 31 32 32 33 33 34
REMARK SMILES IDX 34 35 35 36 93 37 36 38 92 39 37 40 38 41 39 42 86 43 40 44
REMARK SMILES IDX 91 45 85 46 87 47 41 48 90 49 84 50 83 51 42 53 72 54 53 55
REMARK SMILES IDX 71 56 54 57 57 58 70 59 88 60 55 61 56 62 69 64 89 65 58 66
REMARK SMILES IDX 43 67 44 68 52 69 45 70 51 71 46 72 47 73 48 74 49 75 50 76
REMARK SMILES IDX 73 77 74 78 82 79 75 80 81 81 76 82 77 83 78 84 79 85 80 86
REMARK SMILES IDX 59 87 60 88 68 89 61 90 67 91 62 92 63 93 64 94 65 95 66 96
REMARK H PARENT 6 12 87 52 57 63
REMARK Flexibility Score: inf
ROOT
ATOM      1  C   UNL     1      -0.156   5.602   4.630  1.00  0.00     0.274 C 
ENDROOT
BRANCH   1   2
ATOM      2  O   UNL     1      -0.024   5.621   3.181  1.00  0.00    -0.461 OA
BRANCH   2   3
ATOM      3  C   UNL     1       1.217   5.335   2.689  1.00  0.00     0.329 C 
ATOM      4  O   UNL     1       2.183   5.094   3.409  1.00  0.00    -0.250 OA
BRANCH   3   5
ATOM      5  C   UNL     1       1.266   5.170   1.137  1.00  0.00     0.195 C 
BRANCH   5   6
ATOM      6  C   UNL     1       2.724   5.357   0.630  1.00  0.00     0.019 C 
ATOM      7  C   UNL     1       2.906   4.888  -0.820  1.00  0.00     0.010 C 
BRANCH   6   8
ATOM      8  C   UNL     1       3.256   6.783   0.841  1.00  0.00     0.002 C 
ATOM      9  C   UNL     1       4.642   6.750   1.480  1.00  0.00     0.004 C 
ENDBRANCH   6   8
ENDBRANCH   5   6
BRANCH   5  10
ATOM     10  N   UNL     1       0.249   5.777   0.288  1.00  0.00    -0.339 N 
ATOM     11  C   UNL     1      -0.838   5.185  -0.296  1.00  0.00     0.261 C 
ATOM     12  H   UNL     1       0.358   6.740   0.112  1.00  0.00     0.164 HD
ATOM     13  O   UNL     1      -1.121   5.619  -1.423  1.00  0.00    -0.271 OA
BRANCH  11  14
ATOM     14  C   UNL     1      -1.819   4.170   0.410  1.00  0.00     0.258 C 
ATOM     15  C   UNL     1      -2.493   4.838   1.608  1.00  0.00     0.064 C 
BRANCH  14  16
ATOM     16  O   UNL     1      -1.756   2.763   0.607  1.00  0.00    -0.480 OA
BRANCH  16  17
ATOM     17  C   UNL     1      -0.570   2.167   0.878  1.00  0.00     0.127 A 
ATOM     18  C   UNL     1       0.142   2.477   2.023  1.00  0.00     0.047 A 
ATOM     19  C   UNL     1      -0.119   1.117   0.082  1.00  0.00     0.035 A 
ATOM     20  C   UNL     1       1.404   1.929   2.285  1.00  0.00     0.016 A 
ATOM     21  C   UNL     1       1.157   0.574   0.353  1.00  0.00     0.145 A 
ATOM     22  C   UNL     1      -0.962   0.574  -1.034  1.00  0.00     0.052 C 
ATOM     23  C   UNL     1       1.948   0.981   1.428  1.00  0.00     0.021 A 
ATOM     24  O   UNL     1       1.630  -0.419  -0.524  1.00  0.00    -0.422 OA
ATOM     25  C   UNL     1       3.276   0.383   1.639  1.00  0.00    -0.030 A 
ATOM     26  C   UNL     1       2.891  -0.977  -0.399  1.00  0.00     0.339 A 
ATOM     27  C   UNL     1       4.088   0.861   2.820  1.00  0.00     0.045 C 
ATOM     28  C   UNL     1       3.709  -0.556   0.772  1.00  0.00     0.038 A 
ATOM     29  O   UNL     1       3.317  -1.758  -1.242  1.00  0.00    -0.246 OA
ATOM     30  C   UNL     1       5.041  -1.240   0.910  1.00  0.00     0.052 C 
ENDBRANCH  16  17
ENDBRANCH  14  16
ENDBRANCH  11  14
ENDBRANCH   5  10
ENDBRANCH   3   5
ENDBRANCH   2   3
ENDBRANCH   1   2
BRANCH   1  31
ATOM     31  C   UNL     1      -1.423   4.860   5.099  1.00  0.00     0.275 C 
BRANCH  31  32
ATOM     32  O   UNL     1      -1.306   3.439   4.855  1.00  0.00    -0.458 OA
BRANCH  32  33
ATOM     33  C   UNL     1      -2.472   2.735   4.764  1.00  0.00     0.338 C 
ATOM     34  O   UNL     1      -3.590   3.204   4.934  1.00  0.00    -0.246 OA
BRANCH  33  35
ATOM     35  C   UNL     1      -2.224   1.325   4.324  1.00  0.00     0.060 A 
ATOM     36  C   UNL     1      -0.934   0.809   4.254  1.00  0.00     0.016 A 
ATOM     37  C   UNL     1      -3.278   0.513   3.886  1.00  0.00     0.016 A 
ATOM     38  C   UNL     1      -0.691  -0.406   3.602  1.00  0.00     0.010 A 
ATOM     39  C   UNL     1      -3.033  -0.784   3.380  1.00  0.00     0.010 A 
ATOM     40  C   UNL     1      -1.726  -1.266   3.207  1.00  0.00    -0.014 A 
BRANCH  40  41
ATOM     41  C   UNL     1      -1.421  -2.653   2.696  1.00  0.00     0.031 A 
ATOM     42  C   UNL     1      -2.089  -3.228   1.459  1.00  0.00     0.074 A 
ATOM     43  C   UNL     1      -0.525  -3.436   3.346  1.00  0.00     0.049 A 
ATOM     44  N   UNL     1      -2.104  -4.469   1.032  1.00  0.00    -0.248 NA
ATOM     45  C   UNL     1      -2.830  -2.300   0.590  1.00  0.00     0.031 C 
ATOM     46  C   UNL     1       0.262  -3.044   4.521  1.00  0.00     0.029 A 
ATOM     47  N   UNL     1      -0.109  -4.730   3.111  1.00  0.00    -0.354 N 
ATOM     48  C   UNL     1      -2.882  -4.478  -0.124  1.00  0.00     0.074 A 
ATOM     49  C   UNL     1      -3.318  -3.115  -0.339  1.00  0.00     0.031 C 
ATOM     50  C   UNL     1       1.110  -4.025   4.846  1.00  0.00     0.029 A 
ATOM     51  C   UNL     1       0.818  -5.187   4.022  1.00  0.00     0.049 A 
ATOM     52  H   UNL     1      -0.444  -5.276   2.363  1.00  0.00     0.167 HD
ATOM     53  C   UNL     1      -3.215  -5.524  -0.923  1.00  0.00     0.031 A 
ATOM     54  C   UNL     1       1.329  -6.412   4.259  1.00  0.00     0.031 A 
ATOM     55  C   UNL     1      -2.777  -6.883  -0.717  1.00  0.00     0.049 A 
ATOM     56  C   UNL     1       0.846  -7.577   3.455  1.00  0.00     0.074 A 
ATOM     57  C   UNL     1      -3.104  -8.012  -1.451  1.00  0.00     0.029 A 
ATOM     58  N   UNL     1      -1.913  -7.298   0.284  1.00  0.00    -0.354 N 
ATOM     59  N   UNL     1       0.013  -7.580   2.446  1.00  0.00    -0.248 NA
ATOM     60  C   UNL     1       1.336  -8.906   3.846  1.00  0.00     0.031 C 
ATOM     61  C   UNL     1      -2.483  -9.117  -0.860  1.00  0.00     0.029 A 
ATOM     62  C   UNL     1      -1.722  -8.668   0.205  1.00  0.00     0.049 A 
ATOM     63  H   UNL     1      -1.497  -6.707   0.952  1.00  0.00     0.167 HD
ATOM     64  C   UNL     1      -0.123  -8.912   2.077  1.00  0.00     0.074 A 
ATOM     65  C   UNL     1       0.724  -9.684   2.963  1.00  0.00     0.031 C 
ATOM     66  C   UNL     1      -0.887  -9.437   1.091  1.00  0.00     0.031 A 
BRANCH  53  67
ATOM     67  C   UNL     1      -4.152  -5.277  -2.082  1.00  0.00    -0.014 A 
ATOM     68  C   UNL     1      -3.701  -4.708  -3.285  1.00  0.00     0.010 A 
ATOM     69  C   UNL     1      -5.482  -5.735  -2.001  1.00  0.00     0.010 A 
ATOM     70  C   UNL     1      -4.566  -4.588  -4.380  1.00  0.00     0.020 A 
ATOM     71  C   UNL     1      -6.344  -5.635  -3.098  1.00  0.00     0.020 A 
ATOM     72  C   UNL     1      -5.881  -5.057  -4.281  1.00  0.00     0.054 A 
BRANCH  72  73
ATOM     73  S   UNL     1      -6.973  -4.909  -5.725  1.00  0.00     0.124 S 
ATOM     74  O   UNL     1      -6.986  -3.466  -5.953  1.00  0.00    -0.237 OA
ATOM     75  O   UNL     1      -6.271  -5.697  -6.734  1.00  0.00    -0.237 OA
ATOM     76  O   UNL     1      -8.240  -5.472  -5.265  1.00  0.00    -0.744 OA
ENDBRANCH  72  73
ENDBRANCH  53  67
BRANCH  54  77
ATOM     77  C   UNL     1       2.278  -6.590   5.395  1.00  0.00    -0.014 A 
ATOM     78  C   UNL     1       3.645  -6.802   5.160  1.00  0.00     0.010 A 
ATOM     79  C   UNL     1       1.824  -6.443   6.721  1.00  0.00     0.010 A 
ATOM     80  C   UNL     1       4.548  -6.825   6.229  1.00  0.00     0.020 A 
ATOM     81  C   UNL     1       2.725  -6.434   7.787  1.00  0.00     0.020 A 
ATOM     82  C   UNL     1       4.084  -6.618   7.532  1.00  0.00     0.054 A 
BRANCH  82  83
ATOM     83  S   UNL     1       5.292  -6.535   8.884  1.00  0.00     0.124 S 
ATOM     84  O   UNL     1       5.878  -7.872   8.857  1.00  0.00    -0.237 OA
ATOM     85  O   UNL     1       6.167  -5.450   8.447  1.00  0.00    -0.237 OA
ATOM     86  O   UNL     1       4.476  -6.234  10.058  1.00  0.00    -0.744 OA
ENDBRANCH  82  83
ENDBRANCH  54  77
BRANCH  66  87
ATOM     87  C   UNL     1      -0.838 -10.925   0.889  1.00  0.00    -0.014 A 
ATOM     88  C   UNL     1      -1.542 -11.793   1.740  1.00  0.00     0.010 A 
ATOM     89  C   UNL     1      -0.148 -11.451  -0.218  1.00  0.00     0.010 A 
ATOM     90  C   UNL     1      -1.555 -13.167   1.487  1.00  0.00     0.020 A 
ATOM     91  C   UNL     1      -0.176 -12.822  -0.485  1.00  0.00     0.020 A 
ATOM     92  C   UNL     1      -0.880 -13.671   0.370  1.00  0.00     0.054 A 
BRANCH  92  93
ATOM     93  S   UNL     1      -0.963 -15.452   0.040  1.00  0.00     0.124 S 
ATOM     94  O   UNL     1      -0.349 -16.017   1.239  1.00  0.00    -0.237 OA
ATOM     95  O   UNL     1      -2.400 -15.679  -0.096  1.00  0.00    -0.237 OA
ATOM     96  O   UNL     1      -0.189 -15.617  -1.188  1.00  0.00    -0.744 OA
ENDBRANCH  92  93
ENDBRANCH  66  87
ENDBRANCH  40  41
ENDBRANCH  33  35
ENDBRANCH  32  33
ENDBRANCH  31  32
ENDBRANCH   1  31
TORSDOF 20
