REMARK SMILES O=C(OCCOC(=O)c1ccc([S@@](=O)[C@H]2CCOC3(CCCC3)C2)cc1)c1ccc(-c2c3nc(c(-c4ccc(S(=O)(=O)[O-])cc4)c4ccc([nH]4)c(-c4ccc(S(=O)(=O)[O-])cc4)c4nc(c(-c5ccc(S(=O)(=O)[O-])cc5)c5ccc2[nH]5)C=C4)C=C3)cc1
REMARK SMILES IDX 4 1 3 2 2 3 1 4 27 5 28 6 86 7 29 8 85 9 30 10 31 11 32 12
REMARK SMILES IDX 79 13 33 14 84 15 78 16 80 17 34 18 83 19 77 20 76 21 35 23
REMARK SMILES IDX 65 24 46 25 64 26 47 27 50 28 63 29 81 30 48 31 49 32 62 34
REMARK SMILES IDX 82 35 51 36 36 37 37 38 45 39 38 40 44 41 39 42 40 43 41 44
REMARK SMILES IDX 42 45 43 46 66 47 67 48 75 49 68 50 74 51 69 52 70 53 71 54
REMARK SMILES IDX 72 55 73 56 52 57 53 58 61 59 54 60 60 61 55 62 56 63 57 64
REMARK SMILES IDX 58 65 59 66 5 67 6 68 7 69 8 70 9 71 10 72 26 73 11 74 25 75
REMARK SMILES IDX 12 76 13 77 14 78 15 79 16 80 24 81 17 82 19 83 18 84 20 85
REMARK SMILES IDX 23 86 21 87 22 88
REMARK H PARENT 80 22 50 33
REMARK Flexibility Score: inf
ROOT
ATOM      1  C   UNL     1       7.299  14.814  -3.597  1.00  0.00     0.275 C 
ENDROOT
BRANCH   1   2
ATOM      2  O   UNL     1       6.673  13.825  -4.432  1.00  0.00    -0.458 OA
BRANCH   2   3
ATOM      3  C   UNL     1       6.439  12.512  -4.205  1.00  0.00     0.338 C 
ATOM      4  O   UNL     1       6.040  11.816  -5.139  1.00  0.00    -0.246 OA
BRANCH   3   5
ATOM      5  C   UNL     1       6.516  11.874  -2.853  1.00  0.00     0.060 A 
ATOM      6  C   UNL     1       7.373  12.244  -1.813  1.00  0.00     0.016 A 
ATOM      7  C   UNL     1       5.657  10.782  -2.635  1.00  0.00     0.016 A 
ATOM      8  C   UNL     1       7.329  11.600  -0.573  1.00  0.00     0.010 A 
ATOM      9  C   UNL     1       5.616  10.127  -1.401  1.00  0.00     0.010 A 
ATOM     10  C   UNL     1       6.455  10.534  -0.359  1.00  0.00    -0.014 A 
BRANCH  10  11
ATOM     11  C   UNL     1       6.565   9.747   0.889  1.00  0.00     0.031 A 
ATOM     12  C   UNL     1       7.327   8.458   0.846  1.00  0.00     0.074 A 
ATOM     13  C   UNL     1       6.059  10.203   2.050  1.00  0.00     0.049 A 
ATOM     14  N   UNL     1       7.654   7.666   1.832  1.00  0.00    -0.248 NA
ATOM     15  C   UNL     1       7.812   8.020  -0.473  1.00  0.00     0.031 C 
ATOM     16  C   UNL     1       5.396  11.491   2.228  1.00  0.00     0.029 A 
ATOM     17  N   UNL     1       6.026   9.643   3.301  1.00  0.00    -0.354 N 
ATOM     18  C   UNL     1       8.414   6.657   1.257  1.00  0.00     0.074 A 
ATOM     19  C   UNL     1       8.444   6.899  -0.168  1.00  0.00     0.031 C 
ATOM     20  C   UNL     1       4.971  11.605   3.498  1.00  0.00     0.029 A 
ATOM     21  C   UNL     1       5.365  10.410   4.234  1.00  0.00     0.049 A 
ATOM     22  H   UNL     1       6.436   8.773   3.513  1.00  0.00     0.167 HD
ATOM     23  C   UNL     1       9.057   5.635   1.866  1.00  0.00     0.031 A 
ATOM     24  C   UNL     1       5.128  10.186   5.541  1.00  0.00     0.031 A 
ATOM     25  C   UNL     1       8.976   5.373   3.275  1.00  0.00     0.049 A 
ATOM     26  C   UNL     1       5.739   8.968   6.177  1.00  0.00     0.074 A 
ATOM     27  C   UNL     1       9.567   4.356   4.000  1.00  0.00     0.029 A 
ATOM     28  N   UNL     1       8.233   6.130   4.171  1.00  0.00    -0.354 N 
ATOM     29  N   UNL     1       6.496   8.049   5.625  1.00  0.00    -0.248 NA
ATOM     30  C   UNL     1       5.504   8.779   7.614  1.00  0.00     0.031 C 
ATOM     31  C   UNL     1       9.137   4.467   5.328  1.00  0.00     0.029 A 
ATOM     32  C   UNL     1       8.325   5.587   5.439  1.00  0.00     0.049 A 
ATOM     33  H   UNL     1       7.717   6.935   3.938  1.00  0.00     0.167 HD
ATOM     34  C   UNL     1       6.877   7.202   6.659  1.00  0.00     0.074 A 
ATOM     35  C   UNL     1       6.253   7.713   7.865  1.00  0.00     0.031 C 
ATOM     36  C   UNL     1       7.689   6.116   6.620  1.00  0.00     0.031 A 
BRANCH  23  37
ATOM     37  C   UNL     1       9.857   4.723   0.979  1.00  0.00    -0.014 A 
ATOM     38  C   UNL     1      11.049   5.165   0.372  1.00  0.00     0.010 A 
ATOM     39  C   UNL     1       9.379   3.433   0.694  1.00  0.00     0.010 A 
ATOM     40  C   UNL     1      11.711   4.357  -0.555  1.00  0.00     0.020 A 
ATOM     41  C   UNL     1      10.053   2.612  -0.214  1.00  0.00     0.020 A 
ATOM     42  C   UNL     1      11.200   3.091  -0.853  1.00  0.00     0.054 A 
BRANCH  42  43
ATOM     43  S   UNL     1      12.052   2.077  -2.092  1.00  0.00     0.124 S 
ATOM     44  O   UNL     1      11.663   2.735  -3.337  1.00  0.00    -0.237 OA
ATOM     45  O   UNL     1      13.456   2.224  -1.717  1.00  0.00    -0.237 OA
ATOM     46  O   UNL     1      11.493   0.742  -1.890  1.00  0.00    -0.744 OA
ENDBRANCH  42  43
ENDBRANCH  23  37
BRANCH  24  47
ATOM     47  C   UNL     1       4.328  11.159   6.335  1.00  0.00    -0.014 A 
ATOM     48  C   UNL     1       4.942  11.993   7.286  1.00  0.00     0.010 A 
ATOM     49  C   UNL     1       2.940  11.271   6.126  1.00  0.00     0.010 A 
ATOM     50  C   UNL     1       4.183  12.910   8.021  1.00  0.00     0.020 A 
ATOM     51  C   UNL     1       2.181  12.201   6.845  1.00  0.00     0.020 A 
ATOM     52  C   UNL     1       2.808  13.011   7.793  1.00  0.00     0.054 A 
BRANCH  52  53
ATOM     53  S   UNL     1       1.856  14.249   8.721  1.00  0.00     0.124 S 
ATOM     54  O   UNL     1       1.854  13.684  10.067  1.00  0.00    -0.237 OA
ATOM     55  O   UNL     1       2.658  15.457   8.541  1.00  0.00    -0.237 OA
ATOM     56  O   UNL     1       0.562  14.262   8.044  1.00  0.00    -0.744 OA
ENDBRANCH  52  53
ENDBRANCH  24  47
BRANCH  36  57
ATOM     57  C   UNL     1       7.982   5.433   7.926  1.00  0.00    -0.014 A 
ATOM     58  C   UNL     1       7.016   4.644   8.572  1.00  0.00     0.010 A 
ATOM     59  C   UNL     1       9.272   5.536   8.479  1.00  0.00     0.010 A 
ATOM     60  C   UNL     1       7.327   3.992   9.768  1.00  0.00     0.020 A 
ATOM     61  C   UNL     1       9.594   4.863   9.658  1.00  0.00     0.020 A 
ATOM     62  C   UNL     1       8.614   4.106  10.303  1.00  0.00     0.054 A 
BRANCH  62  63
ATOM     63  S   UNL     1       9.010   3.208  11.827  1.00  0.00     0.124 S 
ATOM     64  O   UNL     1       8.354   4.030  12.840  1.00  0.00    -0.237 OA
ATOM     65  O   UNL     1       8.408   1.898  11.594  1.00  0.00    -0.237 OA
ATOM     66  O   UNL     1      10.470   3.218  11.865  1.00  0.00    -0.744 OA
ENDBRANCH  62  63
ENDBRANCH  36  57
ENDBRANCH  10  11
ENDBRANCH   3   5
ENDBRANCH   2   3
ENDBRANCH   1   2
BRANCH   1  67
ATOM     67  C   UNL     1       6.361  15.516  -2.611  1.00  0.00     0.275 C 
BRANCH  67  68
ATOM     68  O   UNL     1       5.483  14.623  -1.909  1.00  0.00    -0.458 OA
BRANCH  68  69
ATOM     69  C   UNL     1       4.251  14.470  -2.465  1.00  0.00     0.338 C 
ATOM     70  O   UNL     1       3.833  15.040  -3.460  1.00  0.00    -0.246 OA
BRANCH  69  71
ATOM     71  C   UNL     1       3.500  13.401  -1.766  1.00  0.00     0.060 A 
ATOM     72  C   UNL     1       2.749  12.504  -2.532  1.00  0.00     0.017 A 
ATOM     73  C   UNL     1       3.497  13.283  -0.376  1.00  0.00     0.017 A 
ATOM     74  C   UNL     1       2.026  11.474  -1.914  1.00  0.00     0.018 A 
ATOM     75  C   UNL     1       2.768  12.249   0.235  1.00  0.00     0.018 A 
ATOM     76  C   UNL     1       2.053  11.312  -0.525  1.00  0.00     0.039 A 
BRANCH  76  77
ATOM     77  S   UNL     1       0.971  10.155   0.343  1.00  0.00     0.056 S 
ATOM     78  O   UNL     1      -0.377  10.367  -0.287  1.00  0.00    -0.254 OA
BRANCH  77  79
ATOM     79  C   UNL     1       1.495   8.475  -0.118  1.00  0.00     0.089 C 
ATOM     80  C   UNL     1       1.586   8.209  -1.611  1.00  0.00     0.046 C 
ATOM     81  C   UNL     1       2.747   7.968   0.594  1.00  0.00     0.053 C 
ATOM     82  C   UNL     1       1.801   6.723  -1.840  1.00  0.00     0.162 C 
ATOM     83  C   UNL     1       2.982   6.473   0.270  1.00  0.00     0.069 C 
ATOM     84  O   UNL     1       2.962   6.265  -1.155  1.00  0.00    -0.375 OA
ATOM     85  C   UNL     1       4.371   5.984   0.751  1.00  0.00     0.035 C 
ATOM     86  C   UNL     1       1.984   5.534   0.985  1.00  0.00     0.035 C 
ATOM     87  C   UNL     1       4.128   4.769   1.643  1.00  0.00     0.003 C 
ATOM     88  C   UNL     1       2.768   4.251   1.221  1.00  0.00     0.003 C 
ENDBRANCH  77  79
ENDBRANCH  76  77
ENDBRANCH  69  71
ENDBRANCH  68  69
ENDBRANCH  67  68
ENDBRANCH   1  67
TORSDOF 16
