REMARK SMILES COc1ccc(-c2noc(CC(=O)OCCOC(=O)c3ccc(-c4c5nc(c(-c6ccc(S(=O)(=O)[O-])cc6)c6ccc([nH]6)c(-c6ccc(S(=O)(=O)[O-])cc6)c6nc(c(-c7ccc(S(=O)(=O)[O-])cc7)c7ccc4[nH]7)C=C6)C=C5)cc3)c2-c2ccc(OC)cc2)cc1
REMARK SMILES IDX 15 1 14 2 12 3 13 4 11 5 10 6 7 7 8 8 80 9 9 10 6 11 3 12
REMARK SMILES IDX 4 13 90 14 5 15 89 16 2 17 1 18 81 19 82 20 88 21 83 22
REMARK SMILES IDX 87 23 84 24 85 25 86 26 16 27 17 28 18 29 19 30 20 31 21 32
REMARK SMILES IDX 79 33 22 34 78 35 23 36 24 37 25 38 72 39 26 40 77 41 71 42
REMARK SMILES IDX 73 43 27 44 76 45 70 46 69 47 28 49 58 50 39 51 57 52 40 53
REMARK SMILES IDX 43 54 56 55 74 56 41 57 42 58 55 60 75 61 44 62 29 63 30 64
REMARK SMILES IDX 38 65 31 66 37 67 32 68 33 69 34 70 35 71 36 72 59 73 60 74
REMARK SMILES IDX 68 75 61 76 67 77 62 78 63 79 64 80 65 81 66 82 45 83 46 84
REMARK SMILES IDX 54 85 47 86 53 87 48 88 49 89 50 90 51 91 52 92
REMARK H PARENT 73 48 43 59
REMARK Flexibility Score: inf
ROOT
ATOM      1  C   UNL     1       0.755 -11.943  -0.936  1.00  0.00     0.274 C 
ENDROOT
BRANCH   1   2
ATOM      2  O   UNL     1       1.481 -10.700  -0.905  1.00  0.00    -0.462 OA
BRANCH   2   3
ATOM      3  C   UNL     1       2.775 -10.774  -1.310  1.00  0.00     0.313 C 
ATOM      4  O   UNL     1       3.346 -11.817  -1.617  1.00  0.00    -0.252 OA
BRANCH   3   5
ATOM      5  C   UNL     1       3.517  -9.468  -1.269  1.00  0.00     0.201 C 
BRANCH   5   6
ATOM      6  C   UNL     1       2.682  -8.245  -1.314  1.00  0.00     0.156 A 
ATOM      7  C   UNL     1       1.694  -6.264  -1.184  1.00  0.00     0.122 A 
ATOM      8  N   UNL     1       1.128  -6.905  -2.218  1.00  0.00    -0.079 NA
ATOM      9  C   UNL     1       2.674  -7.088  -0.567  1.00  0.00     0.053 A 
ATOM     10  O   UNL     1       1.768  -8.130  -2.314  1.00  0.00    -0.359 OA
BRANCH   7  11
ATOM     11  C   UNL     1       1.323  -4.903  -0.821  1.00  0.00     0.005 A 
ATOM     12  C   UNL     1       0.650  -2.294  -0.027  1.00  0.00     0.118 A 
ATOM     13  C   UNL     1      -0.328  -3.289  -0.089  1.00  0.00     0.047 A 
ATOM     14  C   UNL     1       1.970  -2.605  -0.354  1.00  0.00     0.047 A 
ATOM     15  C   UNL     1       0.000  -4.585  -0.501  1.00  0.00     0.014 A 
ATOM     16  C   UNL     1       2.304  -3.904  -0.750  1.00  0.00     0.014 A 
BRANCH  12  17
ATOM     17  O   UNL     1       0.219  -1.070   0.406  1.00  0.00    -0.497 OA
ATOM     18  C   UNL     1       0.936   0.044  -0.116  1.00  0.00     0.278 C 
ENDBRANCH  12  17
ENDBRANCH   7  11
BRANCH   9  19
ATOM     19  C   UNL     1       3.517  -6.883   0.586  1.00  0.00    -0.012 A 
ATOM     20  C   UNL     1       2.948  -6.803   1.858  1.00  0.00     0.013 A 
ATOM     21  C   UNL     1       4.907  -6.832   0.441  1.00  0.00     0.013 A 
ATOM     22  C   UNL     1       3.773  -6.713   2.981  1.00  0.00     0.047 A 
ATOM     23  C   UNL     1       5.728  -6.747   1.568  1.00  0.00     0.047 A 
ATOM     24  C   UNL     1       5.164  -6.705   2.844  1.00  0.00     0.118 A 
BRANCH  24  25
ATOM     25  O   UNL     1       5.857  -6.652   4.022  1.00  0.00    -0.497 OA
ATOM     26  C   UNL     1       7.261  -6.861   3.938  1.00  0.00     0.278 C 
ENDBRANCH  24  25
ENDBRANCH   9  19
ENDBRANCH   5   6
ENDBRANCH   3   5
ENDBRANCH   2   3
ENDBRANCH   1   2
BRANCH   1  27
ATOM     27  C   UNL     1       0.013 -12.123  -2.259  1.00  0.00     0.275 C 
BRANCH  27  28
ATOM     28  O   UNL     1       0.939 -12.153  -3.359  1.00  0.00    -0.458 OA
BRANCH  28  29
ATOM     29  C   UNL     1       0.824 -11.139  -4.248  1.00  0.00     0.338 C 
ATOM     30  O   UNL     1      -0.002 -10.246  -4.255  1.00  0.00    -0.246 OA
BRANCH  29  31
ATOM     31  C   UNL     1       1.877 -11.266  -5.266  1.00  0.00     0.060 A 
ATOM     32  C   UNL     1       3.142 -10.725  -5.026  1.00  0.00     0.016 A 
ATOM     33  C   UNL     1       1.570 -11.831  -6.504  1.00  0.00     0.016 A 
ATOM     34  C   UNL     1       4.106 -10.733  -6.035  1.00  0.00     0.010 A 
ATOM     35  C   UNL     1       2.543 -11.858  -7.506  1.00  0.00     0.010 A 
ATOM     36  C   UNL     1       3.811 -11.293  -7.286  1.00  0.00    -0.014 A 
BRANCH  36  37
ATOM     37  C   UNL     1       4.802 -11.238  -8.389  1.00  0.00     0.031 A 
ATOM     38  C   UNL     1       4.571 -10.315  -9.554  1.00  0.00     0.074 A 
ATOM     39  C   UNL     1       5.906 -12.009  -8.349  1.00  0.00     0.049 A 
ATOM     40  N   UNL     1       5.243 -10.211 -10.672  1.00  0.00    -0.248 NA
ATOM     41  C   UNL     1       3.433  -9.387  -9.447  1.00  0.00     0.031 C 
ATOM     42  C   UNL     1       6.276 -12.903  -7.250  1.00  0.00     0.029 A 
ATOM     43  N   UNL     1       6.919 -12.163  -9.261  1.00  0.00    -0.354 N 
ATOM     44  C   UNL     1       4.601  -9.223 -11.410  1.00  0.00     0.074 A 
ATOM     45  C   UNL     1       3.478  -8.768 -10.618  1.00  0.00     0.031 C 
ATOM     46  C   UNL     1       7.438 -13.507  -7.551  1.00  0.00     0.029 A 
ATOM     47  C   UNL     1       7.866 -13.085  -8.881  1.00  0.00     0.049 A 
ATOM     48  H   UNL     1       6.964 -11.662 -10.107  1.00  0.00     0.167 HD
ATOM     49  C   UNL     1       4.918  -8.740 -12.635  1.00  0.00     0.031 A 
ATOM     50  C   UNL     1       8.940 -13.558  -9.543  1.00  0.00     0.031 A 
ATOM     51  C   UNL     1       6.034  -9.195 -13.421  1.00  0.00     0.049 A 
ATOM     52  C   UNL     1       9.229 -13.059 -10.932  1.00  0.00     0.074 A 
ATOM     53  C   UNL     1       6.423  -8.785 -14.686  1.00  0.00     0.029 A 
ATOM     54  N   UNL     1       6.947 -10.156 -13.015  1.00  0.00    -0.354 N 
ATOM     55  N   UNL     1       8.584 -12.158 -11.634  1.00  0.00    -0.248 NA
ATOM     56  C   UNL     1      10.385 -13.649 -11.621  1.00  0.00     0.031 C 
ATOM     57  C   UNL     1       7.554  -9.521 -15.056  1.00  0.00     0.029 A 
ATOM     58  C   UNL     1       7.893 -10.358 -14.006  1.00  0.00     0.049 A 
ATOM     59  H   UNL     1       6.925 -10.626 -12.150  1.00  0.00     0.167 HD
ATOM     60  C   UNL     1       9.268 -12.060 -12.841  1.00  0.00     0.074 A 
ATOM     61  C   UNL     1      10.383 -12.982 -12.768  1.00  0.00     0.031 C 
ATOM     62  C   UNL     1       8.997 -11.278 -13.914  1.00  0.00     0.031 A 
BRANCH  49  63
ATOM     63  C   UNL     1       4.024  -7.678 -13.213  1.00  0.00    -0.014 A 
ATOM     64  C   UNL     1       4.082  -6.351 -12.749  1.00  0.00     0.010 A 
ATOM     65  C   UNL     1       3.140  -8.002 -14.258  1.00  0.00     0.010 A 
ATOM     66  C   UNL     1       3.248  -5.374 -13.300  1.00  0.00     0.020 A 
ATOM     67  C   UNL     1       2.320  -7.023 -14.825  1.00  0.00     0.020 A 
ATOM     68  C   UNL     1       2.368  -5.717 -14.331  1.00  0.00     0.054 A 
BRANCH  68  69
ATOM     69  S   UNL     1       1.313  -4.426 -15.047  1.00  0.00     0.124 S 
ATOM     70  O   UNL     1       0.282  -4.279 -14.023  1.00  0.00    -0.237 OA
ATOM     71  O   UNL     1       2.229  -3.297 -15.182  1.00  0.00    -0.237 OA
ATOM     72  O   UNL     1       0.860  -5.010 -16.308  1.00  0.00    -0.744 OA
ENDBRANCH  68  69
ENDBRANCH  49  63
BRANCH  50  73
ATOM     73  C   UNL     1       9.807 -14.590  -8.915  1.00  0.00    -0.014 A 
ATOM     74  C   UNL     1      11.106 -14.266  -8.487  1.00  0.00     0.010 A 
ATOM     75  C   UNL     1       9.339 -15.907  -8.751  1.00  0.00     0.010 A 
ATOM     76  C   UNL     1      11.930 -15.245  -7.923  1.00  0.00     0.020 A 
ATOM     77  C   UNL     1      10.151 -16.882  -8.165  1.00  0.00     0.020 A 
ATOM     78  C   UNL     1      11.447 -16.548  -7.767  1.00  0.00     0.054 A 
BRANCH  78  79
ATOM     79  S   UNL     1      12.512 -17.796  -6.993  1.00  0.00     0.124 S 
ATOM     80  O   UNL     1      13.383 -18.179  -8.099  1.00  0.00    -0.237 OA
ATOM     81  O   UNL     1      13.152 -17.047  -5.914  1.00  0.00    -0.237 OA
ATOM     82  O   UNL     1      11.568 -18.821  -6.553  1.00  0.00    -0.744 OA
ENDBRANCH  78  79
ENDBRANCH  50  73
BRANCH  62  83
ATOM     83  C   UNL     1       9.942 -11.360 -15.080  1.00  0.00    -0.014 A 
ATOM     84  C   UNL     1       9.906 -12.449 -15.968  1.00  0.00     0.010 A 
ATOM     85  C   UNL     1      10.849 -10.311 -15.313  1.00  0.00     0.010 A 
ATOM     86  C   UNL     1      10.783 -12.502 -17.054  1.00  0.00     0.020 A 
ATOM     87  C   UNL     1      11.714 -10.351 -16.410  1.00  0.00     0.020 A 
ATOM     88  C   UNL     1      11.685 -11.454 -17.266  1.00  0.00     0.054 A 
BRANCH  88  89
ATOM     89  S   UNL     1      12.789 -11.521 -18.704  1.00  0.00     0.124 S 
ATOM     90  O   UNL     1      13.822 -12.448 -18.250  1.00  0.00    -0.237 OA
ATOM     91  O   UNL     1      11.914 -12.024 -19.761  1.00  0.00    -0.237 OA
ATOM     92  O   UNL     1      13.222 -10.136 -18.871  1.00  0.00    -0.744 OA
ENDBRANCH  88  89
ENDBRANCH  62  83
ENDBRANCH  36  37
ENDBRANCH  29  31
ENDBRANCH  28  29
ENDBRANCH  27  28
ENDBRANCH   1  27
TORSDOF 19
