REMARK SMILES CC1=C(CC(=O)OCCOC(=O)c2ccc(-c3c4nc(c(-c5ccc(S(=O)(=O)[O-])cc5)c5ccc([nH]5)c(-c5ccc(S(=O)(=O)[O-])cc5)c5nc(c(-c6ccc(S(=O)(=O)[O-])cc6)c6ccc3[nH]6)C=C5)C=C4)cc2)c2cc(F)ccc2/C1=C\c1cccc(OCc2ccccc2)c1
REMARK SMILES IDX 8 1 7 2 5 3 6 4 4 5 3 6 1 7 2 8 80 9 73 10 79 11 81 12 74 13
REMARK SMILES IDX 78 14 75 15 77 16 76 17 82 18 83 19 95 20 84 21 86 22 85 23
REMARK SMILES IDX 87 24 88 25 89 26 90 27 94 28 91 29 93 30 92 31 9 32 10 33
REMARK SMILES IDX 11 34 12 35 13 36 14 37 72 38 15 39 71 40 16 41 17 42 18 43
REMARK SMILES IDX 65 44 19 45 70 46 64 47 66 48 20 49 69 50 63 51 62 52 21 54
REMARK SMILES IDX 51 55 32 56 50 57 33 58 36 59 49 60 67 61 34 62 35 63 48 65
REMARK SMILES IDX 68 66 37 67 22 68 23 69 31 70 24 71 30 72 25 73 26 74 27 75
REMARK SMILES IDX 28 76 29 77 52 78 53 79 61 80 54 81 60 82 55 83 56 84 57 85
REMARK SMILES IDX 58 86 59 87 38 88 39 89 47 90 40 91 46 92 41 93 42 94 43 95
REMARK SMILES IDX 44 96 45 97
REMARK H PARENT 66 53 36 64
REMARK Flexibility Score: inf
ROOT
ATOM      1  C   UNL     1       4.575  -3.252   1.616  1.00  0.00     0.274 C 
ENDROOT
BRANCH   1   2
ATOM      2  O   UNL     1       3.252  -2.705   1.444  1.00  0.00    -0.462 OA
BRANCH   2   3
ATOM      3  C   UNL     1       2.549  -3.181   0.382  1.00  0.00     0.310 C 
ATOM      4  O   UNL     1       2.985  -3.989  -0.432  1.00  0.00    -0.252 OA
BRANCH   3   5
ATOM      5  C   UNL     1       1.135  -2.627   0.263  1.00  0.00     0.159 C 
BRANCH   5   6
ATOM      6  C   UNL     1       0.684  -1.696   1.339  1.00  0.00    -0.025 C 
ATOM      7  C   UNL     1       1.197   0.534   0.239  1.00  0.00     0.045 C 
ATOM      8  C   UNL     1       0.720  -0.344   1.348  1.00  0.00    -0.039 C 
ATOM      9  C   UNL     1       0.148   0.152   2.610  1.00  0.00    -0.014 C 
ATOM     10  C   UNL     1       0.042  -2.139   2.589  1.00  0.00    -0.011 A 
ATOM     11  C   UNL     1      -0.272  -1.027   3.389  1.00  0.00    -0.010 A 
ATOM     12  C   UNL     1       0.016   1.452   2.924  1.00  0.00     0.017 C 
ATOM     13  C   UNL     1      -0.287  -3.417   3.012  1.00  0.00     0.048 A 
ATOM     14  C   UNL     1      -0.866  -1.195   4.636  1.00  0.00     0.012 A 
ATOM     15  C   UNL     1      -0.875  -3.580   4.262  1.00  0.00     0.123 A 
ATOM     16  C   UNL     1      -1.158  -2.487   5.077  1.00  0.00     0.040 A 
ATOM     17  F   UNL     1      -1.188  -4.812   4.684  1.00  0.00    -0.207 F 
BRANCH  12  18
ATOM     18  C   UNL     1      -0.671   1.981   4.101  1.00  0.00    -0.021 A 
ATOM     19  C   UNL     1      -0.002   2.159   5.313  1.00  0.00     0.008 A 
ATOM     20  C   UNL     1      -2.037   2.278   4.003  1.00  0.00     0.054 A 
ATOM     21  C   UNL     1      -0.705   2.617   6.426  1.00  0.00     0.004 A 
ATOM     22  C   UNL     1      -2.736   2.776   5.100  1.00  0.00     0.120 A 
ATOM     23  C   UNL     1      -2.064   2.925   6.316  1.00  0.00     0.046 A 
BRANCH  22  24
ATOM     24  O   UNL     1      -4.053   3.147   5.115  1.00  0.00    -0.489 OA
BRANCH  24  25
ATOM     25  C   UNL     1      -4.777   3.157   3.878  1.00  0.00     0.265 C 
BRANCH  25  26
ATOM     26  C   UNL     1      -4.396   4.319   2.986  1.00  0.00    -0.011 A 
ATOM     27  C   UNL     1      -4.465   5.635   3.466  1.00  0.00     0.007 A 
ATOM     28  C   UNL     1      -3.954   4.100   1.673  1.00  0.00     0.007 A 
ATOM     29  C   UNL     1      -4.075   6.705   2.659  1.00  0.00     0.000 A 
ATOM     30  C   UNL     1      -3.551   5.170   0.872  1.00  0.00     0.000 A 
ATOM     31  C   UNL     1      -3.610   6.471   1.366  1.00  0.00     0.000 A 
ENDBRANCH  25  26
ENDBRANCH  24  25
ENDBRANCH  22  24
ENDBRANCH  12  18
ENDBRANCH   5   6
ENDBRANCH   3   5
ENDBRANCH   2   3
ENDBRANCH   1   2
BRANCH   1  32
ATOM     32  C   UNL     1       4.577  -4.341   2.685  1.00  0.00     0.275 C 
BRANCH  32  33
ATOM     33  O   UNL     1       3.656  -5.380   2.315  1.00  0.00    -0.458 OA
BRANCH  33  34
ATOM     34  C   UNL     1       2.657  -5.615   3.197  1.00  0.00     0.338 C 
ATOM     35  O   UNL     1       2.497  -5.103   4.290  1.00  0.00    -0.246 OA
BRANCH  34  36
ATOM     36  C   UNL     1       1.758  -6.639   2.641  1.00  0.00     0.060 A 
ATOM     37  C   UNL     1       1.516  -7.797   3.376  1.00  0.00     0.016 A 
ATOM     38  C   UNL     1       1.087  -6.415   1.436  1.00  0.00     0.016 A 
ATOM     39  C   UNL     1       0.634  -8.754   2.871  1.00  0.00     0.010 A 
ATOM     40  C   UNL     1       0.129  -7.321   0.989  1.00  0.00     0.010 A 
ATOM     41  C   UNL     1      -0.073  -8.523   1.678  1.00  0.00    -0.014 A 
BRANCH  41  42
ATOM     42  C   UNL     1      -0.977  -9.563   1.125  1.00  0.00     0.031 A 
ATOM     43  C   UNL     1      -0.646 -10.229  -0.185  1.00  0.00     0.074 A 
ATOM     44  C   UNL     1      -2.079  -9.928   1.810  1.00  0.00     0.049 A 
ATOM     45  N   UNL     1      -1.250 -11.231  -0.771  1.00  0.00    -0.248 NA
ATOM     46  C   UNL     1       0.501  -9.700  -0.944  1.00  0.00     0.031 C 
ATOM     47  C   UNL     1      -2.531  -9.322   3.064  1.00  0.00     0.029 A 
ATOM     48  N   UNL     1      -3.005 -10.912   1.563  1.00  0.00    -0.354 N 
ATOM     49  C   UNL     1      -0.554 -11.454  -1.953  1.00  0.00     0.074 A 
ATOM     50  C   UNL     1       0.471 -10.442  -2.042  1.00  0.00     0.031 C 
ATOM     51  C   UNL     1      -3.609  -9.988   3.508  1.00  0.00     0.029 A 
ATOM     52  C   UNL     1      -3.943 -11.048   2.560  1.00  0.00     0.049 A 
ATOM     53  H   UNL     1      -2.997 -11.468   0.751  1.00  0.00     0.167 HD
ATOM     54  C   UNL     1      -0.725 -12.439  -2.863  1.00  0.00     0.031 A 
ATOM     55  C   UNL     1      -4.944 -11.940   2.711  1.00  0.00     0.031 A 
ATOM     56  C   UNL     1      -1.733 -13.458  -2.760  1.00  0.00     0.049 A 
ATOM     57  C   UNL     1      -5.121 -13.026   1.685  1.00  0.00     0.074 A 
ATOM     58  C   UNL     1      -1.958 -14.526  -3.610  1.00  0.00     0.029 A 
ATOM     59  N   UNL     1      -2.675 -13.542  -1.746  1.00  0.00    -0.354 N 
ATOM     60  N   UNL     1      -4.408 -13.262   0.610  1.00  0.00    -0.248 NA
ATOM     61  C   UNL     1      -6.222 -13.976   1.897  1.00  0.00     0.031 C 
ATOM     62  C   UNL     1      -3.069 -15.227  -3.139  1.00  0.00     0.029 A 
ATOM     63  C   UNL     1      -3.497 -14.633  -1.961  1.00  0.00     0.049 A 
ATOM     64  H   UNL     1      -2.747 -12.919  -0.988  1.00  0.00     0.167 HD
ATOM     65  C   UNL     1      -4.959 -14.398   0.029  1.00  0.00     0.074 A 
ATOM     66  C   UNL     1      -6.060 -14.810   0.875  1.00  0.00     0.031 C 
ATOM     67  C   UNL     1      -4.583 -15.039  -1.104  1.00  0.00     0.031 A 
BRANCH  54  68
ATOM     68  C   UNL     1       0.220 -12.496  -4.034  1.00  0.00    -0.014 A 
ATOM     69  C   UNL     1      -0.256 -12.265  -5.337  1.00  0.00     0.010 A 
ATOM     70  C   UNL     1       1.561 -12.880  -3.852  1.00  0.00     0.010 A 
ATOM     71  C   UNL     1       0.585 -12.441  -6.439  1.00  0.00     0.020 A 
ATOM     72  C   UNL     1       2.412 -13.029  -4.950  1.00  0.00     0.020 A 
ATOM     73  C   UNL     1       1.912 -12.830  -6.238  1.00  0.00     0.054 A 
BRANCH  73  74
ATOM     74  S   UNL     1       2.987 -13.068  -7.680  1.00  0.00     0.124 S 
ATOM     75  O   UNL     1       2.548 -14.367  -8.181  1.00  0.00    -0.237 OA
ATOM     76  O   UNL     1       2.655 -11.921  -8.521  1.00  0.00    -0.237 OA
ATOM     77  O   UNL     1       4.333 -13.040  -7.109  1.00  0.00    -0.744 OA
ENDBRANCH  73  74
ENDBRANCH  54  68
BRANCH  55  78
ATOM     78  C   UNL     1      -5.798 -11.871   3.929  1.00  0.00    -0.014 A 
ATOM     79  C   UNL     1      -6.698 -10.806   4.112  1.00  0.00     0.010 A 
ATOM     80  C   UNL     1      -5.650 -12.823   4.954  1.00  0.00     0.010 A 
ATOM     81  C   UNL     1      -7.397 -10.664   5.314  1.00  0.00     0.020 A 
ATOM     82  C   UNL     1      -6.367 -12.699   6.149  1.00  0.00     0.020 A 
ATOM     83  C   UNL     1      -7.214 -11.604   6.332  1.00  0.00     0.054 A 
BRANCH  83  84
ATOM     84  S   UNL     1      -8.089 -11.373   7.904  1.00  0.00     0.124 S 
ATOM     85  O   UNL     1      -7.298 -10.320   8.535  1.00  0.00    -0.237 OA
ATOM     86  O   UNL     1      -9.428 -10.980   7.471  1.00  0.00    -0.237 OA
ATOM     87  O   UNL     1      -8.004 -12.685   8.539  1.00  0.00    -0.744 OA
ENDBRANCH  83  84
ENDBRANCH  55  78
BRANCH  67  88
ATOM     88  C   UNL     1      -5.345 -16.267  -1.525  1.00  0.00    -0.014 A 
ATOM     89  C   UNL     1      -4.708 -17.523  -1.490  1.00  0.00     0.010 A 
ATOM     90  C   UNL     1      -6.609 -16.153  -2.127  1.00  0.00     0.010 A 
ATOM     91  C   UNL     1      -5.300 -18.633  -2.098  1.00  0.00     0.020 A 
ATOM     92  C   UNL     1      -7.215 -17.268  -2.713  1.00  0.00     0.020 A 
ATOM     93  C   UNL     1      -6.541 -18.493  -2.723  1.00  0.00     0.054 A 
BRANCH  93  94
ATOM     94  S   UNL     1      -7.259 -19.925  -3.573  1.00  0.00     0.124 S 
ATOM     95  O   UNL     1      -6.480 -19.973  -4.806  1.00  0.00    -0.237 OA
ATOM     96  O   UNL     1      -7.014 -21.015  -2.631  1.00  0.00    -0.237 OA
ATOM     97  O   UNL     1      -8.664 -19.558  -3.735  1.00  0.00    -0.744 OA
ENDBRANCH  93  94
ENDBRANCH  67  88
ENDBRANCH  41  42
ENDBRANCH  34  36
ENDBRANCH  33  34
ENDBRANCH  32  33
ENDBRANCH   1  32
TORSDOF 19
