REMARK SMILES Cc1ccc(S(=O)(=O)N2c3ccc(C(=O)OCCOC(=O)c4ccc(-c5c6nc(c(-c7ccc(S(=O)(=O)[O-])cc7)c7ccc([nH]7)c(-c7ccc(S(=O)(=O)[O-])cc7)c7nc(c(-c8ccc(S(=O)(=O)[O-])cc8)c8ccc5[nH]8)C=C7)C=C6)cc4)cc3C[C@H]2C)cc1
REMARK SMILES IDX 18 1 17 2 16 3 14 4 15 5 13 6 9 7 10 8 85 9 11 10 83 11
REMARK SMILES IDX 84 12 86 13 12 14 82 15 6 16 7 17 8 18 5 19 1 20 2 21 3 22
REMARK SMILES IDX 88 23 4 24 87 25 19 26 20 27 21 28 22 29 23 30 81 31 24 32
REMARK SMILES IDX 80 33 25 34 26 35 27 36 74 37 28 38 79 39 73 40 75 41 29 42
REMARK SMILES IDX 78 43 72 44 71 45 30 47 60 48 41 49 59 50 42 51 45 52 58 53
REMARK SMILES IDX 76 54 43 55 44 56 57 58 77 59 46 60 31 61 32 62 40 63 33 64
REMARK SMILES IDX 39 65 34 66 35 67 36 68 37 69 38 70 61 71 62 72 70 73 63 74
REMARK SMILES IDX 69 75 64 76 65 77 66 78 67 79 68 80 47 81 48 82 56 83 49 84
REMARK SMILES IDX 55 85 50 86 51 87 52 88 53 89 54 90
REMARK H PARENT 75 46 45 57
REMARK Flexibility Score: inf
ROOT
ATOM      1  C   UNL     1     -11.972   4.434   2.334  1.00  0.00     0.275 C 
ENDROOT
BRANCH   1   2
ATOM      2  C   UNL     1     -11.340   3.029   2.312  1.00  0.00     0.275 C 
BRANCH   2   3
ATOM      3  O   UNL     1      -9.934   3.054   2.005  1.00  0.00    -0.458 OA
BRANCH   3   4
ATOM      4  C   UNL     1      -9.440   1.823   1.720  1.00  0.00     0.338 C 
ATOM      5  O   UNL     1     -10.077   0.779   1.763  1.00  0.00    -0.246 OA
BRANCH   4   6
ATOM      6  C   UNL     1      -7.977   1.827   1.486  1.00  0.00     0.060 A 
ATOM      7  N   UNL     1      -3.845   1.577   0.713  1.00  0.00    -0.263 N 
ATOM      8  C   UNL     1      -5.253   1.533   1.036  1.00  0.00     0.055 A 
ATOM      9  C   UNL     1      -3.680   2.895  -0.037  1.00  0.00     0.101 C 
ATOM     10  C   UNL     1      -5.879   0.645   1.890  1.00  0.00     0.028 A 
ATOM     11  C   UNL     1      -5.964   2.555   0.409  1.00  0.00    -0.021 A 
ATOM     12  C   UNL     1      -5.083   3.274  -0.565  1.00  0.00     0.063 C 
ATOM     13  C   UNL     1      -3.180   3.949   0.962  1.00  0.00     0.032 C 
ATOM     14  C   UNL     1      -7.255   0.777   2.086  1.00  0.00     0.018 A 
ATOM     15  C   UNL     1      -7.321   2.743   0.654  1.00  0.00     0.021 A 
BRANCH   7  16
ATOM     16  S   UNL     1      -3.309   0.158  -0.115  1.00  0.00     0.264 S 
ATOM     17  O   UNL     1      -3.625   0.311  -1.530  1.00  0.00    -0.201 OA
ATOM     18  O   UNL     1      -3.740  -0.998   0.628  1.00  0.00    -0.201 OA
BRANCH  16  19
ATOM     19  C   UNL     1      -1.523   0.121  -0.015  1.00  0.00     0.088 A 
ATOM     20  C   UNL     1       2.773  -0.223   0.021  1.00  0.00     0.044 C 
ATOM     21  C   UNL     1       1.279  -0.103   0.035  1.00  0.00    -0.051 A 
ATOM     22  C   UNL     1       0.484  -1.243  -0.124  1.00  0.00     0.005 A 
ATOM     23  C   UNL     1       0.658   1.139   0.211  1.00  0.00     0.005 A 
ATOM     24  C   UNL     1      -0.909  -1.133  -0.151  1.00  0.00     0.022 A 
ATOM     25  C   UNL     1      -0.737   1.251   0.192  1.00  0.00     0.022 A 
ENDBRANCH  16  19
ENDBRANCH   7  16
ENDBRANCH   4   6
ENDBRANCH   3   4
ENDBRANCH   2   3
ENDBRANCH   1   2
BRANCH   1  26
ATOM     26  O   UNL     1     -12.000   5.198   1.108  1.00  0.00    -0.458 OA
BRANCH  26  27
ATOM     27  C   UNL     1     -10.888   5.144   0.324  1.00  0.00     0.338 C 
ATOM     28  O   UNL     1      -9.834   5.692   0.603  1.00  0.00    -0.246 OA
BRANCH  27  29
ATOM     29  C   UNL     1     -11.091   4.079  -0.698  1.00  0.00     0.060 A 
ATOM     30  C   UNL     1      -9.990   3.563  -1.396  1.00  0.00     0.016 A 
ATOM     31  C   UNL     1     -12.306   3.394  -0.697  1.00  0.00     0.016 A 
ATOM     32  C   UNL     1     -10.054   2.292  -1.967  1.00  0.00     0.010 A 
ATOM     33  C   UNL     1     -12.335   2.099  -1.142  1.00  0.00     0.010 A 
ATOM     34  C   UNL     1     -11.220   1.551  -1.795  1.00  0.00    -0.014 A 
BRANCH  34  35
ATOM     35  C   UNL     1     -11.540   0.323  -2.504  1.00  0.00     0.031 A 
ATOM     36  C   UNL     1     -11.064  -1.013  -2.095  1.00  0.00     0.074 A 
ATOM     37  C   UNL     1     -12.490   0.532  -3.447  1.00  0.00     0.049 A 
ATOM     38  N   UNL     1     -11.240  -2.063  -2.818  1.00  0.00    -0.248 NA
ATOM     39  C   UNL     1     -10.338  -1.310  -0.862  1.00  0.00     0.031 C 
ATOM     40  C   UNL     1     -13.354  -0.403  -4.139  1.00  0.00     0.029 A 
ATOM     41  N   UNL     1     -12.752   1.757  -4.086  1.00  0.00    -0.354 N 
ATOM     42  C   UNL     1     -10.943  -3.173  -2.053  1.00  0.00     0.074 A 
ATOM     43  C   UNL     1     -10.310  -2.654  -0.868  1.00  0.00     0.031 C 
ATOM     44  C   UNL     1     -13.773   0.180  -5.280  1.00  0.00     0.029 A 
ATOM     45  C   UNL     1     -13.035   1.435  -5.408  1.00  0.00     0.049 A 
ATOM     46  H   UNL     1     -12.739   2.654  -3.682  1.00  0.00     0.167 HD
ATOM     47  C   UNL     1     -11.402  -4.384  -2.479  1.00  0.00     0.031 A 
ATOM     48  C   UNL     1     -12.149   1.740  -6.403  1.00  0.00     0.031 A 
ATOM     49  C   UNL     1     -11.994  -4.247  -3.806  1.00  0.00     0.049 A 
ATOM     50  C   UNL     1     -11.696   0.473  -7.088  1.00  0.00     0.074 A 
ATOM     51  C   UNL     1     -13.300  -4.071  -4.229  1.00  0.00     0.029 A 
ATOM     52  N   UNL     1     -11.172  -3.900  -4.868  1.00  0.00    -0.354 N 
ATOM     53  N   UNL     1     -11.534  -0.675  -6.487  1.00  0.00    -0.248 NA
ATOM     54  C   UNL     1     -11.490   0.399  -8.527  1.00  0.00     0.031 C 
ATOM     55  C   UNL     1     -13.253  -3.524  -5.537  1.00  0.00     0.029 A 
ATOM     56  C   UNL     1     -11.924  -3.393  -5.906  1.00  0.00     0.049 A 
ATOM     57  H   UNL     1     -10.193  -4.000  -4.878  1.00  0.00     0.167 HD
ATOM     58  C   UNL     1     -11.328  -1.647  -7.435  1.00  0.00     0.074 A 
ATOM     59  C   UNL     1     -11.269  -0.916  -8.690  1.00  0.00     0.031 C 
ATOM     60  C   UNL     1     -11.283  -2.982  -7.145  1.00  0.00     0.031 A 
BRANCH  47  61
ATOM     61  C   UNL     1     -11.567  -5.641  -1.655  1.00  0.00    -0.014 A 
ATOM     62  C   UNL     1     -12.577  -6.555  -2.042  1.00  0.00     0.010 A 
ATOM     63  C   UNL     1     -10.828  -5.984  -0.509  1.00  0.00     0.010 A 
ATOM     64  C   UNL     1     -12.875  -7.712  -1.314  1.00  0.00     0.020 A 
ATOM     65  C   UNL     1     -11.118  -7.150   0.236  1.00  0.00     0.020 A 
ATOM     66  C   UNL     1     -12.148  -8.001  -0.168  1.00  0.00     0.054 A 
BRANCH  66  67
ATOM     67  S   UNL     1     -12.578  -9.500   0.760  1.00  0.00     0.124 S 
ATOM     68  O   UNL     1     -13.964  -9.242   1.147  1.00  0.00    -0.237 OA
ATOM     69  O   UNL     1     -12.393 -10.554  -0.234  1.00  0.00    -0.237 OA
ATOM     70  O   UNL     1     -11.622  -9.514   1.865  1.00  0.00    -0.744 OA
ENDBRANCH  66  67
ENDBRANCH  47  61
BRANCH  48  71
ATOM     71  C   UNL     1     -11.280   2.940  -6.152  1.00  0.00    -0.014 A 
ATOM     72  C   UNL     1     -11.911   4.196  -5.982  1.00  0.00     0.010 A 
ATOM     73  C   UNL     1      -9.937   2.819  -5.751  1.00  0.00     0.010 A 
ATOM     74  C   UNL     1     -11.265   5.254  -5.330  1.00  0.00     0.020 A 
ATOM     75  C   UNL     1      -9.277   3.888  -5.113  1.00  0.00     0.020 A 
ATOM     76  C   UNL     1      -9.959   5.084  -4.871  1.00  0.00     0.054 A 
BRANCH  76  77
ATOM     77  S   UNL     1      -9.253   6.372  -3.792  1.00  0.00     0.124 S 
ATOM     78  O   UNL     1      -9.024   7.470  -4.725  1.00  0.00    -0.237 OA
ATOM     79  O   UNL     1     -10.329   6.581  -2.826  1.00  0.00    -0.237 OA
ATOM     80  O   UNL     1      -8.050   5.743  -3.251  1.00  0.00    -0.744 OA
ENDBRANCH  76  77
ENDBRANCH  48  71
BRANCH  60  81
ATOM     81  C   UNL     1     -10.736  -4.073  -8.037  1.00  0.00    -0.014 A 
ATOM     82  C   UNL     1      -9.994  -3.839  -9.201  1.00  0.00     0.010 A 
ATOM     83  C   UNL     1     -10.849  -5.425  -7.619  1.00  0.00     0.010 A 
ATOM     84  C   UNL     1      -9.460  -4.895  -9.949  1.00  0.00     0.020 A 
ATOM     85  C   UNL     1     -10.267  -6.481  -8.320  1.00  0.00     0.020 A 
ATOM     86  C   UNL     1      -9.601  -6.209  -9.505  1.00  0.00     0.054 A 
BRANCH  86  87
ATOM     87  S   UNL     1      -8.860  -7.547 -10.464  1.00  0.00     0.124 S 
ATOM     88  O   UNL     1      -9.849  -7.737 -11.522  1.00  0.00    -0.237 OA
ATOM     89  O   UNL     1      -7.588  -6.969 -10.894  1.00  0.00    -0.237 OA
ATOM     90  O   UNL     1      -8.747  -8.642  -9.505  1.00  0.00    -0.744 OA
ENDBRANCH  86  87
ENDBRANCH  60  81
ENDBRANCH  34  35
ENDBRANCH  27  29
ENDBRANCH  26  27
ENDBRANCH   1  26
TORSDOF 16
