REMARK SMILES CC(C)[NH2+]CC[C@H](c1ccccc1)c1cc(C(=O)OCCOC(=O)c2ccc(-c3c4nc(c(-c5ccc(S(=O)(=O)[O-])cc5)c5ccc([nH]5)c(-c5ccc(S(=O)(=O)[O-])cc5)c5nc(c(-c6ccc(S(=O)(=O)[O-])cc6)c6ccc3[nH]6)C=C5)C=C4)cc2)ccc1O
REMARK SMILES IDX 20 1 19 2 17 3 18 4 16 5 14 6 15 7 87 8 86 9 85 10 7 11 6 12
REMARK SMILES IDX 5 13 4 14 2 17 1 18 3 19 8 20 9 21 13 22 10 23 12 24 11 25
REMARK SMILES IDX 88 26 21 28 22 29 23 30 24 31 25 32 26 33 84 34 27 35 83 36
REMARK SMILES IDX 28 37 29 38 30 39 77 40 31 41 82 42 76 43 78 44 32 45 81 46
REMARK SMILES IDX 75 47 74 48 33 50 63 51 44 52 62 53 45 54 48 55 61 56 79 57
REMARK SMILES IDX 46 58 47 59 60 61 80 62 49 63 34 64 35 65 43 66 36 67 42 68
REMARK SMILES IDX 37 69 38 70 39 71 40 72 41 73 64 74 65 75 73 76 66 77 72 78
REMARK SMILES IDX 67 79 68 80 69 81 70 82 71 83 50 84 51 85 59 86 52 87 58 88
REMARK SMILES IDX 53 89 54 90 55 91 56 92 57 93
REMARK H PARENT 4 15 4 16 88 27 78 49 48 60
REMARK Flexibility Score: inf
ROOT
ATOM      1  C   UNL     1       2.509   1.411  -9.130  1.00  0.00     0.275 C 
ENDROOT
BRANCH   1   2
ATOM      2  O   UNL     1       1.699   2.349  -8.397  1.00  0.00    -0.458 OA
BRANCH   2   3
ATOM      3  C   UNL     1       0.575   1.853  -7.820  1.00  0.00     0.338 C 
ATOM      4  O   UNL     1       0.154   0.716  -7.904  1.00  0.00    -0.246 OA
BRANCH   3   5
ATOM      5  C   UNL     1      -0.034   2.887  -6.948  1.00  0.00     0.060 A 
ATOM      6  C   UNL     1      -1.115   3.420  -4.802  1.00  0.00     0.002 A 
ATOM      7  C   UNL     1      -0.620   2.491  -5.733  1.00  0.00     0.023 A 
ATOM      8  C   UNL     1      -1.223   4.738  -5.263  1.00  0.00     0.119 A 
ATOM      9  C   UNL     1      -0.655   5.150  -6.472  1.00  0.00     0.047 A 
ATOM     10  C   UNL     1      -0.022   4.232  -7.302  1.00  0.00     0.019 A 
BRANCH   6  11
ATOM     11  C   UNL     1      -1.442   2.907  -3.381  1.00  0.00     0.059 C 
BRANCH  11  12
ATOM     12  C   UNL     1      -2.969   2.793  -3.142  1.00  0.00     0.074 C 
BRANCH  12  13
ATOM     13  C   UNL     1      -3.502   2.652  -1.706  1.00  0.00     0.261 C 
BRANCH  13  14
ATOM     14  N   UNL     1      -3.337   3.783  -0.811  1.00  0.00    -0.344 N 
ATOM     15  H   UNL     1      -3.339   3.407   0.137  1.00  0.00     0.346 HD
ATOM     16  H   UNL     1      -2.479   4.219  -1.149  1.00  0.00     0.346 HD
BRANCH  14  17
ATOM     17  C   UNL     1      -4.290   4.881  -0.826  1.00  0.00     0.176 C 
ATOM     18  C   UNL     1      -3.823   5.905   0.216  1.00  0.00     0.075 C 
ATOM     19  C   UNL     1      -4.456   5.606  -2.158  1.00  0.00     0.075 C 
ENDBRANCH  14  17
ENDBRANCH  13  14
ENDBRANCH  12  13
ENDBRANCH  11  12
BRANCH  11  20
ATOM     20  C   UNL     1      -0.566   3.483  -2.258  1.00  0.00    -0.040 A 
ATOM     21  C   UNL     1      -0.397   4.854  -2.014  1.00  0.00     0.004 A 
ATOM     22  C   UNL     1       0.068   2.593  -1.364  1.00  0.00     0.004 A 
ATOM     23  C   UNL     1       0.352   5.320  -0.926  1.00  0.00     0.000 A 
ATOM     24  C   UNL     1       0.822   3.058  -0.279  1.00  0.00     0.000 A 
ATOM     25  C   UNL     1       0.960   4.423  -0.058  1.00  0.00     0.000 A 
ENDBRANCH  11  20
ENDBRANCH   6  11
BRANCH   8  26
ATOM     26  O   UNL     1      -1.932   5.707  -4.620  1.00  0.00    -0.508 OA
ATOM     27  H   UNL     1      -2.348   5.519  -3.801  1.00  0.00     0.293 HD
ENDBRANCH   8  26
ENDBRANCH   3   5
ENDBRANCH   2   3
ENDBRANCH   1   2
BRANCH   1  28
ATOM     28  C   UNL     1       3.743   1.015  -8.319  1.00  0.00     0.275 C 
BRANCH  28  29
ATOM     29  O   UNL     1       3.371   0.134  -7.241  1.00  0.00    -0.458 OA
BRANCH  29  30
ATOM     30  C   UNL     1       3.463   0.665  -6.001  1.00  0.00     0.338 C 
ATOM     31  O   UNL     1       3.872   1.773  -5.698  1.00  0.00    -0.246 OA
BRANCH  30  32
ATOM     32  C   UNL     1       2.880  -0.257  -5.013  1.00  0.00     0.060 A 
ATOM     33  C   UNL     1       1.503  -0.216  -4.843  1.00  0.00     0.016 A 
ATOM     34  C   UNL     1       3.663  -0.992  -4.132  1.00  0.00     0.016 A 
ATOM     35  C   UNL     1       0.907  -0.770  -3.716  1.00  0.00     0.010 A 
ATOM     36  C   UNL     1       3.047  -1.655  -3.058  1.00  0.00     0.010 A 
ATOM     37  C   UNL     1       1.671  -1.495  -2.794  1.00  0.00    -0.014 A 
BRANCH  37  38
ATOM     38  C   UNL     1       1.048  -1.987  -1.525  1.00  0.00     0.031 A 
ATOM     39  C   UNL     1       1.627  -1.577  -0.190  1.00  0.00     0.074 A 
ATOM     40  C   UNL     1      -0.066  -2.751  -1.542  1.00  0.00     0.049 A 
ATOM     41  N   UNL     1       1.320  -1.999   1.012  1.00  0.00    -0.248 NA
ATOM     42  C   UNL     1       2.704  -0.574  -0.209  1.00  0.00     0.031 C 
ATOM     43  C   UNL     1      -0.781  -3.190  -2.742  1.00  0.00     0.029 A 
ATOM     44  N   UNL     1      -0.804  -3.282  -0.510  1.00  0.00    -0.354 N 
ATOM     45  C   UNL     1       2.216  -1.378   1.877  1.00  0.00     0.074 A 
ATOM     46  C   UNL     1       3.078  -0.550   1.062  1.00  0.00     0.031 C 
ATOM     47  C   UNL     1      -1.879  -3.872  -2.379  1.00  0.00     0.029 A 
ATOM     48  C   UNL     1      -1.900  -4.004  -0.926  1.00  0.00     0.049 A 
ATOM     49  H   UNL     1      -0.571  -3.157   0.439  1.00  0.00     0.167 HD
ATOM     50  C   UNL     1       2.318  -1.487   3.224  1.00  0.00     0.031 A 
ATOM     51  C   UNL     1      -2.804  -4.724  -0.231  1.00  0.00     0.031 A 
ATOM     52  C   UNL     1       1.424  -2.258   4.048  1.00  0.00     0.049 A 
ATOM     53  C   UNL     1      -2.677  -4.827   1.263  1.00  0.00     0.074 A 
ATOM     54  C   UNL     1       1.439  -2.412   5.424  1.00  0.00     0.029 A 
ATOM     55  N   UNL     1       0.342  -2.987   3.578  1.00  0.00    -0.354 N 
ATOM     56  N   UNL     1      -1.782  -4.283   2.053  1.00  0.00    -0.248 NA
ATOM     57  C   UNL     1      -3.677  -5.649   1.958  1.00  0.00     0.031 C 
ATOM     58  C   UNL     1       0.389  -3.266   5.782  1.00  0.00     0.029 A 
ATOM     59  C   UNL     1      -0.312  -3.598   4.635  1.00  0.00     0.049 A 
ATOM     60  H   UNL     1       0.078  -3.058   2.633  1.00  0.00     0.167 HD
ATOM     61  C   UNL     1      -2.121  -4.686   3.340  1.00  0.00     0.074 A 
ATOM     62  C   UNL     1      -3.314  -5.500   3.224  1.00  0.00     0.031 C 
ATOM     63  C   UNL     1      -1.496  -4.411   4.511  1.00  0.00     0.031 A 
BRANCH  50  64
ATOM     64  C   UNL     1       3.478  -0.790   3.890  1.00  0.00    -0.014 A 
ATOM     65  C   UNL     1       3.535   0.609   4.013  1.00  0.00     0.010 A 
ATOM     66  C   UNL     1       4.529  -1.565   4.418  1.00  0.00     0.010 A 
ATOM     67  C   UNL     1       4.646   1.223   4.601  1.00  0.00     0.020 A 
ATOM     68  C   UNL     1       5.626  -0.958   5.034  1.00  0.00     0.020 A 
ATOM     69  C   UNL     1       5.688   0.435   5.100  1.00  0.00     0.054 A 
BRANCH  69  70
ATOM     70  S   UNL     1       7.119   1.254   5.858  1.00  0.00     0.124 S 
ATOM     71  O   UNL     1       7.831   1.757   4.687  1.00  0.00    -0.237 OA
ATOM     72  O   UNL     1       6.498   2.272   6.701  1.00  0.00    -0.237 OA
ATOM     73  O   UNL     1       7.791   0.177   6.581  1.00  0.00    -0.744 OA
ENDBRANCH  69  70
ENDBRANCH  50  64
BRANCH  51  74
ATOM     74  C   UNL     1      -3.891  -5.441  -0.955  1.00  0.00    -0.014 A 
ATOM     75  C   UNL     1      -5.228  -5.022  -0.843  1.00  0.00     0.010 A 
ATOM     76  C   UNL     1      -3.586  -6.539  -1.782  1.00  0.00     0.010 A 
ATOM     77  C   UNL     1      -6.240  -5.689  -1.542  1.00  0.00     0.020 A 
ATOM     78  C   UNL     1      -4.590  -7.187  -2.506  1.00  0.00     0.020 A 
ATOM     79  C   UNL     1      -5.913  -6.763  -2.375  1.00  0.00     0.054 A 
BRANCH  79  80
ATOM     80  S   UNL     1      -7.228  -7.564  -3.335  1.00  0.00     0.124 S 
ATOM     81  O   UNL     1      -7.900  -8.366  -2.318  1.00  0.00    -0.237 OA
ATOM     82  O   UNL     1      -7.986  -6.424  -3.846  1.00  0.00    -0.237 OA
ATOM     83  O   UNL     1      -6.497  -8.320  -4.349  1.00  0.00    -0.744 OA
ENDBRANCH  79  80
ENDBRANCH  51  74
BRANCH  63  84
ATOM     84  C   UNL     1      -2.114  -4.962   5.768  1.00  0.00    -0.014 A 
ATOM     85  C   UNL     1      -2.055  -6.334   6.073  1.00  0.00     0.010 A 
ATOM     86  C   UNL     1      -2.747  -4.087   6.670  1.00  0.00     0.010 A 
ATOM     87  C   UNL     1      -2.659  -6.826   7.234  1.00  0.00     0.020 A 
ATOM     88  C   UNL     1      -3.329  -4.572   7.844  1.00  0.00     0.020 A 
ATOM     89  C   UNL     1      -3.299  -5.942   8.108  1.00  0.00     0.054 A 
BRANCH  89  90
ATOM     90  S   UNL     1      -4.066  -6.601   9.614  1.00  0.00     0.124 S 
ATOM     91  O   UNL     1      -5.286  -7.210   9.091  1.00  0.00    -0.237 OA
ATOM     92  O   UNL     1      -3.059  -7.536  10.108  1.00  0.00    -0.237 OA
ATOM     93  O   UNL     1      -4.268  -5.416  10.446  1.00  0.00    -0.744 OA
ENDBRANCH  89  90
ENDBRANCH  63  84
ENDBRANCH  37  38
ENDBRANCH  30  32
ENDBRANCH  29  30
ENDBRANCH  28  29
ENDBRANCH   1  28
TORSDOF 21
