REMARK SMILES Cc1ccc(-c2cc(C(=O)OCCOC(=O)c3ccc(-c4c5nc(c(-c6ccc(S(=O)(=O)[O-])cc6)c6ccc([nH]6)c(-c6ccc(S(=O)(=O)[O-])cc6)c6nc(c(-c7ccc(S(=O)(=O)[O-])cc7)c7ccc4[nH]7)C=C6)C=C5)cc3)c3c(-c4cccc([N+](=O)[O-])c4)[nH]nc3n2)cc1
REMARK SMILES IDX 13 1 12 2 11 3 9 4 10 5 8 6 6 7 7 8 91 9 90 10 77 11 89 12
REMARK SMILES IDX 78 13 88 14 5 16 1 17 2 18 3 19 93 20 4 21 92 22 79 23 80 24
REMARK SMILES IDX 87 25 81 26 83 27 82 28 84 29 85 30 86 31 14 32 15 33 16 34
REMARK SMILES IDX 17 35 18 36 76 37 19 38 75 39 20 40 21 41 22 42 69 43 23 44
REMARK SMILES IDX 74 45 68 46 70 47 24 48 73 49 67 50 66 51 25 53 55 54 36 55
REMARK SMILES IDX 54 56 37 57 40 58 53 59 71 60 38 61 39 62 52 64 72 65 41 66
REMARK SMILES IDX 26 67 27 68 35 69 28 70 34 71 29 72 30 73 31 74 32 75 33 76
REMARK SMILES IDX 56 77 57 78 65 79 58 80 64 81 59 82 60 83 61 84 62 85 63 86
REMARK SMILES IDX 42 87 43 88 51 89 44 90 50 91 45 92 46 93 47 94 48 95 49 96
REMARK H PARENT 88 15 70 52 40 63
REMARK Flexibility Score: inf
ROOT
ATOM      1  C   UNL     1      -4.430   1.151  -5.756  1.00  0.00     0.275 C 
ENDROOT
BRANCH   1   2
ATOM      2  C   UNL     1      -3.801   1.391  -4.356  1.00  0.00     0.275 C 
BRANCH   2   3
ATOM      3  O   UNL     1      -4.090   0.312  -3.430  1.00  0.00    -0.458 OA
BRANCH   3   4
ATOM      4  C   UNL     1      -4.422   0.638  -2.135  1.00  0.00     0.339 C 
ATOM      5  O   UNL     1      -4.197   1.721  -1.615  1.00  0.00    -0.246 OA
BRANCH   4   6
ATOM      6  C   UNL     1      -4.734  -0.600  -1.332  1.00  0.00     0.075 A 
ATOM      7  C   UNL     1      -2.875  -0.992   0.230  1.00  0.00     0.074 A 
ATOM      8  C   UNL     1      -3.401  -1.017  -1.070  1.00  0.00     0.045 A 
ATOM      9  N   UNL     1      -3.583  -1.024   1.367  1.00  0.00    -0.226 NA
ATOM     10  C   UNL     1      -4.915  -1.009   1.160  1.00  0.00     0.182 A 
ATOM     11  C   UNL     1      -5.563  -0.745  -0.136  1.00  0.00     0.061 A 
ATOM     12  N   UNL     1      -5.768  -1.256   2.140  1.00  0.00    -0.154 NA
ATOM     13  C   UNL     1      -6.953  -0.810   0.205  1.00  0.00     0.076 A 
ATOM     14  N   UNL     1      -6.927  -1.264   1.520  1.00  0.00    -0.275 N 
ATOM     15  H   UNL     1      -7.745  -1.580   1.968  1.00  0.00     0.190 HD
BRANCH   7  16
ATOM     16  C   UNL     1      -1.447  -0.716   0.377  1.00  0.00     0.000 A 
ATOM     17  C   UNL     1       2.771   0.079   0.039  1.00  0.00     0.044 C 
ATOM     18  C   UNL     1       1.307  -0.177   0.229  1.00  0.00    -0.051 A 
ATOM     19  C   UNL     1       0.839  -1.497   0.283  1.00  0.00     0.004 A 
ATOM     20  C   UNL     1       0.394   0.878   0.310  1.00  0.00     0.004 A 
ATOM     21  C   UNL     1      -0.526  -1.764   0.361  1.00  0.00     0.010 A 
ATOM     22  C   UNL     1      -0.975   0.611   0.385  1.00  0.00     0.010 A 
ENDBRANCH   7  16
BRANCH  13  23
ATOM     23  C   UNL     1      -8.396  -0.614  -0.190  1.00  0.00     0.007 A 
ATOM     24  C   UNL     1      -9.130   0.264   0.673  1.00  0.00     0.011 A 
ATOM     25  C   UNL     1      -9.182  -1.395  -1.061  1.00  0.00     0.096 A 
ATOM     26  C   UNL     1     -10.527   0.415   0.643  1.00  0.00     0.008 A 
ATOM     27  C   UNL     1     -10.605  -1.195  -1.132  1.00  0.00     0.270 A 
ATOM     28  C   UNL     1     -11.268  -0.290  -0.287  1.00  0.00     0.085 A 
BRANCH  27  29
ATOM     29  N   UNL     1     -11.460  -1.965  -2.063  1.00  0.00     0.062 N 
ATOM     30  O   UNL     1     -12.616  -1.547  -2.264  1.00  0.00    -0.258 OA
ATOM     31  O   UNL     1     -11.048  -3.075  -2.433  1.00  0.00    -0.258 OA
ENDBRANCH  27  29
ENDBRANCH  13  23
ENDBRANCH   4   6
ENDBRANCH   3   4
ENDBRANCH   2   3
ENDBRANCH   1   2
BRANCH   1  32
ATOM     32  O   UNL     1      -5.770   0.609  -5.852  1.00  0.00    -0.458 OA
BRANCH  32  33
ATOM     33  C   UNL     1      -6.459   0.425  -4.700  1.00  0.00     0.338 C 
ATOM     34  O   UNL     1      -6.497  -0.671  -4.136  1.00  0.00    -0.246 OA
BRANCH  33  35
ATOM     35  C   UNL     1      -6.798   1.736  -4.090  1.00  0.00     0.060 A 
ATOM     36  C   UNL     1      -6.837   1.832  -2.696  1.00  0.00     0.016 A 
ATOM     37  C   UNL     1      -6.790   2.886  -4.875  1.00  0.00     0.016 A 
ATOM     38  C   UNL     1      -6.680   3.051  -2.063  1.00  0.00     0.010 A 
ATOM     39  C   UNL     1      -6.612   4.099  -4.266  1.00  0.00     0.010 A 
ATOM     40  C   UNL     1      -6.544   4.166  -2.871  1.00  0.00    -0.014 A 
BRANCH  40  41
ATOM     41  C   UNL     1      -6.454   5.495  -2.319  1.00  0.00     0.031 A 
ATOM     42  C   UNL     1      -5.185   5.851  -1.648  1.00  0.00     0.074 A 
ATOM     43  C   UNL     1      -7.574   6.219  -2.551  1.00  0.00     0.049 A 
ATOM     44  N   UNL     1      -5.069   6.582  -0.597  1.00  0.00    -0.248 NA
ATOM     45  C   UNL     1      -3.885   5.290  -2.062  1.00  0.00     0.031 C 
ATOM     46  C   UNL     1      -7.890   7.612  -2.328  1.00  0.00     0.029 A 
ATOM     47  N   UNL     1      -8.825   5.682  -2.912  1.00  0.00    -0.354 N 
ATOM     48  C   UNL     1      -3.747   6.998  -0.591  1.00  0.00     0.074 A 
ATOM     49  C   UNL     1      -3.023   5.990  -1.313  1.00  0.00     0.031 C 
ATOM     50  C   UNL     1      -9.223   7.720  -2.140  1.00  0.00     0.029 A 
ATOM     51  C   UNL     1      -9.776   6.373  -2.163  1.00  0.00     0.049 A 
ATOM     52  H   UNL     1      -8.993   4.963  -3.562  1.00  0.00     0.167 HD
ATOM     53  C   UNL     1      -3.482   8.308  -0.313  1.00  0.00     0.031 A 
ATOM     54  C   UNL     1     -10.431   5.751  -1.136  1.00  0.00     0.031 A 
ATOM     55  C   UNL     1      -4.737   8.989   0.001  1.00  0.00     0.049 A 
ATOM     56  C   UNL     1      -9.961   6.357   0.181  1.00  0.00     0.074 A 
ATOM     57  C   UNL     1      -5.565   9.784  -0.773  1.00  0.00     0.029 A 
ATOM     58  N   UNL     1      -5.504   8.533   1.065  1.00  0.00    -0.354 N 
ATOM     59  N   UNL     1      -8.765   6.847   0.398  1.00  0.00    -0.248 NA
ATOM     60  C   UNL     1     -10.874   6.605   1.291  1.00  0.00     0.031 C 
ATOM     61  C   UNL     1      -6.863   9.743  -0.199  1.00  0.00     0.029 A 
ATOM     62  C   UNL     1      -6.830   8.879   0.882  1.00  0.00     0.049 A 
ATOM     63  H   UNL     1      -5.154   8.035   1.839  1.00  0.00     0.167 HD
ATOM     64  C   UNL     1      -8.800   7.639   1.528  1.00  0.00     0.074 A 
ATOM     65  C   UNL     1     -10.126   7.398   2.079  1.00  0.00     0.031 C 
ATOM     66  C   UNL     1      -7.814   8.522   1.891  1.00  0.00     0.031 A 
BRANCH  53  67
ATOM     67  C   UNL     1      -2.223   9.050  -0.717  1.00  0.00    -0.014 A 
ATOM     68  C   UNL     1      -2.309  10.438  -0.966  1.00  0.00     0.010 A 
ATOM     69  C   UNL     1      -0.949   8.471  -0.881  1.00  0.00     0.010 A 
ATOM     70  C   UNL     1      -1.219  11.199  -1.403  1.00  0.00     0.020 A 
ATOM     71  C   UNL     1       0.158   9.224  -1.328  1.00  0.00     0.020 A 
ATOM     72  C   UNL     1       0.013  10.586  -1.588  1.00  0.00     0.054 A 
BRANCH  72  73
ATOM     73  S   UNL     1       1.409  11.609  -2.130  1.00  0.00     0.124 S 
ATOM     74  O   UNL     1       0.948  12.115  -3.420  1.00  0.00    -0.237 OA
ATOM     75  O   UNL     1       1.503  12.603  -1.064  1.00  0.00    -0.237 OA
ATOM     76  O   UNL     1       2.525  10.667  -2.198  1.00  0.00    -0.744 OA
ENDBRANCH  72  73
ENDBRANCH  53  67
BRANCH  54  77
ATOM     77  C   UNL     1     -10.750   4.312  -1.436  1.00  0.00    -0.014 A 
ATOM     78  C   UNL     1     -11.626   4.046  -2.526  1.00  0.00     0.010 A 
ATOM     79  C   UNL     1      -9.884   3.292  -1.051  1.00  0.00     0.010 A 
ATOM     80  C   UNL     1     -11.496   2.901  -3.331  1.00  0.00     0.020 A 
ATOM     81  C   UNL     1      -9.760   2.157  -1.875  1.00  0.00     0.020 A 
ATOM     82  C   UNL     1     -10.501   1.992  -3.043  1.00  0.00     0.054 A 
BRANCH  82  83
ATOM     83  S   UNL     1     -10.115   0.694  -4.262  1.00  0.00     0.124 S 
ATOM     84  O   UNL     1     -11.415   0.099  -4.529  1.00  0.00    -0.237 OA
ATOM     85  O   UNL     1      -9.526   1.453  -5.358  1.00  0.00    -0.237 OA
ATOM     86  O   UNL     1      -9.195  -0.173  -3.541  1.00  0.00    -0.744 OA
ENDBRANCH  82  83
ENDBRANCH  54  77
BRANCH  66  87
ATOM     87  C   UNL     1      -7.693   9.292   3.195  1.00  0.00    -0.014 A 
ATOM     88  C   UNL     1      -8.423   9.022   4.354  1.00  0.00     0.010 A 
ATOM     89  C   UNL     1      -6.680  10.287   3.304  1.00  0.00     0.010 A 
ATOM     90  C   UNL     1      -8.203   9.749   5.533  1.00  0.00     0.020 A 
ATOM     91  C   UNL     1      -6.401  10.965   4.487  1.00  0.00     0.020 A 
ATOM     92  C   UNL     1      -7.193  10.712   5.592  1.00  0.00     0.054 A 
BRANCH  92  93
ATOM     93  S   UNL     1      -6.898  11.598   7.135  1.00  0.00     0.124 S 
ATOM     94  O   UNL     1      -7.985  12.574   7.129  1.00  0.00    -0.237 OA
ATOM     95  O   UNL     1      -7.009  10.540   8.136  1.00  0.00    -0.237 OA
ATOM     96  O   UNL     1      -5.557  12.152   6.969  1.00  0.00    -0.744 OA
ENDBRANCH  92  93
ENDBRANCH  66  87
ENDBRANCH  40  41
ENDBRANCH  33  35
ENDBRANCH  32  33
ENDBRANCH   1  32
TORSDOF 17
