REMARK SMILES Cc1cc([C@H](C)NC(=O)N2CC[C@H](C(=O)OCCOC(=O)c3ccc(-c4c5nc(c(-c6ccc(S(=O)(=O)[O-])cc6)c6ccc([nH]6)c(-c6ccc(S(=O)(=O)[O-])cc6)c6nc(c(-c7ccc(S(=O)(=O)[O-])cc7)c7ccc4[nH]7)C=C6)C=C5)cc3)[C@@H]2C)c(C)s1
REMARK SMILES IDX 17 1 16 2 14 3 15 4 13 5 10 6 11 7 82 8 12 9 83 10 8 11 7 12
REMARK SMILES IDX 9 14 5 15 6 16 4 17 1 18 2 19 3 20 86 21 84 22 85 23 18 24
REMARK SMILES IDX 19 25 20 26 21 27 22 28 23 29 81 30 24 31 80 32 25 33 26 34
REMARK SMILES IDX 27 35 74 36 28 37 79 38 73 39 75 40 29 41 78 42 72 43 71 44
REMARK SMILES IDX 30 46 60 47 41 48 59 49 42 50 45 51 58 52 76 53 43 54 44 55
REMARK SMILES IDX 57 57 77 58 46 59 31 60 32 61 40 62 33 63 39 64 34 65 35 66
REMARK SMILES IDX 36 67 37 68 38 69 61 70 62 71 70 72 63 73 69 74 64 75 65 76
REMARK SMILES IDX 66 77 67 78 68 79 47 80 48 81 56 82 49 83 55 84 50 85 51 86
REMARK SMILES IDX 52 87 53 88 54 89
REMARK H PARENT 7 13 75 45 45 56
REMARK Flexibility Score: inf
ROOT
ATOM      1  C   UNL     1       0.696  -9.894   0.408  1.00  0.00     0.274 C 
ENDROOT
BRANCH   1   2
ATOM      2  O   UNL     1       0.093  -8.616   0.096  1.00  0.00    -0.462 OA
BRANCH   2   3
ATOM      3  C   UNL     1      -0.231  -7.822   1.161  1.00  0.00     0.311 C 
ATOM      4  O   UNL     1      -0.035  -8.119   2.331  1.00  0.00    -0.252 OA
BRANCH   3   5
ATOM      5  C   UNL     1      -0.939  -6.553   0.695  1.00  0.00     0.123 C 
ATOM      6  N   UNL     1       0.136  -4.478   1.254  1.00  0.00    -0.321 N 
ATOM      7  C   UNL     1      -0.602  -4.932   2.422  1.00  0.00     0.122 C 
ATOM      8  C   UNL     1      -0.040  -5.420   0.141  1.00  0.00     0.098 C 
ATOM      9  C   UNL     1      -1.656  -5.874   1.867  1.00  0.00     0.039 C 
ATOM     10  C   UNL     1       1.264  -5.918  -0.452  1.00  0.00     0.032 C 
BRANCH   6  11
ATOM     11  C   UNL     1       0.935  -3.376   1.381  1.00  0.00     0.318 C 
ATOM     12  N   UNL     1       1.516  -2.789   0.311  1.00  0.00    -0.331 N 
ATOM     13  H   UNL     1       2.476  -2.588   0.402  1.00  0.00     0.165 HD
ATOM     14  O   UNL     1       1.185  -2.893   2.487  1.00  0.00    -0.249 OA
BRANCH  12  15
ATOM     15  C   UNL     1       0.910  -2.415  -0.956  1.00  0.00     0.112 C 
ATOM     16  C   UNL     1       0.029  -1.175  -0.758  1.00  0.00     0.036 C 
BRANCH  15  17
ATOM     17  C   UNL     1       2.006  -2.193  -1.991  1.00  0.00    -0.012 A 
ATOM     18  C   UNL     1       4.497   0.132  -3.712  1.00  0.00     0.056 C 
ATOM     19  C   UNL     1       3.635  -0.973  -3.195  1.00  0.00     0.002 A 
ATOM     20  C   UNL     1       2.781  -0.977  -2.113  1.00  0.00     0.021 A 
ATOM     21  S   UNL     1       3.629  -2.473  -3.993  1.00  0.00    -0.146 S 
ATOM     22  C   UNL     1       2.378  -3.085  -2.994  1.00  0.00     0.007 A 
ATOM     23  C   UNL     1       1.866  -4.447  -3.322  1.00  0.00     0.057 C 
ENDBRANCH  15  17
ENDBRANCH  12  15
ENDBRANCH   6  11
ENDBRANCH   3   5
ENDBRANCH   2   3
ENDBRANCH   1   2
BRANCH   1  24
ATOM     24  C   UNL     1       2.206  -9.871   0.163  1.00  0.00     0.275 C 
BRANCH  24  25
ATOM     25  O   UNL     1       2.806  -8.928   1.062  1.00  0.00    -0.458 OA
BRANCH  25  26
ATOM     26  C   UNL     1       3.894  -8.261   0.599  1.00  0.00     0.338 C 
ATOM     27  O   UNL     1       4.512  -8.525  -0.418  1.00  0.00    -0.246 OA
BRANCH  26  28
ATOM     28  C   UNL     1       4.153  -7.062   1.447  1.00  0.00     0.060 A 
ATOM     29  C   UNL     1       3.198  -6.609   2.361  1.00  0.00     0.016 A 
ATOM     30  C   UNL     1       5.295  -6.288   1.219  1.00  0.00     0.016 A 
ATOM     31  C   UNL     1       3.329  -5.351   2.945  1.00  0.00     0.010 A 
ATOM     32  C   UNL     1       5.476  -5.076   1.904  1.00  0.00     0.010 A 
ATOM     33  C   UNL     1       4.481  -4.574   2.759  1.00  0.00    -0.014 A 
BRANCH  33  34
ATOM     34  C   UNL     1       4.644  -3.275   3.481  1.00  0.00     0.031 A 
ATOM     35  C   UNL     1       4.962  -1.994   2.745  1.00  0.00     0.074 A 
ATOM     36  C   UNL     1       4.498  -3.226   4.823  1.00  0.00     0.049 A 
ATOM     37  N   UNL     1       5.312  -0.829   3.236  1.00  0.00    -0.248 NA
ATOM     38  C   UNL     1       4.884  -2.018   1.275  1.00  0.00     0.031 C 
ATOM     39  C   UNL     1       4.129  -4.354   5.683  1.00  0.00     0.029 A 
ATOM     40  N   UNL     1       4.640  -2.179   5.705  1.00  0.00    -0.354 N 
ATOM     41  C   UNL     1       5.513   0.007   2.144  1.00  0.00     0.074 A 
ATOM     42  C   UNL     1       5.257  -0.784   0.959  1.00  0.00     0.031 C 
ATOM     43  C   UNL     1       4.024  -3.931   6.949  1.00  0.00     0.029 A 
ATOM     44  C   UNL     1       4.445  -2.538   7.017  1.00  0.00     0.049 A 
ATOM     45  H   UNL     1       4.861  -1.262   5.423  1.00  0.00     0.167 HD
ATOM     46  C   UNL     1       5.883   1.311   2.131  1.00  0.00     0.031 A 
ATOM     47  C   UNL     1       4.649  -1.868   8.168  1.00  0.00     0.031 A 
ATOM     48  C   UNL     1       6.139   2.109   3.304  1.00  0.00     0.049 A 
ATOM     49  C   UNL     1       5.200  -0.477   8.128  1.00  0.00     0.074 A 
ATOM     50  C   UNL     1       6.523   3.439   3.370  1.00  0.00     0.029 A 
ATOM     51  N   UNL     1       6.043   1.660   4.610  1.00  0.00    -0.354 N 
ATOM     52  N   UNL     1       5.464   0.272   7.086  1.00  0.00    -0.248 NA
ATOM     53  C   UNL     1       5.515   0.146   9.420  1.00  0.00     0.031 C 
ATOM     54  C   UNL     1       6.715   3.777   4.715  1.00  0.00     0.029 A 
ATOM     55  C   UNL     1       6.398   2.674   5.488  1.00  0.00     0.049 A 
ATOM     56  H   UNL     1       5.764   0.754   4.877  1.00  0.00     0.167 HD
ATOM     57  C   UNL     1       5.982   1.455   7.596  1.00  0.00     0.074 A 
ATOM     58  C   UNL     1       5.973   1.332   9.040  1.00  0.00     0.031 C 
ATOM     59  C   UNL     1       6.426   2.542   6.921  1.00  0.00     0.031 A 
BRANCH  46  60
ATOM     60  C   UNL     1       6.083   1.973   0.794  1.00  0.00    -0.014 A 
ATOM     61  C   UNL     1       4.990   2.429   0.038  1.00  0.00     0.010 A 
ATOM     62  C   UNL     1       7.390   2.238   0.344  1.00  0.00     0.010 A 
ATOM     63  C   UNL     1       5.203   3.130  -1.153  1.00  0.00     0.020 A 
ATOM     64  C   UNL     1       7.606   2.949  -0.839  1.00  0.00     0.020 A 
ATOM     65  C   UNL     1       6.510   3.383  -1.585  1.00  0.00     0.054 A 
BRANCH  65  66
ATOM     66  S   UNL     1       6.752   4.316  -3.121  1.00  0.00     0.124 S 
ATOM     67  O   UNL     1       6.353   3.335  -4.128  1.00  0.00    -0.237 OA
ATOM     68  O   UNL     1       5.846   5.449  -2.955  1.00  0.00    -0.237 OA
ATOM     69  O   UNL     1       8.174   4.650  -3.106  1.00  0.00    -0.744 OA
ENDBRANCH  65  66
ENDBRANCH  46  60
BRANCH  47  70
ATOM     70  C   UNL     1       4.435  -2.574   9.459  1.00  0.00    -0.014 A 
ATOM     71  C   UNL     1       3.348  -2.251  10.286  1.00  0.00     0.010 A 
ATOM     72  C   UNL     1       5.289  -3.633   9.825  1.00  0.00     0.010 A 
ATOM     73  C   UNL     1       3.106  -2.991  11.448  1.00  0.00     0.020 A 
ATOM     74  C   UNL     1       5.032  -4.393  10.965  1.00  0.00     0.020 A 
ATOM     75  C   UNL     1       3.943  -4.065  11.773  1.00  0.00     0.054 A 
BRANCH  75  76
ATOM     76  S   UNL     1       3.549  -5.094  13.214  1.00  0.00     0.124 S 
ATOM     77  O   UNL     1       4.130  -4.320  14.306  1.00  0.00    -0.237 OA
ATOM     78  O   UNL     1       2.090  -5.149  13.184  1.00  0.00    -0.237 OA
ATOM     79  O   UNL     1       4.216  -6.360  12.917  1.00  0.00    -0.744 OA
ENDBRANCH  75  76
ENDBRANCH  47  70
BRANCH  59  80
ATOM     80  C   UNL     1       6.939   3.692   7.743  1.00  0.00    -0.014 A 
ATOM     81  C   UNL     1       8.193   3.623   8.376  1.00  0.00     0.010 A 
ATOM     82  C   UNL     1       6.162   4.855   7.882  1.00  0.00     0.010 A 
ATOM     83  C   UNL     1       8.643   4.683   9.169  1.00  0.00     0.020 A 
ATOM     84  C   UNL     1       6.618   5.925   8.656  1.00  0.00     0.020 A 
ATOM     85  C   UNL     1       7.848   5.824   9.311  1.00  0.00     0.054 A 
BRANCH  85  86
ATOM     86  S   UNL     1       8.453   7.191  10.339  1.00  0.00     0.124 S 
ATOM     87  O   UNL     1       8.215   6.684  11.688  1.00  0.00    -0.237 OA
ATOM     88  O   UNL     1       9.856   7.296   9.946  1.00  0.00    -0.237 OA
ATOM     89  O   UNL     1       7.615   8.320   9.941  1.00  0.00    -0.744 OA
ENDBRANCH  85  86
ENDBRANCH  59  80
ENDBRANCH  33  34
ENDBRANCH  26  28
ENDBRANCH  25  26
ENDBRANCH  24  25
ENDBRANCH   1  24
TORSDOF 17
