REMARK SMILES O=C(CCC(=O)OCCOC(=O)c1ccc(-c2c3nc(c(-c4ccc(S(=O)(=O)[O-])cc4)c4ccc([nH]4)c(-c4ccc(S(=O)(=O)[O-])cc4)c4nc(c(-c5ccc(S(=O)(=O)[O-])cc5)c5ccc2[nH]5)C=C4)C=C3)cc1)/[NH+]=C1\S[C@H]2CS(=O)(=O)C[C@@H]2N1c1ccc(Oc2ccccc2)cc1
REMARK SMILES IDX 8 1 7 2 5 3 6 4 4 5 3 6 2 7 1 8 73 9 74 10 75 12 83 13 76 14
REMARK SMILES IDX 82 15 77 16 81 17 78 18 79 19 80 20 84 21 85 22 96 23 86 24
REMARK SMILES IDX 95 25 87 26 88 27 89 28 90 29 94 30 91 31 93 32 92 33 9 34
REMARK SMILES IDX 10 35 11 36 12 37 13 38 14 39 72 40 15 41 71 42 16 43 17 44
REMARK SMILES IDX 18 45 65 46 19 47 70 48 64 49 66 50 20 51 69 52 63 53 62 54
REMARK SMILES IDX 21 56 51 57 32 58 50 59 33 60 36 61 49 62 67 63 34 64 35 65
REMARK SMILES IDX 48 67 68 68 37 69 22 70 23 71 31 72 24 73 30 74 25 75 26 76
REMARK SMILES IDX 27 77 28 78 29 79 52 80 53 81 61 82 54 83 60 84 55 85 56 86
REMARK SMILES IDX 57 87 58 88 59 89 38 90 39 91 47 92 40 93 46 94 41 95 42 96
REMARK SMILES IDX 43 97 44 98 45 99
REMARK H PARENT 73 11 66 55 36 66
REMARK Flexibility Score: inf
ROOT
ATOM      1  C   UNL     1       4.904  -1.040  -3.224  1.00  0.00     0.274 C 
ENDROOT
BRANCH   1   2
ATOM      2  O   UNL     1       3.749  -0.765  -2.408  1.00  0.00    -0.462 OA
BRANCH   2   3
ATOM      3  C   UNL     1       3.363  -1.751  -1.562  1.00  0.00     0.306 C 
ATOM      4  O   UNL     1       3.829  -2.881  -1.533  1.00  0.00    -0.252 OA
BRANCH   3   5
ATOM      5  C   UNL     1       2.283  -1.271  -0.631  1.00  0.00     0.135 C 
BRANCH   5   6
ATOM      6  C   UNL     1       2.812  -0.289   0.405  1.00  0.00     0.139 C 
BRANCH   6   7
ATOM      7  C   UNL     1       2.580   1.173   0.050  1.00  0.00     0.308 C 
ATOM      8  O   UNL     1       1.573   1.753   0.449  1.00  0.00    -0.247 OA
ATOM      9  N   UNL     1       3.463   1.768  -0.811  1.00  0.00    -0.204 N 
ATOM     10  C   UNL     1       4.567   2.284  -0.376  1.00  0.00     0.319 C 
ATOM     11  H   UNL     1       3.255   1.805  -1.773  1.00  0.00     0.316 HD
ATOM     12  S   UNL     1       5.167   2.222   1.311  1.00  0.00    -0.029 SA
ATOM     13  N   UNL     1       5.510   2.926  -1.181  1.00  0.00    -0.217 N 
ATOM     14  C   UNL     1       6.819   2.824   0.821  1.00  0.00     0.120 C 
ATOM     15  C   UNL     1       6.864   2.671  -0.705  1.00  0.00     0.212 C 
ATOM     16  C   UNL     1       8.106   2.152   1.268  1.00  0.00     0.156 C 
ATOM     17  C   UNL     1       8.085   3.458  -1.111  1.00  0.00     0.188 C 
ATOM     18  S   UNL     1       9.290   2.763   0.036  1.00  0.00     0.155 S 
ATOM     19  O   UNL     1      10.053   3.860   0.610  1.00  0.00    -0.229 OA
ATOM     20  O   UNL     1       9.920   1.641  -0.610  1.00  0.00    -0.229 OA
BRANCH  13  21
ATOM     21  C   UNL     1       5.226   4.105  -1.880  1.00  0.00     0.128 A 
ATOM     22  C   UNL     1       5.909   4.447  -3.057  1.00  0.00     0.056 A 
ATOM     23  C   UNL     1       4.278   5.011  -1.387  1.00  0.00     0.056 A 
ATOM     24  C   UNL     1       5.746   5.706  -3.646  1.00  0.00     0.051 A 
ATOM     25  C   UNL     1       4.103   6.261  -1.976  1.00  0.00     0.051 A 
ATOM     26  C   UNL     1       4.880   6.635  -3.074  1.00  0.00     0.127 A 
BRANCH  26  27
ATOM     27  O   UNL     1       4.840   7.886  -3.657  1.00  0.00    -0.457 OA
BRANCH  27  28
ATOM     28  C   UNL     1       4.385   8.913  -2.862  1.00  0.00     0.127 A 
ATOM     29  C   UNL     1       3.178   9.518  -3.208  1.00  0.00     0.047 A 
ATOM     30  C   UNL     1       5.085   9.315  -1.721  1.00  0.00     0.047 A 
ATOM     31  C   UNL     1       2.630  10.483  -2.365  1.00  0.00     0.004 A 
ATOM     32  C   UNL     1       4.530  10.276  -0.878  1.00  0.00     0.004 A 
ATOM     33  C   UNL     1       3.298  10.851  -1.195  1.00  0.00     0.000 A 
ENDBRANCH  27  28
ENDBRANCH  26  27
ENDBRANCH  13  21
ENDBRANCH   6   7
ENDBRANCH   5   6
ENDBRANCH   3   5
ENDBRANCH   2   3
ENDBRANCH   1   2
BRANCH   1  34
ATOM     34  C   UNL     1       6.174  -0.738  -2.442  1.00  0.00     0.275 C 
BRANCH  34  35
ATOM     35  O   UNL     1       6.471  -1.764  -1.477  1.00  0.00    -0.458 OA
BRANCH  35  36
ATOM     36  C   UNL     1       6.480  -1.352  -0.196  1.00  0.00     0.338 C 
ATOM     37  O   UNL     1       6.242  -0.221   0.204  1.00  0.00    -0.246 OA
BRANCH  36  38
ATOM     38  C   UNL     1       6.977  -2.353   0.734  1.00  0.00     0.060 A 
ATOM     39  C   UNL     1       6.274  -3.529   0.982  1.00  0.00     0.016 A 
ATOM     40  C   UNL     1       8.152  -2.037   1.429  1.00  0.00     0.016 A 
ATOM     41  C   UNL     1       6.796  -4.429   1.905  1.00  0.00     0.010 A 
ATOM     42  C   UNL     1       8.691  -2.949   2.319  1.00  0.00     0.010 A 
ATOM     43  C   UNL     1       8.031  -4.162   2.531  1.00  0.00    -0.014 A 
BRANCH  43  44
ATOM     44  C   UNL     1       8.754  -5.261   3.195  1.00  0.00     0.031 A 
ATOM     45  C   UNL     1       8.913  -5.312   4.677  1.00  0.00     0.074 A 
ATOM     46  C   UNL     1       9.290  -6.186   2.376  1.00  0.00     0.049 A 
ATOM     47  N   UNL     1       9.376  -6.286   5.412  1.00  0.00    -0.248 NA
ATOM     48  C   UNL     1       8.532  -4.110   5.433  1.00  0.00     0.031 C 
ATOM     49  C   UNL     1       9.257  -6.118   0.907  1.00  0.00     0.029 A 
ATOM     50  N   UNL     1       9.918  -7.370   2.636  1.00  0.00    -0.354 N 
ATOM     51  C   UNL     1       9.348  -5.819   6.720  1.00  0.00     0.074 A 
ATOM     52  C   UNL     1       8.853  -4.459   6.673  1.00  0.00     0.031 C 
ATOM     53  C   UNL     1       9.743  -7.258   0.402  1.00  0.00     0.029 A 
ATOM     54  C   UNL     1      10.147  -8.117   1.504  1.00  0.00     0.049 A 
ATOM     55  H   UNL     1      10.180  -7.658   3.540  1.00  0.00     0.167 HD
ATOM     56  C   UNL     1       9.708  -6.480   7.847  1.00  0.00     0.031 A 
ATOM     57  C   UNL     1      10.587  -9.381   1.379  1.00  0.00     0.031 A 
ATOM     58  C   UNL     1      10.225  -7.826   7.827  1.00  0.00     0.049 A 
ATOM     59  C   UNL     1      10.874 -10.130   2.645  1.00  0.00     0.074 A 
ATOM     60  C   UNL     1      10.607  -8.630   8.885  1.00  0.00     0.029 A 
ATOM     61  N   UNL     1      10.435  -8.566   6.667  1.00  0.00    -0.354 N 
ATOM     62  N   UNL     1      10.767  -9.710   3.885  1.00  0.00    -0.248 NA
ATOM     63  C   UNL     1      11.325 -11.515   2.503  1.00  0.00     0.031 C 
ATOM     64  C   UNL     1      11.081  -9.840   8.361  1.00  0.00     0.029 A 
ATOM     65  C   UNL     1      10.953  -9.809   6.979  1.00  0.00     0.049 A 
ATOM     66  H   UNL     1      10.242  -8.249   5.755  1.00  0.00     0.167 HD
ATOM     67  C   UNL     1      11.150 -10.778   4.680  1.00  0.00     0.074 A 
ATOM     68  C   UNL     1      11.447 -11.876   3.773  1.00  0.00     0.031 C 
ATOM     69  C   UNL     1      11.266 -10.850   6.030  1.00  0.00     0.031 A 
BRANCH  56  70
ATOM     70  C   UNL     1       9.583  -5.742   9.156  1.00  0.00    -0.014 A 
ATOM     71  C   UNL     1       8.322  -5.412   9.691  1.00  0.00     0.010 A 
ATOM     72  C   UNL     1      10.738  -5.352   9.858  1.00  0.00     0.010 A 
ATOM     73  C   UNL     1       8.221  -4.656  10.864  1.00  0.00     0.020 A 
ATOM     74  C   UNL     1      10.641  -4.616  11.046  1.00  0.00     0.020 A 
ATOM     75  C   UNL     1       9.382  -4.251  11.528  1.00  0.00     0.054 A 
BRANCH  75  76
ATOM     76  S   UNL     1       9.226  -3.247  13.033  1.00  0.00     0.124 S 
ATOM     77  O   UNL     1       8.872  -1.940  12.486  1.00  0.00    -0.237 OA
ATOM     78  O   UNL     1       8.163  -3.928  13.767  1.00  0.00    -0.237 OA
ATOM     79  O   UNL     1      10.551  -3.329  13.643  1.00  0.00    -0.744 OA
ENDBRANCH  75  76
ENDBRANCH  56  70
BRANCH  57  80
ATOM     80  C   UNL     1      10.682  -9.998   0.029  1.00  0.00    -0.014 A 
ATOM     81  C   UNL     1       9.753 -10.973  -0.376  1.00  0.00     0.010 A 
ATOM     82  C   UNL     1      11.636  -9.541  -0.899  1.00  0.00     0.010 A 
ATOM     83  C   UNL     1       9.776 -11.478  -1.681  1.00  0.00     0.020 A 
ATOM     84  C   UNL     1      11.646 -10.025  -2.212  1.00  0.00     0.020 A 
ATOM     85  C   UNL     1      10.719 -10.996  -2.592  1.00  0.00     0.054 A 
BRANCH  85  86
ATOM     86  S   UNL     1      10.677 -11.599  -4.305  1.00  0.00     0.124 S 
ATOM     87  O   UNL     1      11.282 -12.921  -4.176  1.00  0.00    -0.237 OA
ATOM     88  O   UNL     1       9.249 -11.584  -4.613  1.00  0.00    -0.237 OA
ATOM     89  O   UNL     1      11.472 -10.613  -5.033  1.00  0.00    -0.744 OA
ENDBRANCH  85  86
ENDBRANCH  57  80
BRANCH  69  90
ATOM     90  C   UNL     1      11.765 -12.158   6.569  1.00  0.00    -0.014 A 
ATOM     91  C   UNL     1      13.118 -12.518   6.429  1.00  0.00     0.010 A 
ATOM     92  C   UNL     1      10.875 -13.033   7.213  1.00  0.00     0.010 A 
ATOM     93  C   UNL     1      13.562 -13.761   6.878  1.00  0.00     0.020 A 
ATOM     94  C   UNL     1      11.322 -14.267   7.687  1.00  0.00     0.020 A 
ATOM     95  C   UNL     1      12.658 -14.631   7.495  1.00  0.00     0.054 A 
BRANCH  95  96
ATOM     96  S   UNL     1      13.254 -16.242   8.072  1.00  0.00     0.124 S 
ATOM     97  O   UNL     1      13.297 -17.009   6.830  1.00  0.00    -0.237 OA
ATOM     98  O   UNL     1      14.553 -15.917   8.656  1.00  0.00    -0.237 OA
ATOM     99  O   UNL     1      12.234 -16.662   9.031  1.00  0.00    -0.744 OA
ENDBRANCH  95  96
ENDBRANCH  69  90
ENDBRANCH  43  44
ENDBRANCH  36  38
ENDBRANCH  35  36
ENDBRANCH  34  35
ENDBRANCH   1  34
TORSDOF 19
