REMARK SMILES O=C(COc1ccc(Br)cc1/C=C1\C(=O)Nc2ccc(Br)cc21)OCCOC(=O)c1ccc(-c2c3nc(c(-c4ccc(S(=O)(=O)[O-])cc4)c4ccc([nH]4)c(-c4ccc(S(=O)(=O)[O-])cc4)c4nc(c(-c5ccc(S(=O)(=O)[O-])cc5)c5ccc2[nH]5)C=C4)C=C3)cc1
REMARK SMILES IDX 25 1 24 2 2 3 1 4 3 5 4 6 5 7 6 8 11 9 7 10 10 11 8 12 9 13
REMARK SMILES IDX 12 14 13 15 14 16 23 17 15 18 16 19 17 20 22 21 18 23 20 24
REMARK SMILES IDX 19 25 21 26 26 27 27 28 28 29 29 30 30 31 31 32 89 33 32 34
REMARK SMILES IDX 88 35 33 36 34 37 35 38 82 39 36 40 87 41 81 42 83 43 37 44
REMARK SMILES IDX 86 45 80 46 79 47 38 49 68 50 49 51 67 52 50 53 53 54 66 55
REMARK SMILES IDX 84 56 51 57 52 58 65 60 85 61 54 62 39 63 40 64 48 65 41 66
REMARK SMILES IDX 47 67 42 68 43 69 44 70 45 71 46 72 69 73 70 74 78 75 71 76
REMARK SMILES IDX 77 77 72 78 73 79 74 80 75 81 76 82 55 83 56 84 64 85 57 86
REMARK SMILES IDX 63 87 58 88 59 89 60 90 61 91 62 92
REMARK H PARENT 16 22 83 48 53 59
REMARK Flexibility Score: inf
ROOT
ATOM      1  C   UNL     1       4.662   0.623  -0.378  1.00  0.00     0.274 C 
ENDROOT
BRANCH   1   2
ATOM      2  O   UNL     1       3.333   0.176  -0.709  1.00  0.00    -0.460 OA
BRANCH   2   3
ATOM      3  C   UNL     1       2.810  -0.971  -0.202  1.00  0.00     0.344 C 
ATOM      4  O   UNL     1       1.597  -1.073  -0.028  1.00  0.00    -0.248 OA
BRANCH   3   5
ATOM      5  C   UNL     1       3.762  -2.148   0.036  1.00  0.00     0.352 C 
BRANCH   5   6
ATOM      6  O   UNL     1       4.480  -2.628  -1.113  1.00  0.00    -0.481 OA
BRANCH   6   7
ATOM      7  C   UNL     1       3.616  -3.345  -1.920  1.00  0.00     0.127 A 
ATOM      8  C   UNL     1       2.724  -2.602  -2.715  1.00  0.00     0.048 A 
ATOM      9  C   UNL     1       3.570  -4.755  -1.875  1.00  0.00     0.018 A 
ATOM     10  C   UNL     1       1.651  -3.224  -3.338  1.00  0.00     0.019 A 
ATOM     11  C   UNL     1       2.433  -5.333  -2.462  1.00  0.00     0.027 A 
ATOM     12  C   UNL     1       1.491  -4.587  -3.177  1.00  0.00     0.018 A 
ATOM     13  Br  UNL     1      -0.020  -5.450  -3.918  1.00  0.00    -0.051 Br
BRANCH   9  14
ATOM     14  C   UNL     1       4.621  -5.550  -1.167  1.00  0.00     0.026 C 
ATOM     15  C   UNL     1       4.751  -6.885  -1.003  1.00  0.00     0.050 C 
ATOM     16  C   UNL     1       3.805  -7.973  -1.454  1.00  0.00     0.256 C 
ATOM     17  C   UNL     1       5.540  -7.494   0.082  1.00  0.00     0.012 A 
ATOM     18  O   UNL     1       3.348  -8.152  -2.558  1.00  0.00    -0.269 OA
ATOM     19  N   UNL     1       3.687  -8.787  -0.342  1.00  0.00    -0.321 N 
ATOM     20  C   UNL     1       4.729  -8.534   0.547  1.00  0.00     0.049 A 
ATOM     21  C   UNL     1       6.811  -7.334   0.599  1.00  0.00     0.026 A 
ATOM     22  H   UNL     1       2.971  -9.448  -0.199  1.00  0.00     0.170 HD
ATOM     23  C   UNL     1       5.046  -9.300   1.641  1.00  0.00     0.028 A 
ATOM     24  C   UNL     1       7.187  -8.171   1.663  1.00  0.00     0.018 A 
ATOM     25  C   UNL     1       6.292  -9.100   2.224  1.00  0.00     0.018 A 
ATOM     26  Br  UNL     1       8.966  -8.127   2.311  1.00  0.00    -0.051 Br
ENDBRANCH   9  14
ENDBRANCH   6   7
ENDBRANCH   5   6
ENDBRANCH   3   5
ENDBRANCH   2   3
ENDBRANCH   1   2
BRANCH   1  27
ATOM     27  C   UNL     1       4.627   1.467   0.897  1.00  0.00     0.275 C 
BRANCH  27  28
ATOM     28  O   UNL     1       4.242   0.627   2.000  1.00  0.00    -0.458 OA
BRANCH  28  29
ATOM     29  C   UNL     1       2.969   0.777   2.455  1.00  0.00     0.338 C 
ATOM     30  O   UNL     1       2.173   1.636   2.124  1.00  0.00    -0.246 OA
BRANCH  29  31
ATOM     31  C   UNL     1       2.644  -0.394   3.304  1.00  0.00     0.060 A 
ATOM     32  C   UNL     1       3.610  -0.976   4.130  1.00  0.00     0.016 A 
ATOM     33  C   UNL     1       1.354  -0.936   3.245  1.00  0.00     0.016 A 
ATOM     34  C   UNL     1       3.280  -2.094   4.898  1.00  0.00     0.010 A 
ATOM     35  C   UNL     1       1.022  -2.051   4.023  1.00  0.00     0.010 A 
ATOM     36  C   UNL     1       1.981  -2.631   4.865  1.00  0.00    -0.014 A 
BRANCH  36  37
ATOM     37  C   UNL     1       1.615  -3.691   5.836  1.00  0.00     0.031 A 
ATOM     38  C   UNL     1       1.515  -5.135   5.444  1.00  0.00     0.074 A 
ATOM     39  C   UNL     1       1.421  -3.328   7.120  1.00  0.00     0.049 A 
ATOM     40  N   UNL     1       1.368  -6.175   6.224  1.00  0.00    -0.248 NA
ATOM     41  C   UNL     1       1.589  -5.462   4.012  1.00  0.00     0.031 C 
ATOM     42  C   UNL     1       1.465  -1.950   7.615  1.00  0.00     0.029 A 
ATOM     43  N   UNL     1       1.184  -4.080   8.243  1.00  0.00    -0.354 N 
ATOM     44  C   UNL     1       1.346  -7.282   5.387  1.00  0.00     0.074 A 
ATOM     45  C   UNL     1       1.470  -6.787   4.031  1.00  0.00     0.031 C 
ATOM     46  C   UNL     1       1.311  -1.959   8.947  1.00  0.00     0.029 A 
ATOM     47  C   UNL     1       1.140  -3.338   9.400  1.00  0.00     0.049 A 
ATOM     48  H   UNL     1       1.058  -5.056   8.223  1.00  0.00     0.167 HD
ATOM     49  C   UNL     1       1.255  -8.588   5.729  1.00  0.00     0.031 A 
ATOM     50  C   UNL     1       1.008  -3.716  10.687  1.00  0.00     0.031 A 
ATOM     51  C   UNL     1       1.164  -9.081   7.075  1.00  0.00     0.049 A 
ATOM     52  C   UNL     1       0.935  -5.176  11.029  1.00  0.00     0.074 A 
ATOM     53  C   UNL     1       1.113 -10.402   7.491  1.00  0.00     0.029 A 
ATOM     54  N   UNL     1       1.118  -8.298   8.214  1.00  0.00    -0.354 N 
ATOM     55  N   UNL     1       1.003  -6.209  10.226  1.00  0.00    -0.248 NA
ATOM     56  C   UNL     1       0.790  -5.526  12.450  1.00  0.00     0.031 C 
ATOM     57  C   UNL     1       1.019 -10.418   8.882  1.00  0.00     0.029 A 
ATOM     58  C   UNL     1       1.036  -9.108   9.333  1.00  0.00     0.049 A 
ATOM     59  H   UNL     1       1.141  -7.314   8.226  1.00  0.00     0.167 HD
ATOM     60  C   UNL     1       0.941  -7.329  11.046  1.00  0.00     0.074 A 
ATOM     61  C   UNL     1       0.836  -6.852  12.407  1.00  0.00     0.031 C 
ATOM     62  C   UNL     1       0.966  -8.635  10.691  1.00  0.00     0.031 A 
BRANCH  49  63
ATOM     63  C   UNL     1       1.319  -9.627   4.652  1.00  0.00    -0.014 A 
ATOM     64  C   UNL     1       0.147 -10.197   4.126  1.00  0.00     0.010 A 
ATOM     65  C   UNL     1       2.567 -10.178   4.322  1.00  0.00     0.010 A 
ATOM     66  C   UNL     1       0.223 -11.287   3.251  1.00  0.00     0.020 A 
ATOM     67  C   UNL     1       2.641 -11.283   3.477  1.00  0.00     0.020 A 
ATOM     68  C   UNL     1       1.474 -11.816   2.928  1.00  0.00     0.054 A 
BRANCH  68  69
ATOM     69  S   UNL     1       1.638 -13.145   1.708  1.00  0.00     0.124 S 
ATOM     70  O   UNL     1       1.896 -14.309   2.548  1.00  0.00    -0.237 OA
ATOM     71  O   UNL     1       0.352 -13.132   1.017  1.00  0.00    -0.237 OA
ATOM     72  O   UNL     1       2.768 -12.676   0.905  1.00  0.00    -0.744 OA
ENDBRANCH  68  69
ENDBRANCH  49  63
BRANCH  50  73
ATOM     73  C   UNL     1       1.023  -2.675  11.748  1.00  0.00    -0.014 A 
ATOM     74  C   UNL     1      -0.056  -1.782  11.885  1.00  0.00     0.010 A 
ATOM     75  C   UNL     1       2.151  -2.521  12.572  1.00  0.00     0.010 A 
ATOM     76  C   UNL     1       0.013  -0.726  12.796  1.00  0.00     0.020 A 
ATOM     77  C   UNL     1       2.212  -1.482  13.504  1.00  0.00     0.020 A 
ATOM     78  C   UNL     1       1.153  -0.575  13.590  1.00  0.00     0.054 A 
BRANCH  78  79
ATOM     79  S   UNL     1       1.239   0.826  14.738  1.00  0.00     0.124 S 
ATOM     80  O   UNL     1       1.571   1.928  13.838  1.00  0.00    -0.237 OA
ATOM     81  O   UNL     1      -0.106   0.860  15.305  1.00  0.00    -0.237 OA
ATOM     82  O   UNL     1       2.295   0.439  15.669  1.00  0.00    -0.744 OA
ENDBRANCH  78  79
ENDBRANCH  50  73
BRANCH  62  83
ATOM     83  C   UNL     1       0.902  -9.681  11.770  1.00  0.00    -0.014 A 
ATOM     84  C   UNL     1       2.025 -10.491  12.019  1.00  0.00     0.010 A 
ATOM     85  C   UNL     1      -0.312  -9.969  12.416  1.00  0.00     0.010 A 
ATOM     86  C   UNL     1       1.927 -11.597  12.866  1.00  0.00     0.020 A 
ATOM     87  C   UNL     1      -0.408 -11.061  13.283  1.00  0.00     0.020 A 
ATOM     88  C   UNL     1       0.705 -11.883  13.481  1.00  0.00     0.054 A 
BRANCH  88  89
ATOM     89  S   UNL     1       0.580 -13.350  14.540  1.00  0.00     0.124 S 
ATOM     90  O   UNL     1       0.461 -14.426  13.561  1.00  0.00    -0.237 OA
ATOM     91  O   UNL     1       1.833 -13.316  15.290  1.00  0.00    -0.237 OA
ATOM     92  O   UNL     1      -0.619 -13.095  15.336  1.00  0.00    -0.744 OA
ENDBRANCH  88  89
ENDBRANCH  62  83
ENDBRANCH  36  37
ENDBRANCH  29  31
ENDBRANCH  28  29
ENDBRANCH  27  28
ENDBRANCH   1  27
TORSDOF 17
