REMARK SMILES O=C(Cn1ncc2ccccc2c1=O)N[C@@H]1C[NH2+][C@H](C(=O)OCCOC(=O)c2ccc(-c3c4nc(c(-c5ccc(S(=O)(=O)[O-])cc5)c5ccc([nH]5)c(-c5ccc(S(=O)(=O)[O-])cc5)c5nc(c(-c6ccc(S(=O)(=O)[O-])cc6)c6ccc3[nH]6)C=C5)C=C4)cc2)C1
REMARK SMILES IDX 23 1 22 2 20 3 21 4 19 5 16 6 17 7 88 8 18 9 15 12 1 13 2 14
REMARK SMILES IDX 3 16 4 17 5 18 13 19 6 20 12 21 14 22 7 23 11 24 8 25 10 26
REMARK SMILES IDX 9 27 24 28 25 29 26 30 27 31 28 32 29 33 87 34 30 35 86 36
REMARK SMILES IDX 31 37 32 38 33 39 80 40 34 41 85 42 79 43 81 44 35 45 84 46
REMARK SMILES IDX 78 47 77 48 36 50 66 51 47 52 65 53 48 54 51 55 64 56 82 57
REMARK SMILES IDX 49 58 50 59 63 61 83 62 52 63 37 64 38 65 46 66 39 67 45 68
REMARK SMILES IDX 40 69 41 70 42 71 43 72 44 73 67 74 68 75 76 76 69 77 75 78
REMARK SMILES IDX 70 79 71 80 72 81 73 82 74 83 53 84 54 85 62 86 55 87 61 88
REMARK SMILES IDX 56 89 57 90 58 91 59 92 60 93
REMARK H PARENT 18 10 18 11 15 15 81 49 51 60
REMARK Flexibility Score: inf
ROOT
ATOM      1  C   UNL     1       6.056  -3.072  -5.429  1.00  0.00     0.274 C 
ENDROOT
BRANCH   1   2
ATOM      2  O   UNL     1       5.015  -2.927  -4.451  1.00  0.00    -0.458 OA
BRANCH   2   3
ATOM      3  C   UNL     1       4.033  -2.032  -4.741  1.00  0.00     0.365 C 
ATOM      4  O   UNL     1       4.077  -1.230  -5.669  1.00  0.00    -0.245 OA
BRANCH   3   5
ATOM      5  C   UNL     1       2.839  -2.117  -3.790  1.00  0.00     0.295 C 
ATOM      6  C   UNL     1       2.334  -1.397  -1.571  1.00  0.00     0.143 C 
ATOM      7  C   UNL     1       2.920  -2.806  -1.536  1.00  0.00     0.286 C 
ATOM      8  C   UNL     1       2.751  -0.871  -2.927  1.00  0.00     0.108 C 
ATOM      9  N   UNL     1       2.874  -3.305  -2.900  1.00  0.00    -0.333 N 
ATOM     10  H   UNL     1       2.039  -3.873  -3.039  1.00  0.00     0.347 HD
ATOM     11  H   UNL     1       3.685  -3.891  -3.103  1.00  0.00     0.347 HD
BRANCH   6  12
ATOM     12  N   UNL     1       2.857  -0.591  -0.499  1.00  0.00    -0.346 N 
ATOM     13  O   UNL     1       1.017   0.727  -0.150  1.00  0.00    -0.273 OA
ATOM     14  C   UNL     1       2.124   0.333   0.205  1.00  0.00     0.242 C 
ATOM     15  H   UNL     1       3.804  -0.709  -0.255  1.00  0.00     0.164 HD
BRANCH  14  16
ATOM     16  C   UNL     1       2.898   0.959   1.367  1.00  0.00     0.248 C 
BRANCH  16  17
ATOM     17  N   UNL     1       3.803   0.034   2.071  1.00  0.00    -0.220 N 
ATOM     18  N   UNL     1       3.455  -1.304   2.088  1.00  0.00    -0.177 NA
ATOM     19  C   UNL     1       4.878   0.560   2.787  1.00  0.00     0.275 A 
ATOM     20  C   UNL     1       4.193  -2.137   2.746  1.00  0.00     0.142 A 
ATOM     21  C   UNL     1       5.702  -0.406   3.541  1.00  0.00     0.050 A 
ATOM     22  O   UNL     1       5.166   1.753   2.822  1.00  0.00    -0.267 OA
ATOM     23  C   UNL     1       5.368  -1.751   3.507  1.00  0.00     0.007 A 
ATOM     24  C   UNL     1       6.805   0.010   4.292  1.00  0.00     0.014 A 
ATOM     25  C   UNL     1       6.116  -2.704   4.198  1.00  0.00     0.010 A 
ATOM     26  C   UNL     1       7.559  -0.934   4.995  1.00  0.00     0.001 A 
ATOM     27  C   UNL     1       7.218  -2.288   4.945  1.00  0.00     0.001 A 
ENDBRANCH  16  17
ENDBRANCH  14  16
ENDBRANCH   6  12
ENDBRANCH   3   5
ENDBRANCH   2   3
ENDBRANCH   1   2
BRANCH   1  28
ATOM     28  C   UNL     1       5.749  -4.240  -6.372  1.00  0.00     0.275 C 
BRANCH  28  29
ATOM     29  O   UNL     1       4.683  -3.923  -7.286  1.00  0.00    -0.458 OA
BRANCH  29  30
ATOM     30  C   UNL     1       3.439  -4.283  -6.887  1.00  0.00     0.338 C 
ATOM     31  O   UNL     1       3.126  -4.875  -5.870  1.00  0.00    -0.246 OA
BRANCH  30  32
ATOM     32  C   UNL     1       2.453  -3.727  -7.827  1.00  0.00     0.060 A 
ATOM     33  C   UNL     1       2.414  -4.144  -9.155  1.00  0.00     0.016 A 
ATOM     34  C   UNL     1       1.515  -2.813  -7.344  1.00  0.00     0.016 A 
ATOM     35  C   UNL     1       1.437  -3.618 -10.003  1.00  0.00     0.010 A 
ATOM     36  C   UNL     1       0.529  -2.306  -8.179  1.00  0.00     0.010 A 
ATOM     37  C   UNL     1       0.489  -2.696  -9.520  1.00  0.00    -0.014 A 
BRANCH  37  38
ATOM     38  C   UNL     1      -0.580  -2.167 -10.396  1.00  0.00     0.031 A 
ATOM     39  C   UNL     1      -0.587  -0.722 -10.805  1.00  0.00     0.074 A 
ATOM     40  C   UNL     1      -1.565  -2.998 -10.787  1.00  0.00     0.049 A 
ATOM     41  N   UNL     1      -1.409  -0.107 -11.614  1.00  0.00    -0.248 NA
ATOM     42  C   UNL     1       0.449   0.149 -10.225  1.00  0.00     0.031 C 
ATOM     43  C   UNL     1      -1.677  -4.404 -10.395  1.00  0.00     0.029 A 
ATOM     44  N   UNL     1      -2.645  -2.792 -11.607  1.00  0.00    -0.354 N 
ATOM     45  C   UNL     1      -0.980   1.214 -11.657  1.00  0.00     0.074 A 
ATOM     46  C   UNL     1       0.132   1.329 -10.741  1.00  0.00     0.031 C 
ATOM     47  C   UNL     1      -2.733  -4.949 -11.017  1.00  0.00     0.029 A 
ATOM     48  C   UNL     1      -3.396  -3.924 -11.819  1.00  0.00     0.049 A 
ATOM     49  H   UNL     1      -2.861  -1.918 -12.004  1.00  0.00     0.167 HD
ATOM     50  C   UNL     1      -1.454   2.226 -12.420  1.00  0.00     0.031 A 
ATOM     51  C   UNL     1      -4.487  -4.121 -12.586  1.00  0.00     0.031 A 
ATOM     52  C   UNL     1      -2.567   2.087 -13.324  1.00  0.00     0.049 A 
ATOM     53  C   UNL     1      -5.013  -2.974 -13.403  1.00  0.00     0.074 A 
ATOM     54  C   UNL     1      -3.096   3.037 -14.179  1.00  0.00     0.029 A 
ATOM     55  N   UNL     1      -3.321   0.934 -13.491  1.00  0.00    -0.354 N 
ATOM     56  N   UNL     1      -4.541  -1.754 -13.503  1.00  0.00    -0.248 NA
ATOM     57  C   UNL     1      -6.207  -3.227 -14.222  1.00  0.00     0.031 C 
ATOM     58  C   UNL     1      -4.215   2.483 -14.804  1.00  0.00     0.029 A 
ATOM     59  C   UNL     1      -4.333   1.160 -14.408  1.00  0.00     0.049 A 
ATOM     60  H   UNL     1      -3.159   0.081 -13.026  1.00  0.00     0.167 HD
ATOM     61  C   UNL     1      -5.367  -1.098 -14.408  1.00  0.00     0.074 A 
ATOM     62  C   UNL     1      -6.356  -2.064 -14.844  1.00  0.00     0.031 C 
ATOM     63  C   UNL     1      -5.312   0.188 -14.834  1.00  0.00     0.031 A 
BRANCH  50  64
ATOM     64  C   UNL     1      -0.763   3.565 -12.353  1.00  0.00    -0.014 A 
ATOM     65  C   UNL     1      -1.462   4.700 -11.902  1.00  0.00     0.010 A 
ATOM     66  C   UNL     1       0.537   3.726 -12.867  1.00  0.00     0.010 A 
ATOM     67  C   UNL     1      -0.893   5.973 -12.005  1.00  0.00     0.020 A 
ATOM     68  C   UNL     1       1.122   4.994 -12.942  1.00  0.00     0.020 A 
ATOM     69  C   UNL     1       0.392   6.113 -12.537  1.00  0.00     0.054 A 
BRANCH  69  70
ATOM     70  S   UNL     1       1.093   7.777 -12.712  1.00  0.00     0.124 S 
ATOM     71  O   UNL     1       0.322   8.322 -13.825  1.00  0.00    -0.237 OA
ATOM     72  O   UNL     1       0.827   8.374 -11.405  1.00  0.00    -0.237 OA
ATOM     73  O   UNL     1       2.505   7.526 -12.995  1.00  0.00    -0.744 OA
ENDBRANCH  69  70
ENDBRANCH  50  64
BRANCH  51  74
ATOM     74  C   UNL     1      -5.088  -5.483 -12.654  1.00  0.00    -0.014 A 
ATOM     75  C   UNL     1      -5.681  -6.061 -11.516  1.00  0.00     0.010 A 
ATOM     76  C   UNL     1      -4.973  -6.250 -13.826  1.00  0.00     0.010 A 
ATOM     77  C   UNL     1      -6.086  -7.399 -11.528  1.00  0.00     0.020 A 
ATOM     78  C   UNL     1      -5.409  -7.579 -13.853  1.00  0.00     0.020 A 
ATOM     79  C   UNL     1      -5.932  -8.154 -12.693  1.00  0.00     0.054 A 
BRANCH  79  80
ATOM     80  S   UNL     1      -6.398  -9.907 -12.661  1.00  0.00     0.124 S 
ATOM     81  O   UNL     1      -5.319 -10.489 -11.867  1.00  0.00    -0.237 OA
ATOM     82  O   UNL     1      -7.708  -9.876 -12.015  1.00  0.00    -0.237 OA
ATOM     83  O   UNL     1      -6.410 -10.285 -14.071  1.00  0.00    -0.744 OA
ENDBRANCH  79  80
ENDBRANCH  51  74
BRANCH  63  84
ATOM     84  C   UNL     1      -6.350   0.659 -15.820  1.00  0.00    -0.014 A 
ATOM     85  C   UNL     1      -5.956   1.058 -17.112  1.00  0.00     0.010 A 
ATOM     86  C   UNL     1      -7.681   0.865 -15.417  1.00  0.00     0.010 A 
ATOM     87  C   UNL     1      -6.857   1.703 -17.961  1.00  0.00     0.020 A 
ATOM     88  C   UNL     1      -8.595   1.479 -16.277  1.00  0.00     0.020 A 
ATOM     89  C   UNL     1      -8.168   1.923 -17.531  1.00  0.00     0.054 A 
BRANCH  89  90
ATOM     90  S   UNL     1      -9.303   2.826 -18.621  1.00  0.00     0.124 S 
ATOM     91  O   UNL     1      -8.802   4.193 -18.523  1.00  0.00    -0.237 OA
ATOM     92  O   UNL     1      -9.097   2.170 -19.910  1.00  0.00    -0.237 OA
ATOM     93  O   UNL     1     -10.614   2.597 -18.017  1.00  0.00    -0.744 OA
ENDBRANCH  89  90
ENDBRANCH  63  84
ENDBRANCH  37  38
ENDBRANCH  30  32
ENDBRANCH  29  30
ENDBRANCH  28  29
ENDBRANCH   1  28
TORSDOF 17
