REMARK SMILES Cc1cccc(-c2cccc(O)c2)c1C(=O)OCCOC(=O)c1ccc(-c2c3nc(c(-c4ccc(S(=O)(=O)[O-])cc4)c4ccc([nH]4)c(-c4ccc(S(=O)(=O)[O-])cc4)c4nc(c(-c5ccc(S(=O)(=O)[O-])cc5)c5ccc2[nH]5)C=C4)C=C3)cc1
REMARK SMILES IDX 19 1 18 2 17 3 15 4 16 5 14 6 1 7 2 8 3 9 4 10 6 11 5 12
REMARK SMILES IDX 7 13 8 14 13 15 9 16 11 17 10 18 12 19 20 21 21 22 22 23
REMARK SMILES IDX 23 24 24 25 82 26 25 27 81 28 26 29 27 30 28 31 75 32 29 33
REMARK SMILES IDX 80 34 74 35 76 36 30 37 79 38 73 39 72 40 31 42 61 43 42 44
REMARK SMILES IDX 60 45 43 46 46 47 59 48 77 49 44 50 45 51 58 53 78 54 47 55
REMARK SMILES IDX 32 56 33 57 41 58 34 59 40 60 35 61 36 62 37 63 38 64 39 65
REMARK SMILES IDX 62 66 63 67 71 68 64 69 70 70 65 71 66 72 67 73 68 74 69 75
REMARK SMILES IDX 48 76 49 77 57 78 50 79 56 80 51 81 52 82 53 83 54 84 55 85
REMARK H PARENT 12 20 76 41 46 52
REMARK Flexibility Score: inf
ROOT
ATOM      1  C   UNL     1       3.376   3.011  -2.842  1.00  0.00     0.275 C 
ENDROOT
BRANCH   1   2
ATOM      2  C   UNL     1       3.084   1.988  -1.719  1.00  0.00     0.275 C 
BRANCH   2   3
ATOM      3  O   UNL     1       1.788   1.342  -1.798  1.00  0.00    -0.458 OA
BRANCH   3   4
ATOM      4  C   UNL     1       1.302   0.917  -0.592  1.00  0.00     0.339 C 
ATOM      5  O   UNL     1       1.833   1.102   0.494  1.00  0.00    -0.246 OA
BRANCH   4   6
ATOM      6  C   UNL     1       0.321  -0.177  -0.705  1.00  0.00     0.070 A 
ATOM      7  C   UNL     1       2.399  -1.720  -0.722  1.00  0.00     0.045 C 
ATOM      8  C   UNL     1       0.909  -1.475  -0.696  1.00  0.00    -0.036 A 
ATOM      9  C   UNL     1       0.094  -2.611  -0.585  1.00  0.00     0.004 A 
ATOM     10  C   UNL     1      -1.279  -2.485  -0.466  1.00  0.00     0.001 A 
ATOM     11  C   UNL     1      -1.079  -0.034  -0.542  1.00  0.00    -0.003 A 
ATOM     12  C   UNL     1      -1.849  -1.220  -0.453  1.00  0.00     0.009 A 
BRANCH  11  13
ATOM     13  C   UNL     1      -1.893   1.190  -0.385  1.00  0.00    -0.014 A 
ATOM     14  C   UNL     1      -2.374   1.885  -1.504  1.00  0.00     0.009 A 
ATOM     15  C   UNL     1      -2.474   1.488   0.868  1.00  0.00     0.055 A 
ATOM     16  C   UNL     1      -3.433   2.798  -1.384  1.00  0.00     0.004 A 
ATOM     17  C   UNL     1      -3.523   2.402   0.976  1.00  0.00     0.116 A 
ATOM     18  C   UNL     1      -4.027   3.043  -0.147  1.00  0.00     0.046 A 
BRANCH  17  19
ATOM     19  O   UNL     1      -4.035   2.660   2.215  1.00  0.00    -0.508 OA
ATOM     20  H   UNL     1      -4.740   3.270   2.313  1.00  0.00     0.293 HD
ENDBRANCH  17  19
ENDBRANCH  11  13
ENDBRANCH   4   6
ENDBRANCH   3   4
ENDBRANCH   2   3
ENDBRANCH   1   2
BRANCH   1  21
ATOM     21  O   UNL     1       2.646   4.255  -2.881  1.00  0.00    -0.458 OA
BRANCH  21  22
ATOM     22  C   UNL     1       1.379   4.224  -2.407  1.00  0.00     0.338 C 
ATOM     23  O   UNL     1       0.441   3.733  -3.040  1.00  0.00    -0.246 OA
BRANCH  22  24
ATOM     24  C   UNL     1       1.433   4.519  -0.954  1.00  0.00     0.060 A 
ATOM     25  C   UNL     1       0.505   3.885  -0.125  1.00  0.00     0.016 A 
ATOM     26  C   UNL     1       2.600   5.072  -0.414  1.00  0.00     0.016 A 
ATOM     27  C   UNL     1       0.818   3.637   1.210  1.00  0.00     0.010 A 
ATOM     28  C   UNL     1       2.940   4.776   0.890  1.00  0.00     0.010 A 
ATOM     29  C   UNL     1       2.069   4.025   1.692  1.00  0.00    -0.014 A 
BRANCH  29  30
ATOM     30  C   UNL     1       2.426   3.961   3.101  1.00  0.00     0.031 A 
ATOM     31  C   UNL     1       2.944   2.751   3.784  1.00  0.00     0.074 A 
ATOM     32  C   UNL     1       2.278   5.157   3.710  1.00  0.00     0.049 A 
ATOM     33  N   UNL     1       2.887   2.574   5.063  1.00  0.00    -0.248 NA
ATOM     34  C   UNL     1       3.552   1.612   3.098  1.00  0.00     0.031 C 
ATOM     35  C   UNL     1       2.689   5.575   5.034  1.00  0.00     0.029 A 
ATOM     36  N   UNL     1       1.479   6.216   3.251  1.00  0.00    -0.354 N 
ATOM     37  C   UNL     1       3.684   1.489   5.385  1.00  0.00     0.074 A 
ATOM     38  C   UNL     1       3.975   0.857   4.123  1.00  0.00     0.031 C 
ATOM     39  C   UNL     1       1.892   6.593   5.410  1.00  0.00     0.029 A 
ATOM     40  C   UNL     1       0.871   6.755   4.379  1.00  0.00     0.049 A 
ATOM     41  H   UNL     1       1.372   6.516   2.319  1.00  0.00     0.167 HD
ATOM     42  C   UNL     1       4.139   1.357   6.667  1.00  0.00     0.031 A 
ATOM     43  C   UNL     1      -0.479   6.670   4.560  1.00  0.00     0.031 A 
ATOM     44  C   UNL     1       3.521   2.367   7.521  1.00  0.00     0.049 A 
ATOM     45  C   UNL     1      -0.782   5.858   5.798  1.00  0.00     0.074 A 
ATOM     46  C   UNL     1       3.951   3.619   7.925  1.00  0.00     0.029 A 
ATOM     47  N   UNL     1       2.152   2.317   7.751  1.00  0.00    -0.354 N 
ATOM     48  N   UNL     1      -0.002   4.921   6.271  1.00  0.00    -0.248 NA
ATOM     49  C   UNL     1      -1.941   6.110   6.645  1.00  0.00     0.031 C 
ATOM     50  C   UNL     1       2.797   4.380   8.251  1.00  0.00     0.029 A 
ATOM     51  C   UNL     1       1.683   3.571   8.094  1.00  0.00     0.049 A 
ATOM     52  H   UNL     1       1.597   1.507   7.679  1.00  0.00     0.167 HD
ATOM     53  C   UNL     1      -0.439   4.568   7.521  1.00  0.00     0.074 A 
ATOM     54  C   UNL     1      -1.685   5.301   7.688  1.00  0.00     0.031 C 
ATOM     55  C   UNL     1       0.273   3.778   8.379  1.00  0.00     0.031 A 
BRANCH  42  56
ATOM     56  C   UNL     1       5.361   0.557   7.092  1.00  0.00    -0.014 A 
ATOM     57  C   UNL     1       6.068   0.956   8.251  1.00  0.00     0.010 A 
ATOM     58  C   UNL     1       5.915  -0.524   6.382  1.00  0.00     0.010 A 
ATOM     59  C   UNL     1       7.296   0.384   8.625  1.00  0.00     0.020 A 
ATOM     60  C   UNL     1       7.152  -1.102   6.739  1.00  0.00     0.020 A 
ATOM     61  C   UNL     1       7.846  -0.629   7.849  1.00  0.00     0.054 A 
BRANCH  61  62
ATOM     62  S   UNL     1       9.469  -1.302   8.303  1.00  0.00     0.124 S 
ATOM     63  O   UNL     1      10.341  -0.136   8.177  1.00  0.00    -0.237 OA
ATOM     64  O   UNL     1       9.248  -1.776   9.667  1.00  0.00    -0.237 OA
ATOM     65  O   UNL     1       9.700  -2.353   7.313  1.00  0.00    -0.744 OA
ENDBRANCH  61  62
ENDBRANCH  42  56
BRANCH  43  66
ATOM     66  C   UNL     1      -1.298   6.745   3.307  1.00  0.00    -0.014 A 
ATOM     67  C   UNL     1      -1.264   7.963   2.586  1.00  0.00     0.010 A 
ATOM     68  C   UNL     1      -1.744   5.598   2.632  1.00  0.00     0.010 A 
ATOM     69  C   UNL     1      -1.527   8.013   1.210  1.00  0.00     0.020 A 
ATOM     70  C   UNL     1      -2.004   5.652   1.248  1.00  0.00     0.020 A 
ATOM     71  C   UNL     1      -1.849   6.842   0.536  1.00  0.00     0.054 A 
BRANCH  71  72
ATOM     72  S   UNL     1      -1.870   6.879  -1.287  1.00  0.00     0.124 S 
ATOM     73  O   UNL     1      -2.992   7.770  -1.565  1.00  0.00    -0.237 OA
ATOM     74  O   UNL     1      -0.545   7.410  -1.599  1.00  0.00    -0.237 OA
ATOM     75  O   UNL     1      -2.083   5.488  -1.661  1.00  0.00    -0.744 OA
ENDBRANCH  71  72
ENDBRANCH  43  66
BRANCH  55  76
ATOM     76  C   UNL     1      -0.249   3.227   9.680  1.00  0.00    -0.014 A 
ATOM     77  C   UNL     1      -1.606   2.975   9.924  1.00  0.00     0.010 A 
ATOM     78  C   UNL     1       0.677   2.806  10.665  1.00  0.00     0.010 A 
ATOM     79  C   UNL     1      -2.027   2.407  11.132  1.00  0.00     0.020 A 
ATOM     80  C   UNL     1       0.273   2.192  11.849  1.00  0.00     0.020 A 
ATOM     81  C   UNL     1      -1.085   2.027  12.089  1.00  0.00     0.054 A 
BRANCH  81  82
ATOM     82  S   UNL     1      -1.632   1.256  13.629  1.00  0.00     0.124 S 
ATOM     83  O   UNL     1      -1.843   2.419  14.486  1.00  0.00    -0.237 OA
ATOM     84  O   UNL     1      -2.845   0.545  13.229  1.00  0.00    -0.237 OA
ATOM     85  O   UNL     1      -0.510   0.397  13.999  1.00  0.00    -0.744 OA
ENDBRANCH  81  82
ENDBRANCH  55  76
ENDBRANCH  29  30
ENDBRANCH  22  24
ENDBRANCH  21  22
ENDBRANCH   1  21
TORSDOF 16
