REMARK SMILES COc1cc2c(cc1OC)[C@H](C(=O)OCCOC(=O)c1ccc(-c3c4nc(c(-c5ccc(S(=O)(=O)[O-])cc5)c5ccc([nH]5)c(-c5ccc(S(=O)(=O)[O-])cc5)c5nc(c(-c6ccc(S(=O)(=O)[O-])cc6)c6ccc3[nH]6)C=C5)C=C4)cc1)[C@@H](c1ccc(SC)cc1)N(C)C2=O
REMARK SMILES IDX 16 1 15 2 14 3 12 4 13 5 11 6 3 7 4 8 8 9 5 10 7 11 6 12
REMARK SMILES IDX 91 13 89 14 92 15 80 16 90 17 2 18 1 19 9 20 10 21 81 22
REMARK SMILES IDX 82 23 88 24 83 25 87 26 84 27 85 28 86 29 17 30 18 31 19 32
REMARK SMILES IDX 20 33 21 34 79 35 22 36 78 37 23 38 24 39 25 40 72 41 26 42
REMARK SMILES IDX 77 43 71 44 73 45 27 46 76 47 70 48 69 49 28 51 58 52 39 53
REMARK SMILES IDX 57 54 40 55 43 56 56 57 74 58 41 59 42 60 55 62 75 63 44 64
REMARK SMILES IDX 29 65 30 66 38 67 31 68 37 69 32 70 33 71 34 72 35 73 36 74
REMARK SMILES IDX 59 75 60 76 68 77 61 78 67 79 62 80 63 81 64 82 65 83 66 84
REMARK SMILES IDX 45 85 46 86 54 87 47 88 53 89 48 90 49 91 50 92 51 93 52 94
REMARK H PARENT 73 50 43 61
REMARK Flexibility Score: inf
ROOT
ATOM      1  C   UNL     1      -2.650   6.115   4.577  1.00  0.00     0.275 C 
ENDROOT
BRANCH   1   2
ATOM      2  C   UNL     1      -1.689   6.888   3.668  1.00  0.00     0.274 C 
BRANCH   2   3
ATOM      3  O   UNL     1      -0.596   5.992   3.456  1.00  0.00    -0.462 OA
BRANCH   3   4
ATOM      4  C   UNL     1       0.678   6.423   3.314  1.00  0.00     0.316 C 
ATOM      5  O   UNL     1       0.992   7.576   3.072  1.00  0.00    -0.251 OA
BRANCH   4   6
ATOM      6  C   UNL     1       1.614   5.242   3.622  1.00  0.00     0.157 C 
ATOM      7  C   UNL     1       1.129   2.012   0.725  1.00  0.00     0.161 A 
ATOM      8  C   UNL     1       2.403   2.396   1.167  1.00  0.00     0.064 A 
ATOM      9  C   UNL     1       0.001   2.604   1.281  1.00  0.00     0.161 A 
ATOM     10  C   UNL     1       2.561   3.400   2.141  1.00  0.00     0.048 A 
ATOM     11  C   UNL     1       0.182   3.595   2.252  1.00  0.00     0.056 A 
ATOM     12  C   UNL     1       1.449   4.085   2.632  1.00  0.00    -0.015 A 
ATOM     13  C   UNL     1       3.891   3.575   2.781  1.00  0.00     0.254 C 
ATOM     14  N   UNL     1       3.987   4.538   3.785  1.00  0.00    -0.333 N 
ATOM     15  O   UNL     1       4.806   2.813   2.481  1.00  0.00    -0.269 OA
ATOM     16  C   UNL     1       3.091   5.732   3.748  1.00  0.00     0.134 C 
ATOM     17  C   UNL     1       5.123   4.431   4.691  1.00  0.00     0.147 C 
BRANCH   7  18
ATOM     18  O   UNL     1       1.027   1.072  -0.264  1.00  0.00    -0.493 OA
ATOM     19  C   UNL     1       1.311  -0.234   0.237  1.00  0.00     0.278 C 
ENDBRANCH   7  18
BRANCH   9  20
ATOM     20  O   UNL     1      -1.319   2.332   1.049  1.00  0.00    -0.493 OA
ATOM     21  C   UNL     1      -1.668   1.676  -0.157  1.00  0.00     0.278 C 
ENDBRANCH   9  20
BRANCH  16  22
ATOM     22  C   UNL     1       3.387   6.772   4.854  1.00  0.00    -0.024 A 
ATOM     23  C   UNL     1       2.470   7.127   5.852  1.00  0.00     0.007 A 
ATOM     24  C   UNL     1       4.621   7.453   4.870  1.00  0.00     0.007 A 
ATOM     25  C   UNL     1       2.782   8.080   6.832  1.00  0.00     0.015 A 
ATOM     26  C   UNL     1       4.947   8.386   5.872  1.00  0.00     0.015 A 
ATOM     27  C   UNL     1       4.029   8.708   6.868  1.00  0.00     0.007 A 
BRANCH  27  28
ATOM     28  S   UNL     1       4.274   9.914   8.161  1.00  0.00    -0.130 SA
ATOM     29  C   UNL     1       6.071  10.143   8.209  1.00  0.00     0.091 C 
ENDBRANCH  27  28
ENDBRANCH  16  22
ENDBRANCH   4   6
ENDBRANCH   3   4
ENDBRANCH   2   3
ENDBRANCH   1   2
BRANCH   1  30
ATOM     30  O   UNL     1      -2.071   5.936   5.892  1.00  0.00    -0.458 OA
BRANCH  30  31
ATOM     31  C   UNL     1      -1.379   4.790   6.110  1.00  0.00     0.338 C 
ATOM     32  O   UNL     1      -1.192   3.872   5.324  1.00  0.00    -0.246 OA
BRANCH  31  33
ATOM     33  C   UNL     1      -0.735   4.864   7.434  1.00  0.00     0.060 A 
ATOM     34  C   UNL     1       0.647   4.669   7.532  1.00  0.00     0.016 A 
ATOM     35  C   UNL     1      -1.490   5.130   8.578  1.00  0.00     0.016 A 
ATOM     36  C   UNL     1       1.293   4.830   8.755  1.00  0.00     0.010 A 
ATOM     37  C   UNL     1      -0.849   5.239   9.815  1.00  0.00     0.010 A 
ATOM     38  C   UNL     1       0.546   5.108   9.905  1.00  0.00    -0.014 A 
BRANCH  38  39
ATOM     39  C   UNL     1       1.228   5.193  11.214  1.00  0.00     0.031 A 
ATOM     40  C   UNL     1       1.372   3.954  12.046  1.00  0.00     0.074 A 
ATOM     41  C   UNL     1       1.739   6.364  11.632  1.00  0.00     0.049 A 
ATOM     42  N   UNL     1       1.902   3.817  13.232  1.00  0.00    -0.248 NA
ATOM     43  C   UNL     1       0.858   2.706  11.460  1.00  0.00     0.031 C 
ATOM     44  C   UNL     1       1.720   7.613  10.871  1.00  0.00     0.029 A 
ATOM     45  N   UNL     1       2.379   6.692  12.800  1.00  0.00    -0.354 N 
ATOM     46  C   UNL     1       1.785   2.468  13.540  1.00  0.00     0.074 A 
ATOM     47  C   UNL     1       1.124   1.831  12.420  1.00  0.00     0.031 C 
ATOM     48  C   UNL     1       2.322   8.574  11.593  1.00  0.00     0.029 A 
ATOM     49  C   UNL     1       2.728   8.019  12.881  1.00  0.00     0.049 A 
ATOM     50  H   UNL     1       2.571   6.040  13.512  1.00  0.00     0.167 HD
ATOM     51  C   UNL     1       2.184   1.822  14.661  1.00  0.00     0.031 A 
ATOM     52  C   UNL     1       3.288   8.711  13.893  1.00  0.00     0.031 A 
ATOM     53  C   UNL     1       2.803   2.469  15.786  1.00  0.00     0.049 A 
ATOM     54  C   UNL     1       3.636   7.987  15.167  1.00  0.00     0.074 A 
ATOM     55  C   UNL     1       3.214   1.910  16.983  1.00  0.00     0.029 A 
ATOM     56  N   UNL     1       3.090   3.825  15.857  1.00  0.00    -0.354 N 
ATOM     57  N   UNL     1       3.511   6.712  15.450  1.00  0.00    -0.248 NA
ATOM     58  C   UNL     1       4.197   8.795  16.259  1.00  0.00     0.031 C 
ATOM     59  C   UNL     1       3.705   2.937  17.797  1.00  0.00     0.029 A 
ATOM     60  C   UNL     1       3.651   4.126  17.086  1.00  0.00     0.049 A 
ATOM     61  H   UNL     1       2.921   4.476  15.138  1.00  0.00     0.167 HD
ATOM     62  C   UNL     1       3.996   6.561  16.745  1.00  0.00     0.074 A 
ATOM     63  C   UNL     1       4.429   7.872  17.184  1.00  0.00     0.031 C 
ATOM     64  C   UNL     1       4.075   5.439  17.503  1.00  0.00     0.031 A 
BRANCH  51  65
ATOM     65  C   UNL     1       1.899   0.348  14.739  1.00  0.00    -0.014 A 
ATOM     66  C   UNL     1       2.643  -0.580  13.988  1.00  0.00     0.010 A 
ATOM     67  C   UNL     1       0.873  -0.116  15.582  1.00  0.00     0.010 A 
ATOM     68  C   UNL     1       2.337  -1.942  14.048  1.00  0.00     0.020 A 
ATOM     69  C   UNL     1       0.578  -1.479  15.660  1.00  0.00     0.020 A 
ATOM     70  C   UNL     1       1.300  -2.382  14.877  1.00  0.00     0.054 A 
BRANCH  70  71
ATOM     71  S   UNL     1       0.918  -4.154  14.934  1.00  0.00     0.124 S 
ATOM     72  O   UNL     1       0.238  -4.356  13.657  1.00  0.00    -0.237 OA
ATOM     73  O   UNL     1       2.240  -4.765  15.045  1.00  0.00    -0.237 OA
ATOM     74  O   UNL     1       0.072  -4.289  16.118  1.00  0.00    -0.744 OA
ENDBRANCH  70  71
ENDBRANCH  51  65
BRANCH  52  75
ATOM     75  C   UNL     1       3.519  10.176  13.758  1.00  0.00    -0.014 A 
ATOM     76  C   UNL     1       4.822  10.696  13.679  1.00  0.00     0.010 A 
ATOM     77  C   UNL     1       2.426  11.062  13.710  1.00  0.00     0.010 A 
ATOM     78  C   UNL     1       5.028  12.076  13.571  1.00  0.00     0.020 A 
ATOM     79  C   UNL     1       2.627  12.438  13.575  1.00  0.00     0.020 A 
ATOM     80  C   UNL     1       3.929  12.938  13.519  1.00  0.00     0.054 A 
BRANCH  80  81
ATOM     81  S   UNL     1       4.218  14.720  13.334  1.00  0.00     0.124 S 
ATOM     82  O   UNL     1       4.653  15.098  14.674  1.00  0.00    -0.237 OA
ATOM     83  O   UNL     1       5.246  14.769  12.297  1.00  0.00    -0.237 OA
ATOM     84  O   UNL     1       2.912  15.237  12.930  1.00  0.00    -0.744 OA
ENDBRANCH  80  81
ENDBRANCH  52  75
BRANCH  64  85
ATOM     85  C   UNL     1       4.678   5.572  18.876  1.00  0.00    -0.014 A 
ATOM     86  C   UNL     1       3.965   6.170  19.929  1.00  0.00     0.010 A 
ATOM     87  C   UNL     1       5.952   5.030  19.128  1.00  0.00     0.010 A 
ATOM     88  C   UNL     1       4.526   6.247  21.206  1.00  0.00     0.020 A 
ATOM     89  C   UNL     1       6.506   5.084  20.409  1.00  0.00     0.020 A 
ATOM     90  C   UNL     1       5.794   5.703  21.438  1.00  0.00     0.054 A 
BRANCH  90  91
ATOM     91  S   UNL     1       6.480   5.767  23.116  1.00  0.00     0.124 S 
ATOM     92  O   UNL     1       6.895   7.163  23.222  1.00  0.00    -0.237 OA
ATOM     93  O   UNL     1       5.340   5.385  23.946  1.00  0.00    -0.237 OA
ATOM     94  O   UNL     1       7.570   4.794  23.081  1.00  0.00    -0.744 OA
ENDBRANCH  90  91
ENDBRANCH  64  85
ENDBRANCH  38  39
ENDBRANCH  31  33
ENDBRANCH  30  31
ENDBRANCH   1  30
TORSDOF 18
