REMARK SMILES C[C@@H](C(=O)OCCOC(=O)c1ccc(-c2c3nc(c(-c4ccc(S(=O)(=O)[O-])cc4)c4ccc([nH]4)c(-c4ccc(S(=O)(=O)[O-])cc4)c4nc(c(-c5ccc(S(=O)(=O)[O-])cc5)c5ccc2[nH]5)C=C4)C=C3)cc1)c1ccc(Cc2ccsc2)cc1F
REMARK SMILES IDX 6 1 5 2 3 3 4 4 2 5 1 6 71 7 72 8 82 9 73 10 81 11 83 12
REMARK SMILES IDX 74 13 75 14 76 15 77 16 80 17 78 18 79 19 7 20 8 21 9 22
REMARK SMILES IDX 10 23 11 24 12 25 70 26 13 27 69 28 14 29 15 30 16 31 63 32
REMARK SMILES IDX 17 33 68 34 62 35 64 36 18 37 67 38 61 39 60 40 19 42 49 43
REMARK SMILES IDX 30 44 48 45 31 46 34 47 47 48 65 49 32 50 33 51 46 53 66 54
REMARK SMILES IDX 35 55 20 56 21 57 29 58 22 59 28 60 23 61 24 62 25 63 26 64
REMARK SMILES IDX 27 65 50 66 51 67 59 68 52 69 58 70 53 71 54 72 55 73 56 74
REMARK SMILES IDX 57 75 36 76 37 77 45 78 38 79 44 80 39 81 40 82 41 83 42 84
REMARK SMILES IDX 43 85
REMARK H PARENT 64 41 34 52
REMARK Flexibility Score: inf
ROOT
ATOM      1  C   UNL     1       2.762  -2.428   3.000  1.00  0.00     0.274 C 
ENDROOT
BRANCH   1   2
ATOM      2  O   UNL     1       2.342  -1.804   1.770  1.00  0.00    -0.462 OA
BRANCH   2   3
ATOM      3  C   UNL     1       1.183  -2.277   1.226  1.00  0.00     0.313 C 
ATOM      4  O   UNL     1       0.539  -3.189   1.728  1.00  0.00    -0.252 OA
BRANCH   3   5
ATOM      5  C   UNL     1       0.837  -1.587  -0.110  1.00  0.00     0.129 C 
ATOM      6  C   UNL     1       1.528  -0.222  -0.242  1.00  0.00     0.025 C 
BRANCH   5   7
ATOM      7  C   UNL     1      -0.672  -1.534  -0.358  1.00  0.00     0.002 A 
ATOM      8  C   UNL     1      -1.409  -0.344  -0.426  1.00  0.00     0.008 A 
ATOM      9  C   UNL     1      -1.387  -2.727  -0.525  1.00  0.00     0.127 A 
ATOM     10  C   UNL     1      -2.797  -0.358  -0.652  1.00  0.00     0.004 A 
ATOM     11  C   UNL     1      -2.777  -2.746  -0.670  1.00  0.00     0.043 A 
ATOM     12  F   UNL     1      -0.729  -3.894  -0.569  1.00  0.00    -0.207 F 
ATOM     13  C   UNL     1      -3.520  -1.554  -0.725  1.00  0.00    -0.041 A 
BRANCH  13  14
ATOM     14  C   UNL     1      -4.987  -1.641  -1.087  1.00  0.00     0.072 C 
BRANCH  14  15
ATOM     15  C   UNL     1      -5.929  -0.853  -0.211  1.00  0.00    -0.033 A 
ATOM     16  C   UNL     1      -5.798   0.466   0.347  1.00  0.00     0.015 A 
ATOM     17  C   UNL     1      -7.210  -1.327   0.055  1.00  0.00     0.068 A 
ATOM     18  C   UNL     1      -6.968   0.948   0.892  1.00  0.00     0.065 A 
ATOM     19  S   UNL     1      -8.234  -0.184   0.799  1.00  0.00    -0.152 S 
ENDBRANCH  14  15
ENDBRANCH  13  14
ENDBRANCH   5   7
ENDBRANCH   3   5
ENDBRANCH   2   3
ENDBRANCH   1   2
BRANCH   1  20
ATOM     20  C   UNL     1       2.322  -1.625   4.226  1.00  0.00     0.275 C 
BRANCH  20  21
ATOM     21  O   UNL     1       0.900  -1.704   4.432  1.00  0.00    -0.458 OA
BRANCH  21  22
ATOM     22  C   UNL     1       0.195  -0.609   4.062  1.00  0.00     0.338 C 
ATOM     23  O   UNL     1       0.634   0.431   3.603  1.00  0.00    -0.246 OA
BRANCH  22  24
ATOM     24  C   UNL     1      -1.246  -0.874   4.203  1.00  0.00     0.060 A 
ATOM     25  C   UNL     1      -1.924  -1.353   3.090  1.00  0.00     0.016 A 
ATOM     26  C   UNL     1      -1.950  -0.533   5.358  1.00  0.00     0.016 A 
ATOM     27  C   UNL     1      -3.311  -1.439   3.095  1.00  0.00     0.010 A 
ATOM     28  C   UNL     1      -3.348  -0.677   5.383  1.00  0.00     0.010 A 
ATOM     29  C   UNL     1      -4.047  -1.104   4.239  1.00  0.00    -0.014 A 
BRANCH  29  30
ATOM     30  C   UNL     1      -5.537  -1.145   4.168  1.00  0.00     0.031 A 
ATOM     31  C   UNL     1      -6.337   0.130   4.271  1.00  0.00     0.074 A 
ATOM     32  C   UNL     1      -6.165  -2.301   3.868  1.00  0.00     0.049 A 
ATOM     33  N   UNL     1      -7.635   0.297   4.229  1.00  0.00    -0.248 NA
ATOM     34  C   UNL     1      -5.581   1.384   4.434  1.00  0.00     0.031 C 
ATOM     35  C   UNL     1      -5.507  -3.597   3.676  1.00  0.00     0.029 A 
ATOM     36  N   UNL     1      -7.490  -2.569   3.619  1.00  0.00    -0.354 N 
ATOM     37  C   UNL     1      -7.848   1.667   4.315  1.00  0.00     0.074 A 
ATOM     38  C   UNL     1      -6.553   2.283   4.510  1.00  0.00     0.031 C 
ATOM     39  C   UNL     1      -6.416  -4.499   3.274  1.00  0.00     0.029 A 
ATOM     40  C   UNL     1      -7.732  -3.870   3.243  1.00  0.00     0.049 A 
ATOM     41  H   UNL     1      -8.201  -1.892   3.702  1.00  0.00     0.167 HD
ATOM     42  C   UNL     1      -9.003   2.362   4.173  1.00  0.00     0.031 A 
ATOM     43  C   UNL     1      -8.882  -4.497   2.919  1.00  0.00     0.031 A 
ATOM     44  C   UNL     1     -10.287   1.772   3.910  1.00  0.00     0.049 A 
ATOM     45  C   UNL     1     -10.172  -3.726   2.949  1.00  0.00     0.074 A 
ATOM     46  C   UNL     1     -11.514   2.402   3.787  1.00  0.00     0.029 A 
ATOM     47  N   UNL     1     -10.509   0.421   3.697  1.00  0.00    -0.354 N 
ATOM     48  N   UNL     1     -10.360  -2.442   3.134  1.00  0.00    -0.248 NA
ATOM     49  C   UNL     1     -11.410  -4.494   2.747  1.00  0.00     0.031 C 
ATOM     50  C   UNL     1     -12.485   1.426   3.531  1.00  0.00     0.029 A 
ATOM     51  C   UNL     1     -11.855   0.194   3.460  1.00  0.00     0.049 A 
ATOM     52  H   UNL     1      -9.813  -0.275   3.711  1.00  0.00     0.167 HD
ATOM     53  C   UNL     1     -11.734  -2.246   3.062  1.00  0.00     0.074 A 
ATOM     54  C   UNL     1     -12.330  -3.539   2.795  1.00  0.00     0.031 C 
ATOM     55  C   UNL     1     -12.439  -1.098   3.211  1.00  0.00     0.031 A 
BRANCH  42  56
ATOM     56  C   UNL     1      -8.923   3.860   4.278  1.00  0.00    -0.014 A 
ATOM     57  C   UNL     1      -8.450   4.631   3.202  1.00  0.00     0.010 A 
ATOM     58  C   UNL     1      -9.362   4.505   5.447  1.00  0.00     0.010 A 
ATOM     59  C   UNL     1      -8.384   6.023   3.306  1.00  0.00     0.020 A 
ATOM     60  C   UNL     1      -9.315   5.898   5.548  1.00  0.00     0.020 A 
ATOM     61  C   UNL     1      -8.811   6.647   4.482  1.00  0.00     0.054 A 
BRANCH  61  62
ATOM     62  S   UNL     1      -8.722   8.456   4.588  1.00  0.00     0.124 S 
ATOM     63  O   UNL     1      -7.284   8.678   4.725  1.00  0.00    -0.237 OA
ATOM     64  O   UNL     1      -9.303   8.881   3.317  1.00  0.00    -0.237 OA
ATOM     65  O   UNL     1      -9.516   8.775   5.772  1.00  0.00    -0.744 OA
ENDBRANCH  61  62
ENDBRANCH  42  56
BRANCH  43  66
ATOM     66  C   UNL     1      -8.877  -5.949   2.584  1.00  0.00    -0.014 A 
ATOM     67  C   UNL     1      -9.211  -6.394   1.293  1.00  0.00     0.010 A 
ATOM     68  C   UNL     1      -8.553  -6.900   3.570  1.00  0.00     0.010 A 
ATOM     69  C   UNL     1      -9.232  -7.762   0.998  1.00  0.00     0.020 A 
ATOM     70  C   UNL     1      -8.544  -8.265   3.272  1.00  0.00     0.020 A 
ATOM     71  C   UNL     1      -8.898  -8.688   1.990  1.00  0.00     0.054 A 
BRANCH  71  72
ATOM     72  S   UNL     1      -8.882 -10.457   1.582  1.00  0.00     0.124 S 
ATOM     73  O   UNL     1     -10.298 -10.798   1.661  1.00  0.00    -0.237 OA
ATOM     74  O   UNL     1      -8.300 -10.472   0.242  1.00  0.00    -0.237 OA
ATOM     75  O   UNL     1      -8.037 -11.036   2.624  1.00  0.00    -0.744 OA
ENDBRANCH  71  72
ENDBRANCH  43  66
BRANCH  55  76
ATOM     76  C   UNL     1     -13.935  -1.188   3.093  1.00  0.00    -0.014 A 
ATOM     77  C   UNL     1     -14.704  -1.721   4.143  1.00  0.00     0.010 A 
ATOM     78  C   UNL     1     -14.584  -0.695   1.947  1.00  0.00     0.010 A 
ATOM     79  C   UNL     1     -16.096  -1.779   4.040  1.00  0.00     0.020 A 
ATOM     80  C   UNL     1     -15.978  -0.732   1.850  1.00  0.00     0.020 A 
ATOM     81  C   UNL     1     -16.725  -1.284   2.893  1.00  0.00     0.054 A 
BRANCH  81  82
ATOM     82  S   UNL     1     -18.537  -1.323   2.804  1.00  0.00     0.124 S 
ATOM     83  O   UNL     1     -18.797  -2.727   2.497  1.00  0.00    -0.237 OA
ATOM     84  O   UNL     1     -18.936  -0.888   4.141  1.00  0.00    -0.237 OA
ATOM     85  O   UNL     1     -18.850  -0.381   1.732  1.00  0.00    -0.744 OA
ENDBRANCH  81  82
ENDBRANCH  55  76
ENDBRANCH  29  30
ENDBRANCH  22  24
ENDBRANCH  21  22
ENDBRANCH  20  21
ENDBRANCH   1  20
TORSDOF 17
