REMARK SMILES CC(C)(C)C[N@H+]1[C@@H](C(=O)OCCOC(=O)c2ccc(-c3c4nc(c(-c5ccc(S(=O)(=O)[O-])cc5)c5ccc([nH]5)c(-c5ccc(S(=O)(=O)[O-])cc5)c5nc(c(-c6ccc(S(=O)(=O)[O-])cc6)c6ccc3[nH]6)C=C5)C=C4)cc2)CC[C@H]2CCCC[C@@H]21
REMARK SMILES IDX 12 1 11 2 10 3 8 4 9 5 7 6 6 7 83 8 76 10 78 11 82 12 77 13
REMARK SMILES IDX 79 14 81 15 80 16 5 17 2 18 1 19 3 20 4 21 13 22 14 23 15 24
REMARK SMILES IDX 16 25 17 26 75 27 18 28 74 29 19 30 20 31 21 32 68 33 22 34
REMARK SMILES IDX 73 35 67 36 69 37 23 38 72 39 66 40 65 41 24 43 54 44 35 45
REMARK SMILES IDX 53 46 36 47 39 48 52 49 70 50 37 51 38 52 51 54 71 55 40 56
REMARK SMILES IDX 25 57 26 58 34 59 27 60 33 61 28 62 29 63 30 64 31 65 32 66
REMARK SMILES IDX 55 67 56 68 64 69 57 70 63 71 58 72 59 73 60 74 61 75 62 76
REMARK SMILES IDX 41 77 42 78 50 79 43 80 49 81 44 82 45 83 46 84 47 85 48 86
REMARK H PARENT 6 9 69 42 39 53
REMARK Flexibility Score: inf
ROOT
ATOM      1  C   UNL     1       4.866  -1.196  -0.746  1.00  0.00     0.275 C 
ENDROOT
BRANCH   1   2
ATOM      2  C   UNL     1       3.966  -0.707  -1.884  1.00  0.00     0.274 C 
BRANCH   2   3
ATOM      3  O   UNL     1       2.642  -1.264  -1.736  1.00  0.00    -0.458 OA
BRANCH   3   4
ATOM      4  C   UNL     1       2.308  -2.274  -2.577  1.00  0.00     0.365 C 
ATOM      5  O   UNL     1       3.016  -2.629  -3.519  1.00  0.00    -0.245 OA
BRANCH   4   6
ATOM      6  C   UNL     1       1.013  -3.033  -2.228  1.00  0.00     0.295 C 
ATOM      7  N   UNL     1       0.040  -2.399  -1.278  1.00  0.00    -0.320 N 
ATOM      8  C   UNL     1      -1.216  -3.233  -1.270  1.00  0.00     0.187 C 
ATOM      9  H   UNL     1      -0.154  -1.447  -1.589  1.00  0.00     0.349 HD
ATOM     10  C   UNL     1       1.387  -4.455  -1.780  1.00  0.00     0.078 C 
ATOM     11  C   UNL     1      -1.071  -4.667  -1.864  1.00  0.00     0.048 C 
ATOM     12  C   UNL     1      -2.362  -2.555  -2.042  1.00  0.00     0.065 C 
ATOM     13  C   UNL     1       0.201  -5.320  -1.365  1.00  0.00     0.016 C 
ATOM     14  C   UNL     1      -2.324  -5.492  -1.575  1.00  0.00     0.010 C 
ATOM     15  C   UNL     1      -3.666  -3.351  -1.869  1.00  0.00     0.006 C 
ATOM     16  C   UNL     1      -3.530  -4.830  -2.240  1.00  0.00     0.001 C 
BRANCH   7  17
ATOM     17  C   UNL     1       0.593  -2.307   0.106  1.00  0.00     0.269 C 
BRANCH  17  18
ATOM     18  C   UNL     1       0.209  -1.027   0.914  1.00  0.00     0.011 C 
ATOM     19  C   UNL     1       0.715   0.247   0.216  1.00  0.00     0.017 C 
ATOM     20  C   UNL     1       0.886  -1.119   2.298  1.00  0.00     0.017 C 
ATOM     21  C   UNL     1      -1.305  -0.901   1.135  1.00  0.00     0.017 C 
ENDBRANCH  17  18
ENDBRANCH   7  17
ENDBRANCH   4   6
ENDBRANCH   3   4
ENDBRANCH   2   3
ENDBRANCH   1   2
BRANCH   1  22
ATOM     22  O   UNL     1       4.970  -2.627  -0.822  1.00  0.00    -0.458 OA
BRANCH  22  23
ATOM     23  C   UNL     1       5.263  -3.278   0.333  1.00  0.00     0.338 C 
ATOM     24  O   UNL     1       5.592  -2.755   1.384  1.00  0.00    -0.246 OA
BRANCH  23  25
ATOM     25  C   UNL     1       5.016  -4.739   0.162  1.00  0.00     0.060 A 
ATOM     26  C   UNL     1       4.440  -5.235  -1.006  1.00  0.00     0.016 A 
ATOM     27  C   UNL     1       5.243  -5.624   1.220  1.00  0.00     0.016 A 
ATOM     28  C   UNL     1       3.945  -6.542  -1.050  1.00  0.00     0.010 A 
ATOM     29  C   UNL     1       4.867  -6.977   1.111  1.00  0.00     0.010 A 
ATOM     30  C   UNL     1       4.165  -7.454  -0.011  1.00  0.00    -0.014 A 
BRANCH  30  31
ATOM     31  C   UNL     1       3.636  -8.860  -0.084  1.00  0.00     0.031 A 
ATOM     32  C   UNL     1       2.914  -9.478   1.096  1.00  0.00     0.074 A 
ATOM     33  C   UNL     1       3.750  -9.612  -1.203  1.00  0.00     0.049 A 
ATOM     34  N   UNL     1       2.665 -10.741   1.346  1.00  0.00    -0.248 NA
ATOM     35  C   UNL     1       2.423  -8.560   2.137  1.00  0.00     0.031 C 
ATOM     36  C   UNL     1       4.333  -9.183  -2.476  1.00  0.00     0.029 A 
ATOM     37  N   UNL     1       3.352 -10.907  -1.456  1.00  0.00    -0.354 N 
ATOM     38  C   UNL     1       2.092 -10.777   2.613  1.00  0.00     0.074 A 
ATOM     39  C   UNL     1       1.998  -9.406   3.067  1.00  0.00     0.031 C 
ATOM     40  C   UNL     1       4.163 -10.146  -3.393  1.00  0.00     0.029 A 
ATOM     41  C   UNL     1       3.610 -11.325  -2.742  1.00  0.00     0.049 A 
ATOM     42  H   UNL     1       2.923 -11.479  -0.780  1.00  0.00     0.167 HD
ATOM     43  C   UNL     1       1.700 -11.854   3.339  1.00  0.00     0.031 A 
ATOM     44  C   UNL     1       3.494 -12.531  -3.331  1.00  0.00     0.031 A 
ATOM     45  C   UNL     1       1.709 -13.211   2.856  1.00  0.00     0.049 A 
ATOM     46  C   UNL     1       3.087 -13.719  -2.512  1.00  0.00     0.074 A 
ATOM     47  C   UNL     1       1.352 -14.370   3.526  1.00  0.00     0.029 A 
ATOM     48  N   UNL     1       2.051 -13.590   1.567  1.00  0.00    -0.354 N 
ATOM     49  N   UNL     1       2.729 -13.764  -1.252  1.00  0.00    -0.248 NA
ATOM     50  C   UNL     1       3.120 -15.027  -3.182  1.00  0.00     0.031 C 
ATOM     51  C   UNL     1       1.500 -15.452   2.649  1.00  0.00     0.029 A 
ATOM     52  C   UNL     1       1.910 -14.960   1.421  1.00  0.00     0.049 A 
ATOM     53  H   UNL     1       2.350 -12.975   0.859  1.00  0.00     0.167 HD
ATOM     54  C   UNL     1       2.507 -15.107  -0.974  1.00  0.00     0.074 A 
ATOM     55  C   UNL     1       2.739 -15.838  -2.204  1.00  0.00     0.031 C 
ATOM     56  C   UNL     1       2.155 -15.683   0.201  1.00  0.00     0.031 A 
BRANCH  43  57
ATOM     57  C   UNL     1       1.291 -11.619   4.770  1.00  0.00    -0.014 A 
ATOM     58  C   UNL     1       0.052 -11.051   5.109  1.00  0.00     0.010 A 
ATOM     59  C   UNL     1       2.165 -12.018   5.801  1.00  0.00     0.010 A 
ATOM     60  C   UNL     1      -0.286 -10.845   6.451  1.00  0.00     0.020 A 
ATOM     61  C   UNL     1       1.820 -11.838   7.143  1.00  0.00     0.020 A 
ATOM     62  C   UNL     1       0.604 -11.231   7.459  1.00  0.00     0.054 A 
BRANCH  62  63
ATOM     63  S   UNL     1       0.144 -10.961   9.193  1.00  0.00     0.124 S 
ATOM     64  O   UNL     1       0.413  -9.535   9.356  1.00  0.00    -0.237 OA
ATOM     65  O   UNL     1      -1.267 -11.339   9.218  1.00  0.00    -0.237 OA
ATOM     66  O   UNL     1       1.036 -11.853   9.931  1.00  0.00    -0.744 OA
ENDBRANCH  62  63
ENDBRANCH  43  57
BRANCH  44  67
ATOM     67  C   UNL     1       3.867 -12.689  -4.764  1.00  0.00    -0.014 A 
ATOM     68  C   UNL     1       2.877 -12.912  -5.737  1.00  0.00     0.010 A 
ATOM     69  C   UNL     1       5.210 -12.570  -5.168  1.00  0.00     0.010 A 
ATOM     70  C   UNL     1       3.222 -12.995  -7.089  1.00  0.00     0.020 A 
ATOM     71  C   UNL     1       5.554 -12.621  -6.520  1.00  0.00     0.020 A 
ATOM     72  C   UNL     1       4.558 -12.839  -7.473  1.00  0.00     0.054 A 
BRANCH  72  73
ATOM     73  S   UNL     1       4.978 -12.838  -9.238  1.00  0.00     0.124 S 
ATOM     74  O   UNL     1       5.041 -14.266  -9.534  1.00  0.00    -0.237 OA
ATOM     75  O   UNL     1       3.857 -12.117  -9.835  1.00  0.00    -0.237 OA
ATOM     76  O   UNL     1       6.255 -12.130  -9.280  1.00  0.00    -0.744 OA
ENDBRANCH  72  73
ENDBRANCH  44  67
BRANCH  56  77
ATOM     77  C   UNL     1       1.983 -17.176   0.207  1.00  0.00    -0.014 A 
ATOM     78  C   UNL     1       3.099 -18.031   0.212  1.00  0.00     0.010 A 
ATOM     79  C   UNL     1       0.691 -17.729   0.224  1.00  0.00     0.010 A 
ATOM     80  C   UNL     1       2.924 -19.418   0.202  1.00  0.00     0.020 A 
ATOM     81  C   UNL     1       0.512 -19.114   0.232  1.00  0.00     0.020 A 
ATOM     82  C   UNL     1       1.631 -19.951   0.205  1.00  0.00     0.054 A 
BRANCH  82  83
ATOM     83  S   UNL     1       1.425 -21.753   0.212  1.00  0.00     0.124 S 
ATOM     84  O   UNL     1       1.699 -22.096  -1.180  1.00  0.00    -0.237 OA
ATOM     85  O   UNL     1       2.432 -22.190   1.177  1.00  0.00    -0.237 OA
ATOM     86  O   UNL     1       0.041 -21.940   0.641  1.00  0.00    -0.744 OA
ENDBRANCH  82  83
ENDBRANCH  56  77
ENDBRANCH  30  31
ENDBRANCH  23  25
ENDBRANCH  22  23
ENDBRANCH   1  22
TORSDOF 16
