REMARK SMILES O=C(Nc1ccccc1)N[C@H]1C[C@@H](C(=O)OCCOC(=O)c2ccc(-c3c4nc(c(-c5ccc(S(=O)(=O)[O-])cc5)c5ccc([nH]5)c(-c5ccc(S(=O)(=O)[O-])cc5)c5nc(c(-c6ccc(S(=O)(=O)[O-])cc6)c6ccc3[nH]6)C=C5)C=C4)cc2)Nc2cc(Cl)cc(Cl)c21
REMARK SMILES IDX 18 1 17 2 16 3 14 4 15 5 13 6 11 7 12 8 90 9 83 10 88 11
REMARK SMILES IDX 82 12 84 13 87 14 89 15 85 17 86 18 10 19 1 20 2 21 3 22
REMARK SMILES IDX 4 25 5 26 9 27 6 28 8 29 7 30 19 31 20 32 21 33 22 34 23 35
REMARK SMILES IDX 81 36 24 37 80 38 25 39 26 40 27 41 74 42 28 43 79 44 73 45
REMARK SMILES IDX 75 46 29 47 78 48 72 49 71 50 30 52 60 53 41 54 59 55 42 56
REMARK SMILES IDX 45 57 58 58 76 59 43 60 44 61 57 63 77 64 46 65 31 66 32 67
REMARK SMILES IDX 40 68 33 69 39 70 34 71 35 72 36 73 37 74 38 75 61 76 62 77
REMARK SMILES IDX 70 78 63 79 69 80 64 81 65 82 66 83 67 84 68 85 47 86 48 87
REMARK SMILES IDX 56 88 49 89 55 90 50 91 51 92 52 93 53 94 54 95
REMARK H PARENT 82 16 3 23 10 24 75 51 45 62
REMARK Flexibility Score: inf
ROOT
ATOM      1  C   UNL     1       5.935  -7.016   1.291  1.00  0.00     0.275 C 
ENDROOT
BRANCH   1   2
ATOM      2  C   UNL     1       4.417  -7.196   1.300  1.00  0.00     0.274 C 
BRANCH   2   3
ATOM      3  O   UNL     1       3.804  -5.936   1.626  1.00  0.00    -0.461 OA
BRANCH   3   4
ATOM      4  C   UNL     1       2.735  -5.974   2.469  1.00  0.00     0.328 C 
ATOM      5  O   UNL     1       2.181  -6.999   2.847  1.00  0.00    -0.250 OA
BRANCH   4   6
ATOM      6  C   UNL     1       2.332  -4.561   2.910  1.00  0.00     0.192 C 
ATOM      7  C   UNL     1       1.748  -2.223   2.044  1.00  0.00     0.120 C 
ATOM      8  C   UNL     1       1.837  -3.731   1.734  1.00  0.00     0.067 C 
ATOM      9  C   UNL     1       2.233  -1.796   3.419  1.00  0.00     0.016 A 
ATOM     10  C   UNL     1       3.122  -2.638   4.104  1.00  0.00     0.043 A 
ATOM     11  C   UNL     1       1.926  -0.540   3.977  1.00  0.00     0.049 A 
ATOM     12  N   UNL     1       3.453  -3.881   3.567  1.00  0.00    -0.372 N 
ATOM     13  C   UNL     1       3.745  -2.194   5.271  1.00  0.00     0.046 A 
ATOM     14  C   UNL     1       2.516  -0.122   5.171  1.00  0.00     0.041 A 
ATOM     15  Cl  UNL     1       0.832   0.560   3.213  1.00  0.00    -0.084 Cl
ATOM     16  H   UNL     1       4.356  -4.268   3.624  1.00  0.00     0.161 HD
ATOM     17  C   UNL     1       3.432  -0.949   5.807  1.00  0.00     0.044 A 
ATOM     18  Cl  UNL     1       4.186  -0.435   7.264  1.00  0.00    -0.084 Cl
BRANCH   7  19
ATOM     19  N   UNL     1       2.528  -1.479   1.059  1.00  0.00    -0.331 N 
ATOM     20  O   UNL     1       0.773  -0.859  -0.249  1.00  0.00    -0.248 OA
ATOM     21  C   UNL     1       1.966  -0.783   0.038  1.00  0.00     0.319 C 
ATOM     22  N   UNL     1       2.756   0.147  -0.572  1.00  0.00    -0.308 N 
ATOM     23  H   UNL     1       2.260   0.848  -1.054  1.00  0.00     0.171 HD
ATOM     24  H   UNL     1       3.510  -1.483   1.139  1.00  0.00     0.166 HD
BRANCH  22  25
ATOM     25  C   UNL     1       4.153   0.280  -0.635  1.00  0.00     0.042 A 
ATOM     26  C   UNL     1       4.671   1.566  -0.817  1.00  0.00     0.026 A 
ATOM     27  C   UNL     1       5.028  -0.809  -0.592  1.00  0.00     0.026 A 
ATOM     28  C   UNL     1       6.050   1.769  -0.905  1.00  0.00     0.002 A 
ATOM     29  C   UNL     1       6.407  -0.607  -0.703  1.00  0.00     0.002 A 
ATOM     30  C   UNL     1       6.918   0.681  -0.851  1.00  0.00     0.000 A 
ENDBRANCH  22  25
ENDBRANCH   7  19
ENDBRANCH   4   6
ENDBRANCH   3   4
ENDBRANCH   2   3
ENDBRANCH   1   2
BRANCH   1  31
ATOM     31  O   UNL     1       6.414  -6.734   2.621  1.00  0.00    -0.458 OA
BRANCH  31  32
ATOM     32  C   UNL     1       6.470  -5.422   2.942  1.00  0.00     0.338 C 
ATOM     33  O   UNL     1       6.194  -4.465   2.232  1.00  0.00    -0.246 OA
BRANCH  32  34
ATOM     34  C   UNL     1       6.832  -5.264   4.353  1.00  0.00     0.060 A 
ATOM     35  C   UNL     1       5.828  -5.345   5.318  1.00  0.00     0.016 A 
ATOM     36  C   UNL     1       8.120  -4.850   4.694  1.00  0.00     0.016 A 
ATOM     37  C   UNL     1       6.095  -4.927   6.622  1.00  0.00     0.010 A 
ATOM     38  C   UNL     1       8.397  -4.493   6.017  1.00  0.00     0.010 A 
ATOM     39  C   UNL     1       7.377  -4.483   6.985  1.00  0.00    -0.014 A 
BRANCH  39  40
ATOM     40  C   UNL     1       7.636  -3.967   8.357  1.00  0.00     0.031 A 
ATOM     41  C   UNL     1       8.070  -2.537   8.571  1.00  0.00     0.074 A 
ATOM     42  C   UNL     1       7.489  -4.779   9.422  1.00  0.00     0.049 A 
ATOM     43  N   UNL     1       8.470  -1.952   9.673  1.00  0.00    -0.248 NA
ATOM     44  C   UNL     1       8.074  -1.654   7.392  1.00  0.00     0.031 C 
ATOM     45  C   UNL     1       7.067  -6.181   9.370  1.00  0.00     0.029 A 
ATOM     46  N   UNL     1       7.678  -4.539  10.760  1.00  0.00    -0.354 N 
ATOM     47  C   UNL     1       8.829  -0.658   9.312  1.00  0.00     0.074 A 
ATOM     48  C   UNL     1       8.593  -0.539   7.888  1.00  0.00     0.031 C 
ATOM     49  C   UNL     1       7.004  -6.667  10.620  1.00  0.00     0.029 A 
ATOM     50  C   UNL     1       7.434  -5.633  11.555  1.00  0.00     0.049 A 
ATOM     51  H   UNL     1       7.961  -3.666  11.117  1.00  0.00     0.167 HD
ATOM     52  C   UNL     1       9.316   0.338  10.091  1.00  0.00     0.031 A 
ATOM     53  C   UNL     1       7.564  -5.801  12.884  1.00  0.00     0.031 A 
ATOM     54  C   UNL     1       9.491   0.249  11.517  1.00  0.00     0.049 A 
ATOM     55  C   UNL     1       8.053  -4.664  13.733  1.00  0.00     0.074 A 
ATOM     56  C   UNL     1       9.945   1.223  12.391  1.00  0.00     0.029 A 
ATOM     57  N   UNL     1       9.197  -0.867  12.282  1.00  0.00    -0.354 N 
ATOM     58  N   UNL     1       8.415  -3.459  13.364  1.00  0.00    -0.248 NA
ATOM     59  C   UNL     1       8.156  -4.913  15.178  1.00  0.00     0.031 C 
ATOM     60  C   UNL     1       9.945   0.688  13.684  1.00  0.00     0.029 A 
ATOM     61  C   UNL     1       9.463  -0.608  13.617  1.00  0.00     0.049 A 
ATOM     62  H   UNL     1       8.851  -1.718  11.930  1.00  0.00     0.167 HD
ATOM     63  C   UNL     1       8.783  -2.804  14.533  1.00  0.00     0.074 A 
ATOM     64  C   UNL     1       8.579  -3.738  15.622  1.00  0.00     0.031 C 
ATOM     65  C   UNL     1       9.255  -1.544  14.689  1.00  0.00     0.031 A 
BRANCH  52  66
ATOM     66  C   UNL     1       9.731   1.615   9.412  1.00  0.00    -0.014 A 
ATOM     67  C   UNL     1       8.785   2.569   9.001  1.00  0.00     0.010 A 
ATOM     68  C   UNL     1      11.101   1.888   9.242  1.00  0.00     0.010 A 
ATOM     69  C   UNL     1       9.202   3.764   8.406  1.00  0.00     0.020 A 
ATOM     70  C   UNL     1      11.522   3.089   8.664  1.00  0.00     0.020 A 
ATOM     71  C   UNL     1      10.568   4.014   8.235  1.00  0.00     0.054 A 
BRANCH  71  72
ATOM     72  S   UNL     1      11.092   5.584   7.491  1.00  0.00     0.124 S 
ATOM     73  O   UNL     1      10.896   5.321   6.068  1.00  0.00    -0.237 OA
ATOM     74  O   UNL     1      10.170   6.550   8.083  1.00  0.00    -0.237 OA
ATOM     75  O   UNL     1      12.484   5.718   7.915  1.00  0.00    -0.744 OA
ENDBRANCH  71  72
ENDBRANCH  52  66
BRANCH  53  76
ATOM     76  C   UNL     1       7.250  -7.119  13.493  1.00  0.00    -0.014 A 
ATOM     77  C   UNL     1       6.072  -7.298  14.238  1.00  0.00     0.010 A 
ATOM     78  C   UNL     1       8.127  -8.203  13.316  1.00  0.00     0.010 A 
ATOM     79  C   UNL     1       5.782  -8.540  14.810  1.00  0.00     0.020 A 
ATOM     80  C   UNL     1       7.829  -9.451  13.868  1.00  0.00     0.020 A 
ATOM     81  C   UNL     1       6.665  -9.608  14.623  1.00  0.00     0.054 A 
BRANCH  81  82
ATOM     82  S   UNL     1       6.255 -11.233  15.318  1.00  0.00     0.124 S 
ATOM     83  O   UNL     1       6.774 -11.119  16.677  1.00  0.00    -0.237 OA
ATOM     84  O   UNL     1       4.800 -11.280  15.197  1.00  0.00    -0.237 OA
ATOM     85  O   UNL     1       6.972 -12.160  14.445  1.00  0.00    -0.744 OA
ENDBRANCH  81  82
ENDBRANCH  53  76
BRANCH  65  86
ATOM     86  C   UNL     1       9.560  -1.100  16.091  1.00  0.00    -0.014 A 
ATOM     87  C   UNL     1      10.730  -1.526  16.745  1.00  0.00     0.010 A 
ATOM     88  C   UNL     1       8.672  -0.238  16.758  1.00  0.00     0.010 A 
ATOM     89  C   UNL     1      10.988  -1.127  18.059  1.00  0.00     0.020 A 
ATOM     90  C   UNL     1       8.935   0.176  18.066  1.00  0.00     0.020 A 
ATOM     91  C   UNL     1      10.082  -0.287  18.715  1.00  0.00     0.054 A 
BRANCH  91  92
ATOM     92  S   UNL     1      10.436   0.235  20.416  1.00  0.00     0.124 S 
ATOM     93  O   UNL     1       9.953  -0.906  21.189  1.00  0.00    -0.237 OA
ATOM     94  O   UNL     1      11.885   0.420  20.409  1.00  0.00    -0.237 OA
ATOM     95  O   UNL     1       9.660   1.464  20.565  1.00  0.00    -0.744 OA
ENDBRANCH  91  92
ENDBRANCH  65  86
ENDBRANCH  39  40
ENDBRANCH  32  34
ENDBRANCH  31  32
ENDBRANCH   1  31
TORSDOF 16
