REMARK SMILES C[C@](Nc1ccc(C(N)=O)nn1)(C(=O)OCCOC(=O)c1ccc(-c2c3nc(c(-c4ccc(S(=O)(=O)[O-])cc4)c4ccc([nH]4)c(-c4ccc(S(=O)(=O)[O-])cc4)c4nc(c(-c5ccc(S(=O)(=O)[O-])cc5)c5ccc2[nH]5)C=C4)C=C3)cc1)c1ccccc1
REMARK SMILES IDX 16 1 15 2 13 3 14 4 2 5 1 6 81 7 82 8 86 9 83 10 85 11 84 12
REMARK SMILES IDX 3 13 4 15 5 16 12 17 6 18 11 19 7 20 8 21 9 22 10 23 17 26
REMARK SMILES IDX 18 27 19 28 20 29 21 30 22 31 80 32 23 33 79 34 24 35 25 36
REMARK SMILES IDX 26 37 73 38 27 39 78 40 72 41 74 42 28 43 77 44 71 45 70 46
REMARK SMILES IDX 29 48 59 49 40 50 58 51 41 52 44 53 57 54 75 55 42 56 43 57
REMARK SMILES IDX 56 59 76 60 45 61 30 62 31 63 39 64 32 65 38 66 33 67 34 68
REMARK SMILES IDX 35 69 36 70 37 71 60 72 61 73 69 74 62 75 68 76 63 77 64 78
REMARK SMILES IDX 65 79 66 80 67 81 46 82 47 83 55 84 48 85 54 86 49 87 50 88
REMARK SMILES IDX 51 89 52 90 53 91
REMARK H PARENT 3 14 9 24 9 25 74 47 44 58
REMARK Flexibility Score: inf
ROOT
ATOM      1  C   UNL     1      -2.959  -1.163  -0.808  1.00  0.00     0.274 C 
ENDROOT
BRANCH   1   2
ATOM      2  O   UNL     1      -1.539  -0.997  -0.635  1.00  0.00    -0.460 OA
BRANCH   2   3
ATOM      3  C   UNL     1      -0.786  -0.829  -1.766  1.00  0.00     0.336 C 
ATOM      4  O   UNL     1      -1.256  -0.778  -2.898  1.00  0.00    -0.249 OA
BRANCH   3   5
ATOM      5  C   UNL     1       0.753  -0.802  -1.441  1.00  0.00     0.160 C 
ATOM      6  C   UNL     1       1.282  -2.107  -2.072  1.00  0.00     0.053 C 
BRANCH   5   7
ATOM      7  C   UNL     1       1.397   0.458  -2.067  1.00  0.00    -0.012 A 
ATOM      8  C   UNL     1       1.863   0.476  -3.397  1.00  0.00     0.007 A 
ATOM      9  C   UNL     1       1.497   1.664  -1.339  1.00  0.00     0.007 A 
ATOM     10  C   UNL     1       2.426   1.628  -3.959  1.00  0.00     0.000 A 
ATOM     11  C   UNL     1       2.059   2.815  -1.903  1.00  0.00     0.000 A 
ATOM     12  C   UNL     1       2.528   2.796  -3.211  1.00  0.00     0.000 A 
ENDBRANCH   5   7
BRANCH   5  13
ATOM     13  N   UNL     1       0.945  -0.740   0.032  1.00  0.00    -0.350 N 
ATOM     14  H   UNL     1       0.719   0.123   0.447  1.00  0.00     0.163 HD
BRANCH  13  15
ATOM     15  C   UNL     1       1.388  -1.700   0.896  1.00  0.00     0.149 A 
ATOM     16  C   UNL     1       2.534  -2.457   0.710  1.00  0.00     0.051 A 
ATOM     17  N   UNL     1       0.654  -1.869   2.019  1.00  0.00    -0.132 NA
ATOM     18  C   UNL     1       2.883  -3.433   1.643  1.00  0.00     0.040 A 
ATOM     19  N   UNL     1       0.988  -2.813   2.957  1.00  0.00    -0.143 NA
ATOM     20  C   UNL     1       2.079  -3.581   2.754  1.00  0.00     0.150 A 
BRANCH  20  21
ATOM     21  C   UNL     1       2.383  -4.596   3.800  1.00  0.00     0.269 C 
ATOM     22  N   UNL     1       1.596  -4.553   4.921  1.00  0.00    -0.364 N 
ATOM     23  O   UNL     1       3.280  -5.420   3.676  1.00  0.00    -0.268 OA
ATOM     24  H   UNL     1       0.881  -3.880   4.995  1.00  0.00     0.160 HD
ATOM     25  H   UNL     1       1.745  -5.195   5.652  1.00  0.00     0.160 HD
ENDBRANCH  20  21
ENDBRANCH  13  15
ENDBRANCH   5  13
ENDBRANCH   3   5
ENDBRANCH   2   3
ENDBRANCH   1   2
BRANCH   1  26
ATOM     26  C   UNL     1      -3.717   0.071  -0.327  1.00  0.00     0.275 C 
BRANCH  26  27
ATOM     27  O   UNL     1      -3.465   1.186  -1.197  1.00  0.00    -0.458 OA
BRANCH  27  28
ATOM     28  C   UNL     1      -2.505   2.040  -0.772  1.00  0.00     0.338 C 
ATOM     29  O   UNL     1      -1.869   1.988   0.266  1.00  0.00    -0.246 OA
BRANCH  28  30
ATOM     30  C   UNL     1      -2.263   3.039  -1.817  1.00  0.00     0.060 A 
ATOM     31  C   UNL     1      -1.418   2.702  -2.872  1.00  0.00     0.016 A 
ATOM     32  C   UNL     1      -2.757   4.336  -1.689  1.00  0.00     0.016 A 
ATOM     33  C   UNL     1      -0.989   3.683  -3.758  1.00  0.00     0.010 A 
ATOM     34  C   UNL     1      -2.383   5.302  -2.628  1.00  0.00     0.010 A 
ATOM     35  C   UNL     1      -1.466   4.994  -3.650  1.00  0.00    -0.014 A 
BRANCH  35  36
ATOM     36  C   UNL     1      -0.965   6.054  -4.562  1.00  0.00     0.031 A 
ATOM     37  C   UNL     1      -0.258   7.255  -3.997  1.00  0.00     0.074 A 
ATOM     38  C   UNL     1      -1.127   5.950  -5.895  1.00  0.00     0.049 A 
ATOM     39  N   UNL     1       0.028   8.392  -4.577  1.00  0.00    -0.248 NA
ATOM     40  C   UNL     1       0.168   7.170  -2.591  1.00  0.00     0.031 C 
ATOM     41  C   UNL     1      -1.724   4.810  -6.594  1.00  0.00     0.029 A 
ATOM     42  N   UNL     1      -0.800   6.823  -6.902  1.00  0.00    -0.354 N 
ATOM     43  C   UNL     1       0.588   9.189  -3.586  1.00  0.00     0.074 A 
ATOM     44  C   UNL     1       0.632   8.393  -2.377  1.00  0.00     0.031 C 
ATOM     45  C   UNL     1      -1.694   5.041  -7.915  1.00  0.00     0.029 A 
ATOM     46  C   UNL     1      -1.162   6.379  -8.150  1.00  0.00     0.049 A 
ATOM     47  H   UNL     1      -0.350   7.685  -6.745  1.00  0.00     0.167 HD
ATOM     48  C   UNL     1       1.002  10.475  -3.673  1.00  0.00     0.031 A 
ATOM     49  C   UNL     1      -1.125   6.993  -9.348  1.00  0.00     0.031 A 
ATOM     50  C   UNL     1       1.002  11.243  -4.889  1.00  0.00     0.049 A 
ATOM     51  C   UNL     1      -0.656   8.414  -9.432  1.00  0.00     0.074 A 
ATOM     52  C   UNL     1       1.387  12.559  -5.080  1.00  0.00     0.029 A 
ATOM     53  N   UNL     1       0.621  10.754  -6.128  1.00  0.00    -0.354 N 
ATOM     54  N   UNL     1      -0.235   9.196  -8.467  1.00  0.00    -0.248 NA
ATOM     55  C   UNL     1      -0.684   9.046 -10.758  1.00  0.00     0.031 C 
ATOM     56  C   UNL     1       1.221  12.870  -6.436  1.00  0.00     0.029 A 
ATOM     57  C   UNL     1       0.760  11.738  -7.091  1.00  0.00     0.049 A 
ATOM     58  H   UNL     1       0.298   9.839  -6.299  1.00  0.00     0.167 HD
ATOM     59  C   UNL     1       0.038  10.419  -9.066  1.00  0.00     0.074 A 
ATOM     60  C   UNL     1      -0.240  10.266 -10.480  1.00  0.00     0.031 C 
ATOM     61  C   UNL     1       0.468  11.569  -8.491  1.00  0.00     0.031 A 
BRANCH  48  62
ATOM     62  C   UNL     1       1.415  11.146  -2.394  1.00  0.00    -0.014 A 
ATOM     63  C   UNL     1       2.666  10.904  -1.802  1.00  0.00     0.010 A 
ATOM     64  C   UNL     1       0.517  12.032  -1.768  1.00  0.00     0.010 A 
ATOM     65  C   UNL     1       2.993  11.498  -0.579  1.00  0.00     0.020 A 
ATOM     66  C   UNL     1       0.848  12.642  -0.556  1.00  0.00     0.020 A 
ATOM     67  C   UNL     1       2.075  12.352   0.043  1.00  0.00     0.054 A 
BRANCH  67  68
ATOM     68  S   UNL     1       2.504  13.105   1.637  1.00  0.00     0.124 S 
ATOM     69  O   UNL     1       2.154  12.040   2.574  1.00  0.00    -0.237 OA
ATOM     70  O   UNL     1       3.933  13.375   1.500  1.00  0.00    -0.237 OA
ATOM     71  O   UNL     1       1.654  14.292   1.694  1.00  0.00    -0.744 OA
ENDBRANCH  67  68
ENDBRANCH  48  62
BRANCH  49  72
ATOM     72  C   UNL     1      -1.617   6.261 -10.543  1.00  0.00    -0.014 A 
ATOM     73  C   UNL     1      -0.710   5.683 -11.445  1.00  0.00     0.010 A 
ATOM     74  C   UNL     1      -2.997   6.044 -10.717  1.00  0.00     0.010 A 
ATOM     75  C   UNL     1      -1.173   4.874 -12.487  1.00  0.00     0.020 A 
ATOM     76  C   UNL     1      -3.461   5.220 -11.745  1.00  0.00     0.020 A 
ATOM     77  C   UNL     1      -2.544   4.637 -12.622  1.00  0.00     0.054 A 
BRANCH  77  78
ATOM     78  S   UNL     1      -3.124   3.467 -13.884  1.00  0.00     0.124 S 
ATOM     79  O   UNL     1      -3.230   4.320 -15.062  1.00  0.00    -0.237 OA
ATOM     80  O   UNL     1      -2.056   2.470 -13.918  1.00  0.00    -0.237 OA
ATOM     81  O   UNL     1      -4.391   2.986 -13.337  1.00  0.00    -0.744 OA
ENDBRANCH  77  78
ENDBRANCH  49  72
BRANCH  61  82
ATOM     82  C   UNL     1       0.666  12.752  -9.393  1.00  0.00    -0.014 A 
ATOM     83  C   UNL     1      -0.428  13.542  -9.786  1.00  0.00     0.010 A 
ATOM     84  C   UNL     1       1.962  13.109  -9.804  1.00  0.00     0.010 A 
ATOM     85  C   UNL     1      -0.230  14.665 -10.593  1.00  0.00     0.020 A 
ATOM     86  C   UNL     1       2.164  14.239 -10.601  1.00  0.00     0.020 A 
ATOM     87  C   UNL     1       1.064  15.004 -10.999  1.00  0.00     0.054 A 
BRANCH  87  88
ATOM     88  S   UNL     1       1.309  16.493 -12.007  1.00  0.00     0.124 S 
ATOM     89  O   UNL     1       0.966  16.014 -13.343  1.00  0.00    -0.237 OA
ATOM     90  O   UNL     1       0.368  17.443 -11.419  1.00  0.00    -0.237 OA
ATOM     91  O   UNL     1       2.719  16.817 -11.802  1.00  0.00    -0.744 OA
ENDBRANCH  87  88
ENDBRANCH  61  82
ENDBRANCH  35  36
ENDBRANCH  28  30
ENDBRANCH  27  28
ENDBRANCH  26  27
ENDBRANCH   1  26
TORSDOF 18
