REMARK SMILES O=C(OCCOC(=O)c1cc(S(=O)(=O)Nc2cccc(Cl)c2)ccc1O)c1ccc(-c2c3nc(c(-c4ccc(S(=O)(=O)[O-])cc4)c4ccc([nH]4)c(-c4ccc(S(=O)(=O)[O-])cc4)c4nc(c(-c5ccc(S(=O)(=O)[O-])cc5)c5ccc2[nH]5)C=C4)C=C3)cc1
REMARK SMILES IDX 4 1 3 2 2 3 1 4 27 5 28 6 86 7 29 8 85 9 30 10 31 11 32 12
REMARK SMILES IDX 79 13 33 14 84 15 78 16 80 17 34 18 83 19 77 20 76 21 35 23
REMARK SMILES IDX 65 24 46 25 64 26 47 27 50 28 63 29 81 30 48 31 49 32 62 34
REMARK SMILES IDX 82 35 51 36 36 37 37 38 45 39 38 40 44 41 39 42 40 43 41 44
REMARK SMILES IDX 42 45 43 46 66 47 67 48 75 49 68 50 74 51 69 52 70 53 71 54
REMARK SMILES IDX 72 55 73 56 52 57 53 58 61 59 54 60 60 61 55 62 56 63 57 64
REMARK SMILES IDX 58 65 59 66 5 67 6 68 7 69 8 70 9 71 10 72 25 73 11 74 24 75
REMARK SMILES IDX 23 76 26 77 12 79 13 80 14 81 15 82 16 84 17 85 22 86 18 87
REMARK SMILES IDX 20 88 19 89 21 90
REMARK H PARENT 80 22 50 33 26 78 15 83
REMARK Flexibility Score: inf
ROOT
ATOM      1  C   UNL     1       3.897   1.559  -0.486  1.00  0.00     0.275 C 
ENDROOT
BRANCH   1   2
ATOM      2  O   UNL     1       2.857   0.670  -0.930  1.00  0.00    -0.458 OA
BRANCH   2   3
ATOM      3  C   UNL     1       2.667  -0.654  -0.724  1.00  0.00     0.338 C 
ATOM      4  O   UNL     1       1.675  -1.179  -1.230  1.00  0.00    -0.246 OA
BRANCH   3   5
ATOM      5  C   UNL     1       3.537  -1.521   0.137  1.00  0.00     0.060 A 
ATOM      6  C   UNL     1       4.863  -1.264   0.489  1.00  0.00     0.016 A 
ATOM      7  C   UNL     1       2.959  -2.715   0.615  1.00  0.00     0.016 A 
ATOM      8  C   UNL     1       5.565  -2.119   1.342  1.00  0.00     0.010 A 
ATOM      9  C   UNL     1       3.654  -3.570   1.480  1.00  0.00     0.010 A 
ATOM     10  C   UNL     1       4.965  -3.268   1.857  1.00  0.00    -0.014 A 
BRANCH  10  11
ATOM     11  C   UNL     1       5.762  -4.172   2.716  1.00  0.00     0.031 A 
ATOM     12  C   UNL     1       6.305  -5.440   2.132  1.00  0.00     0.074 A 
ATOM     13  C   UNL     1       6.080  -3.809   3.974  1.00  0.00     0.049 A 
ATOM     14  N   UNL     1       7.131  -6.295   2.671  1.00  0.00    -0.248 NA
ATOM     15  C   UNL     1       5.919  -5.756   0.747  1.00  0.00     0.031 C 
ATOM     16  C   UNL     1       5.715  -2.539   4.597  1.00  0.00     0.029 A 
ATOM     17  N   UNL     1       6.779  -4.460   4.957  1.00  0.00    -0.354 N 
ATOM     18  C   UNL     1       7.421  -7.211   1.670  1.00  0.00     0.074 A 
ATOM     19  C   UNL     1       6.620  -6.857   0.519  1.00  0.00     0.031 C 
ATOM     20  C   UNL     1       6.107  -2.537   5.881  1.00  0.00     0.029 A 
ATOM     21  C   UNL     1       6.798  -3.788   6.159  1.00  0.00     0.049 A 
ATOM     22  H   UNL     1       7.226  -5.326   4.818  1.00  0.00     0.167 HD
ATOM     23  C   UNL     1       8.313  -8.227   1.697  1.00  0.00     0.031 A 
ATOM     24  C   UNL     1       7.325  -4.135   7.348  1.00  0.00     0.031 A 
ATOM     25  C   UNL     1       9.060  -8.601   2.867  1.00  0.00     0.049 A 
ATOM     26  C   UNL     1       8.171  -5.374   7.405  1.00  0.00     0.074 A 
ATOM     27  C   UNL     1       9.954  -9.644   3.022  1.00  0.00     0.029 A 
ATOM     28  N   UNL     1       8.983  -7.950   4.090  1.00  0.00    -0.354 N 
ATOM     29  N   UNL     1       8.464  -6.208   6.435  1.00  0.00    -0.248 NA
ATOM     30  C   UNL     1       8.806  -5.688   8.690  1.00  0.00     0.031 C 
ATOM     31  C   UNL     1      10.377  -9.656   4.356  1.00  0.00     0.029 A 
ATOM     32  C   UNL     1       9.792  -8.586   5.016  1.00  0.00     0.049 A 
ATOM     33  H   UNL     1       8.435  -7.153   4.273  1.00  0.00     0.167 HD
ATOM     34  C   UNL     1       9.355  -7.121   6.979  1.00  0.00     0.074 A 
ATOM     35  C   UNL     1       9.558  -6.729   8.361  1.00  0.00     0.031 C 
ATOM     36  C   UNL     1       9.961  -8.181   6.389  1.00  0.00     0.031 A 
BRANCH  23  37
ATOM     37  C   UNL     1       8.508  -8.995   0.421  1.00  0.00    -0.014 A 
ATOM     38  C   UNL     1       9.196  -8.419  -0.664  1.00  0.00     0.010 A 
ATOM     39  C   UNL     1       8.006 -10.302   0.300  1.00  0.00     0.010 A 
ATOM     40  C   UNL     1       9.352  -9.126  -1.858  1.00  0.00     0.020 A 
ATOM     41  C   UNL     1       8.180 -11.020  -0.887  1.00  0.00     0.020 A 
ATOM     42  C   UNL     1       8.841 -10.422  -1.963  1.00  0.00     0.054 A 
BRANCH  42  43
ATOM     43  S   UNL     1       9.077 -11.325  -3.518  1.00  0.00     0.124 S 
ATOM     44  O   UNL     1       8.168 -10.620  -4.418  1.00  0.00    -0.237 OA
ATOM     45  O   UNL     1      10.500 -11.132  -3.786  1.00  0.00    -0.237 OA
ATOM     46  O   UNL     1       8.688 -12.694  -3.187  1.00  0.00    -0.744 OA
ENDBRANCH  42  43
ENDBRANCH  23  37
BRANCH  24  47
ATOM     47  C   UNL     1       7.079  -3.303   8.558  1.00  0.00    -0.014 A 
ATOM     48  C   UNL     1       8.110  -2.571   9.171  1.00  0.00     0.010 A 
ATOM     49  C   UNL     1       5.790  -3.268   9.124  1.00  0.00     0.010 A 
ATOM     50  C   UNL     1       7.868  -1.853  10.348  1.00  0.00     0.020 A 
ATOM     51  C   UNL     1       5.538  -2.534  10.287  1.00  0.00     0.020 A 
ATOM     52  C   UNL     1       6.584  -1.845  10.902  1.00  0.00     0.054 A 
BRANCH  52  53
ATOM     53  S   UNL     1       6.289  -0.906  12.427  1.00  0.00     0.124 S 
ATOM     54  O   UNL     1       6.965  -1.727  13.425  1.00  0.00    -0.237 OA
ATOM     55  O   UNL     1       6.916   0.379  12.129  1.00  0.00    -0.237 OA
ATOM     56  O   UNL     1       4.831  -0.871  12.525  1.00  0.00    -0.744 OA
ENDBRANCH  52  53
ENDBRANCH  24  47
BRANCH  36  57
ATOM     57  C   UNL     1      10.913  -8.973   7.240  1.00  0.00    -0.014 A 
ATOM     58  C   UNL     1      10.445  -9.791   8.283  1.00  0.00     0.010 A 
ATOM     59  C   UNL     1      12.293  -8.912   6.976  1.00  0.00     0.010 A 
ATOM     60  C   UNL     1      11.346 -10.501   9.078  1.00  0.00     0.020 A 
ATOM     61  C   UNL     1      13.194  -9.646   7.748  1.00  0.00     0.020 A 
ATOM     62  C   UNL     1      12.715 -10.421   8.807  1.00  0.00     0.054 A 
BRANCH  62  63
ATOM     63  S   UNL     1      13.863 -11.370   9.839  1.00  0.00     0.124 S 
ATOM     64  O   UNL     1      13.889 -10.581  11.067  1.00  0.00    -0.237 OA
ATOM     65  O   UNL     1      13.204 -12.670   9.940  1.00  0.00    -0.237 OA
ATOM     66  O   UNL     1      15.104 -11.366   9.068  1.00  0.00    -0.744 OA
ENDBRANCH  62  63
ENDBRANCH  36  57
ENDBRANCH  10  11
ENDBRANCH   3   5
ENDBRANCH   2   3
ENDBRANCH   1   2
BRANCH   1  67
ATOM     67  C   UNL     1       3.734   2.066   0.947  1.00  0.00     0.275 C 
BRANCH  67  68
ATOM     68  O   UNL     1       3.363   1.034   1.868  1.00  0.00    -0.458 OA
BRANCH  68  69
ATOM     69  C   UNL     1       2.059   1.005   2.254  1.00  0.00     0.342 C 
ATOM     70  O   UNL     1       1.160   1.729   1.859  1.00  0.00    -0.246 OA
BRANCH  69  71
ATOM     71  C   UNL     1       1.851  -0.174   3.120  1.00  0.00     0.103 A 
ATOM     72  C   UNL     1       0.856  -1.103   2.770  1.00  0.00     0.041 A 
ATOM     73  C   UNL     1       2.677  -0.416   4.221  1.00  0.00     0.130 A 
ATOM     74  C   UNL     1       0.809  -2.338   3.430  1.00  0.00     0.088 A 
ATOM     75  C   UNL     1       2.616  -1.641   4.875  1.00  0.00     0.048 A 
ATOM     76  C   UNL     1       1.764  -2.634   4.404  1.00  0.00     0.026 A 
BRANCH  73  77
ATOM     77  O   UNL     1       3.566   0.528   4.649  1.00  0.00    -0.507 OA
ATOM     78  H   UNL     1       3.614   1.357   4.215  1.00  0.00     0.293 HD
ENDBRANCH  73  77
BRANCH  74  79
ATOM     79  S   UNL     1      -0.349  -3.590   2.927  1.00  0.00     0.261 S 
ATOM     80  O   UNL     1      -1.332  -2.961   2.069  1.00  0.00    -0.201 OA
ATOM     81  O   UNL     1       0.421  -4.719   2.451  1.00  0.00    -0.201 OA
BRANCH  79  82
ATOM     82  N   UNL     1      -1.233  -4.131   4.290  1.00  0.00    -0.280 N 
ATOM     83  H   UNL     1      -2.206  -4.268   4.224  1.00  0.00     0.180 HD
BRANCH  82  84
ATOM     84  C   UNL     1      -0.553  -4.384   5.526  1.00  0.00     0.050 A 
ATOM     85  C   UNL     1      -0.430  -3.329   6.436  1.00  0.00     0.027 A 
ATOM     86  C   UNL     1       0.040  -5.618   5.800  1.00  0.00     0.047 A 
ATOM     87  C   UNL     1       0.322  -3.487   7.601  1.00  0.00     0.004 A 
ATOM     88  C   UNL     1       0.761  -5.779   6.988  1.00  0.00     0.043 A 
ATOM     89  C   UNL     1       0.919  -4.716   7.879  1.00  0.00     0.020 A 
ATOM     90  Cl  UNL     1       1.469  -7.303   7.358  1.00  0.00    -0.084 Cl
ENDBRANCH  82  84
ENDBRANCH  79  82
ENDBRANCH  74  79
ENDBRANCH  69  71
ENDBRANCH  68  69
ENDBRANCH  67  68
ENDBRANCH   1  67
TORSDOF 18
