REMARK SMILES CC[C@@H](NC(=O)NC1(CC(=O)OCCOC(=O)c2ccc(-c3c4nc(c(-c5ccc(S(=O)(=O)[O-])cc5)c5ccc([nH]5)c(-c5ccc(S(=O)(=O)[O-])cc5)c5nc(c(-c6ccc(S(=O)(=O)[O-])cc6)c6ccc3[nH]6)C=C5)C=C4)cc2)CCC1)C(C)C
REMARK SMILES IDX 13 1 12 2 10 3 11 4 9 5 8 6 78 7 80 8 79 9 7 10 4 11 5 12
REMARK SMILES IDX 6 14 3 16 2 17 1 18 81 19 82 20 83 21 14 22 15 23 16 24
REMARK SMILES IDX 17 25 18 26 19 27 77 28 20 29 76 30 21 31 22 32 23 33 70 34
REMARK SMILES IDX 24 35 75 36 69 37 71 38 25 39 74 40 68 41 67 42 26 44 56 45
REMARK SMILES IDX 37 46 55 47 38 48 41 49 54 50 72 51 39 52 40 53 53 55 73 56
REMARK SMILES IDX 42 57 27 58 28 59 36 60 29 61 35 62 30 63 31 64 32 65 33 66
REMARK SMILES IDX 34 67 57 68 58 69 66 70 59 71 65 72 60 73 61 74 62 75 63 76
REMARK SMILES IDX 64 77 43 78 44 79 52 80 45 81 51 82 46 83 47 84 48 85 49 86
REMARK SMILES IDX 50 87
REMARK H PARENT 4 13 7 15 71 43 41 54
REMARK Flexibility Score: inf
ROOT
ATOM      1  C   UNL     1      -2.702  -8.531  -1.080  1.00  0.00     0.274 C 
ENDROOT
BRANCH   1   2
ATOM      2  O   UNL     1      -1.785  -7.434  -1.205  1.00  0.00    -0.462 OA
BRANCH   2   3
ATOM      3  C   UNL     1      -2.147  -6.335  -1.903  1.00  0.00     0.308 C 
ATOM      4  O   UNL     1      -3.224  -6.185  -2.453  1.00  0.00    -0.252 OA
BRANCH   3   5
ATOM      5  C   UNL     1      -1.027  -5.324  -1.996  1.00  0.00     0.151 C 
BRANCH   5   6
ATOM      6  C   UNL     1       0.217  -5.534  -1.115  1.00  0.00     0.052 C 
ATOM      7  C   UNL     1       1.574  -5.164  -1.845  1.00  0.00     0.029 C 
ATOM      8  C   UNL     1       0.921  -6.982  -1.065  1.00  0.00     0.029 C 
ATOM      9  C   UNL     1       1.650  -6.605  -2.357  1.00  0.00     0.005 C 
BRANCH   6  10
ATOM     10  N   UNL     1       0.008  -5.039   0.292  1.00  0.00    -0.332 N 
ATOM     11  N   UNL     1      -0.702  -2.757   0.283  1.00  0.00    -0.335 N 
ATOM     12  C   UNL     1      -0.425  -3.919   0.929  1.00  0.00     0.315 C 
ATOM     13  H   UNL     1      -1.595  -2.613  -0.105  1.00  0.00     0.165 HD
ATOM     14  O   UNL     1      -0.658  -3.971   2.138  1.00  0.00    -0.249 OA
ATOM     15  H   UNL     1       0.260  -5.732   0.944  1.00  0.00     0.165 HD
BRANCH  11  16
ATOM     16  C   UNL     1       0.337  -1.706   0.162  1.00  0.00     0.086 C 
BRANCH  16  17
ATOM     17  C   UNL     1      -0.269  -0.304  -0.072  1.00  0.00     0.022 C 
ATOM     18  C   UNL     1       0.622   0.802   0.490  1.00  0.00     0.006 C 
ENDBRANCH  16  17
BRANCH  16  19
ATOM     19  C   UNL     1       1.363  -2.166  -0.888  1.00  0.00     0.005 C 
ATOM     20  C   UNL     1       1.534  -1.410  -2.200  1.00  0.00     0.009 C 
ATOM     21  C   UNL     1       2.699  -2.501  -0.224  1.00  0.00     0.009 C 
ENDBRANCH  16  19
ENDBRANCH  11  16
ENDBRANCH   6  10
ENDBRANCH   5   6
ENDBRANCH   3   5
ENDBRANCH   2   3
ENDBRANCH   1   2
BRANCH   1  22
ATOM     22  C   UNL     1      -3.052  -8.729   0.392  1.00  0.00     0.275 C 
BRANCH  22  23
ATOM     23  O   UNL     1      -3.785  -7.591   0.876  1.00  0.00    -0.458 OA
BRANCH  23  24
ATOM     24  C   UNL     1      -3.026  -6.632   1.452  1.00  0.00     0.338 C 
ATOM     25  O   UNL     1      -1.824  -6.699   1.694  1.00  0.00    -0.246 OA
BRANCH  24  26
ATOM     26  C   UNL     1      -3.857  -5.439   1.663  1.00  0.00     0.060 A 
ATOM     27  C   UNL     1      -3.806  -4.390   0.740  1.00  0.00     0.016 A 
ATOM     28  C   UNL     1      -4.669  -5.345   2.791  1.00  0.00     0.016 A 
ATOM     29  C   UNL     1      -4.547  -3.228   0.960  1.00  0.00     0.010 A 
ATOM     30  C   UNL     1      -5.443  -4.196   2.987  1.00  0.00     0.010 A 
ATOM     31  C   UNL     1      -5.382  -3.122   2.081  1.00  0.00    -0.014 A 
BRANCH  31  32
ATOM     32  C   UNL     1      -6.215  -1.908   2.300  1.00  0.00     0.031 A 
ATOM     33  C   UNL     1      -5.969  -1.013   3.485  1.00  0.00     0.074 A 
ATOM     34  C   UNL     1      -7.227  -1.631   1.454  1.00  0.00     0.049 A 
ATOM     35  N   UNL     1      -6.662   0.019   3.897  1.00  0.00    -0.248 NA
ATOM     36  C   UNL     1      -4.797  -1.322   4.318  1.00  0.00     0.031 C 
ATOM     37  C   UNL     1      -7.565  -2.405   0.258  1.00  0.00     0.029 A 
ATOM     38  N   UNL     1      -8.167  -0.630   1.479  1.00  0.00    -0.354 N 
ATOM     39  C   UNL     1      -6.031   0.466   5.052  1.00  0.00     0.074 A 
ATOM     40  C   UNL     1      -4.909  -0.420   5.284  1.00  0.00     0.031 C 
ATOM     41  C   UNL     1      -8.631  -1.848  -0.338  1.00  0.00     0.029 A 
ATOM     42  C   UNL     1      -9.089  -0.716   0.462  1.00  0.00     0.049 A 
ATOM     43  H   UNL     1      -8.180   0.081   2.160  1.00  0.00     0.167 HD
ATOM     44  C   UNL     1      -6.356   1.517   5.846  1.00  0.00     0.031 A 
ATOM     45  C   UNL     1     -10.198   0.008   0.214  1.00  0.00     0.031 A 
ATOM     46  C   UNL     1      -7.475   2.396   5.615  1.00  0.00     0.049 A 
ATOM     47  C   UNL     1     -10.569   1.133   1.139  1.00  0.00     0.074 A 
ATOM     48  C   UNL     1      -7.860   3.508   6.345  1.00  0.00     0.029 A 
ATOM     49  N   UNL     1      -8.395   2.261   4.585  1.00  0.00    -0.354 N 
ATOM     50  N   UNL     1      -9.946   1.557   2.212  1.00  0.00    -0.248 NA
ATOM     51  C   UNL     1     -11.792   1.881   0.815  1.00  0.00     0.031 C 
ATOM     52  C   UNL     1      -9.045   4.008   5.794  1.00  0.00     0.029 A 
ATOM     53  C   UNL     1      -9.363   3.249   4.680  1.00  0.00     0.049 A 
ATOM     54  H   UNL     1      -8.365   1.565   3.890  1.00  0.00     0.167 HD
ATOM     55  C   UNL     1     -10.690   2.635   2.680  1.00  0.00     0.074 A 
ATOM     56  C   UNL     1     -11.798   2.808   1.763  1.00  0.00     0.031 C 
ATOM     57  C   UNL     1     -10.472   3.410   3.771  1.00  0.00     0.031 A 
BRANCH  44  58
ATOM     58  C   UNL     1      -5.508   1.755   7.071  1.00  0.00    -0.014 A 
ATOM     59  C   UNL     1      -4.186   2.224   6.969  1.00  0.00     0.010 A 
ATOM     60  C   UNL     1      -6.061   1.549   8.349  1.00  0.00     0.010 A 
ATOM     61  C   UNL     1      -3.419   2.438   8.119  1.00  0.00     0.020 A 
ATOM     62  C   UNL     1      -5.308   1.790   9.502  1.00  0.00     0.020 A 
ATOM     63  C   UNL     1      -3.984   2.215   9.379  1.00  0.00     0.054 A 
BRANCH  63  64
ATOM     64  S   UNL     1      -2.970   2.513  10.854  1.00  0.00     0.124 S 
ATOM     65  O   UNL     1      -2.041   1.387  10.813  1.00  0.00    -0.237 OA
ATOM     66  O   UNL     1      -2.383   3.822  10.580  1.00  0.00    -0.237 OA
ATOM     67  O   UNL     1      -3.935   2.484  11.951  1.00  0.00    -0.744 OA
ENDBRANCH  63  64
ENDBRANCH  44  58
BRANCH  45  68
ATOM     68  C   UNL     1     -11.049  -0.331  -0.959  1.00  0.00    -0.014 A 
ATOM     69  C   UNL     1     -11.104   0.524  -2.073  1.00  0.00     0.010 A 
ATOM     70  C   UNL     1     -11.786  -1.530  -0.979  1.00  0.00     0.010 A 
ATOM     71  C   UNL     1     -11.885   0.190  -3.183  1.00  0.00     0.020 A 
ATOM     72  C   UNL     1     -12.544  -1.882  -2.099  1.00  0.00     0.020 A 
ATOM     73  C   UNL     1     -12.595  -1.015  -3.192  1.00  0.00     0.054 A 
BRANCH  73  74
ATOM     74  S   UNL     1     -13.544  -1.459  -4.673  1.00  0.00     0.124 S 
ATOM     75  O   UNL     1     -14.679  -0.545  -4.593  1.00  0.00    -0.237 OA
ATOM     76  O   UNL     1     -12.592  -1.194  -5.748  1.00  0.00    -0.237 OA
ATOM     77  O   UNL     1     -13.860  -2.871  -4.466  1.00  0.00    -0.744 OA
ENDBRANCH  73  74
ENDBRANCH  45  68
BRANCH  57  78
ATOM     78  C   UNL     1     -11.436   4.542   4.021  1.00  0.00    -0.014 A 
ATOM     79  C   UNL     1     -12.753   4.300   4.453  1.00  0.00     0.010 A 
ATOM     80  C   UNL     1     -11.006   5.871   3.855  1.00  0.00     0.010 A 
ATOM     81  C   UNL     1     -13.631   5.364   4.678  1.00  0.00     0.020 A 
ATOM     82  C   UNL     1     -11.872   6.939   4.108  1.00  0.00     0.020 A 
ATOM     83  C   UNL     1     -13.185   6.678   4.503  1.00  0.00     0.054 A 
BRANCH  83  84
ATOM     84  S   UNL     1     -14.334   8.043   4.833  1.00  0.00     0.124 S 
ATOM     85  O   UNL     1     -15.232   7.970   3.684  1.00  0.00    -0.237 OA
ATOM     86  O   UNL     1     -14.921   7.665   6.116  1.00  0.00    -0.237 OA
ATOM     87  O   UNL     1     -13.470   9.221   4.874  1.00  0.00    -0.744 OA
ENDBRANCH  83  84
ENDBRANCH  57  78
ENDBRANCH  31  32
ENDBRANCH  24  26
ENDBRANCH  23  24
ENDBRANCH  22  23
ENDBRANCH   1  22
TORSDOF 19
