REMARK SMILES CC[NH+](CC)[C@](C)(C(=O)OCCOC(=O)c1ccc(-c2c3nc(c(-c4ccc(S(=O)(=O)[O-])cc4)c4ccc([nH]4)c(-c4ccc(S(=O)(=O)[O-])cc4)c4nc(c(-c5ccc(S(=O)(=O)[O-])cc5)c5ccc2[nH]5)C=C4)C=C3)cc1)c1cc(F)c(C)cc1F
REMARK SMILES IDX 12 1 11 2 10 3 8 4 9 5 6 6 7 7 3 8 2 10 1 11 4 12 5 13 76 14
REMARK SMILES IDX 77 15 83 16 78 17 82 18 84 19 79 20 80 21 81 22 13 23 14 24
REMARK SMILES IDX 15 25 16 26 17 27 75 28 18 29 74 30 19 31 20 32 21 33 68 34
REMARK SMILES IDX 22 35 73 36 67 37 69 38 23 39 72 40 66 41 65 42 24 44 54 45
REMARK SMILES IDX 35 46 53 47 36 48 39 49 52 50 70 51 37 52 38 53 51 55 71 56
REMARK SMILES IDX 40 57 25 58 26 59 34 60 27 61 33 62 28 63 29 64 30 65 31 66
REMARK SMILES IDX 32 67 55 68 56 69 64 70 57 71 63 72 58 73 59 74 60 75 61 76
REMARK SMILES IDX 62 77 41 78 42 79 50 80 43 81 49 82 44 83 45 84 46 85 47 86
REMARK SMILES IDX 48 87
REMARK H PARENT 3 9 69 43 39 54
REMARK Flexibility Score: inf
ROOT
ATOM      1  C   UNL     1       2.712  -2.754  -0.314  1.00  0.00     0.275 C 
ENDROOT
BRANCH   1   2
ATOM      2  C   UNL     1       3.314  -1.372  -0.084  1.00  0.00     0.274 C 
BRANCH   2   3
ATOM      3  O   UNL     1       2.623  -0.394  -0.897  1.00  0.00    -0.457 OA
BRANCH   3   4
ATOM      4  C   UNL     1       3.386   0.615  -1.427  1.00  0.00     0.373 C 
ATOM      5  O   UNL     1       4.612   0.633  -1.363  1.00  0.00    -0.244 OA
BRANCH   4   6
ATOM      6  C   UNL     1       2.502   1.755  -2.082  1.00  0.00     0.221 C 
ATOM      7  C   UNL     1       1.008   1.327  -2.170  1.00  0.00     0.098 C 
BRANCH   6   8
ATOM      8  N   UNL     1       2.606   3.021  -1.236  1.00  0.00    -0.318 N 
ATOM      9  H   UNL     1       3.614   3.180  -1.265  1.00  0.00     0.349 HD
BRANCH   8  10
ATOM     10  C   UNL     1       2.235   2.917   0.196  1.00  0.00     0.259 C 
ATOM     11  C   UNL     1       3.091   2.060   1.117  1.00  0.00     0.071 C 
ENDBRANCH   8  10
BRANCH   8  12
ATOM     12  C   UNL     1       1.851   4.165  -1.812  1.00  0.00     0.259 C 
ATOM     13  C   UNL     1       2.467   5.512  -1.421  1.00  0.00     0.071 C 
ENDBRANCH   8  12
ENDBRANCH   6   8
BRANCH   6  14
ATOM     14  C   UNL     1       3.066   1.892  -3.542  1.00  0.00     0.062 A 
ATOM     15  C   UNL     1       2.797   0.881  -4.492  1.00  0.00     0.053 A 
ATOM     16  C   UNL     1       3.906   2.929  -3.986  1.00  0.00     0.133 A 
ATOM     17  C   UNL     1       3.288   0.944  -5.800  1.00  0.00     0.126 A 
ATOM     18  C   UNL     1       4.374   3.005  -5.307  1.00  0.00     0.046 A 
ATOM     19  F   UNL     1       4.297   3.910  -3.165  1.00  0.00    -0.206 F 
ATOM     20  F   UNL     1       3.006  -0.064  -6.636  1.00  0.00    -0.207 F 
ATOM     21  C   UNL     1       4.067   2.009  -6.234  1.00  0.00    -0.012 A 
ATOM     22  C   UNL     1       4.630   2.043  -7.623  1.00  0.00     0.047 C 
ENDBRANCH   6  14
ENDBRANCH   4   6
ENDBRANCH   3   4
ENDBRANCH   2   3
ENDBRANCH   1   2
BRANCH   1  23
ATOM     23  O   UNL     1       3.285  -3.243  -1.532  1.00  0.00    -0.458 OA
BRANCH  23  24
ATOM     24  C   UNL     1       2.435  -3.677  -2.486  1.00  0.00     0.338 C 
ATOM     25  O   UNL     1       1.261  -3.967  -2.360  1.00  0.00    -0.246 OA
BRANCH  24  26
ATOM     26  C   UNL     1       3.171  -3.647  -3.764  1.00  0.00     0.060 A 
ATOM     27  C   UNL     1       3.942  -2.523  -4.067  1.00  0.00     0.016 A 
ATOM     28  C   UNL     1       3.022  -4.670  -4.700  1.00  0.00     0.016 A 
ATOM     29  C   UNL     1       4.488  -2.384  -5.338  1.00  0.00     0.010 A 
ATOM     30  C   UNL     1       3.649  -4.558  -5.949  1.00  0.00     0.010 A 
ATOM     31  C   UNL     1       4.350  -3.390  -6.304  1.00  0.00    -0.014 A 
BRANCH  31  32
ATOM     32  C   UNL     1       4.834  -3.156  -7.700  1.00  0.00     0.031 A 
ATOM     33  C   UNL     1       3.877  -3.281  -8.861  1.00  0.00     0.074 A 
ATOM     34  C   UNL     1       6.091  -2.729  -7.950  1.00  0.00     0.049 A 
ATOM     35  N   UNL     1       4.135  -3.316 -10.145  1.00  0.00    -0.248 NA
ATOM     36  C   UNL     1       2.444  -3.389  -8.539  1.00  0.00     0.031 C 
ATOM     37  C   UNL     1       7.114  -2.446  -6.942  1.00  0.00     0.029 A 
ATOM     38  N   UNL     1       6.707  -2.409  -9.137  1.00  0.00    -0.354 N 
ATOM     39  C   UNL     1       2.914  -3.538 -10.773  1.00  0.00     0.074 A 
ATOM     40  C   UNL     1       1.910  -3.604  -9.733  1.00  0.00     0.031 C 
ATOM     41  C   UNL     1       8.181  -1.893  -7.540  1.00  0.00     0.029 A 
ATOM     42  C   UNL     1       7.981  -1.913  -8.985  1.00  0.00     0.049 A 
ATOM     43  H   UNL     1       6.276  -2.523 -10.015  1.00  0.00     0.167 HD
ATOM     44  C   UNL     1       2.655  -3.690 -12.094  1.00  0.00     0.031 A 
ATOM     45  C   UNL     1       8.909  -1.561  -9.897  1.00  0.00     0.031 A 
ATOM     46  C   UNL     1       3.640  -3.556 -13.133  1.00  0.00     0.049 A 
ATOM     47  C   UNL     1       8.622  -1.783 -11.356  1.00  0.00     0.074 A 
ATOM     48  C   UNL     1       3.493  -3.760 -14.495  1.00  0.00     0.029 A 
ATOM     49  N   UNL     1       4.948  -3.146 -12.929  1.00  0.00    -0.354 N 
ATOM     50  N   UNL     1       7.506  -2.169 -11.927  1.00  0.00    -0.248 NA
ATOM     51  C   UNL     1       9.739  -1.576 -12.289  1.00  0.00     0.031 C 
ATOM     52  C   UNL     1       4.723  -3.500 -15.111  1.00  0.00     0.029 A 
ATOM     53  C   UNL     1       5.622  -3.096 -14.137  1.00  0.00     0.049 A 
ATOM     54  H   UNL     1       5.340  -2.923 -12.054  1.00  0.00     0.167 HD
ATOM     55  C   UNL     1       7.795  -2.276 -13.282  1.00  0.00     0.074 A 
ATOM     56  C   UNL     1       9.175  -1.870 -13.453  1.00  0.00     0.031 C 
ATOM     57  C   UNL     1       6.996  -2.698 -14.292  1.00  0.00     0.031 A 
BRANCH  44  58
ATOM     58  C   UNL     1       1.263  -4.104 -12.482  1.00  0.00    -0.014 A 
ATOM     59  C   UNL     1       0.196  -3.191 -12.513  1.00  0.00     0.010 A 
ATOM     60  C   UNL     1       1.032  -5.444 -12.846  1.00  0.00     0.010 A 
ATOM     61  C   UNL     1      -1.087  -3.620 -12.867  1.00  0.00     0.020 A 
ATOM     62  C   UNL     1      -0.243  -5.872 -13.221  1.00  0.00     0.020 A 
ATOM     63  C   UNL     1      -1.300  -4.960 -13.211  1.00  0.00     0.054 A 
BRANCH  63  64
ATOM     64  S   UNL     1      -2.970  -5.496 -13.674  1.00  0.00     0.124 S 
ATOM     65  O   UNL     1      -3.632  -5.571 -12.374  1.00  0.00    -0.237 OA
ATOM     66  O   UNL     1      -3.425  -4.419 -14.549  1.00  0.00    -0.237 OA
ATOM     67  O   UNL     1      -2.752  -6.780 -14.335  1.00  0.00    -0.744 OA
ENDBRANCH  63  64
ENDBRANCH  44  58
BRANCH  45  68
ATOM     68  C   UNL     1      10.242  -1.063  -9.454  1.00  0.00    -0.014 A 
ATOM     69  C   UNL     1      10.643   0.257  -9.725  1.00  0.00     0.010 A 
ATOM     70  C   UNL     1      11.120  -1.913  -8.756  1.00  0.00     0.010 A 
ATOM     71  C   UNL     1      11.897   0.715  -9.308  1.00  0.00     0.020 A 
ATOM     72  C   UNL     1      12.357  -1.449  -8.307  1.00  0.00     0.020 A 
ATOM     73  C   UNL     1      12.745  -0.141  -8.598  1.00  0.00     0.054 A 
BRANCH  73  74
ATOM     74  S   UNL     1      14.343   0.478  -8.003  1.00  0.00     0.124 S 
ATOM     75  O   UNL     1      15.184   0.327  -9.186  1.00  0.00    -0.237 OA
ATOM     76  O   UNL     1      14.034   1.853  -7.617  1.00  0.00    -0.237 OA
ATOM     77  O   UNL     1      14.657  -0.415  -6.890  1.00  0.00    -0.744 OA
ENDBRANCH  73  74
ENDBRANCH  45  68
BRANCH  57  78
ATOM     78  C   UNL     1       7.593  -2.746 -15.670  1.00  0.00    -0.014 A 
ATOM     79  C   UNL     1       8.474  -3.780 -16.033  1.00  0.00     0.010 A 
ATOM     80  C   UNL     1       7.234  -1.780 -16.625  1.00  0.00     0.010 A 
ATOM     81  C   UNL     1       9.005  -3.834 -17.324  1.00  0.00     0.020 A 
ATOM     82  C   UNL     1       7.748  -1.841 -17.923  1.00  0.00     0.020 A 
ATOM     83  C   UNL     1       8.640  -2.862 -18.261  1.00  0.00     0.054 A 
BRANCH  83  84
ATOM     84  S   UNL     1       9.304  -2.977 -19.945  1.00  0.00     0.124 S 
ATOM     85  O   UNL     1      10.664  -2.473 -19.770  1.00  0.00    -0.237 OA
ATOM     86  O   UNL     1       9.196  -4.404 -20.240  1.00  0.00    -0.237 OA
ATOM     87  O   UNL     1       8.416  -2.118 -20.725  1.00  0.00    -0.744 OA
ENDBRANCH  83  84
ENDBRANCH  57  78
ENDBRANCH  31  32
ENDBRANCH  24  26
ENDBRANCH  23  24
ENDBRANCH   1  23
TORSDOF 18
