REMARK SMILES C[C@@H](C(=O)OCCOC(=O)c1ccc(-c2c3nc(c(-c4ccc(S(=O)(=O)[O-])cc4)c4ccc([nH]4)c(-c4ccc(S(=O)(=O)[O-])cc4)c4nc(c(-c5ccc(S(=O)(=O)[O-])cc5)c5ccc2[nH]5)C=C4)C=C3)cc1)[C@H](C)[S@@](=O)c1ccc(F)c(F)c1
REMARK SMILES IDX 6 1 5 2 3 3 4 4 2 5 1 6 71 7 72 8 73 9 74 10 75 11 76 12
REMARK SMILES IDX 82 13 77 14 80 15 78 16 81 17 79 18 7 19 8 20 9 21 10 22
REMARK SMILES IDX 11 23 12 24 70 25 13 26 69 27 14 28 15 29 16 30 63 31 17 32
REMARK SMILES IDX 68 33 62 34 64 35 18 36 67 37 61 38 60 39 19 41 49 42 30 43
REMARK SMILES IDX 48 44 31 45 34 46 47 47 65 48 32 49 33 50 46 52 66 53 35 54
REMARK SMILES IDX 20 55 21 56 29 57 22 58 28 59 23 60 24 61 25 62 26 63 27 64
REMARK SMILES IDX 50 65 51 66 59 67 52 68 58 69 53 70 54 71 55 72 56 73 57 74
REMARK SMILES IDX 36 75 37 76 45 77 38 78 44 79 39 80 40 81 41 82 42 83 43 84
REMARK H PARENT 64 40 34 51
REMARK Flexibility Score: inf
ROOT
ATOM      1  C   UNL     1      -2.990  -2.764   1.159  1.00  0.00     0.274 C 
ENDROOT
BRANCH   1   2
ATOM      2  O   UNL     1      -2.629  -1.562   1.873  1.00  0.00    -0.462 OA
BRANCH   2   3
ATOM      3  C   UNL     1      -1.593  -0.839   1.369  1.00  0.00     0.309 C 
ATOM      4  O   UNL     1      -0.859  -1.237   0.473  1.00  0.00    -0.252 OA
BRANCH   3   5
ATOM      5  C   UNL     1      -1.409   0.512   2.083  1.00  0.00     0.112 C 
ATOM      6  C   UNL     1      -2.744   0.963   2.688  1.00  0.00     0.021 C 
BRANCH   5   7
ATOM      7  C   UNL     1      -0.753   1.504   1.081  1.00  0.00     0.095 C 
ATOM      8  C   UNL     1       0.760   1.319   0.903  1.00  0.00     0.023 C 
BRANCH   7   9
ATOM      9  S   UNL     1      -1.139   3.275   1.183  1.00  0.00     0.057 S 
ATOM     10  O   UNL     1      -2.621   3.457   1.055  1.00  0.00    -0.254 OA
BRANCH   9  11
ATOM     11  C   UNL     1      -0.722   3.856   2.832  1.00  0.00     0.042 A 
ATOM     12  C   UNL     1      -0.022   3.125   3.796  1.00  0.00     0.021 A 
ATOM     13  C   UNL     1      -1.125   5.166   3.145  1.00  0.00     0.060 A 
ATOM     14  C   UNL     1       0.250   3.678   5.053  1.00  0.00     0.043 A 
ATOM     15  C   UNL     1      -0.841   5.715   4.390  1.00  0.00     0.160 A 
ATOM     16  C   UNL     1      -0.161   4.972   5.342  1.00  0.00     0.158 A 
ATOM     17  F   UNL     1      -1.226   6.969   4.663  1.00  0.00    -0.204 F 
ATOM     18  F   UNL     1       0.108   5.493   6.547  1.00  0.00    -0.204 F 
ENDBRANCH   9  11
ENDBRANCH   7   9
ENDBRANCH   5   7
ENDBRANCH   3   5
ENDBRANCH   2   3
ENDBRANCH   1   2
BRANCH   1  19
ATOM     19  C   UNL     1      -4.204  -2.489   0.276  1.00  0.00     0.275 C 
BRANCH  19  20
ATOM     20  O   UNL     1      -3.836  -1.529  -0.729  1.00  0.00    -0.458 OA
BRANCH  20  21
ATOM     21  C   UNL     1      -4.758  -0.583  -1.020  1.00  0.00     0.338 C 
ATOM     22  O   UNL     1      -5.894  -0.513  -0.569  1.00  0.00    -0.246 OA
BRANCH  21  23
ATOM     23  C   UNL     1      -4.200   0.380  -1.996  1.00  0.00     0.060 A 
ATOM     24  C   UNL     1      -2.843   0.702  -1.996  1.00  0.00     0.016 A 
ATOM     25  C   UNL     1      -5.054   1.020  -2.894  1.00  0.00     0.016 A 
ATOM     26  C   UNL     1      -2.358   1.726  -2.813  1.00  0.00     0.010 A 
ATOM     27  C   UNL     1      -4.542   1.961  -3.796  1.00  0.00     0.010 A 
ATOM     28  C   UNL     1      -3.192   2.355  -3.748  1.00  0.00    -0.014 A 
BRANCH  28  29
ATOM     29  C   UNL     1      -2.679   3.424  -4.661  1.00  0.00     0.031 A 
ATOM     30  C   UNL     1      -3.385   4.759  -4.741  1.00  0.00     0.074 A 
ATOM     31  C   UNL     1      -1.602   3.213  -5.448  1.00  0.00     0.049 A 
ATOM     32  N   UNL     1      -3.264   5.706  -5.638  1.00  0.00    -0.248 NA
ATOM     33  C   UNL     1      -4.373   5.054  -3.691  1.00  0.00     0.031 C 
ATOM     34  C   UNL     1      -0.781   2.000  -5.471  1.00  0.00     0.029 A 
ATOM     35  N   UNL     1      -1.007   4.025  -6.386  1.00  0.00    -0.354 N 
ATOM     36  C   UNL     1      -4.219   6.664  -5.311  1.00  0.00     0.074 A 
ATOM     37  C   UNL     1      -4.901   6.190  -4.126  1.00  0.00     0.031 C 
ATOM     38  C   UNL     1       0.235   2.168  -6.331  1.00  0.00     0.029 A 
ATOM     39  C   UNL     1       0.084   3.454  -7.000  1.00  0.00     0.049 A 
ATOM     40  H   UNL     1      -1.332   4.930  -6.598  1.00  0.00     0.167 HD
ATOM     41  C   UNL     1      -4.508   7.827  -5.946  1.00  0.00     0.031 A 
ATOM     42  C   UNL     1       0.855   3.884  -8.019  1.00  0.00     0.031 A 
ATOM     43  C   UNL     1      -3.780   8.339  -7.077  1.00  0.00     0.049 A 
ATOM     44  C   UNL     1       0.527   5.181  -8.700  1.00  0.00     0.074 A 
ATOM     45  C   UNL     1      -3.984   9.522  -7.769  1.00  0.00     0.029 A 
ATOM     46  N   UNL     1      -2.689   7.718  -7.665  1.00  0.00    -0.354 N 
ATOM     47  N   UNL     1      -0.433   6.031  -8.429  1.00  0.00    -0.248 NA
ATOM     48  C   UNL     1       1.371   5.562  -9.841  1.00  0.00     0.031 C 
ATOM     49  C   UNL     1      -3.033   9.602  -8.793  1.00  0.00     0.029 A 
ATOM     50  C   UNL     1      -2.213   8.489  -8.712  1.00  0.00     0.049 A 
ATOM     51  H   UNL     1      -2.309   6.856  -7.380  1.00  0.00     0.167 HD
ATOM     52  C   UNL     1      -0.308   7.050  -9.367  1.00  0.00     0.074 A 
ATOM     53  C   UNL     1       0.835   6.723 -10.195  1.00  0.00     0.031 C 
ATOM     54  C   UNL     1      -1.078   8.152  -9.531  1.00  0.00     0.031 A 
BRANCH  41  55
ATOM     55  C   UNL     1      -5.697   8.613  -5.458  1.00  0.00    -0.014 A 
ATOM     56  C   UNL     1      -5.655   9.357  -4.267  1.00  0.00     0.010 A 
ATOM     57  C   UNL     1      -6.867   8.641  -6.242  1.00  0.00     0.010 A 
ATOM     58  C   UNL     1      -6.774  10.085  -3.850  1.00  0.00     0.020 A 
ATOM     59  C   UNL     1      -7.978   9.387  -5.841  1.00  0.00     0.020 A 
ATOM     60  C   UNL     1      -7.931  10.091  -4.637  1.00  0.00     0.054 A 
BRANCH  60  61
ATOM     61  S   UNL     1      -9.361  11.065  -4.091  1.00  0.00     0.124 S 
ATOM     62  O   UNL     1      -9.931  10.207  -3.054  1.00  0.00    -0.237 OA
ATOM     63  O   UNL     1      -8.749  12.303  -3.614  1.00  0.00    -0.237 OA
ATOM     64  O   UNL     1     -10.169  11.201  -5.300  1.00  0.00    -0.744 OA
ENDBRANCH  60  61
ENDBRANCH  41  55
BRANCH  42  65
ATOM     65  C   UNL     1       1.990   3.044  -8.490  1.00  0.00    -0.014 A 
ATOM     66  C   UNL     1       3.316   3.432  -8.231  1.00  0.00     0.010 A 
ATOM     67  C   UNL     1       1.749   1.837  -9.171  1.00  0.00     0.010 A 
ATOM     68  C   UNL     1       4.381   2.625  -8.643  1.00  0.00     0.020 A 
ATOM     69  C   UNL     1       2.810   1.016  -9.560  1.00  0.00     0.020 A 
ATOM     70  C   UNL     1       4.121   1.419  -9.299  1.00  0.00     0.054 A 
BRANCH  70  71
ATOM     71  S   UNL     1       5.510   0.341  -9.748  1.00  0.00     0.124 S 
ATOM     72  O   UNL     1       5.992   0.962 -10.977  1.00  0.00    -0.237 OA
ATOM     73  O   UNL     1       6.394   0.458  -8.590  1.00  0.00    -0.237 OA
ATOM     74  O   UNL     1       4.883  -0.969  -9.909  1.00  0.00    -0.744 OA
ENDBRANCH  70  71
ENDBRANCH  42  65
BRANCH  54  75
ATOM     75  C   UNL     1      -0.695   9.099 -10.634  1.00  0.00    -0.014 A 
ATOM     76  C   UNL     1      -0.981   8.798 -11.977  1.00  0.00     0.010 A 
ATOM     77  C   UNL     1      -0.072  10.319 -10.319  1.00  0.00     0.010 A 
ATOM     78  C   UNL     1      -0.622   9.689 -12.991  1.00  0.00     0.020 A 
ATOM     79  C   UNL     1       0.271  11.222 -11.329  1.00  0.00     0.020 A 
ATOM     80  C   UNL     1       0.008  10.894 -12.661  1.00  0.00     0.054 A 
BRANCH  80  81
ATOM     81  S   UNL     1       0.439  12.052 -13.989  1.00  0.00     0.124 S 
ATOM     82  O   UNL     1       1.647  11.445 -14.540  1.00  0.00    -0.237 OA
ATOM     83  O   UNL     1      -0.738  12.007 -14.854  1.00  0.00    -0.237 OA
ATOM     84  O   UNL     1       0.640  13.319 -13.289  1.00  0.00    -0.744 OA
ENDBRANCH  80  81
ENDBRANCH  54  75
ENDBRANCH  28  29
ENDBRANCH  21  23
ENDBRANCH  20  21
ENDBRANCH  19  20
ENDBRANCH   1  19
TORSDOF 17
