REMARK SMILES CC1=Nc2c(c(C)nn2-c2ccc(F)cc2)[C@H](c2ccc(C(=O)OCCOC(=O)c3ccc(-c4c5nc(c(-c6ccc(S(=O)(=O)[O-])cc6)c6ccc([nH]6)c(-c6ccc(S(=O)(=O)[O-])cc6)c6nc(c(-c7ccc(S(=O)(=O)[O-])cc7)c7ccc4[nH]7)C=C6)C=C5)cc3)cc2)S1
REMARK SMILES IDX 26 1 25 2 24 3 22 4 23 5 21 6 18 7 19 8 91 9 20 10 90 11
REMARK SMILES IDX 17 12 1 13 2 14 3 15 92 16 4 17 5 18 9 19 6 20 8 21 7 22
REMARK SMILES IDX 10 23 11 24 16 25 12 26 15 27 13 28 14 29 27 30 28 31 29 32
REMARK SMILES IDX 30 33 31 34 89 35 32 36 88 37 33 38 34 39 35 40 82 41 36 42
REMARK SMILES IDX 87 43 81 44 83 45 37 46 86 47 80 48 79 49 38 51 68 52 49 53
REMARK SMILES IDX 67 54 50 55 53 56 66 57 84 58 51 59 52 60 65 62 85 63 54 64
REMARK SMILES IDX 39 65 40 66 48 67 41 68 47 69 42 70 43 71 44 72 45 73 46 74
REMARK SMILES IDX 69 75 70 76 78 77 71 78 77 79 72 80 73 81 74 82 75 83 76 84
REMARK SMILES IDX 55 85 56 86 64 87 57 88 63 89 58 90 59 91 60 92 61 93 62 94
REMARK H PARENT 83 50 53 61
REMARK Flexibility Score: inf
ROOT
ATOM      1  C   UNL     1       3.151   1.452   9.616  1.00  0.00     0.275 C 
ENDROOT
BRANCH   1   2
ATOM      2  C   UNL     1       2.056   0.424   9.371  1.00  0.00     0.275 C 
BRANCH   2   3
ATOM      3  O   UNL     1       1.534   0.535   8.036  1.00  0.00    -0.458 OA
BRANCH   3   4
ATOM      4  C   UNL     1       0.473   1.371   7.902  1.00  0.00     0.338 C 
ATOM      5  O   UNL     1      -0.179   1.851   8.821  1.00  0.00    -0.246 OA
BRANCH   4   6
ATOM      6  C   UNL     1       0.214   1.703   6.477  1.00  0.00     0.060 A 
ATOM      7  C   UNL     1      -0.468   2.371   3.806  1.00  0.00    -0.030 A 
ATOM      8  C   UNL     1      -0.984   3.096   4.897  1.00  0.00     0.006 A 
ATOM      9  C   UNL     1       0.458   1.348   4.088  1.00  0.00     0.006 A 
ATOM     10  C   UNL     1      -0.640   2.776   6.211  1.00  0.00     0.016 A 
ATOM     11  C   UNL     1       0.785   1.006   5.409  1.00  0.00     0.016 A 
BRANCH   7  12
ATOM     12  C   UNL     1      -0.985   2.693   2.409  1.00  0.00     0.119 C 
ATOM     13  C   UNL     1       0.771  -0.072  -0.115  1.00  0.00     0.075 C 
ATOM     14  C   UNL     1       0.334   1.256   0.443  1.00  0.00     0.074 C 
ATOM     15  N   UNL     1       1.063   2.291   0.177  1.00  0.00    -0.227 NA
ATOM     16  S   UNL     1      -1.186   1.233   1.327  1.00  0.00    -0.098 SA
ATOM     17  C   UNL     1       0.727   3.474   0.745  1.00  0.00     0.161 A 
ATOM     18  C   UNL     1      -0.123   3.730   1.798  1.00  0.00     0.038 A 
ATOM     19  N   UNL     1       1.288   4.689   0.384  1.00  0.00    -0.215 N 
ATOM     20  C   UNL     1       0.002   5.126   2.028  1.00  0.00     0.067 A 
ATOM     21  N   UNL     1       0.924   5.681   1.231  1.00  0.00    -0.171 NA
ATOM     22  C   UNL     1      -0.728   5.988   2.992  1.00  0.00     0.069 C 
BRANCH  19  23
ATOM     23  C   UNL     1       2.086   4.959  -0.753  1.00  0.00     0.067 A 
ATOM     24  C   UNL     1       1.774   4.358  -1.983  1.00  0.00     0.031 A 
ATOM     25  C   UNL     1       3.188   5.815  -0.639  1.00  0.00     0.031 A 
ATOM     26  C   UNL     1       2.579   4.600  -3.094  1.00  0.00     0.041 A 
ATOM     27  C   UNL     1       4.020   6.007  -1.744  1.00  0.00     0.041 A 
ATOM     28  C   UNL     1       3.707   5.403  -2.958  1.00  0.00     0.123 A 
ATOM     29  F   UNL     1       4.503   5.593  -4.019  1.00  0.00    -0.207 F 
ENDBRANCH  19  23
ENDBRANCH   7  12
ENDBRANCH   4   6
ENDBRANCH   3   4
ENDBRANCH   2   3
ENDBRANCH   1   2
BRANCH   1  30
ATOM     30  O   UNL     1       2.642   2.787   9.643  1.00  0.00    -0.458 OA
BRANCH  30  31
ATOM     31  C   UNL     1       2.765   3.455   8.472  1.00  0.00     0.338 C 
ATOM     32  O   UNL     1       2.829   2.975   7.354  1.00  0.00    -0.246 OA
BRANCH  31  33
ATOM     33  C   UNL     1       3.081   4.860   8.752  1.00  0.00     0.060 A 
ATOM     34  C   UNL     1       3.131   5.744   7.668  1.00  0.00     0.016 A 
ATOM     35  C   UNL     1       3.578   5.215  10.014  1.00  0.00     0.016 A 
ATOM     36  C   UNL     1       3.790   6.948   7.824  1.00  0.00     0.010 A 
ATOM     37  C   UNL     1       4.253   6.404  10.161  1.00  0.00     0.010 A 
ATOM     38  C   UNL     1       4.396   7.235   9.052  1.00  0.00    -0.014 A 
BRANCH  38  39
ATOM     39  C   UNL     1       5.087   8.500   9.202  1.00  0.00     0.031 A 
ATOM     40  C   UNL     1       4.176   9.660   9.322  1.00  0.00     0.074 A 
ATOM     41  C   UNL     1       6.414   8.590   9.405  1.00  0.00     0.049 A 
ATOM     42  N   UNL     1       4.026  10.642   8.497  1.00  0.00    -0.248 NA
ATOM     43  C   UNL     1       3.202   9.643  10.427  1.00  0.00     0.031 C 
ATOM     44  C   UNL     1       7.358   7.494   9.635  1.00  0.00     0.029 A 
ATOM     45  N   UNL     1       7.176   9.702   9.585  1.00  0.00    -0.354 N 
ATOM     46  C   UNL     1       3.096  11.485   9.094  1.00  0.00     0.074 A 
ATOM     47  C   UNL     1       2.479  10.727  10.153  1.00  0.00     0.031 C 
ATOM     48  C   UNL     1       8.500   7.999  10.153  1.00  0.00     0.029 A 
ATOM     49  C   UNL     1       8.409   9.451  10.173  1.00  0.00     0.049 A 
ATOM     50  H   UNL     1       6.881  10.604   9.322  1.00  0.00     0.167 HD
ATOM     51  C   UNL     1       3.101  12.827   8.868  1.00  0.00     0.031 A 
ATOM     52  C   UNL     1       9.247  10.370  10.715  1.00  0.00     0.031 A 
ATOM     53  C   UNL     1       3.877  13.174   7.707  1.00  0.00     0.049 A 
ATOM     54  C   UNL     1       8.865  11.698  10.173  1.00  0.00     0.074 A 
ATOM     55  C   UNL     1       3.840  12.826   6.371  1.00  0.00     0.029 A 
ATOM     56  N   UNL     1       5.121  13.719   7.926  1.00  0.00    -0.354 N 
ATOM     57  N   UNL     1       9.014  12.040   8.925  1.00  0.00    -0.248 NA
ATOM     58  C   UNL     1       7.928  12.515  10.931  1.00  0.00     0.031 C 
ATOM     59  C   UNL     1       5.205  12.760   5.967  1.00  0.00     0.029 A 
ATOM     60  C   UNL     1       5.997  13.123   7.058  1.00  0.00     0.049 A 
ATOM     61  H   UNL     1       5.342  14.412   8.589  1.00  0.00     0.167 HD
ATOM     62  C   UNL     1       7.900  12.812   8.629  1.00  0.00     0.074 A 
ATOM     63  C   UNL     1       7.333  13.166   9.927  1.00  0.00     0.031 C 
ATOM     64  C   UNL     1       7.387  12.854   7.364  1.00  0.00     0.031 A 
BRANCH  51  65
ATOM     65  C   UNL     1       2.777  13.834   9.947  1.00  0.00    -0.014 A 
ATOM     66  C   UNL     1       2.769  15.203   9.617  1.00  0.00     0.010 A 
ATOM     67  C   UNL     1       2.771  13.508  11.321  1.00  0.00     0.010 A 
ATOM     68  C   UNL     1       2.837  16.189  10.610  1.00  0.00     0.020 A 
ATOM     69  C   UNL     1       2.787  14.481  12.319  1.00  0.00     0.020 A 
ATOM     70  C   UNL     1       2.863  15.817  11.955  1.00  0.00     0.054 A 
BRANCH  70  71
ATOM     71  S   UNL     1       3.076  17.083  13.227  1.00  0.00     0.124 S 
ATOM     72  O   UNL     1       4.446  17.523  12.982  1.00  0.00    -0.237 OA
ATOM     73  O   UNL     1       2.029  18.042  12.886  1.00  0.00    -0.237 OA
ATOM     74  O   UNL     1       2.863  16.353  14.475  1.00  0.00    -0.744 OA
ENDBRANCH  70  71
ENDBRANCH  51  65
BRANCH  52  75
ATOM     75  C   UNL     1      10.142  10.212  11.888  1.00  0.00    -0.014 A 
ATOM     76  C   UNL     1      11.105  11.190  12.199  1.00  0.00     0.010 A 
ATOM     77  C   UNL     1       9.870   9.231  12.864  1.00  0.00     0.010 A 
ATOM     78  C   UNL     1      11.720  11.226  13.462  1.00  0.00     0.020 A 
ATOM     79  C   UNL     1      10.487   9.252  14.120  1.00  0.00     0.020 A 
ATOM     80  C   UNL     1      11.390  10.267  14.423  1.00  0.00     0.054 A 
BRANCH  80  81
ATOM     81  S   UNL     1      12.041  10.428  16.112  1.00  0.00     0.124 S 
ATOM     82  O   UNL     1      13.451  10.091  15.935  1.00  0.00    -0.237 OA
ATOM     83  O   UNL     1      11.759  11.824  16.430  1.00  0.00    -0.237 OA
ATOM     84  O   UNL     1      11.262   9.453  16.875  1.00  0.00    -0.744 OA
ENDBRANCH  80  81
ENDBRANCH  52  75
BRANCH  64  85
ATOM     85  C   UNL     1       8.241  12.353   6.222  1.00  0.00    -0.014 A 
ATOM     86  C   UNL     1       8.735  11.037   6.129  1.00  0.00     0.010 A 
ATOM     87  C   UNL     1       8.431  13.219   5.131  1.00  0.00     0.010 A 
ATOM     88  C   UNL     1       9.430  10.614   4.986  1.00  0.00     0.020 A 
ATOM     89  C   UNL     1       9.103  12.797   3.982  1.00  0.00     0.020 A 
ATOM     90  C   UNL     1       9.610  11.499   3.919  1.00  0.00     0.054 A 
BRANCH  90  91
ATOM     91  S   UNL     1      10.473  10.934   2.426  1.00  0.00     0.124 S 
ATOM     92  O   UNL     1      11.848  10.779   2.894  1.00  0.00    -0.237 OA
ATOM     93  O   UNL     1       9.776   9.693   2.098  1.00  0.00    -0.237 OA
ATOM     94  O   UNL     1      10.265  12.022   1.471  1.00  0.00    -0.744 OA
ENDBRANCH  90  91
ENDBRANCH  64  85
ENDBRANCH  38  39
ENDBRANCH  31  33
ENDBRANCH  30  31
ENDBRANCH   1  30
TORSDOF 16
