REMARK SMILES COC(=O)C1=C(C)NC(C)=C(C(=O)OC)C1c1ccc(C(=O)OCCOC(=O)c2ccc(-c3c4nc(c(-c5ccc(S(=O)(=O)[O-])cc5)c5ccc([nH]5)c(-c5ccc(S(=O)(=O)[O-])cc5)c5nc(c(-c6ccc(S(=O)(=O)[O-])cc6)c6ccc3[nH]6)C=C5)C=C4)cc2)cc1
REMARK SMILES IDX 24 1 23 2 21 3 22 4 20 5 17 6 18 7 90 8 19 9 89 10 16 11
REMARK SMILES IDX 5 12 6 13 7 14 8 15 11 16 9 17 10 19 3 20 4 21 2 22 1 23
REMARK SMILES IDX 12 24 13 25 14 26 15 27 25 28 26 29 27 30 28 31 29 32 30 33
REMARK SMILES IDX 88 34 31 35 87 36 32 37 33 38 34 39 81 40 35 41 86 42 80 43
REMARK SMILES IDX 82 44 36 45 85 46 79 47 78 48 37 50 67 51 48 52 66 53 49 54
REMARK SMILES IDX 52 55 65 56 83 57 50 58 51 59 64 61 84 62 53 63 38 64 39 65
REMARK SMILES IDX 47 66 40 67 46 68 41 69 42 70 43 71 44 72 45 73 68 74 69 75
REMARK SMILES IDX 77 76 70 77 76 78 71 79 72 80 73 81 74 82 75 83 54 84 55 85
REMARK SMILES IDX 63 86 56 87 62 88 57 89 58 90 59 91 60 92 61 93
REMARK H PARENT 8 18 82 49 52 60
REMARK Flexibility Score: inf
ROOT
ATOM      1  C   UNL     1       6.340  -4.624   4.490  1.00  0.00     0.275 C 
ENDROOT
BRANCH   1   2
ATOM      2  O   UNL     1       5.529  -3.445   4.332  1.00  0.00    -0.458 OA
BRANCH   2   3
ATOM      3  C   UNL     1       4.247  -3.581   4.763  1.00  0.00     0.338 C 
ATOM      4  O   UNL     1       3.751  -4.599   5.206  1.00  0.00    -0.246 OA
BRANCH   3   5
ATOM      5  C   UNL     1       3.507  -2.292   4.711  1.00  0.00     0.060 A 
ATOM      6  C   UNL     1       1.974   0.070   4.724  1.00  0.00    -0.035 A 
ATOM      7  C   UNL     1       1.537  -1.060   5.424  1.00  0.00     0.005 A 
ATOM      8  C   UNL     1       3.197   0.004   4.022  1.00  0.00     0.005 A 
ATOM      9  C   UNL     1       2.294  -2.228   5.411  1.00  0.00     0.016 A 
ATOM     10  C   UNL     1       3.960  -1.170   4.015  1.00  0.00     0.016 A 
BRANCH   6  11
ATOM     11  C   UNL     1       1.085   1.310   4.595  1.00  0.00     0.098 C 
ATOM     12  C   UNL     1       0.104   1.148   3.430  1.00  0.00     0.068 C 
ATOM     13  C   UNL     1      -1.161   1.617   3.493  1.00  0.00     0.023 C 
ATOM     14  C   UNL     1      -2.193   1.467   2.405  1.00  0.00     0.065 C 
ATOM     15  N   UNL     1      -1.598   2.227   4.653  1.00  0.00    -0.362 N 
ATOM     16  C   UNL     1       0.373   1.746   5.890  1.00  0.00     0.068 C 
ATOM     17  C   UNL     1      -0.907   2.197   5.856  1.00  0.00     0.023 C 
ATOM     18  H   UNL     1      -2.454   2.714   4.625  1.00  0.00     0.166 HD
ATOM     19  C   UNL     1      -1.716   2.653   7.049  1.00  0.00     0.065 C 
BRANCH  12  20
ATOM     20  C   UNL     1       0.481   0.320   2.272  1.00  0.00     0.336 C 
ATOM     21  O   UNL     1       0.347  -0.893   2.234  1.00  0.00    -0.246 OA
BRANCH  20  22
ATOM     22  O   UNL     1       0.901   1.112   1.255  1.00  0.00    -0.466 OA
ATOM     23  C   UNL     1       1.128   0.410   0.030  1.00  0.00     0.282 C 
ENDBRANCH  20  22
ENDBRANCH  12  20
BRANCH  16  24
ATOM     24  C   UNL     1       1.054   1.551   7.194  1.00  0.00     0.336 C 
ATOM     25  O   UNL     1       0.490   1.129   8.192  1.00  0.00    -0.246 OA
BRANCH  24  26
ATOM     26  O   UNL     1       2.377   1.829   7.097  1.00  0.00    -0.466 OA
ATOM     27  C   UNL     1       3.129   1.453   8.257  1.00  0.00     0.282 C 
ENDBRANCH  24  26
ENDBRANCH  16  24
ENDBRANCH   6  11
ENDBRANCH   3   5
ENDBRANCH   2   3
ENDBRANCH   1   2
BRANCH   1  28
ATOM     28  C   UNL     1       7.234  -4.524   5.727  1.00  0.00     0.275 C 
BRANCH  28  29
ATOM     29  O   UNL     1       6.454  -4.392   6.930  1.00  0.00    -0.458 OA
BRANCH  29  30
ATOM     30  C   UNL     1       6.470  -3.162   7.494  1.00  0.00     0.338 C 
ATOM     31  O   UNL     1       7.088  -2.181   7.112  1.00  0.00    -0.246 OA
BRANCH  30  32
ATOM     32  C   UNL     1       5.578  -3.118   8.663  1.00  0.00     0.060 A 
ATOM     33  C   UNL     1       4.222  -2.884   8.456  1.00  0.00     0.016 A 
ATOM     34  C   UNL     1       6.098  -3.118   9.956  1.00  0.00     0.016 A 
ATOM     35  C   UNL     1       3.391  -2.569   9.530  1.00  0.00     0.010 A 
ATOM     36  C   UNL     1       5.243  -2.882  11.043  1.00  0.00     0.010 A 
ATOM     37  C   UNL     1       3.885  -2.565  10.842  1.00  0.00    -0.014 A 
BRANCH  37  38
ATOM     38  C   UNL     1       2.999  -2.183  11.984  1.00  0.00     0.031 A 
ATOM     39  C   UNL     1       3.360  -1.020  12.879  1.00  0.00     0.074 A 
ATOM     40  C   UNL     1       1.855  -2.858  12.220  1.00  0.00     0.049 A 
ATOM     41  N   UNL     1       2.799  -0.629  13.997  1.00  0.00    -0.248 NA
ATOM     42  C   UNL     1       4.513  -0.200  12.475  1.00  0.00     0.031 C 
ATOM     43  C   UNL     1       1.349  -3.978  11.423  1.00  0.00     0.029 A 
ATOM     44  N   UNL     1       0.900  -2.695  13.197  1.00  0.00    -0.354 N 
ATOM     45  C   UNL     1       3.564   0.438  14.459  1.00  0.00     0.074 A 
ATOM     46  C   UNL     1       4.634   0.629  13.503  1.00  0.00     0.031 C 
ATOM     47  C   UNL     1       0.163  -4.369  11.912  1.00  0.00     0.029 A 
ATOM     48  C   UNL     1      -0.138  -3.593  13.110  1.00  0.00     0.049 A 
ATOM     49  H   UNL     1       0.956  -2.001  13.893  1.00  0.00     0.167 HD
ATOM     50  C   UNL     1       3.396   1.187  15.577  1.00  0.00     0.031 A 
ATOM     51  C   UNL     1      -1.196  -3.806  13.918  1.00  0.00     0.031 A 
ATOM     52  C   UNL     1       2.304   1.029  16.504  1.00  0.00     0.049 A 
ATOM     53  C   UNL     1      -1.355  -2.974  15.159  1.00  0.00     0.074 A 
ATOM     54  C   UNL     1       2.036   1.760  17.650  1.00  0.00     0.029 A 
ATOM     55  N   UNL     1       1.290   0.090  16.386  1.00  0.00    -0.354 N 
ATOM     56  N   UNL     1      -0.595  -2.000  15.601  1.00  0.00    -0.248 NA
ATOM     57  C   UNL     1      -2.507  -3.280  16.019  1.00  0.00     0.031 C 
ATOM     58  C   UNL     1       0.888   1.230  18.251  1.00  0.00     0.029 A 
ATOM     59  C   UNL     1       0.408   0.209  17.448  1.00  0.00     0.049 A 
ATOM     60  H   UNL     1       1.210  -0.565  15.655  1.00  0.00     0.167 HD
ATOM     61  C   UNL     1      -1.183  -1.570  16.785  1.00  0.00     0.074 A 
ATOM     62  C   UNL     1      -2.374  -2.372  16.977  1.00  0.00     0.031 C 
ATOM     63  C   UNL     1      -0.770  -0.600  17.637  1.00  0.00     0.031 A 
BRANCH  50  64
ATOM     64  C   UNL     1       4.447   2.222  15.893  1.00  0.00    -0.014 A 
ATOM     65  C   UNL     1       4.572   3.405  15.145  1.00  0.00     0.010 A 
ATOM     66  C   UNL     1       5.301   2.019  16.995  1.00  0.00     0.010 A 
ATOM     67  C   UNL     1       5.559   4.344  15.464  1.00  0.00     0.020 A 
ATOM     68  C   UNL     1       6.269   2.968  17.336  1.00  0.00     0.020 A 
ATOM     69  C   UNL     1       6.405   4.117  16.555  1.00  0.00     0.054 A 
BRANCH  69  70
ATOM     70  S   UNL     1       7.668   5.356  16.956  1.00  0.00     0.124 S 
ATOM     71  O   UNL     1       8.646   5.144  15.893  1.00  0.00    -0.237 OA
ATOM     72  O   UNL     1       6.923   6.611  16.881  1.00  0.00    -0.237 OA
ATOM     73  O   UNL     1       8.112   4.979  18.296  1.00  0.00    -0.744 OA
ENDBRANCH  69  70
ENDBRANCH  50  64
BRANCH  51  74
ATOM     74  C   UNL     1      -2.161  -4.895  13.598  1.00  0.00    -0.014 A 
ATOM     75  C   UNL     1      -3.473  -4.599  13.190  1.00  0.00     0.010 A 
ATOM     76  C   UNL     1      -1.756  -6.241  13.674  1.00  0.00     0.010 A 
ATOM     77  C   UNL     1      -4.363  -5.629  12.869  1.00  0.00     0.020 A 
ATOM     78  C   UNL     1      -2.632  -7.271  13.321  1.00  0.00     0.020 A 
ATOM     79  C   UNL     1      -3.934  -6.959  12.930  1.00  0.00     0.054 A 
BRANCH  79  80
ATOM     80  S   UNL     1      -5.081  -8.277  12.438  1.00  0.00     0.124 S 
ATOM     81  O   UNL     1      -5.975  -8.347  13.589  1.00  0.00    -0.237 OA
ATOM     82  O   UNL     1      -5.669  -7.744  11.211  1.00  0.00    -0.237 OA
ATOM     83  O   UNL     1      -4.209  -9.434  12.249  1.00  0.00    -0.744 OA
ENDBRANCH  79  80
ENDBRANCH  51  74
BRANCH  63  84
ATOM     84  C   UNL     1      -1.628  -0.332  18.845  1.00  0.00    -0.014 A 
ATOM     85  C   UNL     1      -1.676  -1.236  19.921  1.00  0.00     0.010 A 
ATOM     86  C   UNL     1      -2.374   0.858  18.916  1.00  0.00     0.010 A 
ATOM     87  C   UNL     1      -2.485  -0.973  21.030  1.00  0.00     0.020 A 
ATOM     88  C   UNL     1      -3.163   1.138  20.035  1.00  0.00     0.020 A 
ATOM     89  C   UNL     1      -3.227   0.212  21.078  1.00  0.00     0.054 A 
BRANCH  89  90
ATOM     90  S   UNL     1      -4.250   0.545  22.538  1.00  0.00     0.124 S 
ATOM     91  O   UNL     1      -5.374  -0.365  22.336  1.00  0.00    -0.237 OA
ATOM     92  O   UNL     1      -3.356   0.204  23.643  1.00  0.00    -0.237 OA
ATOM     93  O   UNL     1      -4.570   1.966  22.421  1.00  0.00    -0.744 OA
ENDBRANCH  89  90
ENDBRANCH  63  84
ENDBRANCH  37  38
ENDBRANCH  30  32
ENDBRANCH  29  30
ENDBRANCH  28  29
ENDBRANCH   1  28
TORSDOF 19
