REMARK SMILES C[C@@H](CC(=O)OCCOC(=O)c1ccc(-c2c3nc(c(-c4ccc(S(=O)(=O)[O-])cc4)c4ccc([nH]4)c(-c4ccc(S(=O)(=O)[O-])cc4)c4nc(c(-c5ccc(S(=O)(=O)[O-])cc5)c5ccc2[nH]5)C=C4)C=C3)cc1)NC(=O)CN(C)c1ncccn1
REMARK SMILES IDX 7 1 6 2 4 3 5 4 3 5 2 6 1 7 72 8 73 9 74 11 75 12 76 13
REMARK SMILES IDX 77 14 78 15 79 16 83 17 80 18 82 19 81 20 8 21 9 22 10 23
REMARK SMILES IDX 11 24 12 25 13 26 71 27 14 28 70 29 15 30 16 31 17 32 64 33
REMARK SMILES IDX 18 34 69 35 63 36 65 37 19 38 68 39 62 40 61 41 20 43 50 44
REMARK SMILES IDX 31 45 49 46 32 47 35 48 48 49 66 50 33 51 34 52 47 54 67 55
REMARK SMILES IDX 36 56 21 57 22 58 30 59 23 60 29 61 24 62 25 63 26 64 27 65
REMARK SMILES IDX 28 66 51 67 52 68 60 69 53 70 59 71 54 72 55 73 56 74 57 75
REMARK SMILES IDX 58 76 37 77 38 78 46 79 39 80 45 81 40 82 41 83 42 84 43 85
REMARK SMILES IDX 44 86
REMARK H PARENT 72 10 65 42 35 53
REMARK Flexibility Score: inf
ROOT
ATOM      1  C   UNL     1       0.286   1.908  -3.612  1.00  0.00     0.274 C 
ENDROOT
BRANCH   1   2
ATOM      2  O   UNL     1       0.627   1.474  -2.278  1.00  0.00    -0.462 OA
BRANCH   2   3
ATOM      3  C   UNL     1       1.098   2.434  -1.446  1.00  0.00     0.307 C 
ATOM      4  O   UNL     1       1.236   3.612  -1.760  1.00  0.00    -0.252 OA
BRANCH   3   5
ATOM      5  C   UNL     1       1.562   1.915  -0.106  1.00  0.00     0.147 C 
BRANCH   5   6
ATOM      6  C   UNL     1       0.815   0.762   0.573  1.00  0.00     0.090 C 
ATOM      7  C   UNL     1       1.033  -0.590  -0.097  1.00  0.00     0.031 C 
BRANCH   6   8
ATOM      8  N   UNL     1      -0.605   1.019   0.759  1.00  0.00    -0.352 N 
ATOM      9  C   UNL     1      -1.357   1.052   1.903  1.00  0.00     0.239 C 
ATOM     10  H   UNL     1      -1.105   1.198  -0.070  1.00  0.00     0.163 HD
ATOM     11  O   UNL     1      -2.549   1.363   1.807  1.00  0.00    -0.273 OA
BRANCH   9  12
ATOM     12  C   UNL     1      -0.710   0.849   3.277  1.00  0.00     0.219 C 
BRANCH  12  13
ATOM     13  N   UNL     1       0.076  -0.380   3.423  1.00  0.00    -0.335 N 
ATOM     14  C   UNL     1       1.290  -0.346   4.209  1.00  0.00     0.147 C 
BRANCH  13  15
ATOM     15  C   UNL     1      -0.583  -1.589   3.316  1.00  0.00     0.225 A 
ATOM     16  N   UNL     1      -0.017  -2.691   3.841  1.00  0.00    -0.221 NA
ATOM     17  N   UNL     1      -1.758  -1.631   2.675  1.00  0.00    -0.221 NA
ATOM     18  C   UNL     1      -0.688  -3.853   3.726  1.00  0.00     0.117 A 
ATOM     19  C   UNL     1      -2.387  -2.814   2.561  1.00  0.00     0.117 A 
ATOM     20  C   UNL     1      -1.892  -3.978   3.082  1.00  0.00     0.040 A 
ENDBRANCH  13  15
ENDBRANCH  12  13
ENDBRANCH   9  12
ENDBRANCH   6   8
ENDBRANCH   5   6
ENDBRANCH   3   5
ENDBRANCH   2   3
ENDBRANCH   1   2
BRANCH   1  21
ATOM     21  C   UNL     1      -1.220   2.118  -3.801  1.00  0.00     0.275 C 
BRANCH  21  22
ATOM     22  O   UNL     1      -1.729   3.194  -2.990  1.00  0.00    -0.458 OA
BRANCH  22  23
ATOM     23  C   UNL     1      -2.197   2.798  -1.783  1.00  0.00     0.338 C 
ATOM     24  O   UNL     1      -2.235   1.650  -1.371  1.00  0.00    -0.246 OA
BRANCH  23  25
ATOM     25  C   UNL     1      -2.509   3.964  -0.942  1.00  0.00     0.060 A 
ATOM     26  C   UNL     1      -1.672   4.229   0.144  1.00  0.00     0.016 A 
ATOM     27  C   UNL     1      -3.660   4.727  -1.147  1.00  0.00     0.016 A 
ATOM     28  C   UNL     1      -1.993   5.235   1.048  1.00  0.00     0.010 A 
ATOM     29  C   UNL     1      -3.968   5.759  -0.250  1.00  0.00     0.010 A 
ATOM     30  C   UNL     1      -3.144   6.010   0.861  1.00  0.00    -0.014 A 
BRANCH  30  31
ATOM     31  C   UNL     1      -3.459   7.073   1.847  1.00  0.00     0.031 A 
ATOM     32  C   UNL     1      -4.584   6.901   2.829  1.00  0.00     0.074 A 
ATOM     33  C   UNL     1      -2.688   8.177   1.892  1.00  0.00     0.049 A 
ATOM     34  N   UNL     1      -4.987   7.719   3.769  1.00  0.00    -0.248 NA
ATOM     35  C   UNL     1      -5.357   5.653   2.742  1.00  0.00     0.031 C 
ATOM     36  C   UNL     1      -1.552   8.448   1.009  1.00  0.00     0.029 A 
ATOM     37  N   UNL     1      -2.734   9.267   2.723  1.00  0.00    -0.354 N 
ATOM     38  C   UNL     1      -6.075   7.099   4.370  1.00  0.00     0.074 A 
ATOM     39  C   UNL     1      -6.277   5.842   3.679  1.00  0.00     0.031 C 
ATOM     40  C   UNL     1      -0.995   9.618   1.360  1.00  0.00     0.029 A 
ATOM     41  C   UNL     1      -1.753  10.194   2.467  1.00  0.00     0.049 A 
ATOM     42  H   UNL     1      -3.405   9.374   3.436  1.00  0.00     0.167 HD
ATOM     43  C   UNL     1      -6.836   7.536   5.404  1.00  0.00     0.031 A 
ATOM     44  C   UNL     1      -1.495  11.380   3.050  1.00  0.00     0.031 A 
ATOM     45  C   UNL     1      -6.626   8.780   6.101  1.00  0.00     0.049 A 
ATOM     46  C   UNL     1      -2.350  11.841   4.195  1.00  0.00     0.074 A 
ATOM     47  C   UNL     1      -7.336   9.299   7.171  1.00  0.00     0.029 A 
ATOM     48  N   UNL     1      -5.631   9.698   5.802  1.00  0.00    -0.354 N 
ATOM     49  N   UNL     1      -3.375  11.239   4.750  1.00  0.00    -0.248 NA
ATOM     50  C   UNL     1      -2.007  13.136   4.797  1.00  0.00     0.031 C 
ATOM     51  C   UNL     1      -6.791  10.546   7.497  1.00  0.00     0.029 A 
ATOM     52  C   UNL     1      -5.715  10.785   6.658  1.00  0.00     0.049 A 
ATOM     53  H   UNL     1      -4.963   9.594   5.087  1.00  0.00     0.167 HD
ATOM     54  C   UNL     1      -3.792  12.078   5.777  1.00  0.00     0.074 A 
ATOM     55  C   UNL     1      -2.896  13.217   5.778  1.00  0.00     0.031 C 
ATOM     56  C   UNL     1      -4.825  11.918   6.641  1.00  0.00     0.031 A 
BRANCH  43  57
ATOM     57  C   UNL     1      -7.995   6.672   5.822  1.00  0.00    -0.014 A 
ATOM     58  C   UNL     1      -7.797   5.480   6.542  1.00  0.00     0.010 A 
ATOM     59  C   UNL     1      -9.307   7.075   5.513  1.00  0.00     0.010 A 
ATOM     60  C   UNL     1      -8.888   4.688   6.912  1.00  0.00     0.020 A 
ATOM     61  C   UNL     1     -10.402   6.297   5.900  1.00  0.00     0.020 A 
ATOM     62  C   UNL     1     -10.184   5.098   6.582  1.00  0.00     0.054 A 
BRANCH  62  63
ATOM     63  S   UNL     1     -11.588   4.063   7.084  1.00  0.00     0.124 S 
ATOM     64  O   UNL     1     -11.546   2.995   6.089  1.00  0.00    -0.237 OA
ATOM     65  O   UNL     1     -11.230   3.668   8.444  1.00  0.00    -0.237 OA
ATOM     66  O   UNL     1     -12.734   4.964   6.983  1.00  0.00    -0.744 OA
ENDBRANCH  62  63
ENDBRANCH  43  57
BRANCH  44  67
ATOM     67  C   UNL     1      -0.370  12.213   2.550  1.00  0.00    -0.014 A 
ATOM     68  C   UNL     1       0.816  12.335   3.293  1.00  0.00     0.010 A 
ATOM     69  C   UNL     1      -0.473  12.863   1.307  1.00  0.00     0.010 A 
ATOM     70  C   UNL     1       1.880  13.100   2.804  1.00  0.00     0.020 A 
ATOM     71  C   UNL     1       0.597  13.609   0.805  1.00  0.00     0.020 A 
ATOM     72  C   UNL     1       1.764  13.730   1.562  1.00  0.00     0.054 A 
BRANCH  72  73
ATOM     73  S   UNL     1       3.180  14.656   0.907  1.00  0.00     0.124 S 
ATOM     74  O   UNL     1       3.077  15.919   1.632  1.00  0.00    -0.237 OA
ATOM     75  O   UNL     1       4.313  13.809   1.271  1.00  0.00    -0.237 OA
ATOM     76  O   UNL     1       2.904  14.730  -0.526  1.00  0.00    -0.744 OA
ENDBRANCH  72  73
ENDBRANCH  44  67
BRANCH  56  77
ATOM     77  C   UNL     1      -5.022  12.997   7.671  1.00  0.00    -0.014 A 
ATOM     78  C   UNL     1      -5.554  14.250   7.317  1.00  0.00     0.010 A 
ATOM     79  C   UNL     1      -4.674  12.751   9.011  1.00  0.00     0.010 A 
ATOM     80  C   UNL     1      -5.688  15.256   8.278  1.00  0.00     0.020 A 
ATOM     81  C   UNL     1      -4.827  13.748   9.978  1.00  0.00     0.020 A 
ATOM     82  C   UNL     1      -5.313  15.002   9.601  1.00  0.00     0.054 A 
BRANCH  82  83
ATOM     83  S   UNL     1      -5.495  16.318  10.837  1.00  0.00     0.124 S 
ATOM     84  O   UNL     1      -4.310  17.133  10.588  1.00  0.00    -0.237 OA
ATOM     85  O   UNL     1      -6.769  16.934  10.472  1.00  0.00    -0.237 OA
ATOM     86  O   UNL     1      -5.502  15.597  12.108  1.00  0.00    -0.744 OA
ENDBRANCH  82  83
ENDBRANCH  56  77
ENDBRANCH  30  31
ENDBRANCH  23  25
ENDBRANCH  22  23
ENDBRANCH  21  22
ENDBRANCH   1  21
TORSDOF 19
