REMARK SMILES Cc1cc(Br)cc2c1O[C@H](C(F)(F)F)C(C(=O)OCCOC(=O)c1ccc(-c3c4nc(c(-c5ccc(S(=O)(=O)[O-])cc5)c5ccc([nH]5)c(-c5ccc(S(=O)(=O)[O-])cc5)c5nc(c(-c6ccc(S(=O)(=O)[O-])cc6)c6ccc3[nH]6)C=C5)C=C4)cc1)=C2
REMARK SMILES IDX 20 1 19 2 18 3 16 4 17 5 15 6 1 7 2 8 3 9 8 10 4 11 7 12
REMARK SMILES IDX 9 13 5 14 6 15 84 16 10 17 11 18 12 19 13 20 14 21 21 22
REMARK SMILES IDX 22 23 23 24 24 25 25 26 83 27 26 28 82 29 27 30 28 31 29 32
REMARK SMILES IDX 76 33 30 34 81 35 75 36 77 37 31 38 80 39 74 40 73 41 32 43
REMARK SMILES IDX 62 44 43 45 61 46 44 47 47 48 60 49 78 50 45 51 46 52 59 54
REMARK SMILES IDX 79 55 48 56 33 57 34 58 42 59 35 60 41 61 36 62 37 63 38 64
REMARK SMILES IDX 39 65 40 66 63 67 64 68 72 69 65 70 71 71 66 72 67 73 68 74
REMARK SMILES IDX 69 75 70 76 49 77 50 78 58 79 51 80 57 81 52 82 53 83 54 84
REMARK SMILES IDX 55 85 56 86
REMARK H PARENT 77 42 47 53
REMARK Flexibility Score: inf
ROOT
ATOM      1  C   UNL     1      -5.086   2.018   6.607  1.00  0.00     0.275 C 
ENDROOT
BRANCH   1   2
ATOM      2  C   UNL     1      -5.356   1.171   5.363  1.00  0.00     0.275 C 
BRANCH   2   3
ATOM      3  O   UNL     1      -4.162   0.998   4.568  1.00  0.00    -0.459 OA
BRANCH   3   4
ATOM      4  C   UNL     1      -4.088   1.767   3.458  1.00  0.00     0.338 C 
ATOM      5  O   UNL     1      -4.937   2.551   3.060  1.00  0.00    -0.246 OA
BRANCH   4   6
ATOM      6  C   UNL     1      -2.813   1.549   2.752  1.00  0.00     0.087 C 
ATOM      7  C   UNL     1       1.016  -0.354  -0.129  1.00  0.00     0.048 C 
ATOM      8  C   UNL     1       0.577   1.000   0.350  1.00  0.00    -0.007 A 
ATOM      9  C   UNL     1       1.257   2.137  -0.122  1.00  0.00     0.023 A 
ATOM     10  C   UNL     1      -0.534   1.165   1.192  1.00  0.00     0.130 A 
ATOM     11  C   UNL     1       0.859   3.412   0.272  1.00  0.00     0.019 A 
ATOM     12  C   UNL     1      -0.928   2.450   1.574  1.00  0.00     0.019 A 
ATOM     13  O   UNL     1      -1.183   0.036   1.619  1.00  0.00    -0.475 OA
ATOM     14  Br  UNL     1       1.780   4.930  -0.373  1.00  0.00    -0.051 Br
ATOM     15  C   UNL     1      -0.226   3.575   1.125  1.00  0.00     0.027 A 
ATOM     16  C   UNL     1      -2.100   2.625   2.406  1.00  0.00     0.027 C 
ATOM     17  C   UNL     1      -2.453   0.161   2.320  1.00  0.00     0.316 C 
BRANCH  17  18
ATOM     18  C   UNL     1      -3.561  -0.457   1.452  1.00  0.00     0.430 C 
ATOM     19  F   UNL     1      -3.228  -1.706   1.043  1.00  0.00    -0.167 F 
ATOM     20  F   UNL     1      -4.723  -0.578   2.140  1.00  0.00    -0.167 F 
ATOM     21  F   UNL     1      -3.819   0.277   0.346  1.00  0.00    -0.167 F 
ENDBRANCH  17  18
ENDBRANCH   4   6
ENDBRANCH   3   4
ENDBRANCH   2   3
ENDBRANCH   1   2
BRANCH   1  22
ATOM     22  O   UNL     1      -4.774   3.374   6.240  1.00  0.00    -0.458 OA
BRANCH  22  23
ATOM     23  C   UNL     1      -3.460   3.686   6.294  1.00  0.00     0.338 C 
ATOM     24  O   UNL     1      -2.545   2.961   6.649  1.00  0.00    -0.246 OA
BRANCH  23  25
ATOM     25  C   UNL     1      -3.222   5.036   5.764  1.00  0.00     0.060 A 
ATOM     26  C   UNL     1      -3.361   5.241   4.398  1.00  0.00     0.016 A 
ATOM     27  C   UNL     1      -2.618   6.008   6.557  1.00  0.00     0.016 A 
ATOM     28  C   UNL     1      -2.713   6.311   3.789  1.00  0.00     0.010 A 
ATOM     29  C   UNL     1      -2.118   7.169   5.957  1.00  0.00     0.010 A 
ATOM     30  C   UNL     1      -2.090   7.304   4.556  1.00  0.00    -0.014 A 
BRANCH  30  31
ATOM     31  C   UNL     1      -1.373   8.442   3.904  1.00  0.00     0.031 A 
ATOM     32  C   UNL     1       0.054   8.761   4.292  1.00  0.00     0.074 A 
ATOM     33  C   UNL     1      -1.976   9.186   2.952  1.00  0.00     0.049 A 
ATOM     34  N   UNL     1       0.763   9.830   4.033  1.00  0.00    -0.248 NA
ATOM     35  C   UNL     1       0.773   7.751   5.089  1.00  0.00     0.031 C 
ATOM     36  C   UNL     1      -3.317   8.957   2.406  1.00  0.00     0.029 A 
ATOM     37  N   UNL     1      -1.532  10.289   2.262  1.00  0.00    -0.354 N 
ATOM     38  C   UNL     1       1.979   9.652   4.687  1.00  0.00     0.074 A 
ATOM     39  C   UNL     1       1.910   8.377   5.364  1.00  0.00     0.031 C 
ATOM     40  C   UNL     1      -3.560   9.845   1.433  1.00  0.00     0.029 A 
ATOM     41  C   UNL     1      -2.455  10.791   1.373  1.00  0.00     0.049 A 
ATOM     42  H   UNL     1      -0.638  10.682   2.391  1.00  0.00     0.167 HD
ATOM     43  C   UNL     1       3.054  10.478   4.720  1.00  0.00     0.031 A 
ATOM     44  C   UNL     1      -2.453  11.918   0.635  1.00  0.00     0.031 A 
ATOM     45  C   UNL     1       3.133  11.723   4.000  1.00  0.00     0.049 A 
ATOM     46  C   UNL     1      -1.291  12.861   0.755  1.00  0.00     0.074 A 
ATOM     47  C   UNL     1       4.174  12.635   3.968  1.00  0.00     0.029 A 
ATOM     48  N   UNL     1       2.141  12.222   3.169  1.00  0.00    -0.354 N 
ATOM     49  N   UNL     1      -0.187  12.721   1.449  1.00  0.00    -0.248 NA
ATOM     50  C   UNL     1      -1.387  14.124   0.013  1.00  0.00     0.031 C 
ATOM     51  C   UNL     1       3.790  13.710   3.161  1.00  0.00     0.029 A 
ATOM     52  C   UNL     1       2.535  13.440   2.640  1.00  0.00     0.049 A 
ATOM     53  H   UNL     1       1.283  11.776   2.983  1.00  0.00     0.167 HD
ATOM     54  C   UNL     1       0.549  13.878   1.220  1.00  0.00     0.074 A 
ATOM     55  C   UNL     1      -0.223  14.690   0.300  1.00  0.00     0.031 C 
ATOM     56  C   UNL     1       1.750  14.239   1.734  1.00  0.00     0.031 A 
BRANCH  43  57
ATOM     57  C   UNL     1       4.225  10.086   5.588  1.00  0.00    -0.014 A 
ATOM     58  C   UNL     1       5.078   9.024   5.241  1.00  0.00     0.010 A 
ATOM     59  C   UNL     1       4.511  10.841   6.742  1.00  0.00     0.010 A 
ATOM     60  C   UNL     1       6.176   8.705   6.047  1.00  0.00     0.020 A 
ATOM     61  C   UNL     1       5.625  10.545   7.534  1.00  0.00     0.020 A 
ATOM     62  C   UNL     1       6.444   9.470   7.188  1.00  0.00     0.054 A 
BRANCH  62  63
ATOM     63  S   UNL     1       7.897   9.053   8.193  1.00  0.00     0.124 S 
ATOM     64  O   UNL     1       7.508   7.768   8.769  1.00  0.00    -0.237 OA
ATOM     65  O   UNL     1       8.966   8.998   7.199  1.00  0.00    -0.237 OA
ATOM     66  O   UNL     1       7.990  10.157   9.145  1.00  0.00    -0.744 OA
ENDBRANCH  62  63
ENDBRANCH  43  57
BRANCH  44  67
ATOM     67  C   UNL     1      -3.624  12.244  -0.227  1.00  0.00    -0.014 A 
ATOM     68  C   UNL     1      -3.498  12.255  -1.627  1.00  0.00     0.010 A 
ATOM     69  C   UNL     1      -4.881  12.520   0.346  1.00  0.00     0.010 A 
ATOM     70  C   UNL     1      -4.604  12.537  -2.435  1.00  0.00     0.020 A 
ATOM     71  C   UNL     1      -5.996  12.767  -0.458  1.00  0.00     0.020 A 
ATOM     72  C   UNL     1      -5.848  12.782  -1.845  1.00  0.00     0.054 A 
BRANCH  72  73
ATOM     73  S   UNL     1      -7.279  13.084  -2.919  1.00  0.00     0.124 S 
ATOM     74  O   UNL     1      -6.969  14.396  -3.477  1.00  0.00    -0.237 OA
ATOM     75  O   UNL     1      -7.209  11.964  -3.855  1.00  0.00    -0.237 OA
ATOM     76  O   UNL     1      -8.413  13.047  -1.998  1.00  0.00    -0.744 OA
ENDBRANCH  72  73
ENDBRANCH  44  67
BRANCH  56  77
ATOM     77  C   UNL     1       2.311  15.567   1.301  1.00  0.00    -0.014 A 
ATOM     78  C   UNL     1       1.749  16.772   1.758  1.00  0.00     0.010 A 
ATOM     79  C   UNL     1       3.442  15.609   0.465  1.00  0.00     0.010 A 
ATOM     80  C   UNL     1       2.289  17.997   1.360  1.00  0.00     0.020 A 
ATOM     81  C   UNL     1       4.004  16.831   0.091  1.00  0.00     0.020 A 
ATOM     82  C   UNL     1       3.415  18.018   0.530  1.00  0.00     0.054 A 
BRANCH  82  83
ATOM     83  S   UNL     1       4.116  19.623   0.060  1.00  0.00     0.124 S 
ATOM     84  O   UNL     1       3.093  20.151  -0.839  1.00  0.00    -0.237 OA
ATOM     85  O   UNL     1       4.236  20.306   1.346  1.00  0.00    -0.237 OA
ATOM     86  O   UNL     1       5.385  19.276  -0.576  1.00  0.00    -0.744 OA
ENDBRANCH  82  83
ENDBRANCH  56  77
ENDBRANCH  30  31
ENDBRANCH  23  25
ENDBRANCH  22  23
ENDBRANCH   1  22
TORSDOF 15
