REMARK SMILES Cc1ccc(C(c2ccccc2)(c2ccccc2)n2cnc(C[C@H]([NH3+])C(=O)OCCOC(=O)c3ccc(-c4c5nc(c(-c6ccc(S(=O)(=O)[O-])cc6)c6ccc([nH]6)c(-c6ccc(S(=O)(=O)[O-])cc6)c6nc(c(-c7ccc(S(=O)(=O)[O-])cc7)c7ccc4[nH]7)C=C6)C=C5)cc3)c2)cc1
REMARK SMILES IDX 29 1 28 2 26 3 27 4 24 5 23 6 22 7 19 8 20 9 94 10 21 11
REMARK SMILES IDX 6 12 5 13 1 14 2 15 3 16 96 17 4 18 95 19 7 20 8 21 12 22
REMARK SMILES IDX 9 23 11 24 10 25 13 26 14 27 18 28 15 29 17 30 16 31 25 32
REMARK SMILES IDX 30 36 31 37 32 38 33 39 34 40 35 41 93 42 36 43 92 44 37 45
REMARK SMILES IDX 38 46 39 47 86 48 40 49 91 50 85 51 87 52 41 53 90 54 84 55
REMARK SMILES IDX 83 56 42 58 72 59 53 60 71 61 54 62 57 63 70 64 88 65 55 66
REMARK SMILES IDX 56 67 69 69 89 70 58 71 43 72 44 73 52 74 45 75 51 76 46 77
REMARK SMILES IDX 47 78 48 79 49 80 50 81 73 82 74 83 82 84 75 85 81 86 76 87
REMARK SMILES IDX 77 88 78 89 79 90 80 91 59 92 60 93 68 94 61 95 67 96 62 97
REMARK SMILES IDX 63 98 64 99 65 100 66 101
REMARK H PARENT 25 33 25 34 25 35 87 57 57 68
REMARK Flexibility Score: inf
ROOT
ATOM      1  C   UNL     1      -9.106  -7.008   4.158  1.00  0.00     0.274 C 
ENDROOT
BRANCH   1   2
ATOM      2  O   UNL     1      -8.450  -7.198   2.904  1.00  0.00    -0.458 OA
BRANCH   2   3
ATOM      3  C   UNL     1      -8.565  -6.120   2.095  1.00  0.00     0.365 C 
ATOM      4  O   UNL     1      -9.629  -5.509   2.097  1.00  0.00    -0.245 OA
BRANCH   3   5
ATOM      5  C   UNL     1      -7.282  -5.487   1.272  1.00  0.00     0.297 C 
BRANCH   5   6
ATOM      6  C   UNL     1      -8.156  -4.598  -0.159  1.00  0.00     0.135 C 
BRANCH   6   7
ATOM      7  C   UNL     1      -8.448  -5.116  -1.628  1.00  0.00     0.065 A 
ATOM      8  N   UNL     1      -8.974  -5.387  -3.828  1.00  0.00    -0.319 N 
ATOM      9  C   UNL     1      -9.575  -6.330  -3.047  1.00  0.00     0.201 A 
ATOM     10  C   UNL     1      -8.174  -4.650  -2.924  1.00  0.00     0.112 A 
ATOM     11  N   UNL     1      -9.372  -6.104  -1.776  1.00  0.00    -0.241 NA
BRANCH   8  12
ATOM     12  C   UNL     1      -9.502  -5.081  -5.238  1.00  0.00     0.121 C 
BRANCH  12  13
ATOM     13  C   UNL     1      -9.642  -6.422  -6.109  1.00  0.00    -0.013 A 
ATOM     14  C   UNL     1     -11.118 -11.081  -7.880  1.00  0.00     0.044 C 
ATOM     15  C   UNL     1     -10.271  -9.139  -7.496  1.00  0.00    -0.051 A 
ATOM     16  C   UNL     1      -9.101  -8.763  -6.609  1.00  0.00     0.004 A 
ATOM     17  C   UNL     1     -10.709  -7.778  -7.923  1.00  0.00     0.004 A 
ATOM     18  C   UNL     1      -8.867  -7.544  -5.899  1.00  0.00     0.007 A 
ATOM     19  C   UNL     1     -10.396  -6.520  -7.286  1.00  0.00     0.007 A 
ENDBRANCH  12  13
BRANCH  12  20
ATOM     20  C   UNL     1     -10.969  -4.450  -4.959  1.00  0.00    -0.013 A 
ATOM     21  C   UNL     1     -11.142  -3.346  -4.096  1.00  0.00     0.007 A 
ATOM     22  C   UNL     1     -12.181  -5.073  -5.356  1.00  0.00     0.007 A 
ATOM     23  C   UNL     1     -12.409  -2.859  -3.730  1.00  0.00     0.000 A 
ATOM     24  C   UNL     1     -13.450  -4.586  -5.006  1.00  0.00     0.000 A 
ATOM     25  C   UNL     1     -13.564  -3.473  -4.193  1.00  0.00     0.000 A 
ENDBRANCH  12  20
BRANCH  12  26
ATOM     26  C   UNL     1      -8.459  -4.142  -5.963  1.00  0.00    -0.013 A 
ATOM     27  C   UNL     1      -7.518  -4.674  -6.882  1.00  0.00     0.007 A 
ATOM     28  C   UNL     1      -8.286  -2.784  -5.641  1.00  0.00     0.007 A 
ATOM     29  C   UNL     1      -6.441  -3.932  -7.375  1.00  0.00     0.000 A 
ATOM     30  C   UNL     1      -7.193  -2.043  -6.114  1.00  0.00     0.000 A 
ATOM     31  C   UNL     1      -6.261  -2.622  -6.966  1.00  0.00     0.000 A 
ENDBRANCH  12  26
ENDBRANCH   8  12
ENDBRANCH   6   7
ENDBRANCH   5   6
BRANCH   5  32
ATOM     32  N   UNL     1      -5.249  -5.880   1.494  1.00  0.00    -0.346 N 
ATOM     33  H   UNL     1      -4.996  -6.691   0.930  1.00  0.00     0.345 HD
ATOM     34  H   UNL     1      -5.045  -6.070   2.475  1.00  0.00     0.345 HD
ATOM     35  H   UNL     1      -4.711  -5.070   1.185  1.00  0.00     0.345 HD
ENDBRANCH   5  32
ENDBRANCH   3   5
ENDBRANCH   2   3
ENDBRANCH   1   2
BRANCH   1  36
ATOM     36  C   UNL     1      -8.313  -6.036   5.082  1.00  0.00     0.275 C 
BRANCH  36  37
ATOM     37  O   UNL     1      -7.960  -4.731   4.498  1.00  0.00    -0.458 OA
BRANCH  37  38
ATOM     38  C   UNL     1      -6.689  -4.253   4.267  1.00  0.00     0.338 C 
ATOM     39  O   UNL     1      -6.191  -3.307   4.856  1.00  0.00    -0.246 OA
BRANCH  38  40
ATOM     40  C   UNL     1      -6.052  -4.835   3.046  1.00  0.00     0.060 A 
ATOM     41  C   UNL     1      -5.801  -3.946   1.432  1.00  0.00     0.016 A 
ATOM     42  C   UNL     1      -6.201  -6.616   3.077  1.00  0.00     0.016 A 
ATOM     43  C   UNL     1      -5.837  -4.937  -0.145  1.00  0.00     0.010 A 
ATOM     44  C   UNL     1      -6.363  -7.550   1.561  1.00  0.00     0.010 A 
ATOM     45  C   UNL     1      -6.287  -6.735  -0.053  1.00  0.00    -0.014 A 
BRANCH  45  46
ATOM     46  C   UNL     1      -6.964  -7.666  -0.965  1.00  0.00     0.031 A 
ATOM     47  C   UNL     1      -6.255  -8.340  -2.043  1.00  0.00     0.074 A 
ATOM     48  C   UNL     1      -8.129  -8.251  -0.527  1.00  0.00     0.049 A 
ATOM     49  N   UNL     1      -6.868  -9.054  -2.931  1.00  0.00    -0.248 NA
ATOM     50  C   UNL     1      -4.812  -8.254  -2.249  1.00  0.00     0.031 C 
ATOM     51  C   UNL     1      -8.527  -9.639  -0.686  1.00  0.00     0.029 A 
ATOM     52  N   UNL     1      -9.261  -7.686   0.099  1.00  0.00    -0.354 N 
ATOM     53  C   UNL     1      -5.902  -9.875  -3.437  1.00  0.00     0.074 A 
ATOM     54  C   UNL     1      -4.671  -9.138  -3.245  1.00  0.00     0.031 C 
ATOM     55  C   UNL     1      -9.827  -9.773  -0.384  1.00  0.00     0.029 A 
ATOM     56  C   UNL     1     -10.403  -8.467  -0.105  1.00  0.00     0.049 A 
ATOM     57  H   UNL     1      -9.248  -6.847   0.614  1.00  0.00     0.167 HD
ATOM     58  C   UNL     1      -6.191 -11.186  -3.683  1.00  0.00     0.031 A 
ATOM     59  C   UNL     1     -11.647  -7.993  -0.449  1.00  0.00     0.031 A 
ATOM     60  C   UNL     1      -7.612 -11.559  -3.492  1.00  0.00     0.049 A 
ATOM     61  C   UNL     1     -12.083  -8.622  -1.762  1.00  0.00     0.074 A 
ATOM     62  C   UNL     1      -8.290 -12.584  -2.845  1.00  0.00     0.029 A 
ATOM     63  N   UNL     1      -8.618 -10.692  -3.893  1.00  0.00    -0.354 N 
ATOM     64  N   UNL     1     -11.672  -9.779  -2.211  1.00  0.00    -0.248 NA
ATOM     65  C   UNL     1     -12.869  -7.897  -2.763  1.00  0.00     0.031 C 
ATOM     66  C   UNL     1      -9.701 -12.375  -3.001  1.00  0.00     0.029 A 
ATOM     67  C   UNL     1      -9.880 -11.239  -3.763  1.00  0.00     0.049 A 
ATOM     68  H   UNL     1      -8.450  -9.784  -4.234  1.00  0.00     0.167 HD
ATOM     69  C   UNL     1     -11.779  -9.764  -3.582  1.00  0.00     0.074 A 
ATOM     70  C   UNL     1     -12.654  -8.640  -3.861  1.00  0.00     0.031 C 
ATOM     71  C   UNL     1     -10.981 -10.523  -4.391  1.00  0.00     0.031 A 
BRANCH  58  72
ATOM     72  C   UNL     1      -5.118 -12.220  -3.959  1.00  0.00    -0.014 A 
ATOM     73  C   UNL     1      -5.486 -13.482  -4.462  1.00  0.00     0.010 A 
ATOM     74  C   UNL     1      -3.742 -12.032  -3.709  1.00  0.00     0.010 A 
ATOM     75  C   UNL     1      -4.538 -14.488  -4.707  1.00  0.00     0.020 A 
ATOM     76  C   UNL     1      -2.779 -13.001  -4.004  1.00  0.00     0.020 A 
ATOM     77  C   UNL     1      -3.185 -14.235  -4.487  1.00  0.00     0.054 A 
BRANCH  77  78
ATOM     78  S   UNL     1      -1.963 -15.528  -4.813  1.00  0.00     0.124 S 
ATOM     79  O   UNL     1      -2.270 -16.508  -3.775  1.00  0.00    -0.237 OA
ATOM     80  O   UNL     1      -2.281 -15.931  -6.179  1.00  0.00    -0.237 OA
ATOM     81  O   UNL     1      -0.682 -14.840  -4.654  1.00  0.00    -0.744 OA
ENDBRANCH  77  78
ENDBRANCH  58  72
BRANCH  59  82
ATOM     82  C   UNL     1     -12.086  -6.633   0.058  1.00  0.00    -0.014 A 
ATOM     83  C   UNL     1     -12.469  -6.535   1.411  1.00  0.00     0.010 A 
ATOM     84  C   UNL     1     -11.903  -5.418  -0.629  1.00  0.00     0.010 A 
ATOM     85  C   UNL     1     -12.451  -5.304   2.098  1.00  0.00     0.020 A 
ATOM     86  C   UNL     1     -11.821  -4.188   0.057  1.00  0.00     0.020 A 
ATOM     87  C   UNL     1     -12.023  -4.152   1.436  1.00  0.00     0.054 A 
BRANCH  87  88
ATOM     88  S   UNL     1     -11.383  -2.723   2.394  1.00  0.00     0.124 S 
ATOM     89  O   UNL     1     -12.393  -1.700   2.130  1.00  0.00    -0.237 OA
ATOM     90  O   UNL     1     -11.350  -3.207   3.774  1.00  0.00    -0.237 OA
ATOM     91  O   UNL     1     -10.074  -2.458   1.792  1.00  0.00    -0.744 OA
ENDBRANCH  87  88
ENDBRANCH  59  82
BRANCH  71  92
ATOM     92  C   UNL     1     -10.959 -10.444  -5.898  1.00  0.00    -0.014 A 
ATOM     93  C   UNL     1     -12.299  -9.701  -6.894  1.00  0.00     0.010 A 
ATOM     94  C   UNL     1      -9.450 -11.057  -6.763  1.00  0.00     0.010 A 
ATOM     95  C   UNL     1     -12.133  -9.511  -8.694  1.00  0.00     0.020 A 
ATOM     96  C   UNL     1      -9.205 -10.716  -8.554  1.00  0.00     0.020 A 
ATOM     97  C   UNL     1     -10.547  -9.953  -9.502  1.00  0.00     0.054 A 
BRANCH  97  98
ATOM     98  S   UNL     1     -10.516  -9.998 -11.294  1.00  0.00     0.124 S 
ATOM     99  O   UNL     1     -11.759 -10.704 -11.601  1.00  0.00    -0.237 OA
ATOM    100  O   UNL     1     -10.502  -8.580 -11.636  1.00  0.00    -0.237 OA
ATOM    101  O   UNL     1      -9.293 -10.738 -11.587  1.00  0.00    -0.744 OA
ENDBRANCH  97  98
ENDBRANCH  71  92
ENDBRANCH  45  46
ENDBRANCH  38  40
ENDBRANCH  37  38
ENDBRANCH  36  37
ENDBRANCH   1  36
TORSDOF 21
