REMARK SMILES C[C@H](O)C[C@@]1(C(=O)OCCOC(=O)c2ccc(-c3c4nc(c(-c5ccc(S(=O)(=O)[O-])cc5)c5ccc([nH]5)c(-c5ccc(S(=O)(=O)[O-])cc5)c5nc(c(-c6ccc(S(=O)(=O)[O-])cc6)c6ccc3[nH]6)C=C5)C=C4)cc2)CCN(C(=O)OC(C)(C)C)C1
REMARK SMILES IDX 9 1 8 2 6 3 7 4 5 5 74 6 84 7 75 8 76 9 4 10 2 11 1 12 3 13
REMARK SMILES IDX 77 15 78 16 79 17 80 18 81 19 82 20 83 21 10 22 11 23 12 24
REMARK SMILES IDX 13 25 14 26 15 27 73 28 16 29 72 30 17 31 18 32 19 33 66 34
REMARK SMILES IDX 20 35 71 36 65 37 67 38 21 39 70 40 64 41 63 42 22 44 52 45
REMARK SMILES IDX 33 46 51 47 34 48 37 49 50 50 68 51 35 52 36 53 49 55 69 56
REMARK SMILES IDX 38 57 23 58 24 59 32 60 25 61 31 62 26 63 27 64 28 65 29 66
REMARK SMILES IDX 30 67 53 68 54 69 62 70 55 71 61 72 56 73 57 74 58 75 59 76
REMARK SMILES IDX 60 77 39 78 40 79 48 80 41 81 47 82 42 83 43 84 44 85 45 86
REMARK SMILES IDX 46 87
REMARK H PARENT 3 14 67 43 37 54
REMARK Flexibility Score: inf
ROOT
ATOM      1  C   UNL     1       0.564   1.747  -1.423  1.00  0.00     0.274 C 
ENDROOT
BRANCH   1   2
ATOM      2  O   UNL     1      -0.077   0.858  -0.482  1.00  0.00    -0.462 OA
BRANCH   2   3
ATOM      3  C   UNL     1      -0.694   1.458   0.573  1.00  0.00     0.314 C 
ATOM      4  O   UNL     1      -0.759   2.673   0.718  1.00  0.00    -0.252 OA
BRANCH   3   5
ATOM      5  C   UNL     1      -1.303   0.462   1.570  1.00  0.00     0.090 C 
ATOM      6  C   UNL     1      -0.459  -0.844   1.668  1.00  0.00     0.042 C 
ATOM      7  C   UNL     1      -2.664  -0.023   1.055  1.00  0.00     0.142 C 
ATOM      8  C   UNL     1      -1.202  -1.878   0.824  1.00  0.00     0.124 C 
ATOM      9  N   UNL     1      -2.574  -1.455   0.925  1.00  0.00    -0.307 N 
BRANCH   5  10
ATOM     10  C   UNL     1      -1.345   1.169   2.966  1.00  0.00     0.052 C 
BRANCH  10  11
ATOM     11  C   UNL     1      -2.482   2.191   3.184  1.00  0.00     0.112 C 
ATOM     12  C   UNL     1      -2.177   3.169   4.312  1.00  0.00     0.038 C 
BRANCH  11  13
ATOM     13  O   UNL     1      -3.680   1.499   3.526  1.00  0.00    -0.393 OA
ATOM     14  H   UNL     1      -3.547   1.014   4.355  1.00  0.00     0.210 HD
ENDBRANCH  11  13
ENDBRANCH  10  11
ENDBRANCH   5  10
BRANCH   9  15
ATOM     15  C   UNL     1      -3.714  -2.206   0.777  1.00  0.00     0.410 C 
ATOM     16  O   UNL     1      -4.836  -1.721   0.852  1.00  0.00    -0.224 OA
BRANCH  15  17
ATOM     17  O   UNL     1      -3.457  -3.523   0.567  1.00  0.00    -0.444 OA
BRANCH  17  18
ATOM     18  C   UNL     1      -4.571  -4.453   0.472  1.00  0.00     0.106 C 
ATOM     19  C   UNL     1      -5.329  -4.535   1.805  1.00  0.00     0.056 C 
ATOM     20  C   UNL     1      -5.510  -4.125  -0.697  1.00  0.00     0.056 C 
ATOM     21  C   UNL     1      -3.924  -5.819   0.198  1.00  0.00     0.056 C 
ENDBRANCH  17  18
ENDBRANCH  15  17
ENDBRANCH   9  15
ENDBRANCH   3   5
ENDBRANCH   2   3
ENDBRANCH   1   2
BRANCH   1  22
ATOM     22  C   UNL     1      -0.256   1.896  -2.701  1.00  0.00     0.275 C 
BRANCH  22  23
ATOM     23  O   UNL     1      -1.533   2.482  -2.405  1.00  0.00    -0.458 OA
BRANCH  23  24
ATOM     24  C   UNL     1      -2.575   1.621  -2.446  1.00  0.00     0.338 C 
ATOM     25  O   UNL     1      -2.546   0.441  -2.749  1.00  0.00    -0.246 OA
BRANCH  24  26
ATOM     26  C   UNL     1      -3.801   2.309  -2.022  1.00  0.00     0.060 A 
ATOM     27  C   UNL     1      -3.974   2.641  -0.677  1.00  0.00     0.016 A 
ATOM     28  C   UNL     1      -4.838   2.484  -2.932  1.00  0.00     0.016 A 
ATOM     29  C   UNL     1      -5.218   3.049  -0.211  1.00  0.00     0.010 A 
ATOM     30  C   UNL     1      -6.055   2.997  -2.482  1.00  0.00     0.010 A 
ATOM     31  C   UNL     1      -6.265   3.253  -1.114  1.00  0.00    -0.014 A 
BRANCH  31  32
ATOM     32  C   UNL     1      -7.595   3.722  -0.656  1.00  0.00     0.031 A 
ATOM     33  C   UNL     1      -8.803   2.867  -0.908  1.00  0.00     0.074 A 
ATOM     34  C   UNL     1      -7.723   4.933  -0.080  1.00  0.00     0.049 A 
ATOM     35  N   UNL     1     -10.066   3.201  -0.899  1.00  0.00    -0.248 NA
ATOM     36  C   UNL     1      -8.552   1.452  -1.232  1.00  0.00     0.031 C 
ATOM     37  C   UNL     1      -6.620   5.819   0.300  1.00  0.00     0.029 A 
ATOM     38  N   UNL     1      -8.849   5.641   0.260  1.00  0.00    -0.354 N 
ATOM     39  C   UNL     1     -10.759   2.055  -1.274  1.00  0.00     0.074 A 
ATOM     40  C   UNL     1      -9.776   1.017  -1.499  1.00  0.00     0.031 C 
ATOM     41  C   UNL     1      -7.123   6.953   0.810  1.00  0.00     0.029 A 
ATOM     42  C   UNL     1      -8.576   6.913   0.705  1.00  0.00     0.049 A 
ATOM     43  H   UNL     1      -9.760   5.275   0.192  1.00  0.00     0.167 HD
ATOM     44  C   UNL     1     -12.095   1.899  -1.429  1.00  0.00     0.031 A 
ATOM     45  C   UNL     1      -9.396   7.956   0.934  1.00  0.00     0.031 A 
ATOM     46  C   UNL     1     -13.053   2.944  -1.175  1.00  0.00     0.049 A 
ATOM     47  C   UNL     1     -10.868   7.787   0.684  1.00  0.00     0.074 A 
ATOM     48  C   UNL     1     -14.430   2.901  -1.301  1.00  0.00     0.029 A 
ATOM     49  N   UNL     1     -12.730   4.219  -0.732  1.00  0.00    -0.354 N 
ATOM     50  N   UNL     1     -11.514   6.723   0.267  1.00  0.00    -0.248 NA
ATOM     51  C   UNL     1     -11.723   8.958   0.921  1.00  0.00     0.031 C 
ATOM     52  C   UNL     1     -14.935   4.163  -0.978  1.00  0.00     0.029 A 
ATOM     53  C   UNL     1     -13.880   4.975  -0.592  1.00  0.00     0.049 A 
ATOM     54  H   UNL     1     -11.818   4.538  -0.544  1.00  0.00     0.167 HD
ATOM     55  C   UNL     1     -12.854   7.087   0.224  1.00  0.00     0.074 A 
ATOM     56  C   UNL     1     -12.927   8.468   0.656  1.00  0.00     0.031 C 
ATOM     57  C   UNL     1     -13.928   6.342  -0.136  1.00  0.00     0.031 A 
BRANCH  44  58
ATOM     58  C   UNL     1     -12.594   0.576  -1.946  1.00  0.00    -0.014 A 
ATOM     59  C   UNL     1     -12.572  -0.584  -1.152  1.00  0.00     0.010 A 
ATOM     60  C   UNL     1     -13.131   0.503  -3.245  1.00  0.00     0.010 A 
ATOM     61  C   UNL     1     -13.041  -1.800  -1.662  1.00  0.00     0.020 A 
ATOM     62  C   UNL     1     -13.625  -0.703  -3.749  1.00  0.00     0.020 A 
ATOM     63  C   UNL     1     -13.561  -1.852  -2.959  1.00  0.00     0.054 A 
BRANCH  63  64
ATOM     64  S   UNL     1     -14.179  -3.437  -3.591  1.00  0.00     0.124 S 
ATOM     65  O   UNL     1     -12.940  -4.172  -3.829  1.00  0.00    -0.237 OA
ATOM     66  O   UNL     1     -14.996  -3.928  -2.484  1.00  0.00    -0.237 OA
ATOM     67  O   UNL     1     -14.923  -3.066  -4.792  1.00  0.00    -0.744 OA
ENDBRANCH  63  64
ENDBRANCH  44  58
BRANCH  45  68
ATOM     68  C   UNL     1      -8.829   9.262   1.367  1.00  0.00    -0.014 A 
ATOM     69  C   UNL     1      -9.053   9.741   2.669  1.00  0.00     0.010 A 
ATOM     70  C   UNL     1      -8.033  10.020   0.487  1.00  0.00     0.010 A 
ATOM     71  C   UNL     1      -8.502  10.959   3.079  1.00  0.00     0.020 A 
ATOM     72  C   UNL     1      -7.456  11.223   0.903  1.00  0.00     0.020 A 
ATOM     73  C   UNL     1      -7.704  11.691   2.194  1.00  0.00     0.054 A 
BRANCH  73  74
ATOM     74  S   UNL     1      -6.955  13.241   2.767  1.00  0.00     0.124 S 
ATOM     75  O   UNL     1      -8.101  14.144   2.783  1.00  0.00    -0.237 OA
ATOM     76  O   UNL     1      -6.423  12.870   4.076  1.00  0.00    -0.237 OA
ATOM     77  O   UNL     1      -5.944  13.528   1.752  1.00  0.00    -0.744 OA
ENDBRANCH  73  74
ENDBRANCH  45  68
BRANCH  57  78
ATOM     78  C   UNL     1     -15.286   6.974  -0.013  1.00  0.00    -0.014 A 
ATOM     79  C   UNL     1     -15.746   7.908  -0.956  1.00  0.00     0.010 A 
ATOM     80  C   UNL     1     -16.152   6.539   1.008  1.00  0.00     0.010 A 
ATOM     81  C   UNL     1     -17.052   8.399  -0.878  1.00  0.00     0.020 A 
ATOM     82  C   UNL     1     -17.464   7.010   1.075  1.00  0.00     0.020 A 
ATOM     83  C   UNL     1     -17.905   7.941   0.132  1.00  0.00     0.054 A 
BRANCH  83  84
ATOM     84  S   UNL     1     -19.623   8.521   0.155  1.00  0.00     0.124 S 
ATOM     85  O   UNL     1     -19.476   9.891   0.638  1.00  0.00    -0.237 OA
ATOM     86  O   UNL     1     -20.026   8.386  -1.243  1.00  0.00    -0.237 OA
ATOM     87  O   UNL     1     -20.287   7.603   1.079  1.00  0.00    -0.744 OA
ENDBRANCH  83  84
ENDBRANCH  57  78
ENDBRANCH  31  32
ENDBRANCH  24  26
ENDBRANCH  23  24
ENDBRANCH  22  23
ENDBRANCH   1  22
TORSDOF 20
