REMARK SMILES COc1ccc2c(c1)c(Cc1nc(-c3ccc(C(=O)OCCOC(=O)c4ccc(-c5c6nc(c(-c7ccc(S(=O)(=O)[O-])cc7)c7ccc([nH]7)c(-c7ccc(S(=O)(=O)[O-])cc7)c7nc(c(-c8ccc(S(=O)(=O)[O-])cc8)c8ccc5[nH]8)C=C7)C=C6)cc4)cc3)cs1)c(C)n2C(=O)c1ccc(Cl)cc1
REMARK SMILES IDX 21 1 20 2 18 3 19 4 17 5 14 6 15 7 87 8 16 9 86 10 13 11
REMARK SMILES IDX 11 12 12 13 89 14 88 15 10 16 9 17 3 18 4 19 8 20 5 21 7 22
REMARK SMILES IDX 6 23 92 24 90 25 91 26 2 27 1 28 93 29 94 30 95 31 96 32
REMARK SMILES IDX 101 33 97 34 100 35 98 36 99 37 22 38 23 39 24 40 25 41
REMARK SMILES IDX 26 42 27 43 85 44 28 45 84 46 29 47 30 48 31 49 78 50 32 51
REMARK SMILES IDX 83 52 77 53 79 54 33 55 82 56 76 57 75 58 34 60 64 61 45 62
REMARK SMILES IDX 63 63 46 64 49 65 62 66 80 67 47 68 48 69 61 71 81 72 50 73
REMARK SMILES IDX 35 74 36 75 44 76 37 77 43 78 38 79 39 80 40 81 41 82 42 83
REMARK SMILES IDX 65 84 66 85 74 86 67 87 73 88 68 89 69 90 70 91 71 92 72 93
REMARK SMILES IDX 51 94 52 95 60 96 53 97 59 98 54 99 55 100 56 101 57 102
REMARK SMILES IDX 58 103
REMARK H PARENT 79 59 49 70
REMARK Flexibility Score: inf
ROOT
ATOM      1  C   UNL     1      -3.586   8.086  -2.189  1.00  0.00     0.275 C 
ENDROOT
BRANCH   1   2
ATOM      2  O   UNL     1      -3.670   7.089  -1.138  1.00  0.00    -0.458 OA
BRANCH   2   3
ATOM      3  C   UNL     1      -2.515   6.435  -0.852  1.00  0.00     0.338 C 
ATOM      4  O   UNL     1      -1.445   6.626  -1.407  1.00  0.00    -0.246 OA
BRANCH   3   5
ATOM      5  C   UNL     1      -2.668   5.543   0.338  1.00  0.00     0.060 A 
ATOM      6  C   UNL     1      -2.784   4.208   2.837  1.00  0.00     0.001 A 
ATOM      7  C   UNL     1      -1.593   4.765   2.396  1.00  0.00     0.011 A 
ATOM      8  C   UNL     1      -3.879   4.202   1.960  1.00  0.00     0.011 A 
ATOM      9  C   UNL     1      -1.555   5.390   1.154  1.00  0.00     0.016 A 
ATOM     10  C   UNL     1      -3.829   4.884   0.720  1.00  0.00     0.016 A 
BRANCH   6  11
ATOM     11  C   UNL     1      -2.836   3.689   4.194  1.00  0.00     0.081 A 
ATOM     12  C   UNL     1      -2.553   2.129   5.734  1.00  0.00     0.098 A 
ATOM     13  N   UNL     1      -2.895   2.340   4.473  1.00  0.00    -0.241 NA
ATOM     14  S   UNL     1      -2.485   3.549   6.710  1.00  0.00    -0.126 S 
ATOM     15  C   UNL     1      -2.694   4.507   5.301  1.00  0.00     0.095 A 
BRANCH  12  16
ATOM     16  C   UNL     1      -2.153   0.781   6.311  1.00  0.00     0.105 C 
BRANCH  16  17
ATOM     17  C   UNL     1      -0.668   0.533   6.165  1.00  0.00    -0.012 A 
ATOM     18  C   UNL     1       0.338   1.236   2.634  1.00  0.00     0.119 A 
ATOM     19  C   UNL     1       1.639   1.547   2.974  1.00  0.00     0.048 A 
ATOM     20  C   UNL     1      -0.490   0.715   3.604  1.00  0.00     0.057 A 
ATOM     21  C   UNL     1       2.214   1.129   4.175  1.00  0.00     0.031 A 
ATOM     22  C   UNL     1       0.002   0.572   4.920  1.00  0.00     0.008 A 
ATOM     23  C   UNL     1       1.371   0.668   5.188  1.00  0.00     0.057 A 
ATOM     24  N   UNL     1       1.580   0.290   6.525  1.00  0.00    -0.280 N 
ATOM     25  C   UNL     1       0.307   0.383   7.147  1.00  0.00     0.028 A 
ATOM     26  C   UNL     1       0.055   0.362   8.618  1.00  0.00     0.065 C 
BRANCH  18  27
ATOM     27  O   UNL     1      -0.117   1.559   1.386  1.00  0.00    -0.497 OA
ATOM     28  C   UNL     1      -0.663   0.441   0.678  1.00  0.00     0.278 C 
ENDBRANCH  18  27
BRANCH  24  29
ATOM     29  C   UNL     1       2.817  -0.083   7.159  1.00  0.00     0.262 C 
ATOM     30  O   UNL     1       2.790  -0.349   8.363  1.00  0.00    -0.268 OA
BRANCH  29  31
ATOM     31  C   UNL     1       4.150  -0.268   6.532  1.00  0.00     0.040 A 
ATOM     32  C   UNL     1       4.877   0.787   5.978  1.00  0.00     0.015 A 
ATOM     33  C   UNL     1       4.739  -1.540   6.605  1.00  0.00     0.015 A 
ATOM     34  C   UNL     1       6.088   0.531   5.320  1.00  0.00     0.021 A 
ATOM     35  C   UNL     1       5.968  -1.788   5.985  1.00  0.00     0.021 A 
ATOM     36  C   UNL     1       6.615  -0.760   5.305  1.00  0.00     0.041 A 
ATOM     37  Cl  UNL     1       8.074  -1.080   4.450  1.00  0.00    -0.084 Cl
ENDBRANCH  29  31
ENDBRANCH  24  29
ENDBRANCH  16  17
ENDBRANCH  12  16
ENDBRANCH   6  11
ENDBRANCH   3   5
ENDBRANCH   2   3
ENDBRANCH   1   2
BRANCH   1  38
ATOM     38  C   UNL     1      -3.993   9.469  -1.661  1.00  0.00     0.275 C 
BRANCH  38  39
ATOM     39  O   UNL     1      -2.874  10.050  -0.971  1.00  0.00    -0.458 OA
BRANCH  39  40
ATOM     40  C   UNL     1      -2.924  10.038   0.379  1.00  0.00     0.338 C 
ATOM     41  O   UNL     1      -3.936  10.055   1.074  1.00  0.00    -0.246 OA
BRANCH  40  42
ATOM     42  C   UNL     1      -1.581   9.633   0.852  1.00  0.00     0.060 A 
ATOM     43  C   UNL     1      -0.416   9.879   0.112  1.00  0.00     0.016 A 
ATOM     44  C   UNL     1      -1.540   8.752   1.923  1.00  0.00     0.016 A 
ATOM     45  C   UNL     1       0.704   9.048   0.274  1.00  0.00     0.010 A 
ATOM     46  C   UNL     1      -0.403   7.972   2.103  1.00  0.00     0.010 A 
ATOM     47  C   UNL     1       0.664   7.987   1.182  1.00  0.00    -0.014 A 
BRANCH  47  48
ATOM     48  C   UNL     1       1.802   7.028   1.348  1.00  0.00     0.031 A 
ATOM     49  C   UNL     1       2.644   7.492   2.479  1.00  0.00     0.074 A 
ATOM     50  C   UNL     1       2.106   5.842   0.732  1.00  0.00     0.049 A 
ATOM     51  N   UNL     1       3.657   8.286   2.370  1.00  0.00    -0.248 NA
ATOM     52  C   UNL     1       2.169   7.312   3.861  1.00  0.00     0.031 C 
ATOM     53  C   UNL     1       1.354   5.067  -0.263  1.00  0.00     0.029 A 
ATOM     54  N   UNL     1       3.189   5.003   0.929  1.00  0.00    -0.354 N 
ATOM     55  C   UNL     1       4.082   8.518   3.668  1.00  0.00     0.074 A 
ATOM     56  C   UNL     1       2.979   8.148   4.513  1.00  0.00     0.031 C 
ATOM     57  C   UNL     1       1.853   3.808  -0.388  1.00  0.00     0.029 A 
ATOM     58  C   UNL     1       3.113   3.720   0.327  1.00  0.00     0.049 A 
ATOM     59  H   UNL     1       3.970   5.282   1.459  1.00  0.00     0.167 HD
ATOM     60  C   UNL     1       5.399   8.697   3.956  1.00  0.00     0.031 A 
ATOM     61  C   UNL     1       4.032   2.695   0.389  1.00  0.00     0.031 A 
ATOM     62  C   UNL     1       6.176   8.815   2.746  1.00  0.00     0.049 A 
ATOM     63  C   UNL     1       5.302   3.369   0.706  1.00  0.00     0.074 A 
ATOM     64  C   UNL     1       6.290   9.731   1.724  1.00  0.00     0.029 A 
ATOM     65  N   UNL     1       6.681   7.626   2.275  1.00  0.00    -0.354 N 
ATOM     66  N   UNL     1       5.922   4.128  -0.147  1.00  0.00    -0.248 NA
ATOM     67  C   UNL     1       5.707   3.508   2.095  1.00  0.00     0.031 C 
ATOM     68  C   UNL     1       6.544   8.962   0.550  1.00  0.00     0.029 A 
ATOM     69  C   UNL     1       6.644   7.616   0.907  1.00  0.00     0.049 A 
ATOM     70  H   UNL     1       7.019   6.892   2.838  1.00  0.00     0.167 HD
ATOM     71  C   UNL     1       6.446   5.143   0.626  1.00  0.00     0.074 A 
ATOM     72  C   UNL     1       6.436   4.623   1.994  1.00  0.00     0.031 C 
ATOM     73  C   UNL     1       6.554   6.404   0.118  1.00  0.00     0.031 A 
BRANCH  60  74
ATOM     74  C   UNL     1       6.039   8.314   5.271  1.00  0.00    -0.014 A 
ATOM     75  C   UNL     1       5.395   7.574   6.282  1.00  0.00     0.010 A 
ATOM     76  C   UNL     1       7.428   8.511   5.420  1.00  0.00     0.010 A 
ATOM     77  C   UNL     1       6.080   7.071   7.388  1.00  0.00     0.020 A 
ATOM     78  C   UNL     1       8.134   7.975   6.506  1.00  0.00     0.020 A 
ATOM     79  C   UNL     1       7.450   7.266   7.488  1.00  0.00     0.054 A 
BRANCH  79  80
ATOM     80  S   UNL     1       8.308   6.525   8.894  1.00  0.00     0.124 S 
ATOM     81  O   UNL     1       7.764   7.291  10.012  1.00  0.00    -0.237 OA
ATOM     82  O   UNL     1       7.880   5.131   8.816  1.00  0.00    -0.237 OA
ATOM     83  O   UNL     1       9.718   6.763   8.598  1.00  0.00    -0.744 OA
ENDBRANCH  79  80
ENDBRANCH  60  74
BRANCH  61  84
ATOM     84  C   UNL     1       4.005   1.176   0.337  1.00  0.00    -0.014 A 
ATOM     85  C   UNL     1       2.799   0.473   0.339  1.00  0.00     0.010 A 
ATOM     86  C   UNL     1       5.149   0.408   0.678  1.00  0.00     0.010 A 
ATOM     87  C   UNL     1       2.675  -0.800   0.942  1.00  0.00     0.020 A 
ATOM     88  C   UNL     1       5.049  -0.886   1.245  1.00  0.00     0.020 A 
ATOM     89  C   UNL     1       3.792  -1.436   1.470  1.00  0.00     0.054 A 
BRANCH  89  90
ATOM     90  S   UNL     1       3.574  -2.905   2.530  1.00  0.00     0.124 S 
ATOM     91  O   UNL     1       3.433  -2.309   3.856  1.00  0.00    -0.237 OA
ATOM     92  O   UNL     1       2.362  -3.528   2.004  1.00  0.00    -0.237 OA
ATOM     93  O   UNL     1       4.801  -3.668   2.316  1.00  0.00    -0.744 OA
ENDBRANCH  89  90
ENDBRANCH  61  84
BRANCH  73  94
ATOM     94  C   UNL     1       6.374   6.588  -1.376  1.00  0.00    -0.014 A 
ATOM     95  C   UNL     1       7.454   7.145  -2.079  1.00  0.00     0.010 A 
ATOM     96  C   UNL     1       5.150   6.411  -2.056  1.00  0.00     0.010 A 
ATOM     97  C   UNL     1       7.308   7.574  -3.398  1.00  0.00     0.020 A 
ATOM     98  C   UNL     1       5.003   6.820  -3.394  1.00  0.00     0.020 A 
ATOM     99  C   UNL     1       6.079   7.429  -4.044  1.00  0.00     0.054 A 
BRANCH  99 100
ATOM    100  S   UNL     1       5.923   8.092  -5.726  1.00  0.00     0.124 S 
ATOM    101  O   UNL     1       5.952   9.535  -5.494  1.00  0.00    -0.237 OA
ATOM    102  O   UNL     1       7.102   7.548  -6.398  1.00  0.00    -0.237 OA
ATOM    103  O   UNL     1       4.645   7.567  -6.202  1.00  0.00    -0.744 OA
ENDBRANCH  99 100
ENDBRANCH  73  94
ENDBRANCH  47  48
ENDBRANCH  40  42
ENDBRANCH  39  40
ENDBRANCH  38  39
ENDBRANCH   1  38
TORSDOF 20
