REMARK SMILES Cc1cccc(N2CCN(c3ncc(NC(=O)c4ccccc4F)cc3C(=O)OCCOC(=O)c3ccc(-c4c5nc(c(-c6ccc(S(=O)(=O)[O-])cc6)c6ccc([nH]6)c(-c6ccc(S(=O)(=O)[O-])cc6)c6nc(c(-c7ccc(S(=O)(=O)[O-])cc7)c7ccc4[nH]7)C=C6)C=C5)cc3)C[C@@H]2C)c1
REMARK SMILES IDX 31 1 30 2 29 3 27 4 28 5 26 6 11 7 12 8 13 9 25 10 14 11
REMARK SMILES IDX 10 12 7 13 8 14 96 15 9 16 95 17 97 18 6 19 1 20 2 21 3 22
REMARK SMILES IDX 98 23 4 24 5 25 15 26 16 27 17 29 18 30 19 31 23 32 20 33
REMARK SMILES IDX 22 34 24 35 21 36 32 37 33 38 34 39 35 40 36 41 94 42 37 43
REMARK SMILES IDX 93 44 38 45 39 46 40 47 87 48 41 49 92 50 86 51 88 52 42 53
REMARK SMILES IDX 91 54 85 55 84 56 43 58 73 59 54 60 72 61 55 62 58 63 71 64
REMARK SMILES IDX 89 65 56 66 57 67 70 69 90 70 59 71 44 72 45 73 53 74 46 75
REMARK SMILES IDX 52 76 47 77 48 78 49 79 50 80 51 81 74 82 75 83 83 84 76 85
REMARK SMILES IDX 82 86 77 87 78 88 79 89 80 90 81 91 60 92 61 93 69 94 62 95
REMARK SMILES IDX 68 96 63 97 64 98 65 99 66 100 67 101
REMARK H PARENT 15 28 88 57 58 68
REMARK Flexibility Score: inf
ROOT
ATOM      1  C   UNL     1      -4.923   6.754  -4.587  1.00  0.00     0.275 C 
ENDROOT
BRANCH   1   2
ATOM      2  C   UNL     1      -5.782   7.039  -3.324  1.00  0.00     0.275 C 
BRANCH   2   3
ATOM      3  O   UNL     1      -5.061   7.388  -2.101  1.00  0.00    -0.458 OA
BRANCH   3   4
ATOM      4  C   UNL     1      -5.522   6.764  -0.967  1.00  0.00     0.342 C 
ATOM      5  O   UNL     1      -6.565   6.110  -0.953  1.00  0.00    -0.246 OA
BRANCH   4   6
ATOM      6  C   UNL     1      -5.015   7.230   0.356  1.00  0.00     0.104 A 
ATOM      7  C   UNL     1      -4.202   6.645   1.395  1.00  0.00     0.143 A 
ATOM      8  N   UNL     1      -4.401   7.060   2.682  1.00  0.00    -0.236 NA
ATOM      9  C   UNL     1      -5.412   7.910   2.975  1.00  0.00     0.139 A 
ATOM     10  C   UNL     1      -5.984   8.187   0.715  1.00  0.00     0.047 A 
ATOM     11  C   UNL     1      -6.222   8.500   2.026  1.00  0.00     0.061 A 
BRANCH   7  12
ATOM     12  N   UNL     1      -3.271   5.588   1.314  1.00  0.00    -0.352 N 
ATOM     13  N   UNL     1      -1.254   3.380   1.594  1.00  0.00    -0.365 N 
ATOM     14  C   UNL     1      -2.605   3.303   2.203  1.00  0.00     0.138 C 
ATOM     15  C   UNL     1      -0.927   4.641   0.810  1.00  0.00     0.098 C 
ATOM     16  C   UNL     1      -3.364   4.623   2.450  1.00  0.00     0.139 C 
ATOM     17  C   UNL     1      -1.802   5.920   1.215  1.00  0.00     0.142 C 
ATOM     18  C   UNL     1      -1.201   4.564  -0.666  1.00  0.00     0.033 C 
BRANCH  13  19
ATOM     19  C   UNL     1      -0.552   2.142   1.476  1.00  0.00     0.037 A 
ATOM     20  C   UNL     1       2.665   0.533  -0.010  1.00  0.00     0.044 C 
ATOM     21  C   UNL     1       1.323   0.702   0.656  1.00  0.00    -0.049 A 
ATOM     22  C   UNL     1       0.635  -0.464   0.988  1.00  0.00     0.003 A 
ATOM     23  C   UNL     1       0.726   1.984   0.896  1.00  0.00     0.029 A 
ATOM     24  C   UNL     1      -0.584  -0.359   1.627  1.00  0.00     0.002 A 
ATOM     25  C   UNL     1      -1.133   0.911   1.896  1.00  0.00     0.026 A 
ENDBRANCH  13  19
ENDBRANCH   7  12
BRANCH  11  26
ATOM     26  N   UNL     1      -7.257   9.406   2.279  1.00  0.00    -0.320 N 
ATOM     27  C   UNL     1      -7.206  10.511   3.091  1.00  0.00     0.258 C 
ATOM     28  H   UNL     1      -8.113   9.233   1.825  1.00  0.00     0.170 HD
ATOM     29  O   UNL     1      -8.214  11.168   3.334  1.00  0.00    -0.269 OA
BRANCH  27  30
ATOM     30  C   UNL     1      -5.906  10.942   3.636  1.00  0.00     0.075 A 
ATOM     31  C   UNL     1      -5.832  11.233   4.997  1.00  0.00     0.017 A 
ATOM     32  C   UNL     1      -4.758  11.021   2.840  1.00  0.00     0.135 A 
ATOM     33  C   UNL     1      -4.593  11.524   5.566  1.00  0.00     0.001 A 
ATOM     34  C   UNL     1      -3.518  11.261   3.414  1.00  0.00     0.040 A 
ATOM     35  F   UNL     1      -4.816  10.843   1.511  1.00  0.00    -0.206 F 
ATOM     36  C   UNL     1      -3.435  11.509   4.782  1.00  0.00     0.003 A 
ENDBRANCH  27  30
ENDBRANCH  11  26
ENDBRANCH   4   6
ENDBRANCH   3   4
ENDBRANCH   2   3
ENDBRANCH   1   2
BRANCH   1  37
ATOM     37  O   UNL     1      -3.661   6.071  -4.468  1.00  0.00    -0.458 OA
BRANCH  37  38
ATOM     38  C   UNL     1      -3.325   5.625  -3.244  1.00  0.00     0.338 C 
ATOM     39  O   UNL     1      -2.588   6.275  -2.499  1.00  0.00    -0.246 OA
BRANCH  38  40
ATOM     40  C   UNL     1      -4.148   4.455  -2.851  1.00  0.00     0.060 A 
ATOM     41  C   UNL     1      -4.446   4.261  -1.494  1.00  0.00     0.016 A 
ATOM     42  C   UNL     1      -4.856   3.756  -3.817  1.00  0.00     0.016 A 
ATOM     43  C   UNL     1      -5.466   3.456  -1.057  1.00  0.00     0.010 A 
ATOM     44  C   UNL     1      -5.958   3.049  -3.416  1.00  0.00     0.010 A 
ATOM     45  C   UNL     1      -6.237   2.902  -2.047  1.00  0.00    -0.014 A 
BRANCH  45  46
ATOM     46  C   UNL     1      -7.309   2.006  -1.717  1.00  0.00     0.031 A 
ATOM     47  C   UNL     1      -8.514   2.604  -1.095  1.00  0.00     0.074 A 
ATOM     48  C   UNL     1      -6.997   0.752  -2.119  1.00  0.00     0.049 A 
ATOM     49  N   UNL     1      -9.225   2.070  -0.163  1.00  0.00    -0.248 NA
ATOM     50  C   UNL     1      -8.968   3.983  -1.375  1.00  0.00     0.031 C 
ATOM     51  C   UNL     1      -7.794  -0.435  -2.277  1.00  0.00     0.029 A 
ATOM     52  N   UNL     1      -5.694   0.277  -2.373  1.00  0.00    -0.354 N 
ATOM     53  C   UNL     1     -10.446   2.724  -0.241  1.00  0.00     0.074 A 
ATOM     54  C   UNL     1     -10.147   4.035  -0.738  1.00  0.00     0.031 C 
ATOM     55  C   UNL     1      -6.985  -1.511  -2.196  1.00  0.00     0.029 A 
ATOM     56  C   UNL     1      -5.629  -1.043  -1.933  1.00  0.00     0.049 A 
ATOM     57  H   UNL     1      -4.961   0.786  -2.788  1.00  0.00     0.167 HD
ATOM     58  C   UNL     1     -11.580   1.965  -0.292  1.00  0.00     0.031 A 
ATOM     59  C   UNL     1      -4.858  -1.364  -0.851  1.00  0.00     0.031 A 
ATOM     60  C   UNL     1     -11.210   0.559  -0.169  1.00  0.00     0.049 A 
ATOM     61  C   UNL     1      -5.762  -1.568   0.367  1.00  0.00     0.074 A 
ATOM     62  C   UNL     1     -11.038  -0.431  -1.121  1.00  0.00     0.029 A 
ATOM     63  N   UNL     1     -10.543   0.140   0.968  1.00  0.00    -0.354 N 
ATOM     64  N   UNL     1      -6.970  -1.072   0.475  1.00  0.00    -0.248 NA
ATOM     65  C   UNL     1      -5.428  -2.429   1.501  1.00  0.00     0.031 C 
ATOM     66  C   UNL     1     -10.183  -1.417  -0.564  1.00  0.00     0.029 A 
ATOM     67  C   UNL     1      -9.784  -0.980   0.685  1.00  0.00     0.049 A 
ATOM     68  H   UNL     1     -10.600   0.575   1.849  1.00  0.00     0.167 HD
ATOM     69  C   UNL     1      -7.627  -1.670   1.524  1.00  0.00     0.074 A 
ATOM     70  C   UNL     1      -6.595  -2.461   2.174  1.00  0.00     0.031 C 
ATOM     71  C   UNL     1      -8.976  -1.564   1.740  1.00  0.00     0.031 A 
BRANCH  58  72
ATOM     72  C   UNL     1     -12.928   2.391  -0.836  1.00  0.00    -0.014 A 
ATOM     73  C   UNL     1     -13.776   1.384  -1.352  1.00  0.00     0.010 A 
ATOM     74  C   UNL     1     -13.433   3.704  -0.873  1.00  0.00     0.010 A 
ATOM     75  C   UNL     1     -15.029   1.653  -1.904  1.00  0.00     0.020 A 
ATOM     76  C   UNL     1     -14.701   3.992  -1.425  1.00  0.00     0.020 A 
ATOM     77  C   UNL     1     -15.490   2.960  -1.937  1.00  0.00     0.054 A 
BRANCH  77  78
ATOM     78  S   UNL     1     -17.145   3.253  -2.615  1.00  0.00     0.124 S 
ATOM     79  O   UNL     1     -17.007   2.786  -3.993  1.00  0.00    -0.237 OA
ATOM     80  O   UNL     1     -17.988   2.426  -1.755  1.00  0.00    -0.237 OA
ATOM     81  O   UNL     1     -17.332   4.694  -2.466  1.00  0.00    -0.744 OA
ENDBRANCH  77  78
ENDBRANCH  58  72
BRANCH  59  82
ATOM     82  C   UNL     1      -3.485  -0.754  -0.905  1.00  0.00    -0.014 A 
ATOM     83  C   UNL     1      -2.513  -1.321  -1.759  1.00  0.00     0.010 A 
ATOM     84  C   UNL     1      -3.270   0.569  -0.519  1.00  0.00     0.010 A 
ATOM     85  C   UNL     1      -1.418  -0.581  -2.256  1.00  0.00     0.020 A 
ATOM     86  C   UNL     1      -2.209   1.328  -1.082  1.00  0.00     0.020 A 
ATOM     87  C   UNL     1      -1.268   0.766  -1.949  1.00  0.00     0.054 A 
BRANCH  87  88
ATOM     88  S   UNL     1       0.109   1.655  -2.834  1.00  0.00     0.124 S 
ATOM     89  O   UNL     1       1.070   0.584  -3.096  1.00  0.00    -0.237 OA
ATOM     90  O   UNL     1      -0.587   2.166  -4.012  1.00  0.00    -0.237 OA
ATOM     91  O   UNL     1       0.657   2.675  -1.951  1.00  0.00    -0.744 OA
ENDBRANCH  87  88
ENDBRANCH  59  82
BRANCH  71  92
ATOM     92  C   UNL     1      -9.766  -2.097   2.911  1.00  0.00    -0.014 A 
ATOM     93  C   UNL     1      -9.236  -2.342   4.178  1.00  0.00     0.010 A 
ATOM     94  C   UNL     1     -11.177  -2.226   2.764  1.00  0.00     0.010 A 
ATOM     95  C   UNL     1     -10.064  -2.780   5.222  1.00  0.00     0.020 A 
ATOM     96  C   UNL     1     -12.017  -2.584   3.810  1.00  0.00     0.020 A 
ATOM     97  C   UNL     1     -11.444  -2.906   5.027  1.00  0.00     0.054 A 
BRANCH  97  98
ATOM     98  S   UNL     1     -12.493  -3.488   6.375  1.00  0.00     0.124 S 
ATOM     99  O   UNL     1     -12.280  -4.931   6.309  1.00  0.00    -0.237 OA
ATOM    100  O   UNL     1     -11.919  -2.820   7.540  1.00  0.00    -0.237 OA
ATOM    101  O   UNL     1     -13.829  -3.034   5.997  1.00  0.00    -0.744 OA
ENDBRANCH  97  98
ENDBRANCH  71  92
ENDBRANCH  45  46
ENDBRANCH  38  40
ENDBRANCH  37  38
ENDBRANCH   1  37
TORSDOF 18
