REMARK SMILES CC(C)C[C@H](CNC(=O)N[C@@H]1CCC[C@@H](C)[C@H]1C)C(=O)OCCOC(=O)c1ccc(-c2c3nc(c(-c4ccc(S(=O)(=O)[O-])cc4)c4ccc([nH]4)c(-c4ccc(S(=O)(=O)[O-])cc4)c4nc(c(-c5ccc(S(=O)(=O)[O-])cc5)c5ccc2[nH]5)C=C4)C=C3)cc1
REMARK SMILES IDX 22 1 21 2 19 3 20 4 5 5 4 6 2 7 1 8 3 9 6 10 7 11 8 12 9 14
REMARK SMILES IDX 10 15 11 17 12 18 17 19 13 20 15 21 18 22 14 23 16 24 23 25
REMARK SMILES IDX 24 26 25 27 26 28 27 29 28 30 86 31 29 32 85 33 30 34 31 35
REMARK SMILES IDX 32 36 79 37 33 38 84 39 78 40 80 41 34 42 83 43 77 44 76 45
REMARK SMILES IDX 35 47 65 48 46 49 64 50 47 51 50 52 63 53 81 54 48 55 49 56
REMARK SMILES IDX 62 58 82 59 51 60 36 61 37 62 45 63 38 64 44 65 39 66 40 67
REMARK SMILES IDX 41 68 42 69 43 70 66 71 67 72 75 73 68 74 74 75 69 76 70 77
REMARK SMILES IDX 71 78 72 79 73 80 52 81 53 82 61 83 54 84 60 85 55 86 56 87
REMARK SMILES IDX 57 88 58 89 59 90
REMARK H PARENT 7 13 10 16 80 46 50 57
REMARK Flexibility Score: inf
ROOT
ATOM      1  C   UNL     1      -5.192  -1.238  -1.665  1.00  0.00     0.274 C 
ENDROOT
BRANCH   1   2
ATOM      2  O   UNL     1      -3.761  -1.417  -1.745  1.00  0.00    -0.462 OA
BRANCH   2   3
ATOM      3  C   UNL     1      -3.048  -0.305  -2.071  1.00  0.00     0.310 C 
ATOM      4  O   UNL     1      -3.561   0.783  -2.309  1.00  0.00    -0.252 OA
BRANCH   3   5
ATOM      5  C   UNL     1      -1.546  -0.540  -2.169  1.00  0.00     0.119 C 
BRANCH   5   6
ATOM      6  C   UNL     1      -1.129  -0.747  -3.638  1.00  0.00     0.020 C 
BRANCH   6   7
ATOM      7  C   UNL     1      -1.518   0.384  -4.615  1.00  0.00    -0.017 C 
ATOM      8  C   UNL     1      -1.021   1.762  -4.170  1.00  0.00     0.007 C 
ATOM      9  C   UNL     1      -0.964   0.069  -6.007  1.00  0.00     0.007 C 
ENDBRANCH   6   7
ENDBRANCH   5   6
BRANCH   5  10
ATOM     10  C   UNL     1      -1.073  -1.679  -1.249  1.00  0.00     0.133 C 
BRANCH  10  11
ATOM     11  N   UNL     1       0.354  -1.955  -1.389  1.00  0.00    -0.337 N 
ATOM     12  C   UNL     1       1.467  -1.521  -0.792  1.00  0.00     0.315 C 
ATOM     13  H   UNL     1       0.540  -2.620  -2.091  1.00  0.00     0.165 HD
ATOM     14  O   UNL     1       2.534  -1.695  -1.386  1.00  0.00    -0.249 OA
ATOM     15  N   UNL     1       1.506  -0.944   0.413  1.00  0.00    -0.335 N 
ATOM     16  H   UNL     1       2.358  -0.486   0.595  1.00  0.00     0.165 HD
BRANCH  15  17
ATOM     17  C   UNL     1       0.553  -0.849   1.520  1.00  0.00     0.087 C 
ATOM     18  C   UNL     1       1.184  -0.071   2.697  1.00  0.00     0.025 C 
ATOM     19  C   UNL     1       0.077  -2.248   1.988  1.00  0.00     0.011 C 
ATOM     20  C   UNL     1       2.249  -0.865   3.465  1.00  0.00     0.002 C 
ATOM     21  C   UNL     1       1.250  -3.029   2.628  1.00  0.00    -0.009 C 
ATOM     22  C   UNL     1      -1.142  -2.106   2.915  1.00  0.00     0.010 C 
ATOM     23  C   UNL     1       1.812  -2.282   3.842  1.00  0.00     0.004 C 
ATOM     24  C   UNL     1       0.887  -4.482   2.946  1.00  0.00     0.008 C 
ENDBRANCH  15  17
ENDBRANCH  10  11
ENDBRANCH   5  10
ENDBRANCH   3   5
ENDBRANCH   2   3
ENDBRANCH   1   2
BRANCH   1  25
ATOM     25  C   UNL     1      -5.688  -0.878  -0.256  1.00  0.00     0.275 C 
BRANCH  25  26
ATOM     26  O   UNL     1      -5.298   0.444   0.160  1.00  0.00    -0.458 OA
BRANCH  26  27
ATOM     27  C   UNL     1      -4.076   0.499   0.739  1.00  0.00     0.338 C 
ATOM     28  O   UNL     1      -3.341  -0.452   0.951  1.00  0.00    -0.246 OA
BRANCH  27  29
ATOM     29  C   UNL     1      -3.634   1.885   0.964  1.00  0.00     0.060 A 
ATOM     30  C   UNL     1      -2.358   2.232   0.506  1.00  0.00     0.016 A 
ATOM     31  C   UNL     1      -4.393   2.798   1.697  1.00  0.00     0.016 A 
ATOM     32  C   UNL     1      -1.825   3.484   0.786  1.00  0.00     0.010 A 
ATOM     33  C   UNL     1      -3.853   4.057   1.985  1.00  0.00     0.010 A 
ATOM     34  C   UNL     1      -2.561   4.399   1.546  1.00  0.00    -0.014 A 
BRANCH  34  35
ATOM     35  C   UNL     1      -1.928   5.677   1.944  1.00  0.00     0.031 A 
ATOM     36  C   UNL     1      -1.401   5.841   3.341  1.00  0.00     0.074 A 
ATOM     37  C   UNL     1      -1.778   6.663   1.041  1.00  0.00     0.049 A 
ATOM     38  N   UNL     1      -0.828   6.879   3.892  1.00  0.00    -0.248 NA
ATOM     39  C   UNL     1      -1.534   4.679   4.234  1.00  0.00     0.031 C 
ATOM     40  C   UNL     1      -2.187   6.593  -0.362  1.00  0.00     0.029 A 
ATOM     41  N   UNL     1      -1.230   7.914   1.171  1.00  0.00    -0.354 N 
ATOM     42  C   UNL     1      -0.551   6.507   5.201  1.00  0.00     0.074 A 
ATOM     43  C   UNL     1      -1.033   5.152   5.366  1.00  0.00     0.031 C 
ATOM     44  C   UNL     1      -1.865   7.749  -0.967  1.00  0.00     0.029 A 
ATOM     45  C   UNL     1      -1.269   8.653   0.013  1.00  0.00     0.049 A 
ATOM     46  H   UNL     1      -0.846   8.250   2.013  1.00  0.00     0.167 HD
ATOM     47  C   UNL     1       0.048   7.229   6.179  1.00  0.00     0.031 A 
ATOM     48  C   UNL     1      -0.882   9.921  -0.226  1.00  0.00     0.031 A 
ATOM     49  C   UNL     1       0.514   8.581   6.012  1.00  0.00     0.049 A 
ATOM     50  C   UNL     1      -0.282  10.728   0.893  1.00  0.00     0.074 A 
ATOM     51  C   UNL     1       1.131   9.401   6.941  1.00  0.00     0.029 A 
ATOM     52  N   UNL     1       0.410   9.314   4.839  1.00  0.00    -0.354 N 
ATOM     53  N   UNL     1      -0.036  10.367   2.130  1.00  0.00    -0.248 NA
ATOM     54  C   UNL     1       0.096  12.112   0.581  1.00  0.00     0.031 C 
ATOM     55  C   UNL     1       1.356  10.647   6.343  1.00  0.00     0.029 A 
ATOM     56  C   UNL     1       0.931  10.584   5.024  1.00  0.00     0.049 A 
ATOM     57  H   UNL     1       0.022   8.981   3.997  1.00  0.00     0.167 HD
ATOM     58  C   UNL     1       0.554  11.470   2.737  1.00  0.00     0.074 A 
ATOM     59  C   UNL     1       0.632  12.508   1.728  1.00  0.00     0.031 C 
ATOM     60  C   UNL     1       0.998  11.608   4.011  1.00  0.00     0.031 A 
BRANCH  47  61
ATOM     61  C   UNL     1       0.171   6.581   7.532  1.00  0.00    -0.014 A 
ATOM     62  C   UNL     1       1.069   5.523   7.762  1.00  0.00     0.010 A 
ATOM     63  C   UNL     1      -0.637   7.034   8.591  1.00  0.00     0.010 A 
ATOM     64  C   UNL     1       1.112   4.891   9.008  1.00  0.00     0.020 A 
ATOM     65  C   UNL     1      -0.578   6.423   9.846  1.00  0.00     0.020 A 
ATOM     66  C   UNL     1       0.278   5.337  10.038  1.00  0.00     0.054 A 
BRANCH  66  67
ATOM     67  S   UNL     1       0.330   4.483  11.638  1.00  0.00     0.124 S 
ATOM     68  O   UNL     1      -0.399   3.251  11.343  1.00  0.00    -0.237 OA
ATOM     69  O   UNL     1       1.763   4.323  11.872  1.00  0.00    -0.237 OA
ATOM     70  O   UNL     1      -0.347   5.406  12.545  1.00  0.00    -0.744 OA
ENDBRANCH  66  67
ENDBRANCH  47  61
BRANCH  48  71
ATOM     71  C   UNL     1      -1.057  10.501  -1.584  1.00  0.00    -0.014 A 
ATOM     72  C   UNL     1       0.057  10.745  -2.406  1.00  0.00     0.010 A 
ATOM     73  C   UNL     1      -2.345  10.784  -2.075  1.00  0.00     0.010 A 
ATOM     74  C   UNL     1      -0.114  11.265  -3.692  1.00  0.00     0.020 A 
ATOM     75  C   UNL     1      -2.521  11.280  -3.369  1.00  0.00     0.020 A 
ATOM     76  C   UNL     1      -1.403  11.524  -4.168  1.00  0.00     0.054 A 
BRANCH  76  77
ATOM     77  S   UNL     1      -1.604  12.130  -5.867  1.00  0.00     0.124 S 
ATOM     78  O   UNL     1      -1.165  13.517  -5.748  1.00  0.00    -0.237 OA
ATOM     79  O   UNL     1      -0.720  11.248  -6.624  1.00  0.00    -0.237 OA
ATOM     80  O   UNL     1      -3.030  11.945  -6.129  1.00  0.00    -0.744 OA
ENDBRANCH  76  77
ENDBRANCH  48  71
BRANCH  60  81
ATOM     81  C   UNL     1       1.651  12.915   4.377  1.00  0.00    -0.014 A 
ATOM     82  C   UNL     1       0.897  14.089   4.545  1.00  0.00     0.010 A 
ATOM     83  C   UNL     1       3.040  12.954   4.596  1.00  0.00     0.010 A 
ATOM     84  C   UNL     1       1.526  15.288   4.892  1.00  0.00     0.020 A 
ATOM     85  C   UNL     1       3.669  14.144   4.968  1.00  0.00     0.020 A 
ATOM     86  C   UNL     1       2.910  15.309   5.098  1.00  0.00     0.054 A 
BRANCH  86  87
ATOM     87  S   UNL     1       3.701  16.868   5.581  1.00  0.00     0.124 S 
ATOM     88  O   UNL     1       3.723  17.601   4.319  1.00  0.00    -0.237 OA
ATOM     89  O   UNL     1       2.791  17.391   6.597  1.00  0.00    -0.237 OA
ATOM     90  O   UNL     1       5.009  16.451   6.083  1.00  0.00    -0.744 OA
ENDBRANCH  86  87
ENDBRANCH  60  81
ENDBRANCH  34  35
ENDBRANCH  27  29
ENDBRANCH  26  27
ENDBRANCH  25  26
ENDBRANCH   1  25
TORSDOF 19
