REMARK SMILES O=C(OCCOC(=O)c1ccnc(-c2ccnc(COc3ccccc3)n2)c1)c1ccc(-c2c3nc(c(-c4ccc(S(=O)(=O)[O-])cc4)c4ccc([nH]4)c(-c4ccc(S(=O)(=O)[O-])cc4)c4nc(c(-c5ccc(S(=O)(=O)[O-])cc5)c5ccc2[nH]5)C=C4)C=C3)cc1
REMARK SMILES IDX 5 1 4 2 3 3 2 4 1 5 29 6 30 7 88 8 31 9 87 10 32 11 33 12
REMARK SMILES IDX 34 13 81 14 35 15 86 16 80 17 82 18 36 19 85 20 79 21 78 22
REMARK SMILES IDX 37 24 67 25 48 26 66 27 49 28 52 29 65 30 83 31 50 32 51 33
REMARK SMILES IDX 64 35 84 36 53 37 38 38 39 39 47 40 40 41 46 42 41 43 42 44
REMARK SMILES IDX 43 45 44 46 45 47 68 48 69 49 77 50 70 51 76 52 71 53 72 54
REMARK SMILES IDX 73 55 74 56 75 57 54 58 55 59 63 60 56 61 62 62 57 63 58 64
REMARK SMILES IDX 59 65 60 66 61 67 6 68 7 69 8 70 9 71 10 72 28 73 11 74
REMARK SMILES IDX 13 75 12 76 14 77 15 78 27 79 16 80 18 81 17 82 19 83 20 84
REMARK SMILES IDX 21 85 22 86 26 87 23 88 25 89 24 90
REMARK H PARENT 82 23 52 34
REMARK Flexibility Score: inf
ROOT
ATOM      1  C   UNL     1       3.867   1.962  -1.287  1.00  0.00     0.275 C 
ENDROOT
BRANCH   1   2
ATOM      2  C   UNL     1       4.231   0.520  -1.650  1.00  0.00     0.275 C 
BRANCH   2   3
ATOM      3  O   UNL     1       3.295  -0.472  -1.202  1.00  0.00    -0.458 OA
BRANCH   3   4
ATOM      4  C   UNL     1       3.229  -1.124  -0.020  1.00  0.00     0.338 C 
ATOM      5  O   UNL     1       2.425  -2.049   0.095  1.00  0.00    -0.246 OA
BRANCH   4   6
ATOM      6  C   UNL     1       3.969  -0.696   1.212  1.00  0.00     0.060 A 
ATOM      7  C   UNL     1       5.211  -0.065   1.279  1.00  0.00     0.016 A 
ATOM      8  C   UNL     1       3.324  -0.986   2.425  1.00  0.00     0.016 A 
ATOM      9  C   UNL     1       5.757   0.323   2.509  1.00  0.00     0.010 A 
ATOM     10  C   UNL     1       3.840  -0.570   3.654  1.00  0.00     0.010 A 
ATOM     11  C   UNL     1       5.076   0.077   3.704  1.00  0.00    -0.014 A 
BRANCH  11  12
ATOM     12  C   UNL     1       5.719   0.363   5.007  1.00  0.00     0.031 A 
ATOM     13  C   UNL     1       6.242  -0.789   5.819  1.00  0.00     0.074 A 
ATOM     14  C   UNL     1       5.847   1.628   5.448  1.00  0.00     0.049 A 
ATOM     15  N   UNL     1       6.886  -0.770   6.955  1.00  0.00    -0.248 NA
ATOM     16  C   UNL     1       6.027  -2.140   5.271  1.00  0.00     0.031 C 
ATOM     17  C   UNL     1       5.404   2.822   4.729  1.00  0.00     0.029 A 
ATOM     18  N   UNL     1       6.374   2.123   6.613  1.00  0.00    -0.354 N 
ATOM     19  C   UNL     1       7.178  -2.097   7.241  1.00  0.00     0.074 A 
ATOM     20  C   UNL     1       6.576  -2.902   6.203  1.00  0.00     0.031 C 
ATOM     21  C   UNL     1       5.628   3.908   5.490  1.00  0.00     0.029 A 
ATOM     22  C   UNL     1       6.248   3.487   6.742  1.00  0.00     0.049 A 
ATOM     23  H   UNL     1       6.803   1.555   7.294  1.00  0.00     0.167 HD
ATOM     24  C   UNL     1       7.918  -2.599   8.256  1.00  0.00     0.031 A 
ATOM     25  C   UNL     1       6.599   4.303   7.755  1.00  0.00     0.031 A 
ATOM     26  C   UNL     1       8.491  -1.791   9.296  1.00  0.00     0.049 A 
ATOM     27  C   UNL     1       7.338   3.714   8.926  1.00  0.00     0.074 A 
ATOM     28  C   UNL     1       9.277  -2.186  10.362  1.00  0.00     0.029 A 
ATOM     29  N   UNL     1       8.324  -0.418   9.403  1.00  0.00    -0.354 N 
ATOM     30  N   UNL     1       7.679   2.464   9.136  1.00  0.00    -0.248 NA
ATOM     31  C   UNL     1       7.780   4.646   9.971  1.00  0.00     0.031 C 
ATOM     32  C   UNL     1       9.547  -1.055  11.141  1.00  0.00     0.029 A 
ATOM     33  C   UNL     1       8.973   0.051  10.530  1.00  0.00     0.049 A 
ATOM     34  H   UNL     1       7.818   0.141   8.769  1.00  0.00     0.167 HD
ATOM     35  C   UNL     1       8.418   2.466  10.313  1.00  0.00     0.074 A 
ATOM     36  C   UNL     1       8.471   3.842  10.769  1.00  0.00     0.031 C 
ATOM     37  C   UNL     1       9.014   1.428  10.952  1.00  0.00     0.031 A 
BRANCH  24  38
ATOM     38  C   UNL     1       8.136  -4.087   8.270  1.00  0.00    -0.014 A 
ATOM     39  C   UNL     1       8.964  -4.701   7.311  1.00  0.00     0.010 A 
ATOM     40  C   UNL     1       7.497  -4.885   9.234  1.00  0.00     0.010 A 
ATOM     41  C   UNL     1       9.106  -6.090   7.282  1.00  0.00     0.020 A 
ATOM     42  C   UNL     1       7.656  -6.274   9.224  1.00  0.00     0.020 A 
ATOM     43  C   UNL     1       8.443  -6.869   8.234  1.00  0.00     0.054 A 
BRANCH  43  44
ATOM     44  S   UNL     1       8.636  -8.671   8.167  1.00  0.00     0.124 S 
ATOM     45  O   UNL     1       7.819  -9.017   7.006  1.00  0.00    -0.237 OA
ATOM     46  O   UNL     1      10.077  -8.833   7.991  1.00  0.00    -0.237 OA
ATOM     47  O   UNL     1       8.113  -9.123   9.454  1.00  0.00    -0.744 OA
ENDBRANCH  43  44
ENDBRANCH  24  38
BRANCH  25  48
ATOM     48  C   UNL     1       6.287   5.757   7.687  1.00  0.00    -0.014 A 
ATOM     49  C   UNL     1       7.303   6.706   7.478  1.00  0.00     0.010 A 
ATOM     50  C   UNL     1       4.958   6.202   7.822  1.00  0.00     0.010 A 
ATOM     51  C   UNL     1       7.000   8.071   7.425  1.00  0.00     0.020 A 
ATOM     52  C   UNL     1       4.648   7.564   7.748  1.00  0.00     0.020 A 
ATOM     53  C   UNL     1       5.673   8.491   7.559  1.00  0.00     0.054 A 
BRANCH  53  54
ATOM     54  S   UNL     1       5.303  10.265   7.439  1.00  0.00     0.124 S 
ATOM     55  O   UNL     1       5.853  10.776   8.691  1.00  0.00    -0.237 OA
ATOM     56  O   UNL     1       6.021  10.652   6.227  1.00  0.00    -0.237 OA
ATOM     57  O   UNL     1       3.847  10.305   7.331  1.00  0.00    -0.744 OA
ENDBRANCH  53  54
ENDBRANCH  25  48
BRANCH  37  58
ATOM     58  C   UNL     1       9.813   1.746  12.184  1.00  0.00    -0.014 A 
ATOM     59  C   UNL     1       9.184   2.074  13.397  1.00  0.00     0.010 A 
ATOM     60  C   UNL     1      11.216   1.645  12.138  1.00  0.00     0.010 A 
ATOM     61  C   UNL     1       9.948   2.320  14.540  1.00  0.00     0.020 A 
ATOM     62  C   UNL     1      11.981   1.864  13.285  1.00  0.00     0.020 A 
ATOM     63  C   UNL     1      11.342   2.212  14.476  1.00  0.00     0.054 A 
BRANCH  63  64
ATOM     64  S   UNL     1      12.309   2.479  15.986  1.00  0.00     0.124 S 
ATOM     65  O   UNL     1      12.274   3.933  16.115  1.00  0.00    -0.237 OA
ATOM     66  O   UNL     1      11.547   1.741  16.991  1.00  0.00    -0.237 OA
ATOM     67  O   UNL     1      13.616   1.912  15.664  1.00  0.00    -0.744 OA
ENDBRANCH  63  64
ENDBRANCH  37  58
ENDBRANCH  11  12
ENDBRANCH   4   6
ENDBRANCH   3   4
ENDBRANCH   2   3
ENDBRANCH   1   2
BRANCH   1  68
ATOM     68  O   UNL     1       3.415   2.127   0.065  1.00  0.00    -0.458 OA
BRANCH  68  69
ATOM     69  C   UNL     1       2.066   2.096   0.231  1.00  0.00     0.338 C 
ATOM     70  O   UNL     1       1.227   1.941  -0.641  1.00  0.00    -0.246 OA
BRANCH  69  71
ATOM     71  C   UNL     1       1.738   2.151   1.669  1.00  0.00     0.063 A 
ATOM     72  C   UNL     1       2.346   3.075   2.511  1.00  0.00     0.036 A 
ATOM     73  C   UNL     1       0.803   1.240   2.171  1.00  0.00     0.046 A 
ATOM     74  C   UNL     1       1.999   3.036   3.847  1.00  0.00     0.112 A 
ATOM     75  C   UNL     1       0.536   1.251   3.534  1.00  0.00     0.090 A 
ATOM     76  N   UNL     1       1.133   2.141   4.367  1.00  0.00    -0.255 NA
BRANCH  75  77
ATOM     77  C   UNL     1      -0.343   0.262   4.182  1.00  0.00     0.092 A 
ATOM     78  C   UNL     1      -0.044  -1.088   4.191  1.00  0.00     0.051 A 
ATOM     79  N   UNL     1      -1.416   0.749   4.841  1.00  0.00    -0.228 NA
ATOM     80  C   UNL     1      -0.887  -1.911   4.896  1.00  0.00     0.115 A 
ATOM     81  C   UNL     1      -2.151  -0.125   5.556  1.00  0.00     0.166 A 
ATOM     82  N   UNL     1      -1.949  -1.460   5.576  1.00  0.00    -0.238 NA
BRANCH  81  83
ATOM     83  C   UNL     1      -3.177   0.426   6.519  1.00  0.00     0.306 C 
BRANCH  83  84
ATOM     84  O   UNL     1      -2.682   1.454   7.396  1.00  0.00    -0.486 OA
BRANCH  84  85
ATOM     85  C   UNL     1      -2.001   0.997   8.492  1.00  0.00     0.119 A 
ATOM     86  C   UNL     1      -2.437   1.458   9.734  1.00  0.00     0.046 A 
ATOM     87  C   UNL     1      -0.845   0.218   8.416  1.00  0.00     0.046 A 
ATOM     88  C   UNL     1      -1.746   1.108  10.896  1.00  0.00     0.004 A 
ATOM     89  C   UNL     1      -0.158  -0.139   9.578  1.00  0.00     0.004 A 
ATOM     90  C   UNL     1      -0.609   0.304  10.818  1.00  0.00     0.000 A 
ENDBRANCH  84  85
ENDBRANCH  83  84
ENDBRANCH  81  83
ENDBRANCH  75  77
ENDBRANCH  69  71
ENDBRANCH  68  69
ENDBRANCH   1  68
TORSDOF 18
