REMARK SMILES CCNS(=O)(=O)c1ccc(CC(=O)OCCOC(=O)c2ccc(-c3c4nc(c(-c5ccc(S(=O)(=O)[O-])cc5)c5ccc([nH]5)c(-c5ccc(S(=O)(=O)[O-])cc5)c5nc(c(-c6ccc(S(=O)(=O)[O-])cc6)c6ccc3[nH]6)C=C5)C=C4)cc2)cc1
REMARK SMILES IDX 15 1 14 2 12 3 13 4 11 5 10 6 7 7 8 8 81 9 9 10 80 11 4 12
REMARK SMILES IDX 5 13 6 14 3 15 2 17 1 18 16 19 17 20 18 21 19 22 20 23 21 24
REMARK SMILES IDX 79 25 22 26 78 27 23 28 24 29 25 30 72 31 26 32 77 33 71 34
REMARK SMILES IDX 73 35 27 36 76 37 70 38 69 39 28 41 58 42 39 43 57 44 40 45
REMARK SMILES IDX 43 46 56 47 74 48 41 49 42 50 55 52 75 53 44 54 29 55 30 56
REMARK SMILES IDX 38 57 31 58 37 59 32 60 33 61 34 62 35 63 36 64 59 65 60 66
REMARK SMILES IDX 68 67 61 68 67 69 62 70 63 71 64 72 65 73 66 74 45 75 46 76
REMARK SMILES IDX 54 77 47 78 53 79 48 80 49 81 50 82 51 83 52 84
REMARK H PARENT 3 16 73 40 43 51
REMARK Flexibility Score: inf
ROOT
ATOM      1  C   UNL     1      -6.277   0.432  -0.223  1.00  0.00     0.274 C 
ENDROOT
BRANCH   1   2
ATOM      2  O   UNL     1      -5.586  -0.102  -1.371  1.00  0.00    -0.462 OA
BRANCH   2   3
ATOM      3  C   UNL     1      -6.365  -0.368  -2.451  1.00  0.00     0.310 C 
ATOM      4  O   UNL     1      -7.585  -0.229  -2.474  1.00  0.00    -0.252 OA
BRANCH   3   5
ATOM      5  C   UNL     1      -5.617  -0.906  -3.648  1.00  0.00     0.158 C 
BRANCH   5   6
ATOM      6  C   UNL     1      -4.123  -0.696  -3.707  1.00  0.00    -0.037 A 
ATOM      7  C   UNL     1      -1.356  -0.355  -3.905  1.00  0.00     0.082 A 
ATOM      8  C   UNL     1      -2.197   0.745  -4.070  1.00  0.00     0.022 A 
ATOM      9  C   UNL     1      -1.879  -1.625  -3.660  1.00  0.00     0.022 A 
ATOM     10  C   UNL     1      -3.579   0.570  -3.974  1.00  0.00     0.006 A 
ATOM     11  C   UNL     1      -3.260  -1.791  -3.556  1.00  0.00     0.006 A 
BRANCH   7  12
ATOM     12  S   UNL     1       0.399  -0.143  -3.968  1.00  0.00     0.240 S 
ATOM     13  O   UNL     1       0.714   1.239  -4.247  1.00  0.00    -0.207 OA
ATOM     14  O   UNL     1       0.954  -1.224  -4.755  1.00  0.00    -0.207 OA
BRANCH  12  15
ATOM     15  N   UNL     1       0.845  -0.452  -2.371  1.00  0.00    -0.211 NA
ATOM     16  H   UNL     1       0.402  -1.328  -2.094  1.00  0.00     0.141 HD
BRANCH  15  17
ATOM     17  C   UNL     1       0.496   0.554  -1.363  1.00  0.00     0.095 C 
ATOM     18  C   UNL     1       0.956   0.067  -0.001  1.00  0.00     0.022 C 
ENDBRANCH  15  17
ENDBRANCH  12  15
ENDBRANCH   7  12
ENDBRANCH   5   6
ENDBRANCH   3   5
ENDBRANCH   2   3
ENDBRANCH   1   2
BRANCH   1  19
ATOM     19  C   UNL     1      -6.136   1.951  -0.148  1.00  0.00     0.275 C 
BRANCH  19  20
ATOM     20  O   UNL     1      -6.681   2.565  -1.328  1.00  0.00    -0.458 OA
BRANCH  20  21
ATOM     21  C   UNL     1      -5.774   3.103  -2.174  1.00  0.00     0.338 C 
ATOM     22  O   UNL     1      -4.566   3.173  -2.028  1.00  0.00    -0.246 OA
BRANCH  21  23
ATOM     23  C   UNL     1      -6.464   3.612  -3.367  1.00  0.00     0.060 A 
ATOM     24  C   UNL     1      -6.933   2.723  -4.337  1.00  0.00     0.016 A 
ATOM     25  C   UNL     1      -6.564   4.988  -3.560  1.00  0.00     0.016 A 
ATOM     26  C   UNL     1      -7.485   3.209  -5.519  1.00  0.00     0.010 A 
ATOM     27  C   UNL     1      -7.179   5.473  -4.715  1.00  0.00     0.010 A 
ATOM     28  C   UNL     1      -7.641   4.588  -5.706  1.00  0.00    -0.014 A 
BRANCH  28  29
ATOM     29  C   UNL     1      -8.338   5.120  -6.905  1.00  0.00     0.031 A 
ATOM     30  C   UNL     1      -7.607   5.993  -7.885  1.00  0.00     0.074 A 
ATOM     31  C   UNL     1      -9.651   4.867  -7.067  1.00  0.00     0.049 A 
ATOM     32  N   UNL     1      -8.087   6.694  -8.880  1.00  0.00    -0.248 NA
ATOM     33  C   UNL     1      -6.148   6.100  -7.721  1.00  0.00     0.031 C 
ATOM     34  C   UNL     1     -10.463   4.009  -6.199  1.00  0.00     0.029 A 
ATOM     35  N   UNL     1     -10.543   5.325  -8.004  1.00  0.00    -0.354 N 
ATOM     36  C   UNL     1      -6.998   7.351  -9.441  1.00  0.00     0.074 A 
ATOM     37  C   UNL     1      -5.834   6.974  -8.669  1.00  0.00     0.031 C 
ATOM     38  C   UNL     1     -11.728   4.005  -6.642  1.00  0.00     0.029 A 
ATOM     39  C   UNL     1     -11.836   4.916  -7.776  1.00  0.00     0.049 A 
ATOM     40  H   UNL     1     -10.282   5.892  -8.766  1.00  0.00     0.167 HD
ATOM     41  C   UNL     1      -6.978   8.195 -10.501  1.00  0.00     0.031 A 
ATOM     42  C   UNL     1     -12.989   5.271  -8.373  1.00  0.00     0.031 A 
ATOM     43  C   UNL     1      -8.147   8.563 -11.259  1.00  0.00     0.049 A 
ATOM     44  C   UNL     1     -12.950   6.272  -9.494  1.00  0.00     0.074 A 
ATOM     45  C   UNL     1      -8.227   9.384 -12.370  1.00  0.00     0.029 A 
ATOM     46  N   UNL     1      -9.440   8.143 -10.980  1.00  0.00    -0.354 N 
ATOM     47  N   UNL     1     -11.911   6.867 -10.029  1.00  0.00    -0.248 NA
ATOM     48  C   UNL     1     -14.239   6.656 -10.085  1.00  0.00     0.031 C 
ATOM     49  C   UNL     1      -9.574   9.516 -12.720  1.00  0.00     0.029 A 
ATOM     50  C   UNL     1     -10.328   8.722 -11.871  1.00  0.00     0.049 A 
ATOM     51  H   UNL     1      -9.689   7.526 -10.255  1.00  0.00     0.167 HD
ATOM     52  C   UNL     1     -12.419   7.684 -11.032  1.00  0.00     0.074 A 
ATOM     53  C   UNL     1     -13.855   7.490 -11.043  1.00  0.00     0.031 C 
ATOM     54  C   UNL     1     -11.756   8.523 -11.866  1.00  0.00     0.031 A 
BRANCH  41  55
ATOM     55  C   UNL     1      -5.660   8.817 -10.883  1.00  0.00    -0.014 A 
ATOM     56  C   UNL     1      -4.633   8.060 -11.474  1.00  0.00     0.010 A 
ATOM     57  C   UNL     1      -5.468  10.200 -10.701  1.00  0.00     0.010 A 
ATOM     58  C   UNL     1      -3.429   8.667 -11.844  1.00  0.00     0.020 A 
ATOM     59  C   UNL     1      -4.277  10.816 -11.095  1.00  0.00     0.020 A 
ATOM     60  C   UNL     1      -3.259  10.041 -11.652  1.00  0.00     0.054 A 
BRANCH  60  61
ATOM     61  S   UNL     1      -1.697  10.806 -12.170  1.00  0.00     0.124 S 
ATOM     62  O   UNL     1      -0.762  10.286 -11.175  1.00  0.00    -0.237 OA
ATOM     63  O   UNL     1      -1.523  10.292 -13.525  1.00  0.00    -0.237 OA
ATOM     64  O   UNL     1      -1.965  12.240 -12.080  1.00  0.00    -0.744 OA
ENDBRANCH  60  61
ENDBRANCH  41  55
BRANCH  42  65
ATOM     65  C   UNL     1     -14.280   4.713  -7.884  1.00  0.00    -0.014 A 
ATOM     66  C   UNL     1     -15.023   3.825  -8.679  1.00  0.00     0.010 A 
ATOM     67  C   UNL     1     -14.764   5.056  -6.607  1.00  0.00     0.010 A 
ATOM     68  C   UNL     1     -16.232   3.301  -8.213  1.00  0.00     0.020 A 
ATOM     69  C   UNL     1     -15.956   4.509  -6.125  1.00  0.00     0.020 A 
ATOM     70  C   UNL     1     -16.689   3.643  -6.937  1.00  0.00     0.054 A 
BRANCH  70  71
ATOM     71  S   UNL     1     -18.236   2.910  -6.336  1.00  0.00     0.124 S 
ATOM     72  O   UNL     1     -19.235   3.612  -7.136  1.00  0.00    -0.237 OA
ATOM     73  O   UNL     1     -18.055   1.495  -6.648  1.00  0.00    -0.237 OA
ATOM     74  O   UNL     1     -18.236   3.231  -4.911  1.00  0.00    -0.744 OA
ENDBRANCH  70  71
ENDBRANCH  42  65
BRANCH  54  75
ATOM     75  C   UNL     1     -12.572   9.283 -12.877  1.00  0.00    -0.014 A 
ATOM     76  C   UNL     1     -13.395  10.354 -12.487  1.00  0.00     0.010 A 
ATOM     77  C   UNL     1     -12.458   8.968 -14.243  1.00  0.00     0.010 A 
ATOM     78  C   UNL     1     -14.102  11.086 -13.444  1.00  0.00     0.020 A 
ATOM     79  C   UNL     1     -13.140   9.716 -15.206  1.00  0.00     0.020 A 
ATOM     80  C   UNL     1     -13.965  10.766 -14.799  1.00  0.00     0.054 A 
BRANCH  80  81
ATOM     81  S   UNL     1     -14.838  11.778 -16.025  1.00  0.00     0.124 S 
ATOM     82  O   UNL     1     -16.227  11.377 -15.817  1.00  0.00    -0.237 OA
ATOM     83  O   UNL     1     -14.508  13.139 -15.609  1.00  0.00    -0.237 OA
ATOM     84  O   UNL     1     -14.254  11.363 -17.298  1.00  0.00    -0.744 OA
ENDBRANCH  80  81
ENDBRANCH  54  75
ENDBRANCH  28  29
ENDBRANCH  21  23
ENDBRANCH  20  21
ENDBRANCH  19  20
ENDBRANCH   1  19
TORSDOF 18
