REMARK SMILES Cc1ccc(NS(=O)(=O)c2cc(C(=O)Nc3ccccc3C(=O)OCCOC(=O)c3ccc(-c4c5nc(c(-c6ccc(S(=O)(=O)[O-])cc6)c6ccc([nH]6)c(-c6ccc(S(=O)(=O)[O-])cc6)c6nc(c(-c7ccc(S(=O)(=O)[O-])cc7)c7ccc4[nH]7)C=C6)C=C5)cc3)ccc2Br)cc1
REMARK SMILES IDX 25 1 24 2 22 3 23 4 21 5 16 6 17 7 18 8 20 9 19 10 15 11
REMARK SMILES IDX 13 12 14 13 12 15 10 16 11 17 92 18 91 19 93 20 90 21 7 22
REMARK SMILES IDX 8 23 9 24 6 25 5 27 1 28 2 29 3 30 95 31 4 32 94 33 26 34
REMARK SMILES IDX 27 35 28 36 29 37 30 38 31 39 89 40 32 41 88 42 33 43 34 44
REMARK SMILES IDX 35 45 82 46 36 47 87 48 81 49 83 50 37 51 86 52 80 53 79 54
REMARK SMILES IDX 38 56 68 57 49 58 67 59 50 60 53 61 66 62 84 63 51 64 52 65
REMARK SMILES IDX 65 67 85 68 54 69 39 70 40 71 48 72 41 73 47 74 42 75 43 76
REMARK SMILES IDX 44 77 45 78 46 79 69 80 70 81 78 82 71 83 77 84 72 85 73 86
REMARK SMILES IDX 74 87 75 88 76 89 55 90 56 91 64 92 57 93 63 94 58 95 59 96
REMARK SMILES IDX 60 97 61 98 62 99
REMARK H PARENT 15 14 6 26 83 55 53 66
REMARK Flexibility Score: inf
ROOT
ATOM      1  C   UNL     1      -2.407  -4.040   4.725  1.00  0.00     0.275 C 
ENDROOT
BRANCH   1   2
ATOM      2  O   UNL     1      -2.123  -2.720   4.225  1.00  0.00    -0.458 OA
BRANCH   2   3
ATOM      3  C   UNL     1      -1.109  -2.511   3.076  1.00  0.00     0.340 C 
ATOM      4  O   UNL     1      -0.302  -3.417   3.413  1.00  0.00    -0.246 OA
BRANCH   3   5
ATOM      5  C   UNL     1      -1.303  -1.116   1.413  1.00  0.00     0.083 A 
ATOM      6  C   UNL     1      -0.166  -0.797  -0.074  1.00  0.00     0.056 A 
ATOM      7  C   UNL     1      -0.261   1.003  -1.061  1.00  0.00     0.027 A 
ATOM      8  C   UNL     1      -1.533   2.193  -0.699  1.00  0.00     0.002 A 
ATOM      9  C   UNL     1      -2.567   0.255   1.446  1.00  0.00     0.018 A 
ATOM     10  C   UNL     1      -2.650   1.799   0.527  1.00  0.00     0.001 A 
BRANCH   6  11
ATOM     11  N   UNL     1       0.622  -2.079  -0.648  1.00  0.00    -0.321 N 
ATOM     12  C   UNL     1       0.271  -3.161  -1.539  1.00  0.00     0.255 C 
ATOM     13  O   UNL     1       1.098  -3.554  -2.366  1.00  0.00    -0.269 OA
ATOM     14  H   UNL     1       1.548  -2.139  -0.319  1.00  0.00     0.170 HD
BRANCH  12  15
ATOM     15  C   UNL     1      -1.096  -3.759  -1.641  1.00  0.00     0.041 A 
ATOM     16  C   UNL     1      -3.457  -3.111  -1.294  1.00  0.00     0.102 A 
ATOM     17  C   UNL     1      -2.120  -2.904  -1.385  1.00  0.00     0.037 A 
ATOM     18  C   UNL     1      -3.841  -4.430  -1.309  1.00  0.00     0.038 A 
ATOM     19  C   UNL     1      -2.854  -5.412  -1.612  1.00  0.00     0.018 A 
ATOM     20  Br  UNL     1      -5.535  -4.992  -0.687  1.00  0.00    -0.049 Br
ATOM     21  C   UNL     1      -1.484  -5.067  -1.846  1.00  0.00     0.015 A 
BRANCH  16  22
ATOM     22  S   UNL     1      -4.364  -1.642  -0.968  1.00  0.00     0.263 S 
ATOM     23  O   UNL     1      -4.907  -1.728   0.372  1.00  0.00    -0.201 OA
ATOM     24  O   UNL     1      -5.270  -1.462  -2.084  1.00  0.00    -0.201 OA
BRANCH  22  25
ATOM     25  N   UNL     1      -3.364  -0.192  -0.968  1.00  0.00    -0.280 N 
ATOM     26  H   UNL     1      -3.845   0.640  -1.185  1.00  0.00     0.180 HD
BRANCH  25  27
ATOM     27  C   UNL     1      -1.822  -0.005  -0.678  1.00  0.00     0.049 A 
ATOM     28  C   UNL     1       3.302   0.076  -0.905  1.00  0.00     0.044 C 
ATOM     29  C   UNL     1       1.808   0.247  -0.929  1.00  0.00    -0.051 A 
ATOM     30  C   UNL     1       0.836  -0.419  -2.268  1.00  0.00     0.005 A 
ATOM     31  C   UNL     1       1.122   0.913   0.529  1.00  0.00     0.005 A 
ATOM     32  C   UNL     1      -0.940  -0.547  -2.190  1.00  0.00     0.027 A 
ATOM     33  C   UNL     1      -0.658   0.852   0.744  1.00  0.00     0.027 A 
ENDBRANCH  25  27
ENDBRANCH  22  25
ENDBRANCH  16  22
ENDBRANCH  12  15
ENDBRANCH   6  11
ENDBRANCH   3   5
ENDBRANCH   2   3
ENDBRANCH   1   2
BRANCH   1  34
ATOM     34  C   UNL     1      -3.297  -4.798   3.745  1.00  0.00     0.275 C 
BRANCH  34  35
ATOM     35  O   UNL     1      -2.633  -5.361   2.615  1.00  0.00    -0.458 OA
BRANCH  35  36
ATOM     36  C   UNL     1      -2.057  -4.757   1.565  1.00  0.00     0.338 C 
ATOM     37  O   UNL     1      -1.457  -5.462   0.770  1.00  0.00    -0.246 OA
BRANCH  36  38
ATOM     38  C   UNL     1      -1.925  -3.260   1.419  1.00  0.00     0.060 A 
ATOM     39  C   UNL     1      -0.141  -2.963   1.363  1.00  0.00     0.016 A 
ATOM     40  C   UNL     1      -2.964  -2.105   2.337  1.00  0.00     0.016 A 
ATOM     41  C   UNL     1       0.629  -1.631   2.320  1.00  0.00     0.010 A 
ATOM     42  C   UNL     1      -2.159  -0.818   3.395  1.00  0.00     0.010 A 
ATOM     43  C   UNL     1      -0.361  -0.642   3.390  1.00  0.00    -0.014 A 
BRANCH  43  44
ATOM     44  C   UNL     1       0.133  -0.356   4.753  1.00  0.00     0.031 A 
ATOM     45  C   UNL     1      -0.348   0.964   5.207  1.00  0.00     0.074 A 
ATOM     46  C   UNL     1       0.590  -1.431   5.479  1.00  0.00     0.049 A 
ATOM     47  N   UNL     1       0.030   1.582   6.254  1.00  0.00    -0.248 NA
ATOM     48  C   UNL     1      -1.270   1.823   4.437  1.00  0.00     0.031 C 
ATOM     49  C   UNL     1       0.534  -1.790   6.903  1.00  0.00     0.029 A 
ATOM     50  N   UNL     1       1.373  -2.487   4.976  1.00  0.00    -0.354 N 
ATOM     51  C   UNL     1      -0.990   2.470   6.544  1.00  0.00     0.074 A 
ATOM     52  C   UNL     1      -1.617   2.772   5.303  1.00  0.00     0.031 C 
ATOM     53  C   UNL     1       1.443  -2.753   7.184  1.00  0.00     0.029 A 
ATOM     54  C   UNL     1       2.174  -3.067   5.967  1.00  0.00     0.049 A 
ATOM     55  H   UNL     1       1.359  -2.783   4.037  1.00  0.00     0.167 HD
ATOM     56  C   UNL     1      -1.337   2.612   7.848  1.00  0.00     0.031 A 
ATOM     57  C   UNL     1       3.529  -2.964   5.833  1.00  0.00     0.031 A 
ATOM     58  C   UNL     1      -0.401   1.832   8.663  1.00  0.00     0.049 A 
ATOM     59  C   UNL     1       3.991  -1.728   6.566  1.00  0.00     0.074 A 
ATOM     60  C   UNL     1      -0.478   0.608   9.300  1.00  0.00     0.029 A 
ATOM     61  N   UNL     1       0.951   2.083   8.476  1.00  0.00    -0.354 N 
ATOM     62  N   UNL     1       3.177  -0.766   6.922  1.00  0.00    -0.248 NA
ATOM     63  C   UNL     1       5.330  -1.564   7.118  1.00  0.00     0.031 C 
ATOM     64  C   UNL     1       0.861   0.094   9.395  1.00  0.00     0.029 A 
ATOM     65  C   UNL     1       1.730   0.981   8.774  1.00  0.00     0.049 A 
ATOM     66  H   UNL     1       1.313   2.945   8.167  1.00  0.00     0.167 HD
ATOM     67  C   UNL     1       3.788   0.040   7.827  1.00  0.00     0.074 A 
ATOM     68  C   UNL     1       5.145  -0.486   7.900  1.00  0.00     0.031 C 
ATOM     69  C   UNL     1       3.168   1.052   8.505  1.00  0.00     0.031 A 
BRANCH  56  70
ATOM     70  C   UNL     1      -2.593   3.245   8.380  1.00  0.00    -0.014 A 
ATOM     71  C   UNL     1      -2.757   3.237   9.777  1.00  0.00     0.010 A 
ATOM     72  C   UNL     1      -3.631   3.842   7.630  1.00  0.00     0.010 A 
ATOM     73  C   UNL     1      -3.862   3.816  10.403  1.00  0.00     0.020 A 
ATOM     74  C   UNL     1      -4.748   4.437   8.248  1.00  0.00     0.020 A 
ATOM     75  C   UNL     1      -4.846   4.429   9.636  1.00  0.00     0.054 A 
BRANCH  75  76
ATOM     76  S   UNL     1      -6.214   5.237  10.503  1.00  0.00     0.124 S 
ATOM     77  O   UNL     1      -6.822   4.126  11.230  1.00  0.00    -0.237 OA
ATOM     78  O   UNL     1      -5.520   6.224  11.326  1.00  0.00    -0.237 OA
ATOM     79  O   UNL     1      -7.030   5.793   9.425  1.00  0.00    -0.744 OA
ENDBRANCH  75  76
ENDBRANCH  56  70
BRANCH  57  80
ATOM     80  C   UNL     1       4.013  -3.564   4.547  1.00  0.00    -0.014 A 
ATOM     81  C   UNL     1       4.057  -4.978   4.515  1.00  0.00     0.010 A 
ATOM     82  C   UNL     1       3.845  -2.883   3.329  1.00  0.00     0.010 A 
ATOM     83  C   UNL     1       3.695  -5.684   3.363  1.00  0.00     0.020 A 
ATOM     84  C   UNL     1       3.476  -3.593   2.168  1.00  0.00     0.020 A 
ATOM     85  C   UNL     1       3.347  -4.985   2.213  1.00  0.00     0.054 A 
BRANCH  85  86
ATOM     86  S   UNL     1       2.569  -5.921   0.864  1.00  0.00     0.124 S 
ATOM     87  O   UNL     1       3.660  -6.776   0.408  1.00  0.00    -0.237 OA
ATOM     88  O   UNL     1       1.479  -6.608   1.550  1.00  0.00    -0.237 OA
ATOM     89  O   UNL     1       2.174  -4.873  -0.066  1.00  0.00    -0.744 OA
ENDBRANCH  85  86
ENDBRANCH  57  80
BRANCH  69  90
ATOM     90  C   UNL     1       3.945   2.246   8.997  1.00  0.00    -0.014 A 
ATOM     91  C   UNL     1       5.275   2.493   8.631  1.00  0.00     0.010 A 
ATOM     92  C   UNL     1       3.298   3.247   9.756  1.00  0.00     0.010 A 
ATOM     93  C   UNL     1       5.977   3.571   9.155  1.00  0.00     0.020 A 
ATOM     94  C   UNL     1       3.951   4.397  10.177  1.00  0.00     0.020 A 
ATOM     95  C   UNL     1       5.310   4.509   9.935  1.00  0.00     0.054 A 
BRANCH  95  96
ATOM     96  S   UNL     1       6.250   5.863  10.645  1.00  0.00     0.124 S 
ATOM     97  O   UNL     1       6.979   5.183  11.712  1.00  0.00    -0.237 OA
ATOM     98  O   UNL     1       7.061   6.310   9.514  1.00  0.00    -0.237 OA
ATOM     99  O   UNL     1       5.224   6.804  11.085  1.00  0.00    -0.744 OA
ENDBRANCH  95  96
ENDBRANCH  69  90
ENDBRANCH  43  44
ENDBRANCH  36  38
ENDBRANCH  35  36
ENDBRANCH  34  35
ENDBRANCH   1  34
TORSDOF 19
