REMARK SMILES CC(C)=C1[C@H]2CC[C@@H]1[C@H](C(=O)NNC(=O)c1ccoc1C)[C@H]2C(=O)OCCOC(=O)c1ccc(-c2c3nc(c(-c4ccc(S(=O)(=O)[O-])cc4)c4ccc([nH]4)c(-c4ccc(S(=O)(=O)[O-])cc4)c4nc(c(-c5ccc(S(=O)(=O)[O-])cc5)c5ccc2[nH]5)C=C4)C=C3)cc1
REMARK SMILES IDX 26 1 25 2 23 3 24 4 22 5 1 6 2 7 3 8 4 9 5 10 8 11 6 12 7 13
REMARK SMILES IDX 9 14 10 15 11 16 12 17 13 19 14 20 15 22 16 23 17 24 20 25
REMARK SMILES IDX 18 26 19 27 21 28 27 29 28 30 29 31 30 32 31 33 32 34 90 35
REMARK SMILES IDX 33 36 89 37 34 38 35 39 36 40 83 41 37 42 88 43 82 44 84 45
REMARK SMILES IDX 38 46 87 47 81 48 80 49 39 51 69 52 50 53 68 54 51 55 54 56
REMARK SMILES IDX 67 57 85 58 52 59 53 60 66 62 86 63 55 64 40 65 41 66 49 67
REMARK SMILES IDX 42 68 48 69 43 70 44 71 45 72 46 73 47 74 70 75 71 76 79 77
REMARK SMILES IDX 72 78 78 79 73 80 74 81 75 82 76 83 77 84 56 85 57 86 65 87
REMARK SMILES IDX 58 88 64 89 59 90 60 91 61 92 62 93 63 94
REMARK H PARENT 12 18 13 21 84 50 54 61
REMARK Flexibility Score: inf
ROOT
ATOM      1  C   UNL     1       3.310  -4.761   0.515  1.00  0.00     0.274 C 
ENDROOT
BRANCH   1   2
ATOM      2  O   UNL     1       2.478  -4.114  -0.464  1.00  0.00    -0.462 OA
BRANCH   2   3
ATOM      3  C   UNL     1       3.043  -3.828  -1.657  1.00  0.00     0.310 C 
ATOM      4  O   UNL     1       4.233  -3.985  -1.918  1.00  0.00    -0.252 OA
BRANCH   3   5
ATOM      5  C   UNL     1       2.070  -3.297  -2.691  1.00  0.00     0.119 C 
ATOM      6  C   UNL     1       0.959   0.402  -0.196  1.00  0.00     0.039 C 
ATOM      7  C   UNL     1       0.639  -1.026  -0.516  1.00  0.00    -0.077 C 
ATOM      8  C   UNL     1       0.002  -1.844   0.578  1.00  0.00     0.039 C 
ATOM      9  C   UNL     1       0.874  -1.559  -1.726  1.00  0.00    -0.064 C 
ATOM     10  C   UNL     1       0.652  -2.969  -2.195  1.00  0.00     0.030 C 
ATOM     11  C   UNL     1       1.407  -0.992  -3.024  1.00  0.00     0.029 C 
ATOM     12  C   UNL     1      -0.269  -2.696  -3.396  1.00  0.00     0.009 C 
ATOM     13  C   UNL     1       0.171  -1.304  -3.879  1.00  0.00     0.009 C 
ATOM     14  C   UNL     1       2.601  -1.948  -3.246  1.00  0.00     0.102 C 
BRANCH  14  15
ATOM     15  C   UNL     1       3.083  -2.180  -4.679  1.00  0.00     0.243 C 
ATOM     16  O   UNL     1       2.353  -2.070  -5.661  1.00  0.00    -0.273 OA
ATOM     17  N   UNL     1       4.360  -2.650  -4.875  1.00  0.00    -0.267 N 
ATOM     18  H   UNL     1       4.566  -3.082  -5.735  1.00  0.00     0.191 HD
BRANCH  17  19
ATOM     19  N   UNL     1       5.380  -2.553  -3.934  1.00  0.00    -0.263 N 
ATOM     20  C   UNL     1       6.715  -2.333  -4.229  1.00  0.00     0.273 C 
ATOM     21  H   UNL     1       5.135  -2.648  -2.986  1.00  0.00     0.191 HD
ATOM     22  O   UNL     1       7.537  -2.306  -3.314  1.00  0.00    -0.267 OA
BRANCH  20  23
ATOM     23  C   UNL     1       7.136  -2.251  -5.620  1.00  0.00     0.082 A 
ATOM     24  C   UNL     1       8.246  -2.957  -6.181  1.00  0.00     0.056 A 
ATOM     25  C   UNL     1       6.626  -1.492  -6.663  1.00  0.00     0.113 A 
ATOM     26  C   UNL     1       8.284  -2.646  -7.517  1.00  0.00     0.196 A 
ATOM     27  O   UNL     1       7.310  -1.753  -7.815  1.00  0.00    -0.469 OA
ATOM     28  C   UNL     1       5.547  -0.490  -6.805  1.00  0.00     0.088 C 
ENDBRANCH  20  23
ENDBRANCH  17  19
ENDBRANCH  14  15
ENDBRANCH   3   5
ENDBRANCH   2   3
ENDBRANCH   1   2
BRANCH   1  29
ATOM     29  C   UNL     1       2.710  -6.117   0.887  1.00  0.00     0.275 C 
BRANCH  29  30
ATOM     30  O   UNL     1       2.663  -6.992  -0.255  1.00  0.00    -0.458 OA
BRANCH  30  31
ATOM     31  C   UNL     1       1.509  -6.937  -0.963  1.00  0.00     0.338 C 
ATOM     32  O   UNL     1       0.525  -6.259  -0.731  1.00  0.00    -0.246 OA
BRANCH  31  33
ATOM     33  C   UNL     1       1.636  -7.765  -2.169  1.00  0.00     0.060 A 
ATOM     34  C   UNL     1       1.789  -7.125  -3.399  1.00  0.00     0.016 A 
ATOM     35  C   UNL     1       1.489  -9.148  -2.100  1.00  0.00     0.016 A 
ATOM     36  C   UNL     1       1.769  -7.860  -4.579  1.00  0.00     0.010 A 
ATOM     37  C   UNL     1       1.492  -9.890  -3.284  1.00  0.00     0.010 A 
ATOM     38  C   UNL     1       1.615  -9.249  -4.531  1.00  0.00    -0.014 A 
BRANCH  38  39
ATOM     39  C   UNL     1       1.540 -10.033  -5.785  1.00  0.00     0.031 A 
ATOM     40  C   UNL     1       0.240 -10.666  -6.192  1.00  0.00     0.074 A 
ATOM     41  C   UNL     1       2.638 -10.179  -6.550  1.00  0.00     0.049 A 
ATOM     42  N   UNL     1       0.003 -11.515  -7.157  1.00  0.00    -0.248 NA
ATOM     43  C   UNL     1      -0.948 -10.299  -5.404  1.00  0.00     0.031 C 
ATOM     44  C   UNL     1       3.940  -9.561  -6.290  1.00  0.00     0.029 A 
ATOM     45  N   UNL     1       2.834 -10.901  -7.699  1.00  0.00    -0.354 N 
ATOM     46  C   UNL     1      -1.351 -11.815  -7.071  1.00  0.00     0.074 A 
ATOM     47  C   UNL     1      -1.883 -11.058  -5.958  1.00  0.00     0.031 C 
ATOM     48  C   UNL     1       4.800  -9.932  -7.252  1.00  0.00     0.029 A 
ATOM     49  C   UNL     1       4.129 -10.859  -8.157  1.00  0.00     0.049 A 
ATOM     50  H   UNL     1       2.117 -11.402  -8.151  1.00  0.00     0.167 HD
ATOM     51  C   UNL     1      -2.080 -12.652  -7.848  1.00  0.00     0.031 A 
ATOM     52  C   UNL     1       4.720 -11.525  -9.168  1.00  0.00     0.031 A 
ATOM     53  C   UNL     1      -1.541 -13.393  -8.957  1.00  0.00     0.049 A 
ATOM     54  C   UNL     1       3.905 -12.489  -9.982  1.00  0.00     0.074 A 
ATOM     55  C   UNL     1      -2.192 -14.272  -9.805  1.00  0.00     0.029 A 
ATOM     56  N   UNL     1      -0.221 -13.335  -9.378  1.00  0.00    -0.354 N 
ATOM     57  N   UNL     1       2.634 -12.793  -9.866  1.00  0.00    -0.248 NA
ATOM     58  C   UNL     1       4.603 -13.204 -11.059  1.00  0.00     0.031 C 
ATOM     59  C   UNL     1      -1.256 -14.774 -10.716  1.00  0.00     0.029 A 
ATOM     60  C   UNL     1      -0.034 -14.172 -10.465  1.00  0.00     0.049 A 
ATOM     61  H   UNL     1       0.480 -12.781  -8.965  1.00  0.00     0.167 HD
ATOM     62  C   UNL     1       2.375 -13.722 -10.867  1.00  0.00     0.074 A 
ATOM     63  C   UNL     1       3.618 -13.921 -11.585  1.00  0.00     0.031 C 
ATOM     64  C   UNL     1       1.212 -14.352 -11.166  1.00  0.00     0.031 A 
BRANCH  51  65
ATOM     65  C   UNL     1      -3.528 -12.847  -7.489  1.00  0.00    -0.014 A 
ATOM     66  C   UNL     1      -4.487 -11.851  -7.748  1.00  0.00     0.010 A 
ATOM     67  C   UNL     1      -3.939 -14.059  -6.905  1.00  0.00     0.010 A 
ATOM     68  C   UNL     1      -5.824 -12.050  -7.393  1.00  0.00     0.020 A 
ATOM     69  C   UNL     1      -5.279 -14.270  -6.570  1.00  0.00     0.020 A 
ATOM     70  C   UNL     1      -6.211 -13.255  -6.799  1.00  0.00     0.054 A 
BRANCH  70  71
ATOM     71  S   UNL     1      -7.954 -13.494  -6.355  1.00  0.00     0.124 S 
ATOM     72  O   UNL     1      -8.069 -12.681  -5.147  1.00  0.00    -0.237 OA
ATOM     73  O   UNL     1      -8.659 -12.981  -7.526  1.00  0.00    -0.237 OA
ATOM     74  O   UNL     1      -8.064 -14.936  -6.147  1.00  0.00    -0.744 OA
ENDBRANCH  70  71
ENDBRANCH  51  65
BRANCH  52  75
ATOM     75  C   UNL     1       6.170 -11.327  -9.432  1.00  0.00    -0.014 A 
ATOM     76  C   UNL     1       6.600 -10.621 -10.567  1.00  0.00     0.010 A 
ATOM     77  C   UNL     1       7.128 -11.820  -8.527  1.00  0.00     0.010 A 
ATOM     78  C   UNL     1       7.964 -10.415 -10.796  1.00  0.00     0.020 A 
ATOM     79  C   UNL     1       8.490 -11.595  -8.739  1.00  0.00     0.020 A 
ATOM     80  C   UNL     1       8.900 -10.900  -9.879  1.00  0.00     0.054 A 
BRANCH  80  81
ATOM     81  S   UNL     1      10.661 -10.560 -10.156  1.00  0.00     0.124 S 
ATOM     82  O   UNL     1      10.996 -11.530 -11.194  1.00  0.00    -0.237 OA
ATOM     83  O   UNL     1      10.653  -9.161 -10.575  1.00  0.00    -0.237 OA
ATOM     84  O   UNL     1      11.264 -10.805  -8.848  1.00  0.00    -0.744 OA
ENDBRANCH  80  81
ENDBRANCH  52  75
BRANCH  64  85
ATOM     85  C   UNL     1       1.220 -15.287 -12.343  1.00  0.00    -0.014 A 
ATOM     86  C   UNL     1       1.795 -16.566 -12.250  1.00  0.00     0.010 A 
ATOM     87  C   UNL     1       0.588 -14.899 -13.538  1.00  0.00     0.010 A 
ATOM     88  C   UNL     1       1.759 -17.434 -13.344  1.00  0.00     0.020 A 
ATOM     89  C   UNL     1       0.532 -15.773 -14.626  1.00  0.00     0.020 A 
ATOM     90  C   UNL     1       1.128 -17.031 -14.526  1.00  0.00     0.054 A 
BRANCH  90  91
ATOM     91  S   UNL     1       1.046 -18.194 -15.916  1.00  0.00     0.124 S 
ATOM     92  O   UNL     1       2.399 -18.112 -16.460  1.00  0.00    -0.237 OA
ATOM     93  O   UNL     1       0.707 -19.456 -15.263  1.00  0.00    -0.237 OA
ATOM     94  O   UNL     1      -0.003 -17.640 -16.768  1.00  0.00    -0.744 OA
ENDBRANCH  90  91
ENDBRANCH  64  85
ENDBRANCH  38  39
ENDBRANCH  31  33
ENDBRANCH  30  31
ENDBRANCH  29  30
ENDBRANCH   1  29
TORSDOF 17
