REMARK SMILES CC1(C)O[C@@H]2CC3[C@H]4CCC5=CC(=O)C=C[C@@]5(C)[C@]4(F)[C@H](O)C[C@]3(C)[C@]2(C(=O)OCCOC(=O)c2ccc(-c3c4nc(c(-c5ccc(S(=O)(=O)[O-])cc5)c5ccc([nH]5)c(-c5ccc(S(=O)(=O)[O-])cc5)c5nc(c(-c6ccc(S(=O)(=O)[O-])cc6)c6ccc3[nH]6)C=C5)C=C4)cc2)O1
REMARK SMILES IDX 31 1 30 2 29 3 27 4 28 5 26 6 1 7 2 8 4 9 95 10 3 11 5 12
REMARK SMILES IDX 6 13 24 14 7 15 23 16 25 17 8 18 21 19 9 20 19 21 10 22
REMARK SMILES IDX 17 23 20 24 11 25 16 26 18 27 12 28 15 29 13 30 14 31 22 32
REMARK SMILES IDX 32 34 33 35 34 36 35 37 36 38 94 39 37 40 93 41 38 42 39 43
REMARK SMILES IDX 40 44 87 45 41 46 92 47 86 48 88 49 42 50 91 51 85 52 84 53
REMARK SMILES IDX 43 55 73 56 54 57 72 58 55 59 58 60 71 61 89 62 56 63 57 64
REMARK SMILES IDX 70 66 90 67 59 68 44 69 45 70 53 71 46 72 52 73 47 74 48 75
REMARK SMILES IDX 49 76 50 77 51 78 74 79 75 80 83 81 76 82 82 83 77 84 78 85
REMARK SMILES IDX 79 86 80 87 81 88 60 89 61 90 69 91 62 92 68 93 63 94 64 95
REMARK SMILES IDX 65 96 66 97 67 98
REMARK H PARENT 22 33 88 54 58 65
REMARK Flexibility Score: inf
ROOT
ATOM      1  C   UNL     1      -4.235  -2.469   0.413  1.00  0.00     0.275 C 
ENDROOT
BRANCH   1   2
ATOM      2  C   UNL     1      -4.884  -1.077   0.381  1.00  0.00     0.274 C 
BRANCH   2   3
ATOM      3  O   UNL     1      -4.036  -0.054  -0.189  1.00  0.00    -0.460 OA
BRANCH   3   4
ATOM      4  C   UNL     1      -3.215   0.487   0.738  1.00  0.00     0.342 C 
ATOM      5  O   UNL     1      -3.167   0.090   1.905  1.00  0.00    -0.249 OA
BRANCH   4   6
ATOM      6  C   UNL     1      -2.344   1.643   0.292  1.00  0.00     0.200 C 
ATOM      7  C   UNL     1      -0.228  -0.290  -1.527  1.00  0.00     0.075 C 
ATOM      8  C   UNL     1      -0.374   1.094  -0.902  1.00  0.00     0.165 C 
ATOM      9  O   UNL     1      -1.173   1.853  -1.809  1.00  0.00    -0.344 OA
ATOM     10  O   UNL     1      -1.011   1.045   0.391  1.00  0.00    -0.329 OA
ATOM     11  C   UNL     1       1.032   1.708  -0.772  1.00  0.00     0.075 C 
ATOM     12  C   UNL     1      -2.270   2.388  -1.072  1.00  0.00     0.166 C 
ATOM     13  C   UNL     1      -1.875   3.913  -0.736  1.00  0.00     0.040 C 
ATOM     14  C   UNL     1      -2.679   2.878   1.268  1.00  0.00     0.016 C 
ATOM     15  C   UNL     1      -1.556   3.802   0.761  1.00  0.00     0.008 C 
ATOM     16  C   UNL     1      -2.730   2.824   2.807  1.00  0.00     0.046 C 
ATOM     17  C   UNL     1      -4.139   3.354   0.911  1.00  0.00     0.015 C 
ATOM     18  C   UNL     1      -0.449   4.357   1.693  1.00  0.00     0.035 C 
ATOM     19  C   UNL     1      -1.402   2.850   3.527  1.00  0.00     0.154 C 
ATOM     20  C   UNL     1       0.161   5.699   1.327  1.00  0.00     0.012 C 
ATOM     21  C   UNL     1      -0.643   4.175   3.217  1.00  0.00     0.152 C 
ATOM     22  C   UNL     1       1.581   5.731   1.913  1.00  0.00     0.032 C 
ATOM     23  C   UNL     1       0.752   4.304   3.976  1.00  0.00     0.044 C 
ATOM     24  F   UNL     1      -1.455   5.210   3.625  1.00  0.00    -0.239 F 
ATOM     25  C   UNL     1       1.620   5.449   3.399  1.00  0.00    -0.053 C 
ATOM     26  C   UNL     1       0.549   4.512   5.479  1.00  0.00    -0.009 C 
ATOM     27  C   UNL     1       1.604   3.005   3.875  1.00  0.00     0.024 C 
ATOM     28  C   UNL     1       2.475   6.141   4.175  1.00  0.00     0.052 C 
ATOM     29  C   UNL     1       1.395   5.216   6.248  1.00  0.00     0.048 C 
ATOM     30  C   UNL     1       2.531   5.935   5.637  1.00  0.00     0.178 C 
ATOM     31  O   UNL     1       3.436   6.410   6.310  1.00  0.00    -0.290 OA
BRANCH  19  32
ATOM     32  O   UNL     1      -0.707   1.668   3.164  1.00  0.00    -0.390 OA
ATOM     33  H   UNL     1      -0.592   1.643   2.202  1.00  0.00     0.211 HD
ENDBRANCH  19  32
ENDBRANCH   4   6
ENDBRANCH   3   4
ENDBRANCH   2   3
ENDBRANCH   1   2
BRANCH   1  34
ATOM     34  O   UNL     1      -2.970  -2.477   1.106  1.00  0.00    -0.458 OA
BRANCH  34  35
ATOM     35  C   UNL     1      -1.935  -3.018   0.426  1.00  0.00     0.338 C 
ATOM     36  O   UNL     1      -1.999  -3.531  -0.690  1.00  0.00    -0.246 OA
BRANCH  35  37
ATOM     37  C   UNL     1      -0.649  -2.921   1.154  1.00  0.00     0.060 A 
ATOM     38  C   UNL     1      -0.231  -1.719   1.725  1.00  0.00     0.016 A 
ATOM     39  C   UNL     1       0.259  -3.977   1.047  1.00  0.00     0.016 A 
ATOM     40  C   UNL     1       1.120  -1.520   2.035  1.00  0.00     0.010 A 
ATOM     41  C   UNL     1       1.585  -3.812   1.464  1.00  0.00     0.010 A 
ATOM     42  C   UNL     1       2.052  -2.561   1.903  1.00  0.00    -0.014 A 
BRANCH  42  43
ATOM     43  C   UNL     1       3.510  -2.346   2.157  1.00  0.00     0.031 A 
ATOM     44  C   UNL     1       4.529  -2.661   1.082  1.00  0.00     0.074 A 
ATOM     45  C   UNL     1       3.946  -1.877   3.345  1.00  0.00     0.049 A 
ATOM     46  N   UNL     1       5.832  -2.756   1.176  1.00  0.00    -0.248 NA
ATOM     47  C   UNL     1       4.011  -2.912  -0.274  1.00  0.00     0.031 C 
ATOM     48  C   UNL     1       3.095  -1.474   4.466  1.00  0.00     0.029 A 
ATOM     49  N   UNL     1       5.223  -1.663   3.808  1.00  0.00    -0.354 N 
ATOM     50  C   UNL     1       6.282  -3.146  -0.083  1.00  0.00     0.074 A 
ATOM     51  C   UNL     1       5.112  -3.259  -0.928  1.00  0.00     0.031 C 
ATOM     52  C   UNL     1       3.867  -1.037   5.471  1.00  0.00     0.029 A 
ATOM     53  C   UNL     1       5.269  -1.212   5.106  1.00  0.00     0.049 A 
ATOM     54  H   UNL     1       6.027  -1.818   3.262  1.00  0.00     0.167 HD
ATOM     55  C   UNL     1       7.549  -3.394  -0.497  1.00  0.00     0.031 A 
ATOM     56  C   UNL     1       6.310  -1.009   5.937  1.00  0.00     0.031 A 
ATOM     57  C   UNL     1       8.721  -3.231   0.325  1.00  0.00     0.049 A 
ATOM     58  C   UNL     1       7.704  -1.309   5.466  1.00  0.00     0.074 A 
ATOM     59  C   UNL     1      10.047  -3.449  -0.011  1.00  0.00     0.029 A 
ATOM     60  N   UNL     1       8.712  -2.790   1.639  1.00  0.00    -0.354 N 
ATOM     61  N   UNL     1       8.101  -1.750   4.297  1.00  0.00    -0.248 NA
ATOM     62  C   UNL     1       8.789  -1.102   6.436  1.00  0.00     0.031 C 
ATOM     63  C   UNL     1      10.837  -3.172   1.111  1.00  0.00     0.029 A 
ATOM     64  C   UNL     1      10.006  -2.739   2.131  1.00  0.00     0.049 A 
ATOM     65  H   UNL     1       7.904  -2.548   2.148  1.00  0.00     0.167 HD
ATOM     66  C   UNL     1       9.483  -1.871   4.390  1.00  0.00     0.074 A 
ATOM     67  C   UNL     1       9.855  -1.433   5.720  1.00  0.00     0.031 C 
ATOM     68  C   UNL     1      10.363  -2.312   3.459  1.00  0.00     0.031 A 
BRANCH  55  69
ATOM     69  C   UNL     1       7.739  -3.922  -1.896  1.00  0.00    -0.014 A 
ATOM     70  C   UNL     1       7.619  -3.089  -3.022  1.00  0.00     0.010 A 
ATOM     71  C   UNL     1       8.091  -5.272  -2.079  1.00  0.00     0.010 A 
ATOM     72  C   UNL     1       7.811  -3.608  -4.308  1.00  0.00     0.020 A 
ATOM     73  C   UNL     1       8.306  -5.789  -3.360  1.00  0.00     0.020 A 
ATOM     74  C   UNL     1       8.147  -4.957  -4.468  1.00  0.00     0.054 A 
BRANCH  74  75
ATOM     75  S   UNL     1       8.408  -5.603  -6.144  1.00  0.00     0.124 S 
ATOM     76  O   UNL     1       7.037  -5.736  -6.631  1.00  0.00    -0.237 OA
ATOM     77  O   UNL     1       9.199  -4.551  -6.778  1.00  0.00    -0.237 OA
ATOM     78  O   UNL     1       9.115  -6.862  -5.923  1.00  0.00    -0.744 OA
ENDBRANCH  74  75
ENDBRANCH  55  69
BRANCH  56  79
ATOM     79  C   UNL     1       6.058  -0.561   7.334  1.00  0.00    -0.014 A 
ATOM     80  C   UNL     1       6.390   0.742   7.743  1.00  0.00     0.010 A 
ATOM     81  C   UNL     1       5.458  -1.438   8.256  1.00  0.00     0.010 A 
ATOM     82  C   UNL     1       6.132   1.157   9.054  1.00  0.00     0.020 A 
ATOM     83  C   UNL     1       5.173  -1.018   9.557  1.00  0.00     0.020 A 
ATOM     84  C   UNL     1       5.523   0.275   9.952  1.00  0.00     0.054 A 
BRANCH  84  85
ATOM     85  S   UNL     1       5.131   0.846  11.629  1.00  0.00     0.124 S 
ATOM     86  O   UNL     1       6.424   0.737  12.296  1.00  0.00    -0.237 OA
ATOM     87  O   UNL     1       4.647   2.205  11.402  1.00  0.00    -0.237 OA
ATOM     88  O   UNL     1       4.111  -0.099  12.078  1.00  0.00    -0.744 OA
ENDBRANCH  84  85
ENDBRANCH  56  79
BRANCH  68  89
ATOM     89  C   UNL     1      11.818  -2.324   3.842  1.00  0.00    -0.014 A 
ATOM     90  C   UNL     1      12.330  -3.303   4.712  1.00  0.00     0.010 A 
ATOM     91  C   UNL     1      12.688  -1.359   3.305  1.00  0.00     0.010 A 
ATOM     92  C   UNL     1      13.681  -3.294   5.067  1.00  0.00     0.020 A 
ATOM     93  C   UNL     1      14.044  -1.359   3.641  1.00  0.00     0.020 A 
ATOM     94  C   UNL     1      14.529  -2.318   4.534  1.00  0.00     0.054 A 
BRANCH  94  95
ATOM     95  S   UNL     1      16.285  -2.337   4.987  1.00  0.00     0.124 S 
ATOM     96  O   UNL     1      16.260  -1.747   6.323  1.00  0.00    -0.237 OA
ATOM     97  O   UNL     1      16.618  -3.759   4.935  1.00  0.00    -0.237 OA
ATOM     98  O   UNL     1      16.918  -1.519   3.955  1.00  0.00    -0.744 OA
ENDBRANCH  94  95
ENDBRANCH  68  89
ENDBRANCH  42  43
ENDBRANCH  35  37
ENDBRANCH  34  35
ENDBRANCH   1  34
TORSDOF 15
