REMARK SMILES CC(C)(C)OC(=O)c1c(F)ccc(C(=O)OCCOC(=O)c2ccc(-c3c4nc(c(-c5ccc(S(=O)(=O)[O-])cc5)c5ccc([nH]5)c(-c5ccc(S(=O)(=O)[O-])cc5)c5nc(c(-c6ccc(S(=O)(=O)[O-])cc6)c6ccc3[nH]6)C=C5)C=C4)cc2)c1N
REMARK SMILES IDX 17 1 16 2 14 3 15 4 13 5 8 6 9 7 82 8 10 9 11 10 12 11 6 12
REMARK SMILES IDX 7 13 5 14 2 15 1 16 3 17 4 18 83 19 18 22 19 23 20 24 21 25
REMARK SMILES IDX 22 26 23 27 81 28 24 29 80 30 25 31 26 32 27 33 74 34 28 35
REMARK SMILES IDX 79 36 73 37 75 38 29 39 78 40 72 41 71 42 30 44 60 45 41 46
REMARK SMILES IDX 59 47 42 48 45 49 58 50 76 51 43 52 44 53 57 55 77 56 46 57
REMARK SMILES IDX 31 58 32 59 40 60 33 61 39 62 34 63 35 64 36 65 37 66 38 67
REMARK SMILES IDX 61 68 62 69 70 70 63 71 69 72 64 73 65 74 66 75 67 76 68 77
REMARK SMILES IDX 47 78 48 79 56 80 49 81 55 82 50 83 51 84 52 85 53 86 54 87
REMARK H PARENT 83 20 83 21 75 43 45 54
REMARK Flexibility Score: inf
ROOT
ATOM      1  C   UNL     1       6.182  -2.591   5.316  1.00  0.00     0.275 C 
ENDROOT
BRANCH   1   2
ATOM      2  O   UNL     1       4.876  -1.989   5.180  1.00  0.00    -0.458 OA
BRANCH   2   3
ATOM      3  C   UNL     1       3.818  -2.747   5.572  1.00  0.00     0.340 C 
ATOM      4  O   UNL     1       3.880  -3.875   6.035  1.00  0.00    -0.246 OA
BRANCH   3   5
ATOM      5  C   UNL     1       2.536  -1.989   5.482  1.00  0.00     0.084 A 
ATOM      6  C   UNL     1       0.979  -0.420   4.499  1.00  0.00     0.119 A 
ATOM      7  C   UNL     1       0.073  -0.676   5.535  1.00  0.00     0.139 A 
ATOM      8  C   UNL     1       2.250  -1.049   4.466  1.00  0.00     0.064 A 
ATOM      9  F   UNL     1      -1.125  -0.076   5.575  1.00  0.00    -0.206 F 
ATOM     10  C   UNL     1       0.364  -1.605   6.520  1.00  0.00     0.041 A 
ATOM     11  C   UNL     1       1.575  -2.285   6.470  1.00  0.00     0.021 A 
BRANCH   6  12
ATOM     12  C   UNL     1       0.525   0.543   3.476  1.00  0.00     0.343 C 
ATOM     13  O   UNL     1      -0.067   1.577   3.723  1.00  0.00    -0.246 OA
BRANCH  12  14
ATOM     14  O   UNL     1       0.825   0.055   2.247  1.00  0.00    -0.456 OA
BRANCH  14  15
ATOM     15  C   UNL     1       0.378   0.745   1.054  1.00  0.00     0.104 C 
ATOM     16  C   UNL     1       0.965  -0.070  -0.108  1.00  0.00     0.056 C 
ATOM     17  C   UNL     1       0.938   2.169   0.983  1.00  0.00     0.056 C 
ATOM     18  C   UNL     1      -1.151   0.717   0.954  1.00  0.00     0.056 C 
ENDBRANCH  14  15
ENDBRANCH  12  14
ENDBRANCH   6  12
BRANCH   8  19
ATOM     19  N   UNL     1       3.142  -0.846   3.409  1.00  0.00    -0.397 N 
ATOM     20  H   UNL     1       2.931  -0.188   2.708  1.00  0.00     0.156 HD
ATOM     21  H   UNL     1       3.980  -1.360   3.367  1.00  0.00     0.156 HD
ENDBRANCH   8  19
ENDBRANCH   3   5
ENDBRANCH   2   3
ENDBRANCH   1   2
BRANCH   1  22
ATOM     22  C   UNL     1       6.983  -1.930   6.438  1.00  0.00     0.275 C 
BRANCH  22  23
ATOM     23  O   UNL     1       6.402  -2.244   7.716  1.00  0.00    -0.458 OA
BRANCH  23  24
ATOM     24  C   UNL     1       5.746  -1.225   8.316  1.00  0.00     0.338 C 
ATOM     25  O   UNL     1       5.643  -0.075   7.926  1.00  0.00    -0.246 OA
BRANCH  24  26
ATOM     26  C   UNL     1       5.043  -1.726   9.505  1.00  0.00     0.060 A 
ATOM     27  C   UNL     1       3.823  -2.364   9.310  1.00  0.00     0.016 A 
ATOM     28  C   UNL     1       5.482  -1.432  10.792  1.00  0.00     0.016 A 
ATOM     29  C   UNL     1       2.981  -2.617  10.387  1.00  0.00     0.010 A 
ATOM     30  C   UNL     1       4.677  -1.780  11.886  1.00  0.00     0.010 A 
ATOM     31  C   UNL     1       3.396  -2.336  11.695  1.00  0.00    -0.014 A 
BRANCH  31  32
ATOM     32  C   UNL     1       2.470  -2.570  12.843  1.00  0.00     0.031 A 
ATOM     33  C   UNL     1       2.092  -1.431  13.759  1.00  0.00     0.074 A 
ATOM     34  C   UNL     1       1.938  -3.791  13.060  1.00  0.00     0.049 A 
ATOM     35  N   UNL     1       1.437  -1.462  14.893  1.00  0.00    -0.248 NA
ATOM     36  C   UNL     1       2.521  -0.082  13.355  1.00  0.00     0.031 C 
ATOM     37  C   UNL     1       2.169  -4.979  12.234  1.00  0.00     0.029 A 
ATOM     38  N   UNL     1       1.082  -4.236  14.040  1.00  0.00    -0.354 N 
ATOM     39  C   UNL     1       1.430  -0.153  15.366  1.00  0.00     0.074 A 
ATOM     40  C   UNL     1       2.153   0.645  14.400  1.00  0.00     0.031 C 
ATOM     41  C   UNL     1       1.445  -6.000  12.715  1.00  0.00     0.029 A 
ATOM     42  C   UNL     1       0.774  -5.573  13.937  1.00  0.00     0.049 A 
ATOM     43  H   UNL     1       0.724  -3.653  14.748  1.00  0.00     0.167 HD
ATOM     44  C   UNL     1       0.875   0.339  16.501  1.00  0.00     0.031 A 
ATOM     45  C   UNL     1       0.073  -6.385  14.753  1.00  0.00     0.031 A 
ATOM     46  C   UNL     1       0.121  -0.450  17.441  1.00  0.00     0.049 A 
ATOM     47  C   UNL     1      -0.512  -5.827  16.019  1.00  0.00     0.074 A 
ATOM     48  C   UNL     1      -0.487  -0.042  18.617  1.00  0.00     0.029 A 
ATOM     49  N   UNL     1      -0.144  -1.804  17.306  1.00  0.00    -0.354 N 
ATOM     50  N   UNL     1      -0.458  -4.599  16.478  1.00  0.00    -0.248 NA
ATOM     51  C   UNL     1      -1.242  -6.765  16.882  1.00  0.00     0.031 C 
ATOM     52  C   UNL     1      -1.082  -1.159  19.213  1.00  0.00     0.029 A 
ATOM     53  C   UNL     1      -0.894  -2.251  18.382  1.00  0.00     0.049 A 
ATOM     54  H   UNL     1       0.156  -2.366  16.555  1.00  0.00     0.167 HD
ATOM     55  C   UNL     1      -1.154  -4.615  17.681  1.00  0.00     0.074 A 
ATOM     56  C   UNL     1      -1.640  -5.968  17.866  1.00  0.00     0.031 C 
ATOM     57  C   UNL     1      -1.365  -3.602  18.557  1.00  0.00     0.031 A 
BRANCH  44  58
ATOM     58  C   UNL     1       1.108   1.797  16.813  1.00  0.00    -0.014 A 
ATOM     59  C   UNL     1       0.493   2.821  16.071  1.00  0.00     0.010 A 
ATOM     60  C   UNL     1       1.951   2.145  17.886  1.00  0.00     0.010 A 
ATOM     61  C   UNL     1       0.761   4.163  16.359  1.00  0.00     0.020 A 
ATOM     62  C   UNL     1       2.197   3.485  18.196  1.00  0.00     0.020 A 
ATOM     63  C   UNL     1       1.619   4.487  17.415  1.00  0.00     0.054 A 
BRANCH  63  64
ATOM     64  S   UNL     1       1.955   6.235  17.765  1.00  0.00     0.124 S 
ATOM     65  O   UNL     1       2.858   6.591  16.673  1.00  0.00    -0.237 OA
ATOM     66  O   UNL     1       0.627   6.838  17.703  1.00  0.00    -0.237 OA
ATOM     67  O   UNL     1       2.564   6.212  19.093  1.00  0.00    -0.744 OA
ENDBRANCH  63  64
ENDBRANCH  44  58
BRANCH  45  68
ATOM     68  C   UNL     1      -0.056  -7.830  14.416  1.00  0.00    -0.014 A 
ATOM     69  C   UNL     1      -1.290  -8.371  14.018  1.00  0.00     0.010 A 
ATOM     70  C   UNL     1       1.077  -8.665  14.454  1.00  0.00     0.010 A 
ATOM     71  C   UNL     1      -1.388  -9.721  13.661  1.00  0.00     0.020 A 
ATOM     72  C   UNL     1       0.990 -10.005  14.068  1.00  0.00     0.020 A 
ATOM     73  C   UNL     1      -0.245 -10.527  13.681  1.00  0.00     0.054 A 
BRANCH  73  74
ATOM     74  S   UNL     1      -0.376 -12.252  13.134  1.00  0.00     0.124 S 
ATOM     75  O   UNL     1      -1.028 -12.884  14.276  1.00  0.00    -0.237 OA
ATOM     76  O   UNL     1      -1.186 -12.140  11.923  1.00  0.00    -0.237 OA
ATOM     77  O   UNL     1       1.014 -12.644  12.909  1.00  0.00    -0.744 OA
ENDBRANCH  73  74
ENDBRANCH  45  68
BRANCH  57  78
ATOM     78  C   UNL     1      -2.183  -3.911  19.782  1.00  0.00    -0.014 A 
ATOM     79  C   UNL     1      -1.655  -4.676  20.837  1.00  0.00     0.010 A 
ATOM     80  C   UNL     1      -3.487  -3.394  19.894  1.00  0.00     0.010 A 
ATOM     81  C   UNL     1      -2.430  -4.949  21.968  1.00  0.00     0.020 A 
ATOM     82  C   UNL     1      -4.255  -3.643  21.034  1.00  0.00     0.020 A 
ATOM     83  C   UNL     1      -3.726  -4.432  22.058  1.00  0.00     0.054 A 
BRANCH  83  84
ATOM     84  S   UNL     1      -4.701  -4.772  23.549  1.00  0.00     0.124 S 
ATOM     85  O   UNL     1      -5.078  -6.169  23.354  1.00  0.00    -0.237 OA
ATOM     86  O   UNL     1      -3.742  -4.523  24.624  1.00  0.00    -0.237 OA
ATOM     87  O   UNL     1      -5.800  -3.813  23.470  1.00  0.00    -0.744 OA
ENDBRANCH  83  84
ENDBRANCH  57  78
ENDBRANCH  31  32
ENDBRANCH  24  26
ENDBRANCH  23  24
ENDBRANCH  22  23
ENDBRANCH   1  22
TORSDOF 18
