REMARK SMILES Cc1cc(OC(F)(F)F)cc2c1O[C@H](C(F)(F)F)C(C(=O)OCCOC(=O)c1ccc(-c3c4nc(c(-c5ccc(S(=O)(=O)[O-])cc5)c5ccc([nH]5)c(-c5ccc(S(=O)(=O)[O-])cc5)c5nc(c(-c6ccc(S(=O)(=O)[O-])cc6)c6ccc3[nH]6)C=C5)C=C4)cc1)=C2
REMARK SMILES IDX 24 1 23 2 22 3 20 4 21 5 19 6 1 7 2 8 3 9 12 10 4 11 11 12
REMARK SMILES IDX 13 13 10 14 88 15 14 16 5 17 6 18 7 19 8 20 9 21 15 22 16 23
REMARK SMILES IDX 17 24 18 25 25 26 26 27 27 28 28 29 29 30 87 31 30 32 86 33
REMARK SMILES IDX 31 34 32 35 33 36 80 37 34 38 85 39 79 40 81 41 35 42 84 43
REMARK SMILES IDX 78 44 77 45 36 47 66 48 47 49 65 50 48 51 51 52 64 53 82 54
REMARK SMILES IDX 49 55 50 56 63 58 83 59 52 60 37 61 38 62 46 63 39 64 45 65
REMARK SMILES IDX 40 66 41 67 42 68 43 69 44 70 67 71 68 72 76 73 69 74 75 75
REMARK SMILES IDX 70 76 71 77 72 78 73 79 74 80 53 81 54 82 62 83 55 84 61 85
REMARK SMILES IDX 56 86 57 87 58 88 59 89 60 90
REMARK H PARENT 81 46 51 57
REMARK Flexibility Score: inf
ROOT
ATOM      1  C   UNL     1      -2.566  -0.675   8.431  1.00  0.00     0.275 C 
ENDROOT
BRANCH   1   2
ATOM      2  C   UNL     1      -3.264  -1.175   7.167  1.00  0.00     0.275 C 
BRANCH   2   3
ATOM      3  O   UNL     1      -2.445  -0.964   5.998  1.00  0.00    -0.459 OA
BRANCH   3   4
ATOM      4  C   UNL     1      -2.789   0.098   5.229  1.00  0.00     0.338 C 
ATOM      5  O   UNL     1      -3.735   0.844   5.405  1.00  0.00    -0.246 OA
BRANCH   4   6
ATOM      6  C   UNL     1      -1.826   0.261   4.122  1.00  0.00     0.087 C 
ATOM      7  C   UNL     1       1.083  -0.326  -0.102  1.00  0.00     0.048 C 
ATOM      8  C   UNL     1       0.663   0.802   0.798  1.00  0.00    -0.005 A 
ATOM      9  C   UNL     1       1.081   2.109   0.470  1.00  0.00     0.054 A 
ATOM     10  C   UNL     1      -0.137   0.597   1.932  1.00  0.00     0.131 A 
ATOM     11  C   UNL     1       0.718   3.198   1.262  1.00  0.00     0.130 A 
ATOM     12  C   UNL     1      -0.516   1.689   2.713  1.00  0.00     0.021 A 
ATOM     13  O   UNL     1      -0.498  -0.688   2.233  1.00  0.00    -0.475 OA
ATOM     14  C   UNL     1      -0.078   2.977   2.386  1.00  0.00     0.058 A 
ATOM     15  C   UNL     1      -1.391   1.496   3.853  1.00  0.00     0.027 C 
ATOM     16  C   UNL     1      -1.470  -0.932   3.286  1.00  0.00     0.316 C 
BRANCH  11  17
ATOM     17  O   UNL     1       1.057   4.505   1.062  1.00  0.00    -0.406 OA
BRANCH  17  18
ATOM     18  C   UNL     1       1.758   4.838  -0.123  1.00  0.00     0.573 C 
ATOM     19  F   UNL     1       2.965   4.232  -0.162  1.00  0.00    -0.132 F 
ATOM     20  F   UNL     1       1.049   4.486  -1.219  1.00  0.00    -0.132 F 
ATOM     21  F   UNL     1       1.952   6.173  -0.160  1.00  0.00    -0.132 F 
ENDBRANCH  17  18
ENDBRANCH  11  17
BRANCH  16  22
ATOM     22  C   UNL     1      -2.723  -1.563   2.657  1.00  0.00     0.430 C 
ATOM     23  F   UNL     1      -2.403  -2.627   1.881  1.00  0.00    -0.167 F 
ATOM     24  F   UNL     1      -3.582  -2.023   3.600  1.00  0.00    -0.167 F 
ATOM     25  F   UNL     1      -3.405  -0.689   1.883  1.00  0.00    -0.167 F 
ENDBRANCH  16  22
ENDBRANCH   4   6
ENDBRANCH   3   4
ENDBRANCH   2   3
ENDBRANCH   1   2
BRANCH   1  26
ATOM     26  O   UNL     1      -2.434   0.757   8.405  1.00  0.00    -0.458 OA
BRANCH  26  27
ATOM     27  C   UNL     1      -1.210   1.208   8.055  1.00  0.00     0.338 C 
ATOM     28  O   UNL     1      -0.222   0.540   7.794  1.00  0.00    -0.246 OA
BRANCH  27  29
ATOM     29  C   UNL     1      -1.214   2.674   7.967  1.00  0.00     0.060 A 
ATOM     30  C   UNL     1      -1.898   3.287   6.921  1.00  0.00     0.016 A 
ATOM     31  C   UNL     1      -0.384   3.422   8.799  1.00  0.00     0.016 A 
ATOM     32  C   UNL     1      -1.635   4.616   6.605  1.00  0.00     0.010 A 
ATOM     33  C   UNL     1      -0.224   4.789   8.558  1.00  0.00     0.010 A 
ATOM     34  C   UNL     1      -0.801   5.389   7.424  1.00  0.00    -0.014 A 
BRANCH  34  35
ATOM     35  C   UNL     1      -0.504   6.807   7.081  1.00  0.00     0.031 A 
ATOM     36  C   UNL     1       0.921   7.252   6.868  1.00  0.00     0.074 A 
ATOM     37  C   UNL     1      -1.510   7.696   6.947  1.00  0.00     0.049 A 
ATOM     38  N   UNL     1       1.393   8.465   6.732  1.00  0.00    -0.248 NA
ATOM     39  C   UNL     1       1.953   6.201   6.808  1.00  0.00     0.031 C 
ATOM     40  C   UNL     1      -2.938   7.389   7.063  1.00  0.00     0.029 A 
ATOM     41  N   UNL     1      -1.485   9.042   6.675  1.00  0.00    -0.354 N 
ATOM     42  C   UNL     1       2.773   8.327   6.619  1.00  0.00     0.074 A 
ATOM     43  C   UNL     1       3.067   6.915   6.709  1.00  0.00     0.031 C 
ATOM     44  C   UNL     1      -3.650   8.499   6.822  1.00  0.00     0.029 A 
ATOM     45  C   UNL     1      -2.734   9.616   6.629  1.00  0.00     0.049 A 
ATOM     46  H   UNL     1      -0.654   9.548   6.527  1.00  0.00     0.167 HD
ATOM     47  C   UNL     1       3.708   9.293   6.454  1.00  0.00     0.031 A 
ATOM     48  C   UNL     1      -3.110  10.903   6.493  1.00  0.00     0.031 A 
ATOM     49  C   UNL     1       3.404  10.693   6.326  1.00  0.00     0.049 A 
ATOM     50  C   UNL     1      -2.055  11.963   6.377  1.00  0.00     0.074 A 
ATOM     51  C   UNL     1       4.282  11.748   6.151  1.00  0.00     0.029 A 
ATOM     52  N   UNL     1       2.127  11.232   6.341  1.00  0.00    -0.354 N 
ATOM     53  N   UNL     1      -0.752  11.820   6.344  1.00  0.00    -0.248 NA
ATOM     54  C   UNL     1      -2.515  13.356   6.300  1.00  0.00     0.031 C 
ATOM     55  C   UNL     1       3.539  12.930   6.106  1.00  0.00     0.029 A 
ATOM     56  C   UNL     1       2.195  12.606   6.197  1.00  0.00     0.049 A 
ATOM     57  H   UNL     1       1.296  10.713   6.440  1.00  0.00     0.167 HD
ATOM     58  C   UNL     1      -0.235  13.104   6.228  1.00  0.00     0.074 A 
ATOM     59  C   UNL     1      -1.365  14.010   6.189  1.00  0.00     0.031 C 
ATOM     60  C   UNL     1       1.060  13.493   6.159  1.00  0.00     0.031 A 
BRANCH  47  61
ATOM     61  C   UNL     1       5.156   8.884   6.426  1.00  0.00    -0.014 A 
ATOM     62  C   UNL     1       5.721   8.270   5.295  1.00  0.00     0.010 A 
ATOM     63  C   UNL     1       5.985   9.205   7.519  1.00  0.00     0.010 A 
ATOM     64  C   UNL     1       7.087   7.972   5.263  1.00  0.00     0.020 A 
ATOM     65  C   UNL     1       7.354   8.928   7.481  1.00  0.00     0.020 A 
ATOM     66  C   UNL     1       7.896   8.310   6.353  1.00  0.00     0.054 A 
BRANCH  66  67
ATOM     67  S   UNL     1       9.670   7.941   6.263  1.00  0.00     0.124 S 
ATOM     68  O   UNL     1       9.674   6.490   6.095  1.00  0.00    -0.237 OA
ATOM     69  O   UNL     1      10.092   8.710   5.095  1.00  0.00    -0.237 OA
ATOM     70  O   UNL     1      10.191   8.416   7.543  1.00  0.00    -0.744 OA
ENDBRANCH  66  67
ENDBRANCH  47  61
BRANCH  48  71
ATOM     71  C   UNL     1      -4.558  11.243   6.500  1.00  0.00    -0.014 A 
ATOM     72  C   UNL     1      -5.207  11.614   5.311  1.00  0.00     0.010 A 
ATOM     73  C   UNL     1      -5.310  11.123   7.684  1.00  0.00     0.010 A 
ATOM     74  C   UNL     1      -6.586  11.847   5.303  1.00  0.00     0.020 A 
ATOM     75  C   UNL     1      -6.692  11.331   7.675  1.00  0.00     0.020 A 
ATOM     76  C   UNL     1      -7.322  11.688   6.482  1.00  0.00     0.054 A 
BRANCH  76  77
ATOM     77  S   UNL     1      -9.119  11.926   6.423  1.00  0.00     0.124 S 
ATOM     78  O   UNL     1      -9.233  13.315   5.990  1.00  0.00    -0.237 OA
ATOM     79  O   UNL     1      -9.530  10.921   5.446  1.00  0.00    -0.237 OA
ATOM     80  O   UNL     1      -9.547  11.663   7.796  1.00  0.00    -0.744 OA
ENDBRANCH  76  77
ENDBRANCH  48  71
BRANCH  60  81
ATOM     81  C   UNL     1       1.345  14.960   6.007  1.00  0.00    -0.014 A 
ATOM     82  C   UNL     1       1.265  15.829   7.107  1.00  0.00     0.010 A 
ATOM     83  C   UNL     1       1.811  15.448   4.772  1.00  0.00     0.010 A 
ATOM     84  C   UNL     1       1.646  17.166   6.975  1.00  0.00     0.020 A 
ATOM     85  C   UNL     1       2.213  16.779   4.642  1.00  0.00     0.020 A 
ATOM     86  C   UNL     1       2.129  17.629   5.746  1.00  0.00     0.054 A 
BRANCH  86  87
ATOM     87  S   UNL     1       2.677  19.354   5.626  1.00  0.00     0.124 S 
ATOM     88  O   UNL     1       1.456  20.088   5.950  1.00  0.00    -0.237 OA
ATOM     89  O   UNL     1       3.734  19.417   6.632  1.00  0.00    -0.237 OA
ATOM     90  O   UNL     1       3.127  19.481   4.242  1.00  0.00    -0.744 OA
ENDBRANCH  86  87
ENDBRANCH  60  81
ENDBRANCH  34  35
ENDBRANCH  27  29
ENDBRANCH  26  27
ENDBRANCH   1  26
TORSDOF 17
