REMARK SMILES C#CCN(CC(=O)OCCOC(=O)c1ccc(-c2c3nc(c(-c4ccc(S(=O)(=O)[O-])cc4)c4ccc([nH]4)c(-c4ccc(S(=O)(=O)[O-])cc4)c4nc(c(-c5ccc(S(=O)(=O)[O-])cc5)c5ccc2[nH]5)C=C4)C=C3)cc1)c1n[nH]c(=O)[nH]c1=O
REMARK SMILES IDX 9 1 8 2 6 3 7 4 5 5 4 6 3 7 2 8 1 9 74 10 75 11 80 12 76 13
REMARK SMILES IDX 79 14 81 15 77 16 78 19 10 20 11 21 12 22 13 23 14 24 15 25
REMARK SMILES IDX 73 26 16 27 72 28 17 29 18 30 19 31 66 32 20 33 71 34 65 35
REMARK SMILES IDX 67 36 21 37 70 38 64 39 63 40 22 42 52 43 33 44 51 45 34 46
REMARK SMILES IDX 37 47 50 48 68 49 35 50 36 51 49 53 69 54 38 55 23 56 24 57
REMARK SMILES IDX 32 58 25 59 31 60 26 61 27 62 28 63 29 64 30 65 53 66 54 67
REMARK SMILES IDX 62 68 55 69 61 70 56 71 57 72 58 73 59 74 60 75 39 76 40 77
REMARK SMILES IDX 48 78 41 79 47 80 42 81 43 82 44 83 45 84 46 85
REMARK H PARENT 76 17 79 18 67 41 37 52
REMARK Flexibility Score: inf
ROOT
ATOM      1  C   UNL     1      -6.295   1.647   0.871  1.00  0.00     0.274 C 
ENDROOT
BRANCH   1   2
ATOM      2  O   UNL     1      -4.885   1.475   0.639  1.00  0.00    -0.461 OA
BRANCH   2   3
ATOM      3  C   UNL     1      -4.377   2.054  -0.482  1.00  0.00     0.325 C 
ATOM      4  O   UNL     1      -5.058   2.570  -1.363  1.00  0.00    -0.250 OA
BRANCH   3   5
ATOM      5  C   UNL     1      -2.848   2.076  -0.520  1.00  0.00     0.242 C 
BRANCH   5   6
ATOM      6  N   UNL     1      -2.227   1.214   0.474  1.00  0.00    -0.328 N 
BRANCH   6   7
ATOM      7  C   UNL     1      -1.747  -0.061   0.020  1.00  0.00     0.208 C 
BRANCH   7   8
ATOM      8  C   UNL     1      -0.227  -0.061   0.020  1.00  0.00    -0.085 C 
ATOM      9  C   UNL     1       1.077  -0.061   0.020  1.00  0.00     0.006 C 
ENDBRANCH   7   8
ENDBRANCH   6   7
BRANCH   6  10
ATOM     10  C   UNL     1      -1.982   1.633   1.772  1.00  0.00     0.216 A 
ATOM     11  N   UNL     1      -2.526   1.022   2.791  1.00  0.00    -0.147 NA
ATOM     12  C   UNL     1      -0.994   2.795   2.002  1.00  0.00     0.296 A 
ATOM     13  N   UNL     1      -2.236   1.493   4.038  1.00  0.00    -0.226 N 
ATOM     14  N   UNL     1      -0.719   3.081   3.304  1.00  0.00    -0.270 N 
ATOM     15  O   UNL     1      -0.487   3.384   1.056  1.00  0.00    -0.265 OA
ATOM     16  C   UNL     1      -1.353   2.491   4.347  1.00  0.00     0.342 A 
ATOM     17  H   UNL     1      -2.711   1.073   4.791  1.00  0.00     0.195 HD
ATOM     18  H   UNL     1      -0.024   3.751   3.498  1.00  0.00     0.175 HD
ATOM     19  O   UNL     1      -1.138   2.828   5.508  1.00  0.00    -0.246 OA
ENDBRANCH   6  10
ENDBRANCH   5   6
ENDBRANCH   3   5
ENDBRANCH   2   3
ENDBRANCH   1   2
BRANCH   1  20
ATOM     20  C   UNL     1      -6.523   2.742   1.910  1.00  0.00     0.275 C 
BRANCH  20  21
ATOM     21  O   UNL     1      -5.940   3.978   1.456  1.00  0.00    -0.458 OA
BRANCH  21  22
ATOM     22  C   UNL     1      -4.858   4.386   2.156  1.00  0.00     0.338 C 
ATOM     23  O   UNL     1      -4.365   3.860   3.140  1.00  0.00    -0.246 OA
BRANCH  22  24
ATOM     24  C   UNL     1      -4.277   5.595   1.562  1.00  0.00     0.060 A 
ATOM     25  C   UNL     1      -3.697   5.544   0.295  1.00  0.00     0.016 A 
ATOM     26  C   UNL     1      -4.139   6.731   2.357  1.00  0.00     0.016 A 
ATOM     27  C   UNL     1      -2.868   6.577  -0.129  1.00  0.00     0.010 A 
ATOM     28  C   UNL     1      -3.402   7.814   1.882  1.00  0.00     0.010 A 
ATOM     29  C   UNL     1      -2.724   7.729   0.654  1.00  0.00    -0.014 A 
BRANCH  29  30
ATOM     30  C   UNL     1      -1.885   8.864   0.198  1.00  0.00     0.031 A 
ATOM     31  C   UNL     1      -0.704   9.306   1.017  1.00  0.00     0.074 A 
ATOM     32  C   UNL     1      -2.223   9.524  -0.925  1.00  0.00     0.049 A 
ATOM     33  N   UNL     1       0.003  10.401   0.918  1.00  0.00    -0.248 NA
ATOM     34  C   UNL     1      -0.272   8.407   2.100  1.00  0.00     0.031 C 
ATOM     35  C   UNL     1      -3.322   9.162  -1.825  1.00  0.00     0.029 A 
ATOM     36  N   UNL     1      -1.688  10.651  -1.494  1.00  0.00    -0.354 N 
ATOM     37  C   UNL     1       0.932  10.348   1.952  1.00  0.00     0.074 A 
ATOM     38  C   UNL     1       0.699   9.111   2.667  1.00  0.00     0.031 C 
ATOM     39  C   UNL     1      -3.374  10.043  -2.834  1.00  0.00     0.029 A 
ATOM     40  C   UNL     1      -2.370  11.075  -2.608  1.00  0.00     0.049 A 
ATOM     41  H   UNL     1      -0.892  11.110  -1.139  1.00  0.00     0.167 HD
ATOM     42  C   UNL     1       1.882  11.258   2.278  1.00  0.00     0.031 A 
ATOM     43  C   UNL     1      -2.244  12.198  -3.338  1.00  0.00     0.031 A 
ATOM     44  C   UNL     1       2.107  12.477   1.546  1.00  0.00     0.049 A 
ATOM     45  C   UNL     1      -1.213  13.209  -2.936  1.00  0.00     0.074 A 
ATOM     46  C   UNL     1       3.044  13.467   1.784  1.00  0.00     0.029 A 
ATOM     47  N   UNL     1       1.391  12.867   0.423  1.00  0.00    -0.354 N 
ATOM     48  N   UNL     1      -0.373  13.168  -1.930  1.00  0.00    -0.248 NA
ATOM     49  C   UNL     1      -1.120  14.421  -3.759  1.00  0.00     0.031 C 
ATOM     50  C   UNL     1       2.869  14.474   0.827  1.00  0.00     0.029 A 
ATOM     51  C   UNL     1       1.854  14.088  -0.035  1.00  0.00     0.049 A 
ATOM     52  H   UNL     1       0.659  12.351   0.013  1.00  0.00     0.167 HD
ATOM     53  C   UNL     1       0.361  14.345  -2.005  1.00  0.00     0.074 A 
ATOM     54  C   UNL     1      -0.126  15.068  -3.163  1.00  0.00     0.031 C 
ATOM     55  C   UNL     1       1.348  14.787  -1.188  1.00  0.00     0.031 A 
BRANCH  42  56
ATOM     56  C   UNL     1       2.717  10.990   3.503  1.00  0.00    -0.014 A 
ATOM     57  C   UNL     1       3.728  10.013   3.504  1.00  0.00     0.010 A 
ATOM     58  C   UNL     1       2.509  11.758   4.664  1.00  0.00     0.010 A 
ATOM     59  C   UNL     1       4.490   9.784   4.654  1.00  0.00     0.020 A 
ATOM     60  C   UNL     1       3.283  11.547   5.809  1.00  0.00     0.020 A 
ATOM     61  C   UNL     1       4.258  10.548   5.802  1.00  0.00     0.054 A 
BRANCH  61  62
ATOM     62  S   UNL     1       5.270  10.245   7.278  1.00  0.00     0.124 S 
ATOM     63  O   UNL     1       4.684   9.011   7.796  1.00  0.00    -0.237 OA
ATOM     64  O   UNL     1       6.616  10.115   6.725  1.00  0.00    -0.237 OA
ATOM     65  O   UNL     1       5.051  11.433   8.099  1.00  0.00    -0.744 OA
ENDBRANCH  61  62
ENDBRANCH  42  56
BRANCH  43  66
ATOM     66  C   UNL     1      -3.155  12.427  -4.490  1.00  0.00    -0.014 A 
ATOM     67  C   UNL     1      -2.683  12.304  -5.806  1.00  0.00     0.010 A 
ATOM     68  C   UNL     1      -4.518  12.703  -4.272  1.00  0.00     0.010 A 
ATOM     69  C   UNL     1      -3.558  12.453  -6.887  1.00  0.00     0.020 A 
ATOM     70  C   UNL     1      -5.400  12.826  -5.348  1.00  0.00     0.020 A 
ATOM     71  C   UNL     1      -4.912  12.707  -6.650  1.00  0.00     0.054 A 
BRANCH  71  72
ATOM     72  S   UNL     1      -6.047  12.811  -8.062  1.00  0.00     0.124 S 
ATOM     73  O   UNL     1      -5.785  14.156  -8.563  1.00  0.00    -0.237 OA
ATOM     74  O   UNL     1      -5.594  11.716  -8.917  1.00  0.00    -0.237 OA
ATOM     75  O   UNL     1      -7.362  12.611  -7.456  1.00  0.00    -0.744 OA
ENDBRANCH  71  72
ENDBRANCH  43  66
BRANCH  55  76
ATOM     76  C   UNL     1       1.984  16.101  -1.545  1.00  0.00    -0.014 A 
ATOM     77  C   UNL     1       1.328  17.317  -1.287  1.00  0.00     0.010 A 
ATOM     78  C   UNL     1       3.269  16.114  -2.115  1.00  0.00     0.010 A 
ATOM     79  C   UNL     1       1.937  18.528  -1.622  1.00  0.00     0.020 A 
ATOM     80  C   UNL     1       3.889  17.324  -2.432  1.00  0.00     0.020 A 
ATOM     81  C   UNL     1       3.212  18.523  -2.196  1.00  0.00     0.054 A 
BRANCH  81  82
ATOM     82  S   UNL     1       4.002  20.108  -2.591  1.00  0.00     0.124 S 
ATOM     83  O   UNL     1       3.323  20.484  -3.827  1.00  0.00    -0.237 OA
ATOM     84  O   UNL     1       3.683  20.927  -1.424  1.00  0.00    -0.237 OA
ATOM     85  O   UNL     1       5.414  19.763  -2.734  1.00  0.00    -0.744 OA
ENDBRANCH  81  82
ENDBRANCH  55  76
ENDBRANCH  29  30
ENDBRANCH  22  24
ENDBRANCH  21  22
ENDBRANCH  20  21
ENDBRANCH   1  20
TORSDOF 18
