REMARK SMILES O=C(OCCOC(=O)c1cnc2c(ccn2C2CCCCC2)c1)c1ccc(-c2c3nc(c(-c4ccc(S(=O)(=O)[O-])cc4)c4ccc([nH]4)c(-c4ccc(S(=O)(=O)[O-])cc4)c4nc(c(-c5ccc(S(=O)(=O)[O-])cc5)c5ccc2[nH]5)C=C4)C=C3)cc1
REMARK SMILES IDX 4 1 3 2 2 3 1 4 24 5 25 6 83 7 26 8 82 9 27 10 28 11 29 12
REMARK SMILES IDX 76 13 30 14 81 15 75 16 77 17 31 18 80 19 74 20 73 21 32 23
REMARK SMILES IDX 62 24 43 25 61 26 44 27 47 28 60 29 78 30 45 31 46 32 59 34
REMARK SMILES IDX 79 35 48 36 33 37 34 38 42 39 35 40 41 41 36 42 37 43 38 44
REMARK SMILES IDX 39 45 40 46 63 47 64 48 72 49 65 50 71 51 66 52 67 53 68 54
REMARK SMILES IDX 69 55 70 56 49 57 50 58 58 59 51 60 57 61 52 62 53 63 54 64
REMARK SMILES IDX 55 65 56 66 5 67 6 68 7 69 8 70 9 71 10 72 23 73 11 74 13 75
REMARK SMILES IDX 12 76 14 77 16 78 15 79 17 80 18 81 22 82 19 83 21 84 20 85
REMARK H PARENT 77 22 47 33
REMARK Flexibility Score: inf
ROOT
ATOM      1  C   UNL     1       4.684  -1.141   0.587  1.00  0.00     0.275 C 
ENDROOT
BRANCH   1   2
ATOM      2  O   UNL     1       3.481  -0.777   1.297  1.00  0.00    -0.458 OA
BRANCH   2   3
ATOM      3  C   UNL     1       2.459  -0.169   0.655  1.00  0.00     0.338 C 
ATOM      4  O   UNL     1       1.431  -0.752   0.339  1.00  0.00    -0.246 OA
BRANCH   3   5
ATOM      5  C   UNL     1       2.569   1.311   0.582  1.00  0.00     0.060 A 
ATOM      6  C   UNL     1       3.791   1.987   0.582  1.00  0.00     0.016 A 
ATOM      7  C   UNL     1       1.374   2.043   0.486  1.00  0.00     0.016 A 
ATOM      8  C   UNL     1       3.821   3.372   0.544  1.00  0.00     0.010 A 
ATOM      9  C   UNL     1       1.402   3.430   0.425  1.00  0.00     0.010 A 
ATOM     10  C   UNL     1       2.626   4.090   0.496  1.00  0.00    -0.014 A 
BRANCH  10  11
ATOM     11  C   UNL     1       2.726   5.542   0.530  1.00  0.00     0.031 A 
ATOM     12  C   UNL     1       3.415   6.189  -0.621  1.00  0.00     0.074 A 
ATOM     13  C   UNL     1       2.186   6.280   1.516  1.00  0.00     0.049 A 
ATOM     14  N   UNL     1       4.538   6.832  -0.627  1.00  0.00    -0.248 NA
ATOM     15  C   UNL     1       2.805   6.032  -1.947  1.00  0.00     0.031 C 
ATOM     16  C   UNL     1       1.254   5.856   2.565  1.00  0.00     0.029 A 
ATOM     17  N   UNL     1       2.300   7.619   1.723  1.00  0.00    -0.354 N 
ATOM     18  C   UNL     1       4.695   7.320  -1.923  1.00  0.00     0.074 A 
ATOM     19  C   UNL     1       3.665   6.697  -2.718  1.00  0.00     0.031 C 
ATOM     20  C   UNL     1       0.718   6.951   3.149  1.00  0.00     0.029 A 
ATOM     21  C   UNL     1       1.382   8.133   2.626  1.00  0.00     0.049 A 
ATOM     22  H   UNL     1       2.975   8.175   1.271  1.00  0.00     0.167 HD
ATOM     23  C   UNL     1       5.535   8.350  -2.227  1.00  0.00     0.031 A 
ATOM     24  C   UNL     1       1.148   9.444   2.870  1.00  0.00     0.031 A 
ATOM     25  C   UNL     1       6.497   8.604  -1.192  1.00  0.00     0.049 A 
ATOM     26  C   UNL     1       2.363  10.186   2.451  1.00  0.00     0.074 A 
ATOM     27  C   UNL     1       7.513   7.875  -0.606  1.00  0.00     0.029 A 
ATOM     28  N   UNL     1       6.259   9.660  -0.345  1.00  0.00    -0.354 N 
ATOM     29  N   UNL     1       3.526  10.054   3.029  1.00  0.00    -0.248 NA
ATOM     30  C   UNL     1       2.393  10.784   1.126  1.00  0.00     0.031 C 
ATOM     31  C   UNL     1       7.482   8.244   0.771  1.00  0.00     0.029 A 
ATOM     32  C   UNL     1       6.479   9.204   0.930  1.00  0.00     0.049 A 
ATOM     33  H   UNL     1       5.984  10.569  -0.604  1.00  0.00     0.167 HD
ATOM     34  C   UNL     1       4.453  10.172   2.005  1.00  0.00     0.074 A 
ATOM     35  C   UNL     1       3.704  10.724   0.880  1.00  0.00     0.031 C 
ATOM     36  C   UNL     1       5.677   9.570   2.079  1.00  0.00     0.031 A 
BRANCH  23  37
ATOM     37  C   UNL     1       5.247   9.353  -3.317  1.00  0.00    -0.014 A 
ATOM     38  C   UNL     1       6.230  10.297  -3.678  1.00  0.00     0.010 A 
ATOM     39  C   UNL     1       3.940   9.571  -3.801  1.00  0.00     0.010 A 
ATOM     40  C   UNL     1       5.904  11.428  -4.442  1.00  0.00     0.020 A 
ATOM     41  C   UNL     1       3.615  10.670  -4.598  1.00  0.00     0.020 A 
ATOM     42  C   UNL     1       4.593  11.611  -4.887  1.00  0.00     0.054 A 
BRANCH  42  43
ATOM     43  S   UNL     1       4.151  13.140  -5.752  1.00  0.00     0.124 S 
ATOM     44  O   UNL     1       4.509  14.159  -4.769  1.00  0.00    -0.237 OA
ATOM     45  O   UNL     1       5.000  13.077  -6.938  1.00  0.00    -0.237 OA
ATOM     46  O   UNL     1       2.720  12.989  -6.004  1.00  0.00    -0.744 OA
ENDBRANCH  42  43
ENDBRANCH  23  37
BRANCH  24  47
ATOM     47  C   UNL     1      -0.174  10.090   3.072  1.00  0.00    -0.014 A 
ATOM     48  C   UNL     1      -0.261  11.451   3.422  1.00  0.00     0.010 A 
ATOM     49  C   UNL     1      -1.355   9.448   2.643  1.00  0.00     0.010 A 
ATOM     50  C   UNL     1      -1.464  12.160   3.267  1.00  0.00     0.020 A 
ATOM     51  C   UNL     1      -2.559  10.145   2.498  1.00  0.00     0.020 A 
ATOM     52  C   UNL     1      -2.598  11.508   2.776  1.00  0.00     0.054 A 
BRANCH  52  53
ATOM     53  S   UNL     1      -4.090  12.473   2.404  1.00  0.00     0.124 S 
ATOM     54  O   UNL     1      -4.420  13.056   3.702  1.00  0.00    -0.237 OA
ATOM     55  O   UNL     1      -3.607  13.411   1.394  1.00  0.00    -0.237 OA
ATOM     56  O   UNL     1      -5.037  11.472   1.917  1.00  0.00    -0.744 OA
ENDBRANCH  52  53
ENDBRANCH  24  47
BRANCH  36  57
ATOM     57  C   UNL     1       6.114   8.984   3.402  1.00  0.00    -0.014 A 
ATOM     58  C   UNL     1       5.492   7.862   3.984  1.00  0.00     0.010 A 
ATOM     59  C   UNL     1       7.311   9.458   3.966  1.00  0.00     0.010 A 
ATOM     60  C   UNL     1       6.059   7.227   5.100  1.00  0.00     0.020 A 
ATOM     61  C   UNL     1       7.887   8.822   5.070  1.00  0.00     0.020 A 
ATOM     62  C   UNL     1       7.264   7.704   5.626  1.00  0.00     0.054 A 
BRANCH  62  63
ATOM     63  S   UNL     1       8.040   6.821   7.011  1.00  0.00     0.124 S 
ATOM     64  O   UNL     1       7.018   6.888   8.052  1.00  0.00    -0.237 OA
ATOM     65  O   UNL     1       8.277   5.493   6.448  1.00  0.00    -0.237 OA
ATOM     66  O   UNL     1       9.251   7.594   7.284  1.00  0.00    -0.744 OA
ENDBRANCH  62  63
ENDBRANCH  36  57
ENDBRANCH  10  11
ENDBRANCH   3   5
ENDBRANCH   2   3
ENDBRANCH   1   2
BRANCH   1  67
ATOM     67  C   UNL     1       4.530  -1.592  -0.866  1.00  0.00     0.275 C 
BRANCH  67  68
ATOM     68  O   UNL     1       4.008  -0.543  -1.698  1.00  0.00    -0.458 OA
BRANCH  68  69
ATOM     69  C   UNL     1       2.955  -0.882  -2.481  1.00  0.00     0.339 C 
ATOM     70  O   UNL     1       2.426  -1.982  -2.593  1.00  0.00    -0.246 OA
BRANCH  69  71
ATOM     71  C   UNL     1       2.525   0.298  -3.222  1.00  0.00     0.079 A 
ATOM     72  C   UNL     1       3.213   0.666  -4.367  1.00  0.00     0.129 A 
ATOM     73  C   UNL     1       1.417   1.038  -2.811  1.00  0.00     0.029 A 
ATOM     74  N   UNL     1       2.900   1.716  -5.160  1.00  0.00    -0.237 NA
ATOM     75  C   UNL     1       1.107   2.189  -3.552  1.00  0.00     0.020 A 
ATOM     76  C   UNL     1       1.860   2.444  -4.699  1.00  0.00     0.140 A 
ATOM     77  C   UNL     1       0.156   3.236  -3.435  1.00  0.00     0.030 A 
ATOM     78  N   UNL     1       1.322   3.554  -5.309  1.00  0.00    -0.329 N 
ATOM     79  C   UNL     1       0.329   4.078  -4.513  1.00  0.00     0.088 A 
BRANCH  78  80
ATOM     80  C   UNL     1       1.636   4.036  -6.653  1.00  0.00     0.088 C 
ATOM     81  C   UNL     1       3.097   4.476  -6.822  1.00  0.00     0.025 C 
ATOM     82  C   UNL     1       1.210   3.009  -7.717  1.00  0.00     0.025 C 
ATOM     83  C   UNL     1       3.378   4.944  -8.250  1.00  0.00     0.002 C 
ATOM     84  C   UNL     1       1.513   3.494  -9.130  1.00  0.00     0.002 C 
ATOM     85  C   UNL     1       2.979   3.889  -9.279  1.00  0.00     0.000 C 
ENDBRANCH  78  80
ENDBRANCH  69  71
ENDBRANCH  68  69
ENDBRANCH  67  68
ENDBRANCH   1  67
TORSDOF 15
