REMARK SMILES Cc1c(NC(=O)[C@@H]2CC=CC[C@@H]2C(=O)OCCOC(=O)c2ccc(-c3c4nc(c(-c5ccc(S(=O)(=O)[O-])cc5)c5ccc([nH]5)c(-c5ccc(S(=O)(=O)[O-])cc5)c5nc(c(-c6ccc(S(=O)(=O)[O-])cc6)c6ccc3[nH]6)C=C5)C=C4)cc2)cccc1C(=O)N1CCOCC1
REMARK SMILES IDX 16 1 15 2 13 3 14 4 12 5 7 6 8 7 9 8 11 9 10 10 5 11 4 12
REMARK SMILES IDX 6 14 3 15 1 16 2 17 84 18 81 19 83 20 82 21 85 22 86 23
REMARK SMILES IDX 87 24 88 25 92 26 89 27 91 28 90 29 17 30 18 31 19 32 20 33
REMARK SMILES IDX 21 34 22 35 80 36 23 37 79 38 24 39 25 40 26 41 73 42 27 43
REMARK SMILES IDX 78 44 72 45 74 46 28 47 77 48 71 49 70 50 29 52 59 53 40 54
REMARK SMILES IDX 58 55 41 56 44 57 57 58 75 59 42 60 43 61 56 63 76 64 45 65
REMARK SMILES IDX 30 66 31 67 39 68 32 69 38 70 33 71 34 72 35 73 36 74 37 75
REMARK SMILES IDX 60 76 61 77 69 78 62 79 68 80 63 81 64 82 65 83 66 84 67 85
REMARK SMILES IDX 46 86 47 87 55 88 48 89 54 90 49 91 50 92 51 93 52 94 53 95
REMARK H PARENT 4 13 74 51 44 62
REMARK Flexibility Score: inf
ROOT
ATOM      1  C   UNL     1      -5.219  -2.911   1.574  1.00  0.00     0.274 C 
ENDROOT
BRANCH   1   2
ATOM      2  O   UNL     1      -3.833  -2.595   1.406  1.00  0.00    -0.462 OA
BRANCH   2   3
ATOM      3  C   UNL     1      -3.115  -3.427   0.611  1.00  0.00     0.310 C 
ATOM      4  O   UNL     1      -3.555  -4.439   0.105  1.00  0.00    -0.252 OA
BRANCH   3   5
ATOM      5  C   UNL     1      -1.635  -3.056   0.540  1.00  0.00     0.116 C 
ATOM      6  C   UNL     1      -0.914  -3.782   1.677  1.00  0.00     0.097 C 
ATOM      7  C   UNL     1      -1.397  -3.303   3.047  1.00  0.00     0.041 C 
ATOM      8  C   UNL     1      -1.384  -1.797   3.112  1.00  0.00    -0.030 C 
ATOM      9  C   UNL     1      -1.281  -1.571   0.616  1.00  0.00     0.043 C 
ATOM     10  C   UNL     1      -1.301  -1.022   2.017  1.00  0.00    -0.030 C 
BRANCH   6  11
ATOM     11  C   UNL     1      -1.077  -5.263   1.453  1.00  0.00     0.228 C 
ATOM     12  N   UNL     1      -0.174  -5.827   0.566  1.00  0.00    -0.326 N 
ATOM     13  H   UNL     1      -0.405  -5.999  -0.375  1.00  0.00     0.169 HD
ATOM     14  O   UNL     1      -1.994  -5.922   1.933  1.00  0.00    -0.274 OA
BRANCH  12  15
ATOM     15  C   UNL     1       1.103  -6.141   1.099  1.00  0.00     0.044 A 
ATOM     16  C   UNL     1       0.206  -8.447   1.520  1.00  0.00     0.047 C 
ATOM     17  C   UNL     1       1.322  -7.438   1.612  1.00  0.00    -0.015 A 
ATOM     18  C   UNL     1       2.551  -7.701   2.254  1.00  0.00     0.045 A 
ATOM     19  C   UNL     1       2.064  -5.134   1.234  1.00  0.00     0.026 A 
ATOM     20  C   UNL     1       3.467  -6.649   2.457  1.00  0.00     0.014 A 
ATOM     21  C   UNL     1       3.228  -5.375   1.951  1.00  0.00     0.003 A 
BRANCH  18  22
ATOM     22  C   UNL     1       2.868  -8.979   2.955  1.00  0.00     0.254 C 
ATOM     23  O   UNL     1       3.436  -8.903   4.046  1.00  0.00    -0.269 OA
ATOM     24  N   UNL     1       2.448 -10.195   2.439  1.00  0.00    -0.334 N 
ATOM     25  C   UNL     1       2.473 -10.598   1.024  1.00  0.00     0.148 C 
ATOM     26  C   UNL     1       2.201 -11.283   3.380  1.00  0.00     0.148 C 
ATOM     27  C   UNL     1       1.322 -11.562   0.669  1.00  0.00     0.181 C 
ATOM     28  C   UNL     1       0.973 -12.081   2.945  1.00  0.00     0.181 C 
ATOM     29  O   UNL     1       1.190 -12.617   1.633  1.00  0.00    -0.378 OA
ENDBRANCH  18  22
ENDBRANCH  12  15
ENDBRANCH   6  11
ENDBRANCH   3   5
ENDBRANCH   2   3
ENDBRANCH   1   2
BRANCH   1  30
ATOM     30  C   UNL     1      -6.032  -1.612   1.711  1.00  0.00     0.275 C 
BRANCH  30  31
ATOM     31  O   UNL     1      -6.074  -0.705   0.581  1.00  0.00    -0.458 OA
BRANCH  31  32
ATOM     32  C   UNL     1      -4.924  -0.500  -0.124  1.00  0.00     0.338 C 
ATOM     33  O   UNL     1      -3.982   0.153   0.307  1.00  0.00    -0.246 OA
BRANCH  32  34
ATOM     34  C   UNL     1      -4.901  -1.448  -1.284  1.00  0.00     0.060 A 
ATOM     35  C   UNL     1      -3.724  -1.725  -2.002  1.00  0.00     0.016 A 
ATOM     36  C   UNL     1      -5.994  -2.305  -1.396  1.00  0.00     0.016 A 
ATOM     37  C   UNL     1      -3.609  -2.919  -2.730  1.00  0.00     0.010 A 
ATOM     38  C   UNL     1      -5.805  -3.558  -1.916  1.00  0.00     0.010 A 
ATOM     39  C   UNL     1      -4.641  -3.856  -2.639  1.00  0.00    -0.014 A 
BRANCH  39  40
ATOM     40  C   UNL     1      -4.819  -5.015  -3.507  1.00  0.00     0.031 A 
ATOM     41  C   UNL     1      -4.096  -6.295  -3.396  1.00  0.00     0.074 A 
ATOM     42  C   UNL     1      -5.833  -4.815  -4.382  1.00  0.00     0.049 A 
ATOM     43  N   UNL     1      -3.942  -7.097  -4.395  1.00  0.00    -0.248 NA
ATOM     44  C   UNL     1      -3.488  -6.815  -2.171  1.00  0.00     0.031 C 
ATOM     45  C   UNL     1      -6.531  -5.707  -5.283  1.00  0.00     0.029 A 
ATOM     46  N   UNL     1      -6.355  -3.564  -4.706  1.00  0.00    -0.354 N 
ATOM     47  C   UNL     1      -3.549  -8.321  -3.894  1.00  0.00     0.074 A 
ATOM     48  C   UNL     1      -3.162  -8.068  -2.529  1.00  0.00     0.031 C 
ATOM     49  C   UNL     1      -7.132  -4.959  -6.234  1.00  0.00     0.029 A 
ATOM     50  C   UNL     1      -6.729  -3.566  -6.031  1.00  0.00     0.049 A 
ATOM     51  H   UNL     1      -6.442  -2.803  -4.088  1.00  0.00     0.167 HD
ATOM     52  C   UNL     1      -3.779  -9.445  -4.631  1.00  0.00     0.031 A 
ATOM     53  C   UNL     1      -5.970  -2.801  -6.872  1.00  0.00     0.031 A 
ATOM     54  C   UNL     1      -4.398  -9.099  -5.909  1.00  0.00     0.049 A 
ATOM     55  C   UNL     1      -5.213  -3.693  -7.822  1.00  0.00     0.074 A 
ATOM     56  C   UNL     1      -5.720  -9.093  -6.322  1.00  0.00     0.029 A 
ATOM     57  N   UNL     1      -3.692  -8.324  -6.822  1.00  0.00    -0.354 N 
ATOM     58  N   UNL     1      -4.795  -4.896  -7.531  1.00  0.00    -0.248 NA
ATOM     59  C   UNL     1      -4.977  -3.330  -9.213  1.00  0.00     0.031 C 
ATOM     60  C   UNL     1      -5.823  -8.213  -7.429  1.00  0.00     0.029 A 
ATOM     61  C   UNL     1      -4.563  -7.702  -7.695  1.00  0.00     0.049 A 
ATOM     62  H   UNL     1      -2.712  -8.232  -6.843  1.00  0.00     0.167 HD
ATOM     63  C   UNL     1      -4.379  -5.513  -8.681  1.00  0.00     0.074 A 
ATOM     64  C   UNL     1      -4.469  -4.476  -9.697  1.00  0.00     0.031 C 
ATOM     65  C   UNL     1      -4.061  -6.839  -8.752  1.00  0.00     0.031 A 
BRANCH  52  66
ATOM     66  C   UNL     1      -3.761 -10.852  -4.077  1.00  0.00    -0.014 A 
ATOM     67  C   UNL     1      -4.724 -11.777  -4.538  1.00  0.00     0.010 A 
ATOM     68  C   UNL     1      -2.849 -11.328  -3.115  1.00  0.00     0.010 A 
ATOM     69  C   UNL     1      -4.818 -13.081  -4.041  1.00  0.00     0.020 A 
ATOM     70  C   UNL     1      -2.937 -12.639  -2.598  1.00  0.00     0.020 A 
ATOM     71  C   UNL     1      -3.928 -13.505  -3.062  1.00  0.00     0.054 A 
BRANCH  71  72
ATOM     72  S   UNL     1      -4.089 -15.202  -2.438  1.00  0.00     0.124 S 
ATOM     73  O   UNL     1      -5.444 -15.209  -1.893  1.00  0.00    -0.237 OA
ATOM     74  O   UNL     1      -3.895 -16.002  -3.644  1.00  0.00    -0.237 OA
ATOM     75  O   UNL     1      -3.023 -15.308  -1.444  1.00  0.00    -0.744 OA
ENDBRANCH  71  72
ENDBRANCH  52  66
BRANCH  53  76
ATOM     76  C   UNL     1      -5.470  -1.501  -6.281  1.00  0.00    -0.014 A 
ATOM     77  C   UNL     1      -6.423  -0.631  -5.690  1.00  0.00     0.010 A 
ATOM     78  C   UNL     1      -4.112  -1.219  -6.052  1.00  0.00     0.010 A 
ATOM     79  C   UNL     1      -6.046   0.409  -4.829  1.00  0.00     0.020 A 
ATOM     80  C   UNL     1      -3.725  -0.154  -5.207  1.00  0.00     0.020 A 
ATOM     81  C   UNL     1      -4.695   0.637  -4.582  1.00  0.00     0.054 A 
BRANCH  81  82
ATOM     82  S   UNL     1      -4.239   1.848  -3.296  1.00  0.00     0.124 S 
ATOM     83  O   UNL     1      -4.271   3.107  -4.032  1.00  0.00    -0.237 OA
ATOM     84  O   UNL     1      -5.305   1.671  -2.310  1.00  0.00    -0.237 OA
ATOM     85  O   UNL     1      -2.915   1.400  -2.871  1.00  0.00    -0.744 OA
ENDBRANCH  81  82
ENDBRANCH  53  76
BRANCH  65  86
ATOM     86  C   UNL     1      -3.354  -7.500  -9.904  1.00  0.00    -0.014 A 
ATOM     87  C   UNL     1      -2.574  -6.802 -10.835  1.00  0.00     0.010 A 
ATOM     88  C   UNL     1      -3.342  -8.915  -9.981  1.00  0.00     0.010 A 
ATOM     89  C   UNL     1      -1.881  -7.476 -11.845  1.00  0.00     0.020 A 
ATOM     90  C   UNL     1      -2.606  -9.599 -10.945  1.00  0.00     0.020 A 
ATOM     91  C   UNL     1      -1.904  -8.869 -11.894  1.00  0.00     0.054 A 
BRANCH  91  92
ATOM     92  S   UNL     1      -0.954  -9.725 -13.169  1.00  0.00     0.124 S 
ATOM     93  O   UNL     1      -1.887  -9.714 -14.292  1.00  0.00    -0.237 OA
ATOM     94  O   UNL     1       0.224  -8.873 -13.323  1.00  0.00    -0.237 OA
ATOM     95  O   UNL     1      -0.692 -11.036 -12.580  1.00  0.00    -0.744 OA
ENDBRANCH  91  92
ENDBRANCH  65  86
ENDBRANCH  39  40
ENDBRANCH  32  34
ENDBRANCH  31  32
ENDBRANCH  30  31
ENDBRANCH   1  30
TORSDOF 17
