REMARK SMILES CCCC[C@@H](C(=O)OCCOC(=O)c1ccc(-c2c3nc(c(-c4ccc(S(=O)(=O)[O-])cc4)c4ccc([nH]4)c(-c4ccc(S(=O)(=O)[O-])cc4)c4nc(c(-c5ccc(S(=O)(=O)[O-])cc5)c5ccc2[nH]5)C=C4)C=C3)cc1)[C@](C)(O)c1cccc(Br)c1
REMARK SMILES IDX 9 1 8 2 6 3 7 4 5 5 4 6 3 7 2 8 1 9 74 10 75 11 76 12 77 14
REMARK SMILES IDX 78 15 83 16 79 17 81 18 80 19 82 20 10 21 11 22 12 23 13 24
REMARK SMILES IDX 14 25 15 26 73 27 16 28 72 29 17 30 18 31 19 32 66 33 20 34
REMARK SMILES IDX 71 35 65 36 67 37 21 38 70 39 64 40 63 41 22 43 52 44 33 45
REMARK SMILES IDX 51 46 34 47 37 48 50 49 68 50 35 51 36 52 49 54 69 55 38 56
REMARK SMILES IDX 23 57 24 58 32 59 25 60 31 61 26 62 27 63 28 64 29 65 30 66
REMARK SMILES IDX 53 67 54 68 62 69 55 70 61 71 56 72 57 73 58 74 59 75 60 76
REMARK SMILES IDX 39 77 40 78 48 79 41 80 47 81 42 82 43 83 44 84 45 85 46 86
REMARK H PARENT 76 13 67 42 37 53
REMARK Flexibility Score: inf
ROOT
ATOM      1  C   UNL     1       2.054  -4.226  -0.885  1.00  0.00     0.274 C 
ENDROOT
BRANCH   1   2
ATOM      2  O   UNL     1       0.766  -4.490  -1.485  1.00  0.00    -0.462 OA
BRANCH   2   3
ATOM      3  C   UNL     1      -0.104  -3.450  -1.551  1.00  0.00     0.312 C 
ATOM      4  O   UNL     1       0.207  -2.281  -1.352  1.00  0.00    -0.252 OA
BRANCH   3   5
ATOM      5  C   UNL     1      -1.552  -3.880  -1.766  1.00  0.00     0.135 C 
BRANCH   5   6
ATOM      6  C   UNL     1      -1.816  -5.367  -1.421  1.00  0.00     0.019 C 
BRANCH   6   7
ATOM      7  C   UNL     1      -1.549  -5.820   0.018  1.00  0.00     0.001 C 
BRANCH   7   8
ATOM      8  C   UNL     1      -2.275  -5.042   1.113  1.00  0.00    -0.003 C 
ATOM      9  C   UNL     1      -3.774  -4.913   0.889  1.00  0.00     0.004 C 
ENDBRANCH   7   8
ENDBRANCH   6   7
ENDBRANCH   5   6
BRANCH   5  10
ATOM     10  C   UNL     1      -2.175  -3.449  -3.145  1.00  0.00     0.100 C 
ATOM     11  C   UNL     1      -1.904  -1.972  -3.481  1.00  0.00     0.048 C 
BRANCH  10  12
ATOM     12  O   UNL     1      -3.617  -3.495  -2.955  1.00  0.00    -0.385 OA
ATOM     13  H   UNL     1      -4.060  -3.237  -3.778  1.00  0.00     0.211 HD
ENDBRANCH  10  12
BRANCH  10  14
ATOM     14  C   UNL     1      -1.881  -4.425  -4.299  1.00  0.00    -0.015 A 
ATOM     15  C   UNL     1      -2.647  -5.606  -4.410  1.00  0.00     0.007 A 
ATOM     16  C   UNL     1      -0.874  -4.242  -5.262  1.00  0.00     0.022 A 
ATOM     17  C   UNL     1      -2.375  -6.594  -5.355  1.00  0.00     0.002 A 
ATOM     18  C   UNL     1      -0.612  -5.234  -6.225  1.00  0.00     0.018 A 
ATOM     19  C   UNL     1      -1.346  -6.411  -6.260  1.00  0.00     0.016 A 
ATOM     20  Br  UNL     1       0.748  -5.057  -7.527  1.00  0.00    -0.051 Br
ENDBRANCH  10  14
ENDBRANCH   5  10
ENDBRANCH   3   5
ENDBRANCH   2   3
ENDBRANCH   1   2
BRANCH   1  21
ATOM     21  C   UNL     1       3.174  -4.423  -1.897  1.00  0.00     0.275 C 
BRANCH  21  22
ATOM     22  O   UNL     1       3.096  -3.370  -2.871  1.00  0.00    -0.458 OA
BRANCH  22  23
ATOM     23  C   UNL     1       2.850  -3.775  -4.138  1.00  0.00     0.338 C 
ATOM     24  O   UNL     1       2.833  -4.924  -4.543  1.00  0.00    -0.246 OA
BRANCH  23  25
ATOM     25  C   UNL     1       2.505  -2.619  -4.994  1.00  0.00     0.060 A 
ATOM     26  C   UNL     1       1.634  -1.636  -4.528  1.00  0.00     0.016 A 
ATOM     27  C   UNL     1       2.846  -2.655  -6.347  1.00  0.00     0.016 A 
ATOM     28  C   UNL     1       0.970  -0.814  -5.444  1.00  0.00     0.010 A 
ATOM     29  C   UNL     1       2.233  -1.777  -7.251  1.00  0.00     0.010 A 
ATOM     30  C   UNL     1       1.243  -0.883  -6.820  1.00  0.00    -0.014 A 
BRANCH  30  31
ATOM     31  C   UNL     1       0.519  -0.034  -7.809  1.00  0.00     0.031 A 
ATOM     32  C   UNL     1      -0.216  -0.640  -8.976  1.00  0.00     0.074 A 
ATOM     33  C   UNL     1       0.506   1.304  -7.684  1.00  0.00     0.049 A 
ATOM     34  N   UNL     1      -0.465  -0.139 -10.159  1.00  0.00    -0.248 NA
ATOM     35  C   UNL     1      -0.743  -1.994  -8.783  1.00  0.00     0.031 C 
ATOM     36  C   UNL     1       1.052   2.065  -6.562  1.00  0.00     0.029 A 
ATOM     37  N   UNL     1       0.007   2.262  -8.530  1.00  0.00    -0.354 N 
ATOM     38  C   UNL     1      -1.055  -1.167 -10.893  1.00  0.00     0.074 A 
ATOM     39  C   UNL     1      -1.181  -2.298 -10.000  1.00  0.00     0.031 C 
ATOM     40  C   UNL     1       0.830   3.369  -6.770  1.00  0.00     0.029 A 
ATOM     41  C   UNL     1       0.257   3.540  -8.100  1.00  0.00     0.049 A 
ATOM     42  H   UNL     1      -0.480   2.054  -9.360  1.00  0.00     0.167 HD
ATOM     43  C   UNL     1      -1.440  -1.151 -12.194  1.00  0.00     0.031 A 
ATOM     44  C   UNL     1       0.132   4.720  -8.732  1.00  0.00     0.031 A 
ATOM     45  C   UNL     1      -1.475   0.051 -12.994  1.00  0.00     0.049 A 
ATOM     46  C   UNL     1      -0.336   4.746 -10.153  1.00  0.00     0.074 A 
ATOM     47  C   UNL     1      -1.843   0.203 -14.322  1.00  0.00     0.029 A 
ATOM     48  N   UNL     1      -1.210   1.323 -12.510  1.00  0.00    -0.354 N 
ATOM     49  N   UNL     1      -0.634   3.739 -10.938  1.00  0.00    -0.248 NA
ATOM     50  C   UNL     1      -0.461   6.067 -10.780  1.00  0.00     0.031 C 
ATOM     51  C   UNL     1      -1.804   1.567 -14.636  1.00  0.00     0.029 A 
ATOM     52  C   UNL     1      -1.445   2.266 -13.495  1.00  0.00     0.049 A 
ATOM     53  H   UNL     1      -0.899   1.526 -11.598  1.00  0.00     0.167 HD
ATOM     54  C   UNL     1      -0.981   4.305 -12.158  1.00  0.00     0.074 A 
ATOM     55  C   UNL     1      -0.881   5.742 -11.996  1.00  0.00     0.031 C 
ATOM     56  C   UNL     1      -1.340   3.690 -13.312  1.00  0.00     0.031 A 
BRANCH  43  57
ATOM     57  C   UNL     1      -1.811  -2.451 -12.868  1.00  0.00    -0.014 A 
ATOM     58  C   UNL     1      -3.022  -3.118 -12.624  1.00  0.00     0.010 A 
ATOM     59  C   UNL     1      -0.949  -2.960 -13.863  1.00  0.00     0.010 A 
ATOM     60  C   UNL     1      -3.353  -4.276 -13.342  1.00  0.00     0.020 A 
ATOM     61  C   UNL     1      -1.288  -4.098 -14.602  1.00  0.00     0.020 A 
ATOM     62  C   UNL     1      -2.484  -4.759 -14.327  1.00  0.00     0.054 A 
BRANCH  62  63
ATOM     63  S   UNL     1      -2.959  -6.223 -15.293  1.00  0.00     0.124 S 
ATOM     64  O   UNL     1      -2.635  -7.310 -14.373  1.00  0.00    -0.237 OA
ATOM     65  O   UNL     1      -4.384  -6.009 -15.532  1.00  0.00    -0.237 OA
ATOM     66  O   UNL     1      -2.115  -6.141 -16.483  1.00  0.00    -0.744 OA
ENDBRANCH  62  63
ENDBRANCH  43  57
BRANCH  44  67
ATOM     67  C   UNL     1       0.553   5.951  -8.018  1.00  0.00    -0.014 A 
ATOM     68  C   UNL     1      -0.403   6.837  -7.500  1.00  0.00     0.010 A 
ATOM     69  C   UNL     1       1.918   6.168  -7.747  1.00  0.00     0.010 A 
ATOM     70  C   UNL     1      -0.003   7.910  -6.701  1.00  0.00     0.020 A 
ATOM     71  C   UNL     1       2.318   7.220  -6.923  1.00  0.00     0.020 A 
ATOM     72  C   UNL     1       1.353   8.086  -6.405  1.00  0.00     0.054 A 
BRANCH  72  73
ATOM     73  S   UNL     1       1.842   9.401  -5.256  1.00  0.00     0.124 S 
ATOM     74  O   UNL     1       1.839  10.575  -6.122  1.00  0.00    -0.237 OA
ATOM     75  O   UNL     1       0.785   9.354  -4.248  1.00  0.00    -0.237 OA
ATOM     76  O   UNL     1       3.156   8.968  -4.786  1.00  0.00    -0.744 OA
ENDBRANCH  72  73
ENDBRANCH  44  67
BRANCH  56  77
ATOM     77  C   UNL     1      -1.687   4.579 -14.471  1.00  0.00    -0.014 A 
ATOM     78  C   UNL     1      -0.683   5.213 -15.222  1.00  0.00     0.010 A 
ATOM     79  C   UNL     1      -3.036   4.770 -14.819  1.00  0.00     0.010 A 
ATOM     80  C   UNL     1      -1.025   6.059 -16.280  1.00  0.00     0.020 A 
ATOM     81  C   UNL     1      -3.381   5.601 -15.887  1.00  0.00     0.020 A 
ATOM     82  C   UNL     1      -2.373   6.254 -16.600  1.00  0.00     0.054 A 
BRANCH  82  83
ATOM     83  S   UNL     1      -2.792   7.351 -17.981  1.00  0.00     0.124 S 
ATOM     84  O   UNL     1      -2.569   8.671 -17.398  1.00  0.00    -0.237 OA
ATOM     85  O   UNL     1      -1.838   6.950 -19.013  1.00  0.00    -0.237 OA
ATOM     86  O   UNL     1      -4.187   7.025 -18.271  1.00  0.00    -0.744 OA
ENDBRANCH  82  83
ENDBRANCH  56  77
ENDBRANCH  30  31
ENDBRANCH  23  25
ENDBRANCH  22  23
ENDBRANCH  21  22
ENDBRANCH   1  21
TORSDOF 20
