REMARK SMILES NC(=O)c1ccsc1NS(=O)(=O)c1ccc(C(=O)OCCOC(=O)c2ccc(-c3c4nc(c(-c5ccc(S(=O)(=O)[O-])cc5)c5ccc([nH]5)c(-c5ccc(S(=O)(=O)[O-])cc5)c5nc(c(-c6ccc(S(=O)(=O)[O-])cc6)c6ccc3[nH]6)C=C5)C=C4)cc2)cc1
REMARK SMILES IDX 20 1 19 2 17 3 18 4 16 5 13 6 14 7 86 8 15 9 85 10 10 11
REMARK SMILES IDX 11 12 12 13 9 14 8 16 4 17 5 18 6 19 7 20 2 21 1 22 3 25
REMARK SMILES IDX 21 26 22 27 23 28 24 29 25 30 26 31 84 32 27 33 83 34 28 35
REMARK SMILES IDX 29 36 30 37 77 38 31 39 82 40 76 41 78 42 32 43 81 44 75 45
REMARK SMILES IDX 74 46 33 48 63 49 44 50 62 51 45 52 48 53 61 54 79 55 46 56
REMARK SMILES IDX 47 57 60 59 80 60 49 61 34 62 35 63 43 64 36 65 42 66 37 67
REMARK SMILES IDX 38 68 39 69 40 70 41 71 64 72 65 73 73 74 66 75 72 76 67 77
REMARK SMILES IDX 68 78 69 79 70 80 71 81 50 82 51 83 59 84 52 85 58 86 53 87
REMARK SMILES IDX 54 88 55 89 56 90 57 91
REMARK H PARENT 9 15 1 23 1 24 78 47 48 58
REMARK Flexibility Score: inf
ROOT
ATOM      1  C   UNL     1       3.509   9.511   6.107  1.00  0.00     0.275 C 
ENDROOT
BRANCH   1   2
ATOM      2  O   UNL     1       2.423   8.564   6.011  1.00  0.00    -0.458 OA
BRANCH   2   3
ATOM      3  C   UNL     1       2.761   7.366   5.483  1.00  0.00     0.338 C 
ATOM      4  O   UNL     1       3.859   7.048   5.052  1.00  0.00    -0.246 OA
BRANCH   3   5
ATOM      5  C   UNL     1       1.630   6.415   5.495  1.00  0.00     0.060 A 
ATOM      6  C   UNL     1      -0.173   4.373   4.953  1.00  0.00     0.087 A 
ATOM      7  C   UNL     1       0.957   4.090   5.714  1.00  0.00     0.023 A 
ATOM      8  C   UNL     1      -0.491   5.694   4.597  1.00  0.00     0.023 A 
ATOM      9  C   UNL     1       1.863   5.112   5.957  1.00  0.00     0.017 A 
ATOM     10  C   UNL     1       0.422   6.722   4.864  1.00  0.00     0.017 A 
BRANCH   6  11
ATOM     11  S   UNL     1      -1.165   3.027   4.383  1.00  0.00     0.262 S 
ATOM     12  O   UNL     1      -2.518   3.533   4.259  1.00  0.00    -0.201 OA
ATOM     13  O   UNL     1      -0.898   1.895   5.247  1.00  0.00    -0.201 OA
BRANCH  11  14
ATOM     14  N   UNL     1      -0.679   2.586   2.845  1.00  0.00    -0.270 N 
ATOM     15  H   UNL     1      -1.341   2.065   2.336  1.00  0.00     0.181 HD
BRANCH  14  16
ATOM     16  C   UNL     1       0.548   2.848   2.152  1.00  0.00     0.115 A 
ATOM     17  C   UNL     1       0.935   2.073   1.058  1.00  0.00     0.074 A 
ATOM     18  C   UNL     1       2.126   2.601   0.437  1.00  0.00     0.028 A 
ATOM     19  C   UNL     1       2.622   3.702   1.091  1.00  0.00     0.068 A 
ATOM     20  S   UNL     1       1.649   4.116   2.415  1.00  0.00    -0.125 S 
BRANCH  17  21
ATOM     21  C   UNL     1       0.191   0.901   0.604  1.00  0.00     0.251 C 
ATOM     22  N   UNL     1       0.894   0.000  -0.143  1.00  0.00    -0.366 N 
ATOM     23  H   UNL     1       0.452  -0.812  -0.481  1.00  0.00     0.159 HD
ATOM     24  H   UNL     1       1.844   0.163  -0.344  1.00  0.00     0.159 HD
ATOM     25  O   UNL     1      -0.982   0.694   0.894  1.00  0.00    -0.269 OA
ENDBRANCH  17  21
ENDBRANCH  14  16
ENDBRANCH  11  14
ENDBRANCH   6  11
ENDBRANCH   3   5
ENDBRANCH   2   3
ENDBRANCH   1   2
BRANCH   1  26
ATOM     26  C   UNL     1       4.092   9.557   7.521  1.00  0.00     0.275 C 
BRANCH  26  27
ATOM     27  O   UNL     1       4.822   8.353   7.828  1.00  0.00    -0.458 OA
BRANCH  27  28
ATOM     28  C   UNL     1       4.154   7.471   8.604  1.00  0.00     0.338 C 
ATOM     29  O   UNL     1       3.033   7.600   9.070  1.00  0.00    -0.246 OA
BRANCH  28  30
ATOM     30  C   UNL     1       4.921   6.228   8.773  1.00  0.00     0.060 A 
ATOM     31  C   UNL     1       4.903   5.312   7.731  1.00  0.00     0.016 A 
ATOM     32  C   UNL     1       5.421   5.852  10.017  1.00  0.00     0.016 A 
ATOM     33  C   UNL     1       5.183   3.974   7.979  1.00  0.00     0.010 A 
ATOM     34  C   UNL     1       5.887   4.541  10.206  1.00  0.00     0.010 A 
ATOM     35  C   UNL     1       5.722   3.565   9.207  1.00  0.00    -0.014 A 
BRANCH  35  36
ATOM     36  C   UNL     1       6.113   2.135   9.410  1.00  0.00     0.031 A 
ATOM     37  C   UNL     1       5.622   1.348  10.605  1.00  0.00     0.074 A 
ATOM     38  C   UNL     1       6.904   1.522   8.500  1.00  0.00     0.049 A 
ATOM     39  N   UNL     1       5.971   0.148  11.002  1.00  0.00    -0.248 NA
ATOM     40  C   UNL     1       4.627   1.993  11.476  1.00  0.00     0.031 C 
ATOM     41  C   UNL     1       7.433   2.141   7.279  1.00  0.00     0.029 A 
ATOM     42  N   UNL     1       7.390   0.238   8.443  1.00  0.00    -0.354 N 
ATOM     43  C   UNL     1       5.287  -0.080  12.193  1.00  0.00     0.074 A 
ATOM     44  C   UNL     1       4.512   1.112  12.462  1.00  0.00     0.031 C 
ATOM     45  C   UNL     1       8.097   1.225   6.564  1.00  0.00     0.029 A 
ATOM     46  C   UNL     1       8.160  -0.011   7.330  1.00  0.00     0.049 A 
ATOM     47  H   UNL     1       7.204  -0.440   9.132  1.00  0.00     0.167 HD
ATOM     48  C   UNL     1       5.305  -1.177  12.990  1.00  0.00     0.031 A 
ATOM     49  C   UNL     1       8.890  -1.085   6.974  1.00  0.00     0.031 A 
ATOM     50  C   UNL     1       6.053  -2.375  12.698  1.00  0.00     0.049 A 
ATOM     51  C   UNL     1       8.934  -2.267   7.896  1.00  0.00     0.074 A 
ATOM     52  C   UNL     1       6.120  -3.549  13.431  1.00  0.00     0.029 A 
ATOM     53  N   UNL     1       6.856  -2.560  11.582  1.00  0.00    -0.354 N 
ATOM     54  N   UNL     1       8.307  -2.444   9.034  1.00  0.00    -0.248 NA
ATOM     55  C   UNL     1       9.794  -3.386   7.494  1.00  0.00     0.031 C 
ATOM     56  C   UNL     1       7.011  -4.416  12.792  1.00  0.00     0.029 A 
ATOM     57  C   UNL     1       7.444  -3.814  11.622  1.00  0.00     0.049 A 
ATOM     58  H   UNL     1       6.989  -1.897  10.866  1.00  0.00     0.167 HD
ATOM     59  C   UNL     1       8.685  -3.705   9.478  1.00  0.00     0.074 A 
ATOM     60  C   UNL     1       9.572  -4.254   8.472  1.00  0.00     0.031 C 
ATOM     61  C   UNL     1       8.332  -4.347  10.618  1.00  0.00     0.031 A 
BRANCH  48  62
ATOM     62  C   UNL     1       4.529  -1.126  14.286  1.00  0.00    -0.014 A 
ATOM     63  C   UNL     1       3.123  -1.126  14.312  1.00  0.00     0.010 A 
ATOM     64  C   UNL     1       5.230  -1.131  15.508  1.00  0.00     0.010 A 
ATOM     65  C   UNL     1       2.435  -1.090  15.530  1.00  0.00     0.020 A 
ATOM     66  C   UNL     1       4.547  -1.127  16.729  1.00  0.00     0.020 A 
ATOM     67  C   UNL     1       3.152  -1.089  16.731  1.00  0.00     0.054 A 
BRANCH  67  68
ATOM     68  S   UNL     1       2.234  -1.063  18.297  1.00  0.00     0.124 S 
ATOM     69  O   UNL     1       1.699   0.296  18.310  1.00  0.00    -0.237 OA
ATOM     70  O   UNL     1       1.248  -2.124  18.108  1.00  0.00    -0.237 OA
ATOM     71  O   UNL     1       3.255  -1.338  19.305  1.00  0.00    -0.744 OA
ENDBRANCH  67  68
ENDBRANCH  48  62
BRANCH  49  72
ATOM     72  C   UNL     1       9.683  -1.059   5.712  1.00  0.00    -0.014 A 
ATOM     73  C   UNL     1       9.355  -1.905   4.639  1.00  0.00     0.010 A 
ATOM     74  C   UNL     1      10.758  -0.161   5.568  1.00  0.00     0.010 A 
ATOM     75  C   UNL     1      10.091  -1.859   3.451  1.00  0.00     0.020 A 
ATOM     76  C   UNL     1      11.470  -0.084   4.369  1.00  0.00     0.020 A 
ATOM     77  C   UNL     1      11.139  -0.943   3.321  1.00  0.00     0.054 A 
BRANCH  77  78
ATOM     78  S   UNL     1      12.036  -0.857   1.747  1.00  0.00     0.124 S 
ATOM     79  O   UNL     1      12.813  -2.091   1.773  1.00  0.00    -0.237 OA
ATOM     80  O   UNL     1      10.950  -0.810   0.770  1.00  0.00    -0.237 OA
ATOM     81  O   UNL     1      12.812   0.376   1.862  1.00  0.00    -0.744 OA
ENDBRANCH  77  78
ENDBRANCH  49  72
BRANCH  61  82
ATOM     82  C   UNL     1       8.881  -5.734  10.819  1.00  0.00    -0.014 A 
ATOM     83  C   UNL     1      10.244  -5.949  11.092  1.00  0.00     0.010 A 
ATOM     84  C   UNL     1       8.011  -6.838  10.757  1.00  0.00     0.010 A 
ATOM     85  C   UNL     1      10.734  -7.247  11.257  1.00  0.00     0.020 A 
ATOM     86  C   UNL     1       8.492  -8.134  10.955  1.00  0.00     0.020 A 
ATOM     87  C   UNL     1       9.854  -8.332  11.187  1.00  0.00     0.054 A 
BRANCH  87  88
ATOM     88  S   UNL     1      10.511 -10.004  11.433  1.00  0.00     0.124 S 
ATOM     89  O   UNL     1      11.255 -10.223  10.196  1.00  0.00    -0.237 OA
ATOM     90  O   UNL     1      11.324  -9.854  12.637  1.00  0.00    -0.237 OA
ATOM     91  O   UNL     1       9.314 -10.827  11.594  1.00  0.00    -0.744 OA
ENDBRANCH  87  88
ENDBRANCH  61  82
ENDBRANCH  35  36
ENDBRANCH  28  30
ENDBRANCH  27  28
ENDBRANCH  26  27
ENDBRANCH   1  26
TORSDOF 18
