REMARK SMILES CC(=O)Nc1cccc(NC(=O)N[C@H](C(=O)OCCOC(=O)c2ccc(-c3c4nc(c(-c5ccc(S(=O)(=O)[O-])cc5)c5ccc([nH]5)c(-c5ccc(S(=O)(=O)[O-])cc5)c5nc(c(-c6ccc(S(=O)(=O)[O-])cc6)c6ccc3[nH]6)C=C5)C=C4)cc2)C(C)C)c1
REMARK SMILES IDX 18 1 17 2 15 3 16 4 14 5 13 6 10 7 11 8 12 10 9 12 5 13 6 14
REMARK SMILES IDX 86 15 7 16 8 17 4 18 1 19 2 20 3 21 83 23 84 24 85 25 19 26
REMARK SMILES IDX 20 27 21 28 22 29 23 30 24 31 82 32 25 33 81 34 26 35 27 36
REMARK SMILES IDX 28 37 75 38 29 39 80 40 74 41 76 42 30 43 79 44 73 45 72 46
REMARK SMILES IDX 31 48 61 49 42 50 60 51 43 52 46 53 59 54 77 55 44 56 45 57
REMARK SMILES IDX 58 59 78 60 47 61 32 62 33 63 41 64 34 65 40 66 35 67 36 68
REMARK SMILES IDX 37 69 38 70 39 71 62 72 63 73 71 74 64 75 70 76 65 77 66 78
REMARK SMILES IDX 67 79 68 80 69 81 48 82 49 83 57 84 50 85 56 86 51 87 52 88
REMARK SMILES IDX 53 89 54 90 55 91
REMARK H PARENT 10 9 13 11 4 22 76 47 46 58
REMARK Flexibility Score: inf
ROOT
ATOM      1  C   UNL     1       6.855   2.548  -3.338  1.00  0.00     0.274 C 
ENDROOT
BRANCH   1   2
ATOM      2  O   UNL     1       5.878   1.651  -3.907  1.00  0.00    -0.461 OA
BRANCH   2   3
ATOM      3  C   UNL     1       5.129   2.107  -4.956  1.00  0.00     0.329 C 
ATOM      4  O   UNL     1       5.258   3.194  -5.503  1.00  0.00    -0.250 OA
BRANCH   3   5
ATOM      5  C   UNL     1       4.069   1.060  -5.332  1.00  0.00     0.196 C 
BRANCH   5   6
ATOM      6  N   UNL     1       2.791   1.744  -5.476  1.00  0.00    -0.324 N 
ATOM      7  N   UNL     1       1.300   0.955  -3.786  1.00  0.00    -0.308 N 
ATOM      8  C   UNL     1       1.628   1.729  -4.830  1.00  0.00     0.319 C 
ATOM      9  H   UNL     1       0.451   1.254  -3.386  1.00  0.00     0.171 HD
ATOM     10  O   UNL     1       0.788   2.566  -5.181  1.00  0.00    -0.248 OA
ATOM     11  H   UNL     1       2.786   2.369  -6.237  1.00  0.00     0.166 HD
BRANCH   7  12
ATOM     12  C   UNL     1       1.807  -0.153  -3.096  1.00  0.00     0.044 A 
ATOM     13  C   UNL     1       1.819  -1.421  -1.034  1.00  0.00     0.043 A 
ATOM     14  C   UNL     1       2.924  -2.153  -1.448  1.00  0.00     0.026 A 
ATOM     15  C   UNL     1       1.317  -0.373  -1.813  1.00  0.00     0.052 A 
ATOM     16  C   UNL     1       3.327  -2.023  -2.767  1.00  0.00     0.004 A 
ATOM     17  C   UNL     1       2.687  -1.099  -3.600  1.00  0.00     0.026 A 
BRANCH  13  18
ATOM     18  N   UNL     1       1.109  -1.878   0.078  1.00  0.00    -0.326 N 
ATOM     19  C   UNL     1      -0.870  -2.419  -1.336  1.00  0.00     0.114 C 
ATOM     20  C   UNL     1      -0.171  -2.381   0.009  1.00  0.00     0.221 C 
ATOM     21  O   UNL     1      -0.700  -2.846   1.019  1.00  0.00    -0.275 OA
ATOM     22  H   UNL     1       1.548  -1.838   0.959  1.00  0.00     0.169 HD
ENDBRANCH  13  18
ENDBRANCH   7  12
ENDBRANCH   5   6
BRANCH   5  23
ATOM     23  C   UNL     1       4.401   0.246  -6.611  1.00  0.00     0.017 C 
ATOM     24  C   UNL     1       5.297  -0.959  -6.299  1.00  0.00     0.010 C 
ATOM     25  C   UNL     1       3.169  -0.254  -7.388  1.00  0.00     0.010 C 
ENDBRANCH   5  23
ENDBRANCH   3   5
ENDBRANCH   2   3
ENDBRANCH   1   2
BRANCH   1  26
ATOM     26  C   UNL     1       8.248   1.936  -3.468  1.00  0.00     0.275 C 
BRANCH  26  27
ATOM     27  O   UNL     1       8.549   1.824  -4.867  1.00  0.00    -0.458 OA
BRANCH  27  28
ATOM     28  C   UNL     1       8.796   0.580  -5.339  1.00  0.00     0.338 C 
ATOM     29  O   UNL     1       9.012  -0.429  -4.691  1.00  0.00    -0.246 OA
BRANCH  28  30
ATOM     30  C   UNL     1       8.663   0.604  -6.810  1.00  0.00     0.060 A 
ATOM     31  C   UNL     1       7.612   1.316  -7.386  1.00  0.00     0.016 A 
ATOM     32  C   UNL     1       9.495  -0.168  -7.617  1.00  0.00     0.016 A 
ATOM     33  C   UNL     1       7.338   1.197  -8.742  1.00  0.00     0.010 A 
ATOM     34  C   UNL     1       9.306  -0.163  -9.006  1.00  0.00     0.010 A 
ATOM     35  C   UNL     1       8.221   0.519  -9.587  1.00  0.00    -0.014 A 
BRANCH  35  36
ATOM     36  C   UNL     1       8.038   0.577 -11.065  1.00  0.00     0.031 A 
ATOM     37  C   UNL     1       8.019  -0.684 -11.886  1.00  0.00     0.074 A 
ATOM     38  C   UNL     1       7.916   1.772 -11.684  1.00  0.00     0.049 A 
ATOM     39  N   UNL     1       8.164  -0.827 -13.178  1.00  0.00    -0.248 NA
ATOM     40  C   UNL     1       7.829  -1.951 -11.159  1.00  0.00     0.031 C 
ATOM     41  C   UNL     1       7.851   3.079 -11.021  1.00  0.00     0.029 A 
ATOM     42  N   UNL     1       7.827   2.086 -13.019  1.00  0.00    -0.354 N 
ATOM     43  C   UNL     1       8.156  -2.197 -13.413  1.00  0.00     0.074 A 
ATOM     44  C   UNL     1       7.974  -2.844 -12.130  1.00  0.00     0.031 C 
ATOM     45  C   UNL     1       7.682   4.039 -11.939  1.00  0.00     0.029 A 
ATOM     46  C   UNL     1       7.769   3.439 -13.261  1.00  0.00     0.049 A 
ATOM     47  H   UNL     1       7.806   1.408 -13.733  1.00  0.00     0.167 HD
ATOM     48  C   UNL     1       8.308  -2.850 -14.591  1.00  0.00     0.031 A 
ATOM     49  C   UNL     1       7.859   4.141 -14.406  1.00  0.00     0.031 A 
ATOM     50  C   UNL     1       8.451  -2.191 -15.863  1.00  0.00     0.049 A 
ATOM     51  C   UNL     1       8.098   3.403 -15.688  1.00  0.00     0.074 A 
ATOM     52  C   UNL     1       8.610  -2.759 -17.116  1.00  0.00     0.029 A 
ATOM     53  N   UNL     1       8.440  -0.816 -16.048  1.00  0.00    -0.354 N 
ATOM     54  N   UNL     1       8.183   2.110 -15.885  1.00  0.00    -0.248 NA
ATOM     55  C   UNL     1       8.289   4.218 -16.893  1.00  0.00     0.031 C 
ATOM     56  C   UNL     1       8.738  -1.727 -18.052  1.00  0.00     0.029 A 
ATOM     57  C   UNL     1       8.611  -0.517 -17.389  1.00  0.00     0.049 A 
ATOM     58  H   UNL     1       8.328  -0.151 -15.331  1.00  0.00     0.167 HD
ATOM     59  C   UNL     1       8.445   1.954 -17.239  1.00  0.00     0.074 A 
ATOM     60  C   UNL     1       8.474   3.284 -17.816  1.00  0.00     0.031 C 
ATOM     61  C   UNL     1       8.652   0.814 -17.940  1.00  0.00     0.031 A 
BRANCH  48  62
ATOM     62  C   UNL     1       8.390  -4.353 -14.553  1.00  0.00    -0.014 A 
ATOM     63  C   UNL     1       7.255  -5.152 -14.335  1.00  0.00     0.010 A 
ATOM     64  C   UNL     1       9.631  -4.977 -14.787  1.00  0.00     0.010 A 
ATOM     65  C   UNL     1       7.367  -6.547 -14.314  1.00  0.00     0.020 A 
ATOM     66  C   UNL     1       9.742  -6.370 -14.790  1.00  0.00     0.020 A 
ATOM     67  C   UNL     1       8.611  -7.147 -14.536  1.00  0.00     0.054 A 
BRANCH  67  68
ATOM     68  S   UNL     1       8.726  -8.958 -14.519  1.00  0.00     0.124 S 
ATOM     69  O   UNL     1       8.636  -9.250 -13.090  1.00  0.00    -0.237 OA
ATOM     70  O   UNL     1       7.571  -9.362 -15.316  1.00  0.00    -0.237 OA
ATOM     71  O   UNL     1      10.025  -9.229 -15.129  1.00  0.00    -0.744 OA
ENDBRANCH  67  68
ENDBRANCH  48  62
BRANCH  49  72
ATOM     72  C   UNL     1       7.829   5.629 -14.362  1.00  0.00    -0.014 A 
ATOM     73  C   UNL     1       6.727   6.338 -14.868  1.00  0.00     0.010 A 
ATOM     74  C   UNL     1       8.887   6.342 -13.765  1.00  0.00     0.010 A 
ATOM     75  C   UNL     1       6.681   7.732 -14.773  1.00  0.00     0.020 A 
ATOM     76  C   UNL     1       8.830   7.732 -13.640  1.00  0.00     0.020 A 
ATOM     77  C   UNL     1       7.730   8.420 -14.154  1.00  0.00     0.054 A 
BRANCH  77  78
ATOM     78  S   UNL     1       7.615  10.221 -13.966  1.00  0.00     0.124 S 
ATOM     79  O   UNL     1       7.966  10.687 -15.303  1.00  0.00    -0.237 OA
ATOM     80  O   UNL     1       6.221  10.412 -13.573  1.00  0.00    -0.237 OA
ATOM     81  O   UNL     1       8.592  10.516 -12.920  1.00  0.00    -0.744 OA
ENDBRANCH  77  78
ENDBRANCH  49  72
BRANCH  61  82
ATOM     82  C   UNL     1       8.915   0.960 -19.411  1.00  0.00    -0.014 A 
ATOM     83  C   UNL     1      10.165   1.403 -19.879  1.00  0.00     0.010 A 
ATOM     84  C   UNL     1       7.912   0.619 -20.335  1.00  0.00     0.010 A 
ATOM     85  C   UNL     1      10.398   1.528 -21.250  1.00  0.00     0.020 A 
ATOM     86  C   UNL     1       8.150   0.722 -21.707  1.00  0.00     0.020 A 
ATOM     87  C   UNL     1       9.388   1.188 -22.155  1.00  0.00     0.054 A 
BRANCH  87  88
ATOM     88  S   UNL     1       9.727   1.319 -23.932  1.00  0.00     0.124 S 
ATOM     89  O   UNL     1       9.652   2.761 -24.150  1.00  0.00    -0.237 OA
ATOM     90  O   UNL     1      11.061   0.734 -24.049  1.00  0.00    -0.237 OA
ATOM     91  O   UNL     1       8.656   0.538 -24.547  1.00  0.00    -0.744 OA
ENDBRANCH  87  88
ENDBRANCH  61  82
ENDBRANCH  35  36
ENDBRANCH  28  30
ENDBRANCH  27  28
ENDBRANCH  26  27
ENDBRANCH   1  26
TORSDOF 18
