REMARK SMILES O=C(CSc1nnc2sc3ccccc3n12)N[C@H](Cc1c[nH]c2ccccc12)C(=O)OCCOC(=O)c1ccc(-c2c3nc(c(-c4ccc(S(=O)(=O)[O-])cc4)c4ccc([nH]4)c(-c4ccc(S(=O)(=O)[O-])cc4)c4nc(c(-c5ccc(S(=O)(=O)[O-])cc5)c5ccc2[nH]5)C=C4)C=C3)cc1
REMARK SMILES IDX 32 1 31 2 29 3 30 4 18 5 17 6 1 7 2 8 3 10 4 11 5 12 6 13
REMARK SMILES IDX 16 14 7 15 8 16 15 17 9 18 10 19 14 20 11 21 13 22 12 23
REMARK SMILES IDX 19 24 20 25 21 26 28 27 22 28 23 29 27 30 24 32 26 33 25 34
REMARK SMILES IDX 33 35 34 36 35 37 36 38 37 39 38 40 96 41 39 42 95 43 40 44
REMARK SMILES IDX 41 45 42 46 89 47 43 48 94 49 88 50 90 51 44 52 93 53 87 54
REMARK SMILES IDX 86 55 45 57 75 58 56 59 74 60 57 61 60 62 73 63 91 64 58 65
REMARK SMILES IDX 59 66 72 68 92 69 61 70 46 71 47 72 55 73 48 74 54 75 49 76
REMARK SMILES IDX 50 77 51 78 52 79 53 80 76 81 77 82 85 83 78 84 84 85 79 86
REMARK SMILES IDX 80 87 81 88 82 89 83 90 62 91 63 92 71 93 64 94 70 95 65 96
REMARK SMILES IDX 66 97 67 98 68 99 69 100
REMARK H PARENT 17 9 22 31 90 56 60 67
REMARK Flexibility Score: inf
ROOT
ATOM      1  C   UNL     1       3.706  -4.412   1.852  1.00  0.00     0.274 C 
ENDROOT
BRANCH   1   2
ATOM      2  O   UNL     1       3.535  -3.264   0.984  1.00  0.00    -0.461 OA
BRANCH   2   3
ATOM      3  C   UNL     1       3.102  -3.507  -0.288  1.00  0.00     0.329 C 
ATOM      4  O   UNL     1       2.800  -4.622  -0.704  1.00  0.00    -0.250 OA
BRANCH   3   5
ATOM      5  C   UNL     1       3.012  -2.237  -1.171  1.00  0.00     0.196 C 
BRANCH   5   6
ATOM      6  N   UNL     1       3.316  -2.620  -2.562  1.00  0.00    -0.342 N 
ATOM      7  O   UNL     1       1.783  -1.235  -3.532  1.00  0.00    -0.274 OA
ATOM      8  C   UNL     1       2.742  -1.999  -3.652  1.00  0.00     0.231 C 
ATOM      9  H   UNL     1       3.956  -3.351  -2.720  1.00  0.00     0.164 HD
BRANCH   8  10
ATOM     10  C   UNL     1       3.388  -2.237  -5.018  1.00  0.00     0.178 C 
BRANCH  10  11
ATOM     11  S   UNL     1       4.689  -3.504  -5.075  1.00  0.00    -0.076 SA
BRANCH  11  12
ATOM     12  C   UNL     1       5.991  -2.682  -4.303  1.00  0.00     0.197 A 
ATOM     13  N   UNL     1       6.569  -1.569  -4.722  1.00  0.00    -0.122 NA
ATOM     14  N   UNL     1       6.512  -3.028  -3.092  1.00  0.00    -0.260 N 
ATOM     15  N   UNL     1       7.456  -1.140  -3.735  1.00  0.00    -0.118 NA
ATOM     16  C   UNL     1       7.373  -2.020  -2.774  1.00  0.00     0.217 A 
ATOM     17  C   UNL     1       6.375  -4.029  -2.133  1.00  0.00     0.068 A 
ATOM     18  S   UNL     1       8.079  -2.185  -1.205  1.00  0.00    -0.094 S 
ATOM     19  C   UNL     1       7.164  -3.719  -1.013  1.00  0.00     0.055 A 
ATOM     20  C   UNL     1       5.599  -5.173  -2.196  1.00  0.00     0.028 A 
ATOM     21  C   UNL     1       7.176  -4.563   0.084  1.00  0.00     0.021 A 
ATOM     22  C   UNL     1       5.605  -6.017  -1.085  1.00  0.00     0.002 A 
ATOM     23  C   UNL     1       6.392  -5.721   0.039  1.00  0.00     0.002 A 
ENDBRANCH  11  12
ENDBRANCH  10  11
ENDBRANCH   8  10
ENDBRANCH   5   6
BRANCH   5  24
ATOM     24  C   UNL     1       3.862  -1.063  -0.633  1.00  0.00     0.074 C 
BRANCH  24  25
ATOM     25  C   UNL     1       3.815   0.190  -1.466  1.00  0.00    -0.020 A 
ATOM     26  C   UNL     1       4.373   0.333  -2.720  1.00  0.00     0.087 A 
ATOM     27  C   UNL     1       3.253   1.475  -1.150  1.00  0.00     0.003 A 
ATOM     28  N   UNL     1       3.974   1.519  -3.258  1.00  0.00    -0.361 N 
ATOM     29  C   UNL     1       3.378   2.279  -2.288  1.00  0.00     0.046 A 
ATOM     30  C   UNL     1       2.656   2.046  -0.007  1.00  0.00     0.010 A 
ATOM     31  H   UNL     1       4.095   1.788  -4.197  1.00  0.00     0.166 HD
ATOM     32  C   UNL     1       2.946   3.605  -2.352  1.00  0.00     0.026 A 
ATOM     33  C   UNL     1       2.261   3.393  -0.038  1.00  0.00     0.001 A 
ATOM     34  C   UNL     1       2.405   4.158  -1.194  1.00  0.00     0.002 A 
ENDBRANCH  24  25
ENDBRANCH   5  24
ENDBRANCH   3   5
ENDBRANCH   2   3
ENDBRANCH   1   2
BRANCH   1  35
ATOM     35  C   UNL     1       3.105  -4.157   3.240  1.00  0.00     0.275 C 
BRANCH  35  36
ATOM     36  O   UNL     1       1.676  -4.166   3.144  1.00  0.00    -0.458 OA
BRANCH  36  37
ATOM     37  C   UNL     1       1.128  -2.961   2.865  1.00  0.00     0.338 C 
ATOM     38  O   UNL     1       1.521  -1.875   3.278  1.00  0.00    -0.246 OA
BRANCH  37  39
ATOM     39  C   UNL     1       0.252  -3.143   1.689  1.00  0.00     0.060 A 
ATOM     40  C   UNL     1      -0.293  -4.393   1.362  1.00  0.00     0.016 A 
ATOM     41  C   UNL     1       0.211  -2.092   0.772  1.00  0.00     0.016 A 
ATOM     42  C   UNL     1      -0.740  -4.631   0.065  1.00  0.00     0.010 A 
ATOM     43  C   UNL     1      -0.232  -2.341  -0.521  1.00  0.00     0.010 A 
ATOM     44  C   UNL     1      -0.636  -3.625  -0.899  1.00  0.00    -0.014 A 
BRANCH  44  45
ATOM     45  C   UNL     1      -1.216  -3.811  -2.227  1.00  0.00     0.031 A 
ATOM     46  C   UNL     1      -2.661  -3.501  -2.244  1.00  0.00     0.074 A 
ATOM     47  C   UNL     1      -0.615  -4.162  -3.383  1.00  0.00     0.049 A 
ATOM     48  N   UNL     1      -3.599  -4.379  -2.357  1.00  0.00    -0.248 NA
ATOM     49  C   UNL     1      -3.125  -2.144  -1.935  1.00  0.00     0.031 C 
ATOM     50  C   UNL     1       0.781  -4.477  -3.661  1.00  0.00     0.029 A 
ATOM     51  N   UNL     1      -1.188  -4.243  -4.624  1.00  0.00    -0.354 N 
ATOM     52  C   UNL     1      -4.786  -3.676  -2.278  1.00  0.00     0.074 A 
ATOM     53  C   UNL     1      -4.441  -2.341  -1.856  1.00  0.00     0.031 C 
ATOM     54  C   UNL     1       0.982  -4.494  -5.004  1.00  0.00     0.029 A 
ATOM     55  C   UNL     1      -0.286  -4.289  -5.678  1.00  0.00     0.049 A 
ATOM     56  H   UNL     1      -2.163  -4.266  -4.758  1.00  0.00     0.167 HD
ATOM     57  C   UNL     1      -5.955  -4.197  -2.735  1.00  0.00     0.031 A 
ATOM     58  C   UNL     1      -0.556  -4.257  -7.011  1.00  0.00     0.031 A 
ATOM     59  C   UNL     1      -5.849  -5.604  -3.018  1.00  0.00     0.049 A 
ATOM     60  C   UNL     1      -1.910  -4.835  -7.165  1.00  0.00     0.074 A 
ATOM     61  C   UNL     1      -5.566  -6.719  -2.254  1.00  0.00     0.029 A 
ATOM     62  N   UNL     1      -5.645  -5.977  -4.327  1.00  0.00    -0.354 N 
ATOM     63  N   UNL     1      -2.158  -6.097  -6.963  1.00  0.00    -0.248 NA
ATOM     64  C   UNL     1      -3.062  -3.949  -7.112  1.00  0.00     0.031 C 
ATOM     65  C   UNL     1      -4.761  -7.545  -3.087  1.00  0.00     0.029 A 
ATOM     66  C   UNL     1      -4.650  -6.924  -4.332  1.00  0.00     0.049 A 
ATOM     67  H   UNL     1      -6.123  -5.629  -5.114  1.00  0.00     0.167 HD
ATOM     68  C   UNL     1      -3.369  -6.100  -6.291  1.00  0.00     0.074 A 
ATOM     69  C   UNL     1      -3.929  -4.766  -6.509  1.00  0.00     0.031 C 
ATOM     70  C   UNL     1      -3.674  -7.079  -5.391  1.00  0.00     0.031 A 
BRANCH  57  71
ATOM     71  C   UNL     1      -7.105  -3.357  -3.194  1.00  0.00    -0.014 A 
ATOM     72  C   UNL     1      -6.956  -2.008  -3.578  1.00  0.00     0.010 A 
ATOM     73  C   UNL     1      -8.342  -3.971  -3.455  1.00  0.00     0.010 A 
ATOM     74  C   UNL     1      -8.001  -1.285  -4.146  1.00  0.00     0.020 A 
ATOM     75  C   UNL     1      -9.383  -3.268  -4.072  1.00  0.00     0.020 A 
ATOM     76  C   UNL     1      -9.207  -1.924  -4.401  1.00  0.00     0.054 A 
BRANCH  76  77
ATOM     77  S   UNL     1     -10.504  -0.981  -5.233  1.00  0.00     0.124 S 
ATOM     78  O   UNL     1     -10.877  -0.012  -4.205  1.00  0.00    -0.237 OA
ATOM     79  O   UNL     1      -9.800  -0.434  -6.390  1.00  0.00    -0.237 OA
ATOM     80  O   UNL     1     -11.517  -1.988  -5.540  1.00  0.00    -0.744 OA
ENDBRANCH  76  77
ENDBRANCH  57  71
BRANCH  58  81
ATOM     81  C   UNL     1      -0.024  -3.297  -8.023  1.00  0.00    -0.014 A 
ATOM     82  C   UNL     1       0.532  -2.067  -7.625  1.00  0.00     0.010 A 
ATOM     83  C   UNL     1      -0.352  -3.450  -9.388  1.00  0.00     0.010 A 
ATOM     84  C   UNL     1       0.703  -1.012  -8.532  1.00  0.00     0.020 A 
ATOM     85  C   UNL     1      -0.210  -2.387 -10.300  1.00  0.00     0.020 A 
ATOM     86  C   UNL     1       0.288  -1.163  -9.855  1.00  0.00     0.054 A 
BRANCH  86  87
ATOM     87  S   UNL     1       0.291   0.303 -10.932  1.00  0.00     0.124 S 
ATOM     88  O   UNL     1      -0.688   1.165 -10.274  1.00  0.00    -0.237 OA
ATOM     89  O   UNL     1       1.678   0.754 -10.847  1.00  0.00    -0.237 OA
ATOM     90  O   UNL     1      -0.113  -0.218 -12.235  1.00  0.00    -0.744 OA
ENDBRANCH  86  87
ENDBRANCH  58  81
BRANCH  70  91
ATOM     91  C   UNL     1      -2.770  -8.294  -5.292  1.00  0.00    -0.014 A 
ATOM     92  C   UNL     1      -3.379  -9.561  -5.297  1.00  0.00     0.010 A 
ATOM     93  C   UNL     1      -1.394  -8.218  -4.987  1.00  0.00     0.010 A 
ATOM     94  C   UNL     1      -2.658 -10.710  -4.965  1.00  0.00     0.020 A 
ATOM     95  C   UNL     1      -0.656  -9.373  -4.682  1.00  0.00     0.020 A 
ATOM     96  C   UNL     1      -1.303 -10.609  -4.644  1.00  0.00     0.054 A 
BRANCH  96  97
ATOM     97  S   UNL     1      -0.426 -12.115  -4.143  1.00  0.00     0.124 S 
ATOM     98  O   UNL     1      -1.003 -12.387  -2.828  1.00  0.00    -0.237 OA
ATOM     99  O   UNL     1      -0.790 -13.066  -5.191  1.00  0.00    -0.237 OA
ATOM    100  O   UNL     1       0.981 -11.719  -4.130  1.00  0.00    -0.744 OA
ENDBRANCH  96  97
ENDBRANCH  70  91
ENDBRANCH  44  45
ENDBRANCH  37  39
ENDBRANCH  36  37
ENDBRANCH  35  36
ENDBRANCH   1  35
TORSDOF 20
