REMARK SMILES O=C(Nc1ccccc1C(=O)OCCOC(=O)c1ccc(-c2c3nc(c(-c4ccc(S(=O)(=O)[O-])cc4)c4ccc([nH]4)c(-c4ccc(S(=O)(=O)[O-])cc4)c4nc(c(-c5ccc(S(=O)(=O)[O-])cc5)c5ccc2[nH]5)C=C4)C=C3)cc1)c1ccncc1
REMARK SMILES IDX 14 1 13 2 12 3 10 4 11 5 9 6 4 7 5 8 6 9 8 10 7 11 3 12 1 13
REMARK SMILES IDX 2 14 78 16 79 17 83 18 80 19 82 20 81 21 15 22 16 23 17 24
REMARK SMILES IDX 18 25 19 26 77 27 20 28 76 29 21 30 22 31 23 32 70 33 24 34
REMARK SMILES IDX 75 35 69 36 71 37 25 38 74 39 68 40 67 41 26 43 56 44 37 45
REMARK SMILES IDX 55 46 38 47 41 48 54 49 72 50 39 51 40 52 53 54 73 55 42 56
REMARK SMILES IDX 27 57 28 58 36 59 29 60 35 61 30 62 31 63 32 64 33 65 34 66
REMARK SMILES IDX 57 67 58 68 66 69 59 70 65 71 60 72 61 73 62 74 63 75 64 76
REMARK SMILES IDX 43 77 44 78 52 79 45 80 51 81 46 82 47 83 48 84 49 85 50 86
REMARK H PARENT 3 15 71 42 41 53
REMARK Flexibility Score: inf
ROOT
ATOM      1  C   UNL     1       2.642   2.512  -3.732  1.00  0.00     0.275 C 
ENDROOT
BRANCH   1   2
ATOM      2  C   UNL     1       2.368   1.389  -2.731  1.00  0.00     0.275 C 
BRANCH   2   3
ATOM      3  O   UNL     1       3.037   1.565  -1.462  1.00  0.00    -0.458 OA
BRANCH   3   4
ATOM      4  C   UNL     1       4.190   0.864  -1.318  1.00  0.00     0.340 C 
ATOM      5  O   UNL     1       4.726   0.195  -2.181  1.00  0.00    -0.246 OA
BRANCH   4   6
ATOM      6  C   UNL     1       4.750   0.961   0.050  1.00  0.00     0.083 A 
ATOM      7  C   UNL     1       4.038   0.621   1.208  1.00  0.00     0.056 A 
ATOM      8  C   UNL     1       4.649   0.827   2.459  1.00  0.00     0.027 A 
ATOM      9  C   UNL     1       5.981   1.237   2.559  1.00  0.00     0.002 A 
ATOM     10  C   UNL     1       6.088   1.381   0.169  1.00  0.00     0.018 A 
ATOM     11  C   UNL     1       6.709   1.496   1.410  1.00  0.00     0.001 A 
BRANCH   7  12
ATOM     12  N   UNL     1       2.748   0.055   1.256  1.00  0.00    -0.321 N 
ATOM     13  O   UNL     1       0.866  -0.907   0.479  1.00  0.00    -0.269 OA
ATOM     14  C   UNL     1       2.090  -0.801   0.401  1.00  0.00     0.255 C 
ATOM     15  H   UNL     1       2.221   0.320   2.045  1.00  0.00     0.170 HD
BRANCH  14  16
ATOM     16  C   UNL     1       2.817  -1.683  -0.548  1.00  0.00     0.043 A 
ATOM     17  C   UNL     1       2.214  -1.958  -1.777  1.00  0.00     0.034 A 
ATOM     18  C   UNL     1       4.065  -2.237  -0.256  1.00  0.00     0.034 A 
ATOM     19  C   UNL     1       2.922  -2.709  -2.696  1.00  0.00     0.112 A 
ATOM     20  C   UNL     1       4.690  -2.976  -1.246  1.00  0.00     0.112 A 
ATOM     21  N   UNL     1       4.142  -3.230  -2.454  1.00  0.00    -0.265 NA
ENDBRANCH  14  16
ENDBRANCH   7  12
ENDBRANCH   4   6
ENDBRANCH   3   4
ENDBRANCH   2   3
ENDBRANCH   1   2
BRANCH   1  22
ATOM     22  O   UNL     1       3.983   2.447  -4.246  1.00  0.00    -0.458 OA
BRANCH  22  23
ATOM     23  C   UNL     1       4.874   3.163  -3.530  1.00  0.00     0.338 C 
ATOM     24  O   UNL     1       4.646   3.871  -2.561  1.00  0.00    -0.246 OA
BRANCH  23  25
ATOM     25  C   UNL     1       6.241   2.919  -3.996  1.00  0.00     0.060 A 
ATOM     26  C   UNL     1       6.997   1.990  -3.292  1.00  0.00     0.016 A 
ATOM     27  C   UNL     1       6.851   3.772  -4.907  1.00  0.00     0.016 A 
ATOM     28  C   UNL     1       8.376   2.022  -3.339  1.00  0.00     0.010 A 
ATOM     29  C   UNL     1       8.238   3.706  -5.066  1.00  0.00     0.010 A 
ATOM     30  C   UNL     1       9.015   2.872  -4.239  1.00  0.00    -0.014 A 
BRANCH  30  31
ATOM     31  C   UNL     1      10.495   2.923  -4.262  1.00  0.00     0.031 A 
ATOM     32  C   UNL     1      11.189   4.233  -4.014  1.00  0.00     0.074 A 
ATOM     33  C   UNL     1      11.204   1.797  -4.477  1.00  0.00     0.049 A 
ATOM     34  N   UNL     1      12.440   4.551  -4.208  1.00  0.00    -0.248 NA
ATOM     35  C   UNL     1      10.361   5.338  -3.500  1.00  0.00     0.031 C 
ATOM     36  C   UNL     1      10.642   0.450  -4.634  1.00  0.00     0.029 A 
ATOM     37  N   UNL     1      12.555   1.603  -4.598  1.00  0.00    -0.354 N 
ATOM     38  C   UNL     1      12.534   5.907  -3.917  1.00  0.00     0.074 A 
ATOM     39  C   UNL     1      11.213   6.352  -3.530  1.00  0.00     0.031 C 
ATOM     40  C   UNL     1      11.638  -0.430  -4.799  1.00  0.00     0.029 A 
ATOM     41  C   UNL     1      12.894   0.300  -4.880  1.00  0.00     0.049 A 
ATOM     42  H   UNL     1      13.216   2.324  -4.494  1.00  0.00     0.167 HD
ATOM     43  C   UNL     1      13.626   6.703  -3.983  1.00  0.00     0.031 A 
ATOM     44  C   UNL     1      14.075  -0.237  -5.234  1.00  0.00     0.031 A 
ATOM     45  C   UNL     1      14.934   6.219  -4.340  1.00  0.00     0.049 A 
ATOM     46  C   UNL     1      15.258   0.677  -5.367  1.00  0.00     0.074 A 
ATOM     47  C   UNL     1      16.120   6.925  -4.430  1.00  0.00     0.029 A 
ATOM     48  N   UNL     1      15.227   4.899  -4.657  1.00  0.00    -0.354 N 
ATOM     49  N   UNL     1      15.327   1.969  -5.146  1.00  0.00    -0.248 NA
ATOM     50  C   UNL     1      16.516   0.067  -5.808  1.00  0.00     0.031 C 
ATOM     51  C   UNL     1      17.117   6.044  -4.861  1.00  0.00     0.029 A 
ATOM     52  C   UNL     1      16.570   4.774  -4.967  1.00  0.00     0.049 A 
ATOM     53  H   UNL     1      14.576   4.161  -4.660  1.00  0.00     0.167 HD
ATOM     54  C   UNL     1      16.645   2.324  -5.398  1.00  0.00     0.074 A 
ATOM     55  C   UNL     1      17.340   1.105  -5.769  1.00  0.00     0.031 C 
ATOM     56  C   UNL     1      17.232   3.545  -5.330  1.00  0.00     0.031 A 
BRANCH  43  57
ATOM     57  C   UNL     1      13.441   8.177  -3.729  1.00  0.00    -0.014 A 
ATOM     58  C   UNL     1      13.132   8.682  -2.454  1.00  0.00     0.010 A 
ATOM     59  C   UNL     1      13.608   9.082  -4.796  1.00  0.00     0.010 A 
ATOM     60  C   UNL     1      12.954  10.055  -2.259  1.00  0.00     0.020 A 
ATOM     61  C   UNL     1      13.463  10.458  -4.599  1.00  0.00     0.020 A 
ATOM     62  C   UNL     1      13.120  10.935  -3.334  1.00  0.00     0.054 A 
BRANCH  62  63
ATOM     63  S   UNL     1      12.907  12.713  -3.046  1.00  0.00     0.124 S 
ATOM     64  O   UNL     1      11.464  12.816  -2.845  1.00  0.00    -0.237 OA
ATOM     65  O   UNL     1      13.724  12.944  -1.857  1.00  0.00    -0.237 OA
ATOM     66  O   UNL     1      13.410  13.327  -4.272  1.00  0.00    -0.744 OA
ENDBRANCH  62  63
ENDBRANCH  43  57
BRANCH  44  67
ATOM     67  C   UNL     1      14.171  -1.691  -5.540  1.00  0.00    -0.014 A 
ATOM     68  C   UNL     1      14.915  -2.548  -4.713  1.00  0.00     0.010 A 
ATOM     69  C   UNL     1      13.493  -2.234  -6.650  1.00  0.00     0.010 A 
ATOM     70  C   UNL     1      14.993  -3.914  -4.995  1.00  0.00     0.020 A 
ATOM     71  C   UNL     1      13.538  -3.605  -6.915  1.00  0.00     0.020 A 
ATOM     72  C   UNL     1      14.300  -4.435  -6.093  1.00  0.00     0.054 A 
BRANCH  72  73
ATOM     73  S   UNL     1      14.380  -6.219  -6.409  1.00  0.00     0.124 S 
ATOM     74  O   UNL     1      15.752  -6.382  -6.879  1.00  0.00    -0.237 OA
ATOM     75  O   UNL     1      14.091  -6.785  -5.094  1.00  0.00    -0.237 OA
ATOM     76  O   UNL     1      13.344  -6.436  -7.415  1.00  0.00    -0.744 OA
ENDBRANCH  72  73
ENDBRANCH  44  67
BRANCH  56  77
ATOM     77  C   UNL     1      18.707   3.608  -5.613  1.00  0.00    -0.014 A 
ATOM     78  C   UNL     1      19.212   3.438  -6.914  1.00  0.00     0.010 A 
ATOM     79  C   UNL     1      19.596   3.891  -4.560  1.00  0.00     0.010 A 
ATOM     80  C   UNL     1      20.586   3.515  -7.150  1.00  0.00     0.020 A 
ATOM     81  C   UNL     1      20.966   4.003  -4.798  1.00  0.00     0.020 A 
ATOM     82  C   UNL     1      21.453   3.799  -6.090  1.00  0.00     0.054 A 
BRANCH  82  83
ATOM     83  S   UNL     1      23.228   3.939  -6.431  1.00  0.00     0.124 S 
ATOM     84  O   UNL     1      23.601   2.549  -6.674  1.00  0.00    -0.237 OA
ATOM     85  O   UNL     1      23.259   4.813  -7.602  1.00  0.00    -0.237 OA
ATOM     86  O   UNL     1      23.771   4.526  -5.208  1.00  0.00    -0.744 OA
ENDBRANCH  82  83
ENDBRANCH  56  77
ENDBRANCH  30  31
ENDBRANCH  23  25
ENDBRANCH  22  23
ENDBRANCH   1  22
TORSDOF 16
