REMARK SMILES CC(=O)N/N=C/c1ccc(O[C@H](C)C(=O)OCCOC(=O)c2ccc(-c3c4nc(c(-c5ccc(S(=O)(=O)[O-])cc5)c5ccc([nH]5)c(-c5ccc(S(=O)(=O)[O-])cc5)c5nc(c(-c6ccc(S(=O)(=O)[O-])cc6)c6ccc3[nH]6)C=C5)C=C4)cc2)cc1
REMARK SMILES IDX 17 1 16 2 14 3 15 4 12 5 13 6 11 7 10 8 7 9 8 10 83 11 9 12
REMARK SMILES IDX 82 13 6 14 5 15 4 16 1 17 2 18 3 19 18 21 19 22 20 23 21 24
REMARK SMILES IDX 22 25 23 26 81 27 24 28 80 29 25 30 26 31 27 32 74 33 28 34
REMARK SMILES IDX 79 35 73 36 75 37 29 38 78 39 72 40 71 41 30 43 60 44 41 45
REMARK SMILES IDX 59 46 42 47 45 48 58 49 76 50 43 51 44 52 57 54 77 55 46 56
REMARK SMILES IDX 31 57 32 58 40 59 33 60 39 61 34 62 35 63 36 64 37 65 38 66
REMARK SMILES IDX 61 67 62 68 70 69 63 70 69 71 64 72 65 73 66 74 67 75 68 76
REMARK SMILES IDX 47 77 48 78 56 79 49 80 55 81 50 82 51 83 52 84 53 85 54 86
REMARK H PARENT 4 20 75 42 45 53
REMARK Flexibility Score: inf
ROOT
ATOM      1  C   UNL     1       1.094   5.508  -6.296  1.00  0.00     0.274 C 
ENDROOT
BRANCH   1   2
ATOM      2  O   UNL     1       2.262   4.748  -5.939  1.00  0.00    -0.459 OA
BRANCH   2   3
ATOM      3  C   UNL     1       3.394   4.987  -6.662  1.00  0.00     0.347 C 
ATOM      4  O   UNL     1       3.442   5.685  -7.668  1.00  0.00    -0.248 OA
BRANCH   3   5
ATOM      5  C   UNL     1       4.612   4.278  -6.062  1.00  0.00     0.279 C 
ATOM      6  C   UNL     1       4.505   4.247  -4.533  1.00  0.00     0.066 C 
BRANCH   5   7
ATOM      7  O   UNL     1       4.633   2.994  -6.687  1.00  0.00    -0.479 OA
BRANCH   7   8
ATOM      8  C   UNL     1       5.637   2.109  -6.433  1.00  0.00     0.120 A 
ATOM      9  C   UNL     1       7.341  -0.029  -5.845  1.00  0.00    -0.005 A 
ATOM     10  C   UNL     1       7.558   1.219  -5.258  1.00  0.00     0.013 A 
ATOM     11  C   UNL     1       6.331  -0.189  -6.793  1.00  0.00     0.013 A 
ATOM     12  C   UNL     1       6.720   2.294  -5.575  1.00  0.00     0.047 A 
ATOM     13  C   UNL     1       5.483   0.880  -7.080  1.00  0.00     0.047 A 
BRANCH   9  14
ATOM     14  C   UNL     1       8.146  -1.179  -5.396  1.00  0.00     0.141 C 
ATOM     15  N   UNL     1       7.923  -2.380  -5.831  1.00  0.00    -0.181 NA
BRANCH  15  16
ATOM     16  N   UNL     1       8.683  -3.359  -5.267  1.00  0.00    -0.247 N 
ATOM     17  C   UNL     1       7.681  -3.080  -3.020  1.00  0.00     0.116 C 
ATOM     18  C   UNL     1       8.609  -3.797  -3.965  1.00  0.00     0.236 C 
ATOM     19  O   UNL     1       9.297  -4.748  -3.588  1.00  0.00    -0.274 OA
ATOM     20  H   UNL     1       9.350  -3.794  -5.846  1.00  0.00     0.193 HD
ENDBRANCH  15  16
ENDBRANCH   9  14
ENDBRANCH   7   8
ENDBRANCH   5   7
ENDBRANCH   3   5
ENDBRANCH   2   3
ENDBRANCH   1   2
BRANCH   1  21
ATOM     21  C   UNL     1       1.000   6.778  -5.449  1.00  0.00     0.275 C 
BRANCH  21  22
ATOM     22  O   UNL     1       2.016   7.723  -5.838  1.00  0.00    -0.458 OA
BRANCH  22  23
ATOM     23  C   UNL     1       2.986   7.965  -4.928  1.00  0.00     0.338 C 
ATOM     24  O   UNL     1       3.078   7.511  -3.801  1.00  0.00    -0.246 OA
BRANCH  23  25
ATOM     25  C   UNL     1       4.024   8.811  -5.534  1.00  0.00     0.060 A 
ATOM     26  C   UNL     1       5.161   8.196  -6.062  1.00  0.00     0.016 A 
ATOM     27  C   UNL     1       3.926  10.201  -5.486  1.00  0.00     0.016 A 
ATOM     28  C   UNL     1       6.218   8.971  -6.532  1.00  0.00     0.010 A 
ATOM     29  C   UNL     1       4.982  10.979  -5.976  1.00  0.00     0.010 A 
ATOM     30  C   UNL     1       6.143  10.370  -6.485  1.00  0.00    -0.014 A 
BRANCH  30  31
ATOM     31  C   UNL     1       7.306  11.182  -6.923  1.00  0.00     0.031 A 
ATOM     32  C   UNL     1       8.146  11.906  -5.906  1.00  0.00     0.074 A 
ATOM     33  C   UNL     1       7.623  11.250  -8.230  1.00  0.00     0.049 A 
ATOM     34  N   UNL     1       9.177  12.689  -6.094  1.00  0.00    -0.248 NA
ATOM     35  C   UNL     1       7.775  11.729  -4.492  1.00  0.00     0.031 C 
ATOM     36  C   UNL     1       6.902  10.577  -9.313  1.00  0.00     0.029 A 
ATOM     37  N   UNL     1       8.638  11.917  -8.869  1.00  0.00    -0.354 N 
ATOM     38  C   UNL     1       9.560  13.124  -4.831  1.00  0.00     0.074 A 
ATOM     39  C   UNL     1       8.645  12.524  -3.883  1.00  0.00     0.031 C 
ATOM     40  C   UNL     1       7.502  10.861 -10.481  1.00  0.00     0.029 A 
ATOM     41  C   UNL     1       8.624  11.762 -10.235  1.00  0.00     0.049 A 
ATOM     42  H   UNL     1       9.312  12.455  -8.394  1.00  0.00     0.167 HD
ATOM     43  C   UNL     1      10.579  13.949  -4.491  1.00  0.00     0.031 A 
ATOM     44  C   UNL     1       9.414  12.299 -11.184  1.00  0.00     0.031 A 
ATOM     45  C   UNL     1      11.500  14.533  -5.430  1.00  0.00     0.049 A 
ATOM     46  C   UNL     1      10.536  13.216 -10.780  1.00  0.00     0.074 A 
ATOM     47  C   UNL     1      12.583  15.358  -5.175  1.00  0.00     0.029 A 
ATOM     48  N   UNL     1      11.450  14.354  -6.803  1.00  0.00    -0.354 N 
ATOM     49  N   UNL     1      10.890  13.603  -9.578  1.00  0.00    -0.248 NA
ATOM     50  C   UNL     1      11.367  13.762 -11.861  1.00  0.00     0.031 C 
ATOM     51  C   UNL     1      13.165  15.708  -6.399  1.00  0.00     0.029 A 
ATOM     52  C   UNL     1      12.472  15.065  -7.411  1.00  0.00     0.049 A 
ATOM     53  H   UNL     1      10.786  13.803  -7.277  1.00  0.00     0.167 HD
ATOM     54  C   UNL     1      11.994  14.428  -9.758  1.00  0.00     0.074 A 
ATOM     55  C   UNL     1      12.262  14.465 -11.181  1.00  0.00     0.031 C 
ATOM     56  C   UNL     1      12.720  15.098  -8.829  1.00  0.00     0.031 A 
BRANCH  43  57
ATOM     57  C   UNL     1      10.732  14.300  -3.036  1.00  0.00    -0.014 A 
ATOM     58  C   UNL     1      11.257  13.378  -2.113  1.00  0.00     0.010 A 
ATOM     59  C   UNL     1      10.381  15.589  -2.595  1.00  0.00     0.010 A 
ATOM     60  C   UNL     1      11.398  13.729  -0.767  1.00  0.00     0.020 A 
ATOM     61  C   UNL     1      10.540  15.950  -1.254  1.00  0.00     0.020 A 
ATOM     62  C   UNL     1      11.033  15.012  -0.345  1.00  0.00     0.054 A 
BRANCH  62  63
ATOM     63  S   UNL     1      11.246  15.453   1.402  1.00  0.00     0.124 S 
ATOM     64  O   UNL     1      10.116  14.767   2.024  1.00  0.00    -0.237 OA
ATOM     65  O   UNL     1      12.562  14.903   1.716  1.00  0.00    -0.237 OA
ATOM     66  O   UNL     1      11.167  16.911   1.403  1.00  0.00    -0.744 OA
ENDBRANCH  62  63
ENDBRANCH  43  57
BRANCH  44  67
ATOM     67  C   UNL     1       9.156  12.002 -12.618  1.00  0.00    -0.014 A 
ATOM     68  C   UNL     1      10.026  11.177 -13.350  1.00  0.00     0.010 A 
ATOM     69  C   UNL     1       8.028  12.548 -13.259  1.00  0.00     0.010 A 
ATOM     70  C   UNL     1       9.783  10.916 -14.702  1.00  0.00     0.020 A 
ATOM     71  C   UNL     1       7.769  12.270 -14.603  1.00  0.00     0.020 A 
ATOM     72  C   UNL     1       8.656  11.465 -15.320  1.00  0.00     0.054 A 
BRANCH  72  73
ATOM     73  S   UNL     1       8.326  11.075 -17.061  1.00  0.00     0.124 S 
ATOM     74  O   UNL     1       9.234  11.985 -17.752  1.00  0.00    -0.237 OA
ATOM     75  O   UNL     1       8.667   9.657 -17.142  1.00  0.00    -0.237 OA
ATOM     76  O   UNL     1       6.903  11.373 -17.211  1.00  0.00    -0.744 OA
ENDBRANCH  72  73
ENDBRANCH  44  67
BRANCH  56  77
ATOM     77  C   UNL     1      13.886  15.907  -9.327  1.00  0.00    -0.014 A 
ATOM     78  C   UNL     1      13.690  17.125 -10.001  1.00  0.00     0.010 A 
ATOM     79  C   UNL     1      15.197  15.447  -9.107  1.00  0.00     0.010 A 
ATOM     80  C   UNL     1      14.783  17.848 -10.486  1.00  0.00     0.020 A 
ATOM     81  C   UNL     1      16.293  16.178  -9.570  1.00  0.00     0.020 A 
ATOM     82  C   UNL     1      16.078  17.364 -10.275  1.00  0.00     0.054 A 
BRANCH  82  83
ATOM     83  S   UNL     1      17.487  18.319 -10.903  1.00  0.00     0.124 S 
ATOM     84  O   UNL     1      17.497  17.949 -12.316  1.00  0.00    -0.237 OA
ATOM     85  O   UNL     1      17.099  19.698 -10.617  1.00  0.00    -0.237 OA
ATOM     86  O   UNL     1      18.616  17.821 -10.120  1.00  0.00    -0.744 OA
ENDBRANCH  82  83
ENDBRANCH  56  77
ENDBRANCH  30  31
ENDBRANCH  23  25
ENDBRANCH  22  23
ENDBRANCH  21  22
ENDBRANCH   1  21
TORSDOF 18
