REMARK SMILES Cc1ccc(C)c(N2C(=O)S[C@H](CC(=O)Nc3ccc(C(=O)OCCOC(=O)c4ccc(-c5c6nc(c(-c7ccc(S(=O)(=O)[O-])cc7)c7ccc([nH]7)c(-c7ccc(S(=O)(=O)[O-])cc7)c7nc(c(-c8ccc(S(=O)(=O)[O-])cc8)c8ccc5[nH]8)C=C7)C=C6)cc4)c(O)c3)C2=O)c1
REMARK SMILES IDX 24 1 23 2 21 3 22 4 20 5 17 6 18 7 91 8 19 9 89 10 16 11
REMARK SMILES IDX 14 12 15 13 13 15 12 16 8 17 9 18 92 19 10 20 11 21 93 22
REMARK SMILES IDX 7 23 1 24 2 25 3 26 94 27 4 28 5 29 6 30 90 31 25 33 26 34
REMARK SMILES IDX 27 35 28 36 29 37 30 38 88 39 31 40 87 41 32 42 33 43 34 44
REMARK SMILES IDX 81 45 35 46 86 47 80 48 82 49 36 50 85 51 79 52 78 53 37 55
REMARK SMILES IDX 67 56 48 57 66 58 49 59 52 60 65 61 83 62 50 63 51 64 64 66
REMARK SMILES IDX 84 67 53 68 38 69 39 70 47 71 40 72 46 73 41 74 42 75 43 76
REMARK SMILES IDX 44 77 45 78 68 79 69 80 77 81 70 82 76 83 71 84 72 85 73 86
REMARK SMILES IDX 74 87 75 88 54 89 55 90 63 91 56 92 62 93 57 94 58 95 59 96
REMARK SMILES IDX 60 97 61 98
REMARK H PARENT 16 14 90 32 82 54 52 65
REMARK Flexibility Score: inf
ROOT
ATOM      1  C   UNL     1       3.519   5.558  -3.059  1.00  0.00     0.275 C 
ENDROOT
BRANCH   1   2
ATOM      2  O   UNL     1       2.314   5.789  -2.329  1.00  0.00    -0.458 OA
BRANCH   2   3
ATOM      3  C   UNL     1       1.636   6.884  -2.744  1.00  0.00     0.342 C 
ATOM      4  O   UNL     1       1.985   7.707  -3.572  1.00  0.00    -0.246 OA
BRANCH   3   5
ATOM      5  C   UNL     1       0.480   7.075  -1.873  1.00  0.00     0.101 A 
ATOM      6  C   UNL     1      -1.597   7.332  -0.041  1.00  0.00     0.044 A 
ATOM      7  C   UNL     1      -1.638   6.355  -1.036  1.00  0.00     0.027 A 
ATOM      8  C   UNL     1      -0.583   8.287  -0.066  1.00  0.00     0.073 A 
ATOM      9  C   UNL     1      -0.584   6.186  -1.922  1.00  0.00     0.022 A 
ATOM     10  C   UNL     1       0.448   8.162  -0.997  1.00  0.00     0.132 A 
BRANCH   6  11
ATOM     11  N   UNL     1      -2.590   7.375   0.949  1.00  0.00    -0.326 N 
ATOM     12  C   UNL     1      -3.208   6.303   1.556  1.00  0.00     0.226 C 
ATOM     13  O   UNL     1      -4.273   6.455   2.154  1.00  0.00    -0.275 OA
ATOM     14  H   UNL     1      -2.878   8.270   1.243  1.00  0.00     0.169 HD
BRANCH  12  15
ATOM     15  C   UNL     1      -2.430   4.997   1.667  1.00  0.00     0.125 C 
BRANCH  15  16
ATOM     16  C   UNL     1      -3.215   3.730   1.350  1.00  0.00     0.156 C 
ATOM     17  N   UNL     1      -1.789   2.093   0.324  1.00  0.00    -0.240 N 
ATOM     18  C   UNL     1      -2.391   2.571  -0.822  1.00  0.00     0.293 C 
ATOM     19  C   UNL     1      -2.284   2.543   1.535  1.00  0.00     0.248 C 
ATOM     20  O   UNL     1      -2.145   2.337  -1.978  1.00  0.00    -0.261 OA
ATOM     21  S   UNL     1      -3.755   3.594  -0.373  1.00  0.00    -0.050 SA
ATOM     22  O   UNL     1      -2.019   2.092   2.647  1.00  0.00    -0.273 OA
BRANCH  17  23
ATOM     23  C   UNL     1      -0.955   0.953   0.257  1.00  0.00     0.056 A 
ATOM     24  C   UNL     1       2.777   0.135   0.087  1.00  0.00     0.044 C 
ATOM     25  C   UNL     1       1.284  -0.008   0.151  1.00  0.00    -0.049 A 
ATOM     26  C   UNL     1       0.716  -1.284   0.076  1.00  0.00     0.004 A 
ATOM     27  C   UNL     1       0.441   1.109   0.261  1.00  0.00     0.030 A 
ATOM     28  C   UNL     1      -0.669  -1.443   0.083  1.00  0.00     0.006 A 
ATOM     29  C   UNL     1      -1.522  -0.332   0.162  1.00  0.00    -0.027 A 
ATOM     30  C   UNL     1      -3.003  -0.584   0.141  1.00  0.00     0.046 C 
ENDBRANCH  17  23
ENDBRANCH  15  16
ENDBRANCH  12  15
ENDBRANCH   6  11
BRANCH  10  31
ATOM     31  O   UNL     1       1.420   9.125  -0.997  1.00  0.00    -0.507 OA
ATOM     32  H   UNL     1       2.129   9.076  -1.608  1.00  0.00     0.293 HD
ENDBRANCH  10  31
ENDBRANCH   3   5
ENDBRANCH   2   3
ENDBRANCH   1   2
BRANCH   1  33
ATOM     33  C   UNL     1       4.067   4.152  -2.789  1.00  0.00     0.275 C 
BRANCH  33  34
ATOM     34  O   UNL     1       3.135   3.037  -2.655  1.00  0.00    -0.458 OA
BRANCH  34  35
ATOM     35  C   UNL     1       1.839   3.049  -3.066  1.00  0.00     0.338 C 
ATOM     36  O   UNL     1       0.923   2.772  -2.308  1.00  0.00    -0.246 OA
BRANCH  35  37
ATOM     37  C   UNL     1       1.604   3.466  -4.467  1.00  0.00     0.060 A 
ATOM     38  C   UNL     1       0.366   4.016  -4.828  1.00  0.00     0.016 A 
ATOM     39  C   UNL     1       2.672   3.517  -5.348  1.00  0.00     0.016 A 
ATOM     40  C   UNL     1       0.272   4.819  -5.965  1.00  0.00     0.010 A 
ATOM     41  C   UNL     1       2.611   4.415  -6.392  1.00  0.00     0.010 A 
ATOM     42  C   UNL     1       1.420   5.076  -6.719  1.00  0.00    -0.014 A 
BRANCH  42  43
ATOM     43  C   UNL     1       1.411   6.047  -7.819  1.00  0.00     0.031 A 
ATOM     44  C   UNL     1       0.827   7.414  -7.600  1.00  0.00     0.074 A 
ATOM     45  C   UNL     1       2.089   5.829  -8.966  1.00  0.00     0.049 A 
ATOM     46  N   UNL     1      -0.241   7.915  -8.136  1.00  0.00    -0.248 NA
ATOM     47  C   UNL     1       1.502   8.342  -6.684  1.00  0.00     0.031 C 
ATOM     48  C   UNL     1       2.947   4.695  -9.342  1.00  0.00     0.029 A 
ATOM     49  N   UNL     1       2.226   6.668 -10.023  1.00  0.00    -0.354 N 
ATOM     50  C   UNL     1      -0.302   9.262  -7.760  1.00  0.00     0.074 A 
ATOM     51  C   UNL     1       0.743   9.439  -6.782  1.00  0.00     0.031 C 
ATOM     52  C   UNL     1       3.704   5.031 -10.407  1.00  0.00     0.029 A 
ATOM     53  C   UNL     1       3.208   6.290 -10.920  1.00  0.00     0.049 A 
ATOM     54  H   UNL     1       1.675   7.476 -10.142  1.00  0.00     0.167 HD
ATOM     55  C   UNL     1      -1.109  10.170  -8.392  1.00  0.00     0.031 A 
ATOM     56  C   UNL     1       3.564   6.920 -12.059  1.00  0.00     0.031 A 
ATOM     57  C   UNL     1      -2.029   9.525  -9.292  1.00  0.00     0.049 A 
ATOM     58  C   UNL     1       2.388   7.707 -12.489  1.00  0.00     0.074 A 
ATOM     59  C   UNL     1      -3.067   8.627  -9.159  1.00  0.00     0.029 A 
ATOM     60  N   UNL     1      -1.696   9.509 -10.627  1.00  0.00    -0.354 N 
ATOM     61  N   UNL     1       1.252   7.155 -12.825  1.00  0.00    -0.248 NA
ATOM     62  C   UNL     1       2.312   9.112 -12.131  1.00  0.00     0.031 C 
ATOM     63  C   UNL     1      -2.929   7.753 -10.280  1.00  0.00     0.029 A 
ATOM     64  C   UNL     1      -1.860   8.216 -11.052  1.00  0.00     0.049 A 
ATOM     65  H   UNL     1      -1.399  10.275 -11.169  1.00  0.00     0.167 HD
ATOM     66  C   UNL     1       0.276   8.002 -12.322  1.00  0.00     0.074 A 
ATOM     67  C   UNL     1       0.987   9.241 -12.008  1.00  0.00     0.031 C 
ATOM     68  C   UNL     1      -0.963   7.540 -11.969  1.00  0.00     0.031 A 
BRANCH  55  69
ATOM     69  C   UNL     1      -0.908  11.671  -8.456  1.00  0.00    -0.014 A 
ATOM     70  C   UNL     1      -1.901  12.467  -9.077  1.00  0.00     0.010 A 
ATOM     71  C   UNL     1       0.318  12.300  -8.173  1.00  0.00     0.010 A 
ATOM     72  C   UNL     1      -1.651  13.790  -9.470  1.00  0.00     0.020 A 
ATOM     73  C   UNL     1       0.565  13.635  -8.526  1.00  0.00     0.020 A 
ATOM     74  C   UNL     1      -0.407  14.359  -9.209  1.00  0.00     0.054 A 
BRANCH  74  75
ATOM     75  S   UNL     1      -0.044  16.020  -9.842  1.00  0.00     0.124 S 
ATOM     76  O   UNL     1      -0.046  15.799 -11.285  1.00  0.00    -0.237 OA
ATOM     77  O   UNL     1      -1.160  16.805  -9.322  1.00  0.00    -0.237 OA
ATOM     78  O   UNL     1       1.258  16.332  -9.258  1.00  0.00    -0.744 OA
ENDBRANCH  74  75
ENDBRANCH  55  69
BRANCH  56  79
ATOM     79  C   UNL     1       4.941   7.095 -12.557  1.00  0.00    -0.014 A 
ATOM     80  C   UNL     1       5.199   7.417 -13.897  1.00  0.00     0.010 A 
ATOM     81  C   UNL     1       6.005   7.190 -11.631  1.00  0.00     0.010 A 
ATOM     82  C   UNL     1       6.466   7.876 -14.289  1.00  0.00     0.020 A 
ATOM     83  C   UNL     1       7.269   7.646 -12.015  1.00  0.00     0.020 A 
ATOM     84  C   UNL     1       7.486   8.010 -13.341  1.00  0.00     0.054 A 
BRANCH  84  85
ATOM     85  S   UNL     1       9.056   8.784 -13.826  1.00  0.00     0.124 S 
ATOM     86  O   UNL     1       9.657   7.758 -14.673  1.00  0.00    -0.237 OA
ATOM     87  O   UNL     1       8.612   9.993 -14.514  1.00  0.00    -0.237 OA
ATOM     88  O   UNL     1       9.735   9.014 -12.552  1.00  0.00    -0.744 OA
ENDBRANCH  84  85
ENDBRANCH  56  79
BRANCH  68  89
ATOM     89  C   UNL     1      -1.337   6.114 -12.322  1.00  0.00    -0.014 A 
ATOM     90  C   UNL     1      -0.664   4.990 -11.803  1.00  0.00     0.010 A 
ATOM     91  C   UNL     1      -2.527   5.900 -13.040  1.00  0.00     0.010 A 
ATOM     92  C   UNL     1      -1.158   3.692 -12.007  1.00  0.00     0.020 A 
ATOM     93  C   UNL     1      -3.034   4.611 -13.235  1.00  0.00     0.020 A 
ATOM     94  C   UNL     1      -2.344   3.511 -12.722  1.00  0.00     0.054 A 
BRANCH  94  95
ATOM     95  S   UNL     1      -3.014   1.836 -12.929  1.00  0.00     0.124 S 
ATOM     96  O   UNL     1      -2.061   1.225 -13.851  1.00  0.00    -0.237 OA
ATOM     97  O   UNL     1      -2.999   1.306 -11.568  1.00  0.00    -0.237 OA
ATOM     98  O   UNL     1      -4.350   2.061 -13.481  1.00  0.00    -0.744 OA
ENDBRANCH  94  95
ENDBRANCH  68  89
ENDBRANCH  42  43
ENDBRANCH  35  37
ENDBRANCH  34  35
ENDBRANCH  33  34
ENDBRANCH   1  33
TORSDOF 19
