REMARK SMILES C[C@H]1SC[C@H](C(=O)OCCOC(=O)c2ccc(-c3c4nc(c(-c5ccc(S(=O)(=O)[O-])cc5)c5ccc([nH]5)c(-c5ccc(S(=O)(=O)[O-])cc5)c5nc(c(-c6ccc(S(=O)(=O)[O-])cc6)c6ccc3[nH]6)C=C5)C=C4)cc2)N1C(=O)[C@@H]1CSc2ccccc21
REMARK SMILES IDX 10 1 9 2 8 3 6 4 7 5 5 6 1 7 2 8 3 9 74 10 4 11 75 12 76 13
REMARK SMILES IDX 77 14 78 15 85 16 79 17 80 18 84 19 81 20 83 21 82 22 11 23
REMARK SMILES IDX 12 24 13 25 14 26 15 27 73 28 16 29 72 30 17 31 18 32 19 33
REMARK SMILES IDX 66 34 20 35 71 36 65 37 67 38 21 39 70 40 64 41 63 42 22 44
REMARK SMILES IDX 52 45 33 46 51 47 34 48 37 49 50 50 68 51 35 52 36 53 49 55
REMARK SMILES IDX 69 56 38 57 23 58 24 59 32 60 25 61 31 62 26 63 27 64 28 65
REMARK SMILES IDX 29 66 30 67 53 68 54 69 62 70 55 71 61 72 56 73 57 74 58 75
REMARK SMILES IDX 59 76 60 77 39 78 40 79 48 80 41 81 47 82 42 83 43 84 44 85
REMARK SMILES IDX 45 86 46 87
REMARK H PARENT 67 43 37 54
REMARK Flexibility Score: inf
ROOT
ATOM      1  C   UNL     1      -4.987  -8.115   1.481  1.00  0.00     0.275 C 
ENDROOT
BRANCH   1   2
ATOM      2  C   UNL     1      -3.916  -7.427   0.623  1.00  0.00     0.274 C 
BRANCH   2   3
ATOM      3  O   UNL     1      -2.982  -6.678   1.424  1.00  0.00    -0.461 OA
BRANCH   3   4
ATOM      4  C   UNL     1      -3.313  -5.371   1.617  1.00  0.00     0.329 C 
ATOM      5  O   UNL     1      -4.286  -4.833   1.097  1.00  0.00    -0.250 OA
BRANCH   4   6
ATOM      6  C   UNL     1      -2.393  -4.650   2.622  1.00  0.00     0.206 C 
ATOM      7  C   UNL     1      -1.340  -2.120   4.147  1.00  0.00     0.043 C 
ATOM      8  C   UNL     1      -0.607  -3.216   3.367  1.00  0.00     0.141 C 
ATOM      9  S   UNL     1      -0.435  -4.667   4.449  1.00  0.00    -0.135 SA
ATOM     10  N   UNL     1      -1.367  -3.675   2.208  1.00  0.00    -0.316 N 
ATOM     11  C   UNL     1      -1.715  -5.626   3.590  1.00  0.00     0.109 C 
BRANCH  10  12
ATOM     12  C   UNL     1      -1.382  -3.076   0.962  1.00  0.00     0.232 C 
ATOM     13  O   UNL     1      -2.303  -3.280   0.168  1.00  0.00    -0.274 OA
BRANCH  12  14
ATOM     14  C   UNL     1      -0.197  -2.256   0.449  1.00  0.00     0.120 C 
ATOM     15  C   UNL     1       1.095  -3.087   0.416  1.00  0.00     0.093 C 
ATOM     16  C   UNL     1       0.058  -0.954   1.154  1.00  0.00    -0.021 A 
ATOM     17  S   UNL     1       2.408  -2.171   1.288  1.00  0.00    -0.125 SA
ATOM     18  C   UNL     1       1.343  -0.814   1.677  1.00  0.00     0.011 A 
ATOM     19  C   UNL     1      -0.874   0.073   1.294  1.00  0.00     0.006 A 
ATOM     20  C   UNL     1       1.685   0.293   2.438  1.00  0.00     0.015 A 
ATOM     21  C   UNL     1      -0.530   1.200   2.041  1.00  0.00     0.000 A 
ATOM     22  C   UNL     1       0.736   1.299   2.630  1.00  0.00     0.001 A 
ENDBRANCH  12  14
ENDBRANCH  10  12
ENDBRANCH   4   6
ENDBRANCH   3   4
ENDBRANCH   2   3
ENDBRANCH   1   2
BRANCH   1  23
ATOM     23  O   UNL     1      -5.852  -7.178   2.153  1.00  0.00    -0.458 OA
BRANCH  23  24
ATOM     24  C   UNL     1      -5.511  -6.887   3.428  1.00  0.00     0.338 C 
ATOM     25  O   UNL     1      -4.553  -7.327   4.049  1.00  0.00    -0.246 OA
BRANCH  24  26
ATOM     26  C   UNL     1      -6.389  -5.847   3.982  1.00  0.00     0.060 A 
ATOM     27  C   UNL     1      -5.949  -4.523   3.965  1.00  0.00     0.016 A 
ATOM     28  C   UNL     1      -7.571  -6.181   4.640  1.00  0.00     0.016 A 
ATOM     29  C   UNL     1      -6.655  -3.530   4.631  1.00  0.00     0.010 A 
ATOM     30  C   UNL     1      -8.315  -5.171   5.263  1.00  0.00     0.010 A 
ATOM     31  C   UNL     1      -7.857  -3.840   5.272  1.00  0.00    -0.014 A 
BRANCH  31  32
ATOM     32  C   UNL     1      -8.637  -2.767   5.936  1.00  0.00     0.031 A 
ATOM     33  C   UNL     1      -8.835  -2.789   7.424  1.00  0.00     0.074 A 
ATOM     34  C   UNL     1      -9.174  -1.778   5.195  1.00  0.00     0.049 A 
ATOM     35  N   UNL     1      -9.632  -2.058   8.158  1.00  0.00    -0.248 NA
ATOM     36  C   UNL     1      -8.036  -3.763   8.187  1.00  0.00     0.031 C 
ATOM     37  C   UNL     1      -9.002  -1.611   3.749  1.00  0.00     0.029 A 
ATOM     38  N   UNL     1      -9.988  -0.732   5.553  1.00  0.00    -0.354 N 
ATOM     39  C   UNL     1      -9.473  -2.515   9.461  1.00  0.00     0.074 A 
ATOM     40  C   UNL     1      -8.492  -3.579   9.419  1.00  0.00     0.031 C 
ATOM     41  C   UNL     1      -9.689  -0.531   3.345  1.00  0.00     0.029 A 
ATOM     42  C   UNL     1     -10.411   0.022   4.485  1.00  0.00     0.049 A 
ATOM     43  H   UNL     1     -10.243  -0.541   6.485  1.00  0.00     0.167 HD
ATOM     44  C   UNL     1     -10.101  -2.092  10.583  1.00  0.00     0.031 A 
ATOM     45  C   UNL     1     -11.325   1.009   4.414  1.00  0.00     0.031 A 
ATOM     46  C   UNL     1     -11.055  -1.016  10.615  1.00  0.00     0.049 A 
ATOM     47  C   UNL     1     -12.056   1.415   5.662  1.00  0.00     0.074 A 
ATOM     48  C   UNL     1     -11.722  -0.490  11.708  1.00  0.00     0.029 A 
ATOM     49  N   UNL     1     -11.477  -0.300   9.505  1.00  0.00    -0.354 N 
ATOM     50  N   UNL     1     -11.909   0.963   6.884  1.00  0.00    -0.248 NA
ATOM     51  C   UNL     1     -13.090   2.449   5.518  1.00  0.00     0.031 C 
ATOM     52  C   UNL     1     -12.585   0.512  11.251  1.00  0.00     0.029 A 
ATOM     53  C   UNL     1     -12.421   0.640   9.881  1.00  0.00     0.049 A 
ATOM     54  H   UNL     1     -11.154  -0.440   8.586  1.00  0.00     0.167 HD
ATOM     55  C   UNL     1     -12.831   1.658   7.656  1.00  0.00     0.074 A 
ATOM     56  C   UNL     1     -13.515   2.577   6.769  1.00  0.00     0.031 C 
ATOM     57  C   UNL     1     -13.092   1.541   8.980  1.00  0.00     0.031 A 
BRANCH  44  58
ATOM     58  C   UNL     1      -9.821  -2.831  11.863  1.00  0.00    -0.014 A 
ATOM     59  C   UNL     1      -8.627  -2.639  12.578  1.00  0.00     0.010 A 
ATOM     60  C   UNL     1     -10.803  -3.695  12.383  1.00  0.00     0.010 A 
ATOM     61  C   UNL     1      -8.408  -3.320  13.779  1.00  0.00     0.020 A 
ATOM     62  C   UNL     1     -10.595  -4.363  13.593  1.00  0.00     0.020 A 
ATOM     63  C   UNL     1      -9.392  -4.182  14.276  1.00  0.00     0.054 A 
BRANCH  63  64
ATOM     64  S   UNL     1      -9.096  -5.034  15.851  1.00  0.00     0.124 S 
ATOM     65  O   UNL     1      -8.152  -6.076  15.456  1.00  0.00    -0.237 OA
ATOM     66  O   UNL     1      -8.545  -3.974  16.692  1.00  0.00    -0.237 OA
ATOM     67  O   UNL     1     -10.421  -5.510  16.242  1.00  0.00    -0.744 OA
ENDBRANCH  63  64
ENDBRANCH  44  58
BRANCH  45  68
ATOM     68  C   UNL     1     -11.660   1.614   3.097  1.00  0.00    -0.014 A 
ATOM     69  C   UNL     1     -11.282   2.933   2.795  1.00  0.00     0.010 A 
ATOM     70  C   UNL     1     -12.350   0.859   2.130  1.00  0.00     0.010 A 
ATOM     71  C   UNL     1     -11.597   3.489   1.551  1.00  0.00     0.020 A 
ATOM     72  C   UNL     1     -12.643   1.403   0.877  1.00  0.00     0.020 A 
ATOM     73  C   UNL     1     -12.276   2.720   0.600  1.00  0.00     0.054 A 
BRANCH  73  74
ATOM     74  S   UNL     1     -12.628   3.439  -1.028  1.00  0.00     0.124 S 
ATOM     75  O   UNL     1     -13.795   4.269  -0.745  1.00  0.00    -0.237 OA
ATOM     76  O   UNL     1     -11.396   4.163  -1.332  1.00  0.00    -0.237 OA
ATOM     77  O   UNL     1     -12.877   2.270  -1.869  1.00  0.00    -0.744 OA
ENDBRANCH  73  74
ENDBRANCH  45  68
BRANCH  57  78
ATOM     78  C   UNL     1     -14.154   2.436   9.553  1.00  0.00    -0.014 A 
ATOM     79  C   UNL     1     -15.516   2.151   9.356  1.00  0.00     0.010 A 
ATOM     80  C   UNL     1     -13.785   3.532  10.353  1.00  0.00     0.010 A 
ATOM     81  C   UNL     1     -16.495   2.959   9.940  1.00  0.00     0.020 A 
ATOM     82  C   UNL     1     -14.762   4.329  10.955  1.00  0.00     0.020 A 
ATOM     83  C   UNL     1     -16.111   4.042  10.737  1.00  0.00     0.054 A 
BRANCH  83  84
ATOM     84  S   UNL     1     -17.398   5.037  11.539  1.00  0.00     0.124 S 
ATOM     85  O   UNL     1     -17.881   5.858  10.432  1.00  0.00    -0.237 OA
ATOM     86  O   UNL     1     -18.333   4.026  12.026  1.00  0.00    -0.237 OA
ATOM     87  O   UNL     1     -16.674   5.761  12.583  1.00  0.00    -0.744 OA
ENDBRANCH  83  84
ENDBRANCH  57  78
ENDBRANCH  31  32
ENDBRANCH  24  26
ENDBRANCH  23  24
ENDBRANCH   1  23
TORSDOF 16
