REMARK SMILES Cc1cccc(-n2ncc(C(=O)Nc3cccc(C(=O)OCCOC(=O)c4ccc(-c5c6nc(c(-c7ccc(S(=O)(=O)[O-])cc7)c7ccc([nH]7)c(-c7ccc(S(=O)(=O)[O-])cc7)c7nc(c(-c8ccc(S(=O)(=O)[O-])cc8)c8ccc5[nH]8)C=C7)C=C6)cc4)c3C)c2C)c1
REMARK SMILES IDX 22 1 21 2 19 3 20 4 18 5 14 6 15 7 87 8 16 9 88 10 17 11
REMARK SMILES IDX 13 12 11 13 12 14 10 16 7 17 8 18 89 19 9 20 90 21 6 22 1 23
REMARK SMILES IDX 2 24 3 25 91 26 4 27 5 28 23 29 24 30 25 31 26 32 27 33
REMARK SMILES IDX 28 34 86 35 29 36 85 37 30 38 31 39 32 40 79 41 33 42 84 43
REMARK SMILES IDX 78 44 80 45 34 46 83 47 77 48 76 49 35 51 65 52 46 53 64 54
REMARK SMILES IDX 47 55 50 56 63 57 81 58 48 59 49 60 62 62 82 63 51 64 36 65
REMARK SMILES IDX 37 66 45 67 38 68 44 69 39 70 40 71 41 72 42 73 43 74 66 75
REMARK SMILES IDX 67 76 75 77 68 78 74 79 69 80 70 81 71 82 72 83 73 84 52 85
REMARK SMILES IDX 53 86 61 87 54 88 60 89 55 90 56 91 57 92 58 93 59 94
REMARK H PARENT 13 15 80 50 50 61
REMARK Flexibility Score: inf
ROOT
ATOM      1  C   UNL     1      -3.531  11.243  -4.401  1.00  0.00     0.275 C 
ENDROOT
BRANCH   1   2
ATOM      2  O   UNL     1      -3.498   9.993  -3.674  1.00  0.00    -0.458 OA
BRANCH   2   3
ATOM      3  C   UNL     1      -4.670   9.421  -3.328  1.00  0.00     0.338 C 
ATOM      4  O   UNL     1      -5.794   9.865  -3.578  1.00  0.00    -0.246 OA
BRANCH   3   5
ATOM      5  C   UNL     1      -4.417   8.060  -2.792  1.00  0.00     0.065 A 
ATOM      6  C   UNL     1      -4.521   6.273  -1.133  1.00  0.00     0.045 A 
ATOM      7  C   UNL     1      -4.099   5.371  -2.117  1.00  0.00     0.026 A 
ATOM      8  C   UNL     1      -4.774   7.623  -1.491  1.00  0.00    -0.013 A 
ATOM      9  C   UNL     1      -3.753   5.808  -3.392  1.00  0.00     0.003 A 
ATOM     10  C   UNL     1      -5.388   8.560  -0.481  1.00  0.00     0.047 C 
ATOM     11  C   UNL     1      -3.878   7.152  -3.718  1.00  0.00     0.016 A 
BRANCH   6  12
ATOM     12  N   UNL     1      -4.755   5.847   0.195  1.00  0.00    -0.322 N 
ATOM     13  C   UNL     1      -4.324   4.754   0.920  1.00  0.00     0.259 C 
ATOM     14  O   UNL     1      -4.966   4.455   1.930  1.00  0.00    -0.269 OA
ATOM     15  H   UNL     1      -5.343   6.451   0.704  1.00  0.00     0.170 HD
BRANCH  13  16
ATOM     16  C   UNL     1      -3.118   4.016   0.553  1.00  0.00     0.081 A 
ATOM     17  N   UNL     1      -1.596   2.401   0.315  1.00  0.00    -0.237 N 
ATOM     18  N   UNL     1      -1.056   3.487  -0.288  1.00  0.00    -0.175 NA
ATOM     19  C   UNL     1      -2.764   2.738   0.988  1.00  0.00     0.054 A 
ATOM     20  C   UNL     1      -1.971   4.442  -0.147  1.00  0.00     0.149 A 
ATOM     21  C   UNL     1      -3.383   1.915   2.065  1.00  0.00     0.068 C 
BRANCH  17  22
ATOM     22  C   UNL     1      -0.950   1.140   0.192  1.00  0.00     0.065 A 
ATOM     23  C   UNL     1       2.615  -0.158  -0.162  1.00  0.00     0.044 C 
ATOM     24  C   UNL     1       1.118  -0.119  -0.064  1.00  0.00    -0.049 A 
ATOM     25  C   UNL     1       0.385  -1.310  -0.010  1.00  0.00     0.003 A 
ATOM     26  C   UNL     1       0.440   1.105   0.007  1.00  0.00     0.031 A 
ATOM     27  C   UNL     1      -1.005  -1.280   0.122  1.00  0.00     0.002 A 
ATOM     28  C   UNL     1      -1.674  -0.058   0.229  1.00  0.00     0.028 A 
ENDBRANCH  17  22
ENDBRANCH  13  16
ENDBRANCH   6  12
ENDBRANCH   3   5
ENDBRANCH   2   3
ENDBRANCH   1   2
BRANCH   1  29
ATOM     29  C   UNL     1      -4.059  12.479  -3.633  1.00  0.00     0.275 C 
BRANCH  29  30
ATOM     30  O   UNL     1      -3.274  12.820  -2.484  1.00  0.00    -0.458 OA
BRANCH  30  31
ATOM     31  C   UNL     1      -3.391  11.921  -1.489  1.00  0.00     0.338 C 
ATOM     32  O   UNL     1      -4.463  11.496  -1.027  1.00  0.00    -0.246 OA
BRANCH  31  33
ATOM     33  C   UNL     1      -2.136  11.167  -1.409  1.00  0.00     0.060 A 
ATOM     34  C   UNL     1      -2.055  10.013  -0.614  1.00  0.00     0.016 A 
ATOM     35  C   UNL     1      -1.148  11.461  -2.364  1.00  0.00     0.016 A 
ATOM     36  C   UNL     1      -0.947   9.194  -0.721  1.00  0.00     0.010 A 
ATOM     37  C   UNL     1      -0.156  10.564  -2.611  1.00  0.00     0.010 A 
ATOM     38  C   UNL     1       0.004   9.535  -1.687  1.00  0.00    -0.014 A 
BRANCH  38  39
ATOM     39  C   UNL     1       1.411   9.301  -1.459  1.00  0.00     0.031 A 
ATOM     40  C   UNL     1       2.035   8.158  -2.099  1.00  0.00     0.074 A 
ATOM     41  C   UNL     1       1.985  10.308  -0.762  1.00  0.00     0.049 A 
ATOM     42  N   UNL     1       2.870   7.369  -1.526  1.00  0.00    -0.248 NA
ATOM     43  C   UNL     1       1.670   7.745  -3.455  1.00  0.00     0.031 C 
ATOM     44  C   UNL     1       3.363  10.638  -0.471  1.00  0.00     0.029 A 
ATOM     45  N   UNL     1       1.282  11.252  -0.020  1.00  0.00    -0.354 N 
ATOM     46  C   UNL     1       3.486   6.717  -2.569  1.00  0.00     0.074 A 
ATOM     47  C   UNL     1       2.538   6.752  -3.659  1.00  0.00     0.031 C 
ATOM     48  C   UNL     1       3.374  11.476   0.593  1.00  0.00     0.029 A 
ATOM     49  C   UNL     1       2.002  11.637   1.090  1.00  0.00     0.049 A 
ATOM     50  H   UNL     1       0.390  11.598  -0.256  1.00  0.00     0.167 HD
ATOM     51  C   UNL     1       4.845   6.577  -2.551  1.00  0.00     0.031 A 
ATOM     52  C   UNL     1       1.511  11.184   2.287  1.00  0.00     0.031 A 
ATOM     53  C   UNL     1       5.421   7.208  -1.346  1.00  0.00     0.049 A 
ATOM     54  C   UNL     1       2.264   9.940   2.753  1.00  0.00     0.074 A 
ATOM     55  C   UNL     1       6.198   8.335  -1.120  1.00  0.00     0.029 A 
ATOM     56  N   UNL     1       4.886   6.887  -0.101  1.00  0.00    -0.354 N 
ATOM     57  N   UNL     1       3.183   9.339   2.040  1.00  0.00    -0.248 NA
ATOM     58  C   UNL     1       2.058   9.268   4.034  1.00  0.00     0.031 C 
ATOM     59  C   UNL     1       6.090   8.693   0.264  1.00  0.00     0.029 A 
ATOM     60  C   UNL     1       5.246   7.790   0.882  1.00  0.00     0.049 A 
ATOM     61  H   UNL     1       4.313   6.102   0.061  1.00  0.00     0.167 HD
ATOM     62  C   UNL     1       3.728   8.297   2.728  1.00  0.00     0.074 A 
ATOM     63  C   UNL     1       2.963   8.271   3.966  1.00  0.00     0.031 C 
ATOM     64  C   UNL     1       4.767   7.550   2.243  1.00  0.00     0.031 A 
BRANCH  51  65
ATOM     65  C   UNL     1       5.607   6.224  -3.814  1.00  0.00    -0.014 A 
ATOM     66  C   UNL     1       6.920   6.686  -4.015  1.00  0.00     0.010 A 
ATOM     67  C   UNL     1       5.059   5.449  -4.861  1.00  0.00     0.010 A 
ATOM     68  C   UNL     1       7.602   6.484  -5.228  1.00  0.00     0.020 A 
ATOM     69  C   UNL     1       5.704   5.283  -6.096  1.00  0.00     0.020 A 
ATOM     70  C   UNL     1       6.978   5.807  -6.273  1.00  0.00     0.054 A 
BRANCH  70  71
ATOM     71  S   UNL     1       7.853   5.598  -7.847  1.00  0.00     0.124 S 
ATOM     72  O   UNL     1       8.255   6.964  -8.173  1.00  0.00    -0.237 OA
ATOM     73  O   UNL     1       8.937   4.691  -7.480  1.00  0.00    -0.237 OA
ATOM     74  O   UNL     1       6.839   5.028  -8.734  1.00  0.00    -0.744 OA
ENDBRANCH  70  71
ENDBRANCH  51  65
BRANCH  52  75
ATOM     75  C   UNL     1       0.059  11.551   2.533  1.00  0.00    -0.014 A 
ATOM     76  C   UNL     1      -0.298  12.916   2.361  1.00  0.00     0.010 A 
ATOM     77  C   UNL     1      -1.000  10.644   2.720  1.00  0.00     0.010 A 
ATOM     78  C   UNL     1      -1.631  13.345   2.281  1.00  0.00     0.020 A 
ATOM     79  C   UNL     1      -2.352  11.075   2.668  1.00  0.00     0.020 A 
ATOM     80  C   UNL     1      -2.657  12.419   2.424  1.00  0.00     0.054 A 
BRANCH  80  81
ATOM     81  S   UNL     1      -4.371  12.995   2.169  1.00  0.00     0.124 S 
ATOM     82  O   UNL     1      -4.623  13.755   3.389  1.00  0.00    -0.237 OA
ATOM     83  O   UNL     1      -4.248  13.800   0.956  1.00  0.00    -0.237 OA
ATOM     84  O   UNL     1      -5.129  11.752   2.045  1.00  0.00    -0.744 OA
ENDBRANCH  80  81
ENDBRANCH  52  75
BRANCH  64  85
ATOM     85  C   UNL     1       5.450   6.459   3.024  1.00  0.00    -0.014 A 
ATOM     86  C   UNL     1       5.671   6.528   4.405  1.00  0.00     0.010 A 
ATOM     87  C   UNL     1       6.022   5.367   2.331  1.00  0.00     0.010 A 
ATOM     88  C   UNL     1       6.351   5.502   5.074  1.00  0.00     0.020 A 
ATOM     89  C   UNL     1       6.722   4.356   2.979  1.00  0.00     0.020 A 
ATOM     90  C   UNL     1       6.857   4.415   4.356  1.00  0.00     0.054 A 
BRANCH  90  91
ATOM     91  S   UNL     1       7.729   3.095   5.227  1.00  0.00     0.124 S 
ATOM     92  O   UNL     1       8.612   3.835   6.125  1.00  0.00    -0.237 OA
ATOM     93  O   UNL     1       6.628   2.383   5.870  1.00  0.00    -0.237 OA
ATOM     94  O   UNL     1       8.408   2.362   4.160  1.00  0.00    -0.744 OA
ENDBRANCH  90  91
ENDBRANCH  64  85
ENDBRANCH  38  39
ENDBRANCH  31  33
ENDBRANCH  30  31
ENDBRANCH  29  30
ENDBRANCH   1  29
TORSDOF 17
