REMARK SMILES O=C(COc1cccc(/C=C2\SC(=O)N(c3cccc(Cl)c3)C2=O)c1)OCCOC(=O)c1ccc(-c2c3nc(c(-c4ccc(S(=O)(=O)[O-])cc4)c4ccc([nH]4)c(-c4ccc(S(=O)(=O)[O-])cc4)c4nc(c(-c5ccc(S(=O)(=O)[O-])cc5)c5ccc2[nH]5)C=C4)C=C3)cc1
REMARK SMILES IDX 27 1 26 2 2 3 1 4 3 5 4 6 5 7 6 8 25 9 7 10 9 11 8 12 10 13
REMARK SMILES IDX 11 14 12 15 23 16 13 17 15 18 24 19 14 20 16 21 17 22 22 23
REMARK SMILES IDX 18 24 20 25 19 26 21 27 28 28 29 29 30 30 31 31 32 32 33 33
REMARK SMILES IDX 91 34 34 35 90 36 35 37 36 38 37 39 84 40 38 41 89 42 83 43
REMARK SMILES IDX 85 44 39 45 88 46 82 47 81 48 40 50 70 51 51 52 69 53 52 54
REMARK SMILES IDX 55 55 68 56 86 57 53 58 54 59 67 61 87 62 56 63 41 64 42 65
REMARK SMILES IDX 50 66 43 67 49 68 44 69 45 70 46 71 47 72 48 73 71 74 72 75
REMARK SMILES IDX 80 76 73 77 79 78 74 79 75 80 76 81 77 82 78 83 57 84 58 85
REMARK SMILES IDX 66 86 59 87 65 88 60 89 61 90 62 91 63 92 64 93
REMARK H PARENT 85 49 55 60
REMARK Flexibility Score: inf
ROOT
ATOM      1  C   UNL     1       4.579  -0.597  -0.793  1.00  0.00     0.274 C 
ENDROOT
BRANCH   1   2
ATOM      2  O   UNL     1       3.207  -0.872  -0.457  1.00  0.00    -0.460 OA
BRANCH   2   3
ATOM      3  C   UNL     1       2.447  -0.041   0.293  1.00  0.00     0.344 C 
ATOM      4  O   UNL     1       1.221  -0.145   0.262  1.00  0.00    -0.248 OA
BRANCH   3   5
ATOM      5  C   UNL     1       3.138   0.959   1.235  1.00  0.00     0.351 C 
BRANCH   5   6
ATOM      6  O   UNL     1       4.044   0.486   2.223  1.00  0.00    -0.482 OA
BRANCH   6   7
ATOM      7  C   UNL     1       3.415  -0.057   3.308  1.00  0.00     0.120 A 
ATOM      8  C   UNL     1       3.806   0.339   4.579  1.00  0.00     0.046 A 
ATOM      9  C   UNL     1       2.458  -1.050   3.171  1.00  0.00     0.054 A 
ATOM     10  C   UNL     1       3.197  -0.239   5.699  1.00  0.00     0.004 A 
ATOM     11  C   UNL     1       1.880  -1.679   4.275  1.00  0.00    -0.021 A 
ATOM     12  C   UNL     1       2.231  -1.245   5.550  1.00  0.00     0.008 A 
BRANCH  11  13
ATOM     13  C   UNL     1       0.902  -2.741   4.003  1.00  0.00     0.029 C 
ATOM     14  C   UNL     1       1.133  -3.778   3.179  1.00  0.00     0.083 C 
ATOM     15  S   UNL     1       2.636  -4.232   2.462  1.00  0.00    -0.022 SA
ATOM     16  C   UNL     1       0.060  -4.713   2.745  1.00  0.00     0.272 C 
ATOM     17  C   UNL     1       1.930  -5.577   1.604  1.00  0.00     0.298 C 
ATOM     18  N   UNL     1       0.592  -5.684   1.907  1.00  0.00    -0.236 N 
ATOM     19  O   UNL     1      -1.093  -4.622   3.146  1.00  0.00    -0.268 OA
ATOM     20  O   UNL     1       2.598  -6.264   0.841  1.00  0.00    -0.260 OA
BRANCH  18  21
ATOM     21  C   UNL     1      -0.185  -6.779   1.445  1.00  0.00     0.054 A 
ATOM     22  C   UNL     1      -1.508  -6.606   1.019  1.00  0.00     0.027 A 
ATOM     23  C   UNL     1       0.357  -8.072   1.474  1.00  0.00     0.047 A 
ATOM     24  C   UNL     1      -2.278  -7.706   0.635  1.00  0.00     0.004 A 
ATOM     25  C   UNL     1      -0.431  -9.169   1.134  1.00  0.00     0.043 A 
ATOM     26  C   UNL     1      -1.744  -8.992   0.710  1.00  0.00     0.020 A 
ATOM     27  Cl  UNL     1       0.216 -10.757   1.285  1.00  0.00    -0.084 Cl
ENDBRANCH  18  21
ENDBRANCH  11  13
ENDBRANCH   6   7
ENDBRANCH   5   6
ENDBRANCH   3   5
ENDBRANCH   2   3
ENDBRANCH   1   2
BRANCH   1  28
ATOM     28  C   UNL     1       4.669   0.294  -2.036  1.00  0.00     0.275 C 
BRANCH  28  29
ATOM     29  O   UNL     1       4.147   1.608  -1.753  1.00  0.00    -0.458 OA
BRANCH  29  30
ATOM     30  C   UNL     1       2.869   1.849  -2.154  1.00  0.00     0.338 C 
ATOM     31  O   UNL     1       2.175   1.119  -2.837  1.00  0.00    -0.246 OA
BRANCH  30  32
ATOM     32  C   UNL     1       2.365   3.041  -1.428  1.00  0.00     0.060 A 
ATOM     33  C   UNL     1       1.091   2.980  -0.847  1.00  0.00     0.016 A 
ATOM     34  C   UNL     1       3.153   4.184  -1.259  1.00  0.00     0.016 A 
ATOM     35  C   UNL     1       0.600   4.062  -0.109  1.00  0.00     0.010 A 
ATOM     36  C   UNL     1       2.654   5.272  -0.532  1.00  0.00     0.010 A 
ATOM     37  C   UNL     1       1.366   5.228   0.031  1.00  0.00    -0.014 A 
BRANCH  37  38
ATOM     38  C   UNL     1       0.764   6.445   0.637  1.00  0.00     0.031 A 
ATOM     39  C   UNL     1       0.231   7.521  -0.274  1.00  0.00     0.074 A 
ATOM     40  C   UNL     1       0.660   6.590   1.972  1.00  0.00     0.049 A 
ATOM     41  N   UNL     1      -0.348   8.654   0.032  1.00  0.00    -0.248 NA
ATOM     42  C   UNL     1       0.370   7.287  -1.721  1.00  0.00     0.031 C 
ATOM     43  C   UNL     1       1.109   5.620   2.970  1.00  0.00     0.029 A 
ATOM     44  N   UNL     1       0.139   7.621   2.719  1.00  0.00    -0.354 N 
ATOM     45  C   UNL     1      -0.654   9.262  -1.180  1.00  0.00     0.074 A 
ATOM     46  C   UNL     1      -0.155   8.395  -2.226  1.00  0.00     0.031 C 
ATOM     47  C   UNL     1       0.846   6.103   4.198  1.00  0.00     0.029 A 
ATOM     48  C   UNL     1       0.234   7.426   4.078  1.00  0.00     0.049 A 
ATOM     49  H   UNL     1      -0.264   8.424   2.319  1.00  0.00     0.167 HD
ATOM     50  C   UNL     1      -1.306  10.427  -1.408  1.00  0.00     0.031 A 
ATOM     51  C   UNL     1      -0.121   8.225   5.106  1.00  0.00     0.031 A 
ATOM     52  C   UNL     1      -1.785  11.307  -0.375  1.00  0.00     0.049 A 
ATOM     53  C   UNL     1      -0.771   9.559   4.823  1.00  0.00     0.074 A 
ATOM     54  C   UNL     1      -2.463  12.506  -0.515  1.00  0.00     0.029 A 
ATOM     55  N   UNL     1      -1.634  11.092   0.986  1.00  0.00    -0.354 N 
ATOM     56  N   UNL     1      -1.092  10.095   3.670  1.00  0.00    -0.248 NA
ATOM     57  C   UNL     1      -1.119  10.389   5.987  1.00  0.00     0.031 C 
ATOM     58  C   UNL     1      -2.666  13.047   0.759  1.00  0.00     0.029 A 
ATOM     59  C   UNL     1      -2.179  12.150   1.695  1.00  0.00     0.049 A 
ATOM     60  H   UNL     1      -1.204  10.304   1.389  1.00  0.00     0.167 HD
ATOM     61  C   UNL     1      -1.708  11.308   3.973  1.00  0.00     0.074 A 
ATOM     62  C   UNL     1      -1.737  11.413   5.416  1.00  0.00     0.031 C 
ATOM     63  C   UNL     1      -2.203  12.251   3.132  1.00  0.00     0.031 A 
BRANCH  50  64
ATOM     64  C   UNL     1      -1.530  10.832  -2.841  1.00  0.00    -0.014 A 
ATOM     65  C   UNL     1      -2.459  10.152  -3.648  1.00  0.00     0.010 A 
ATOM     66  C   UNL     1      -0.857  11.951  -3.365  1.00  0.00     0.010 A 
ATOM     67  C   UNL     1      -2.696  10.570  -4.960  1.00  0.00     0.020 A 
ATOM     68  C   UNL     1      -1.111  12.390  -4.667  1.00  0.00     0.020 A 
ATOM     69  C   UNL     1      -2.023  11.690  -5.460  1.00  0.00     0.054 A 
BRANCH  69  70
ATOM     70  S   UNL     1      -2.392  12.241  -7.148  1.00  0.00     0.124 S 
ATOM     71  O   UNL     1      -1.796  11.174  -7.950  1.00  0.00    -0.237 OA
ATOM     72  O   UNL     1      -3.851  12.291  -7.155  1.00  0.00    -0.237 OA
ATOM     73  O   UNL     1      -1.724  13.537  -7.245  1.00  0.00    -0.744 OA
ENDBRANCH  69  70
ENDBRANCH  50  64
BRANCH  51  74
ATOM     74  C   UNL     1       0.149   7.811   6.515  1.00  0.00    -0.014 A 
ATOM     75  C   UNL     1      -0.905   7.565   7.414  1.00  0.00     0.010 A 
ATOM     76  C   UNL     1       1.473   7.718   6.980  1.00  0.00     0.010 A 
ATOM     77  C   UNL     1      -0.641   7.274   8.757  1.00  0.00     0.020 A 
ATOM     78  C   UNL     1       1.742   7.392   8.313  1.00  0.00     0.020 A 
ATOM     79  C   UNL     1       0.682   7.191   9.198  1.00  0.00     0.054 A 
BRANCH  79  80
ATOM     80  S   UNL     1       1.005   6.793  10.939  1.00  0.00     0.124 S 
ATOM     81  O   UNL     1       0.617   8.029  11.610  1.00  0.00    -0.237 OA
ATOM     82  O   UNL     1       0.130   5.646  11.167  1.00  0.00    -0.237 OA
ATOM     83  O   UNL     1       2.434   6.490  10.960  1.00  0.00    -0.744 OA
ENDBRANCH  79  80
ENDBRANCH  51  74
BRANCH  63  84
ATOM     84  C   UNL     1      -2.853  13.466   3.749  1.00  0.00    -0.014 A 
ATOM     85  C   UNL     1      -2.101  14.426   4.449  1.00  0.00     0.010 A 
ATOM     86  C   UNL     1      -4.239  13.665   3.599  1.00  0.00     0.010 A 
ATOM     87  C   UNL     1      -2.728  15.533   5.031  1.00  0.00     0.020 A 
ATOM     88  C   UNL     1      -4.864  14.789   4.148  1.00  0.00     0.020 A 
ATOM     89  C   UNL     1      -4.107  15.705   4.880  1.00  0.00     0.054 A 
BRANCH  89  90
ATOM     90  S   UNL     1      -4.893  17.156   5.632  1.00  0.00     0.124 S 
ATOM     91  O   UNL     1      -4.852  16.822   7.053  1.00  0.00    -0.237 OA
ATOM     92  O   UNL     1      -4.015  18.247   5.217  1.00  0.00    -0.237 OA
ATOM     93  O   UNL     1      -6.227  17.177   5.036  1.00  0.00    -0.744 OA
ENDBRANCH  89  90
ENDBRANCH  63  84
ENDBRANCH  37  38
ENDBRANCH  30  32
ENDBRANCH  29  30
ENDBRANCH  28  29
ENDBRANCH   1  28
TORSDOF 18
