REMARK SMILES Cc1nsc(NC(=O)N2CCC[C@@H](C)C2)c1C(=O)OCCOC(=O)c1ccc(-c2c3nc(c(-c4ccc(S(=O)(=O)[O-])cc4)c4ccc([nH]4)c(-c4ccc(S(=O)(=O)[O-])cc4)c4nc(c(-c5ccc(S(=O)(=O)[O-])cc5)c5ccc2[nH]5)C=C4)C=C3)cc1
REMARK SMILES IDX 21 1 20 2 19 3 17 4 18 5 16 6 1 7 2 8 3 9 4 10 5 11 6 12
REMARK SMILES IDX 7 13 8 15 9 16 10 17 15 18 11 19 13 20 12 21 14 22 22 23
REMARK SMILES IDX 23 24 24 25 25 26 26 27 84 28 27 29 83 30 28 31 29 32 30 33
REMARK SMILES IDX 77 34 31 35 82 36 76 37 78 38 32 39 81 40 75 41 74 42 33 44
REMARK SMILES IDX 63 45 44 46 62 47 45 48 48 49 61 50 79 51 46 52 47 53 60 55
REMARK SMILES IDX 80 56 49 57 34 58 35 59 43 60 36 61 42 62 37 63 38 64 39 65
REMARK SMILES IDX 40 66 41 67 64 68 65 69 73 70 66 71 72 72 67 73 68 74 69 75
REMARK SMILES IDX 70 76 71 77 50 78 51 79 59 80 52 81 58 82 53 83 54 84 55 85
REMARK SMILES IDX 56 86 57 87
REMARK H PARENT 6 14 78 43 48 54
REMARK Flexibility Score: inf
ROOT
ATOM      1  C   UNL     1       1.683   4.039  -1.891  1.00  0.00     0.275 C 
ENDROOT
BRANCH   1   2
ATOM      2  C   UNL     1       2.847   3.209  -1.363  1.00  0.00     0.275 C 
BRANCH   2   3
ATOM      3  O   UNL     1       2.376   2.161  -0.495  1.00  0.00    -0.458 OA
BRANCH   3   4
ATOM      4  C   UNL     1       2.220   2.449   0.831  1.00  0.00     0.343 C 
ATOM      5  O   UNL     1       2.737   3.413   1.391  1.00  0.00    -0.246 OA
BRANCH   4   6
ATOM      6  C   UNL     1       1.245   1.579   1.478  1.00  0.00     0.117 A 
ATOM      7  C   UNL     1       1.174  -0.387  -0.267  1.00  0.00     0.069 C 
ATOM      8  C   UNL     1       0.720   0.333   0.955  1.00  0.00     0.068 A 
ATOM      9  N   UNL     1      -0.299  -0.201   1.626  1.00  0.00    -0.195 NA
ATOM     10  S   UNL     1      -0.773   0.874   2.779  1.00  0.00    -0.017 S 
ATOM     11  C   UNL     1       0.568   1.909   2.650  1.00  0.00     0.132 A 
BRANCH  11  12
ATOM     12  N   UNL     1       0.762   2.993   3.493  1.00  0.00    -0.297 N 
ATOM     13  C   UNL     1       0.064   3.413   4.587  1.00  0.00     0.322 C 
ATOM     14  H   UNL     1       1.537   3.556   3.262  1.00  0.00     0.172 HD
ATOM     15  O   UNL     1       0.070   4.621   4.840  1.00  0.00    -0.248 OA
BRANCH  13  16
ATOM     16  N   UNL     1      -0.599   2.517   5.391  1.00  0.00    -0.324 N 
ATOM     17  C   UNL     1       0.049   1.326   5.939  1.00  0.00     0.121 C 
ATOM     18  C   UNL     1      -1.733   3.003   6.172  1.00  0.00     0.124 C 
ATOM     19  C   UNL     1      -0.940   0.185   6.193  1.00  0.00     0.022 C 
ATOM     20  C   UNL     1      -2.804   1.912   6.267  1.00  0.00     0.005 C 
ATOM     21  C   UNL     1      -2.215   0.644   6.902  1.00  0.00     0.007 C 
ATOM     22  C   UNL     1      -4.022   2.394   7.050  1.00  0.00     0.009 C 
ENDBRANCH  13  16
ENDBRANCH  11  12
ENDBRANCH   4   6
ENDBRANCH   3   4
ENDBRANCH   2   3
ENDBRANCH   1   2
BRANCH   1  23
ATOM     23  O   UNL     1       1.201   4.912  -0.871  1.00  0.00    -0.458 OA
BRANCH  23  24
ATOM     24  C   UNL     1       0.128   4.446  -0.195  1.00  0.00     0.338 C 
ATOM     25  O   UNL     1      -0.300   3.305  -0.207  1.00  0.00    -0.246 OA
BRANCH  24  26
ATOM     26  C   UNL     1      -0.594   5.562   0.414  1.00  0.00     0.060 A 
ATOM     27  C   UNL     1      -1.676   5.242   1.241  1.00  0.00     0.016 A 
ATOM     28  C   UNL     1      -0.412   6.844  -0.121  1.00  0.00     0.016 A 
ATOM     29  C   UNL     1      -2.700   6.155   1.359  1.00  0.00     0.010 A 
ATOM     30  C   UNL     1      -1.438   7.746  -0.013  1.00  0.00     0.010 A 
ATOM     31  C   UNL     1      -2.603   7.352   0.648  1.00  0.00    -0.014 A 
BRANCH  31  32
ATOM     32  C   UNL     1      -3.754   8.227   0.609  1.00  0.00     0.031 A 
ATOM     33  C   UNL     1      -3.988   8.993   1.855  1.00  0.00     0.074 A 
ATOM     34  C   UNL     1      -4.407   8.433  -0.551  1.00  0.00     0.049 A 
ATOM     35  N   UNL     1      -5.081   9.097   2.532  1.00  0.00    -0.248 NA
ATOM     36  C   UNL     1      -2.822   9.632   2.489  1.00  0.00     0.031 C 
ATOM     37  C   UNL     1      -4.050   7.925  -1.882  1.00  0.00     0.029 A 
ATOM     38  N   UNL     1      -5.423   9.295  -0.812  1.00  0.00    -0.354 N 
ATOM     39  C   UNL     1      -4.789   9.940   3.599  1.00  0.00     0.074 A 
ATOM     40  C   UNL     1      -3.362  10.126   3.600  1.00  0.00     0.031 C 
ATOM     41  C   UNL     1      -4.645   8.698  -2.816  1.00  0.00     0.029 A 
ATOM     42  C   UNL     1      -5.493   9.672  -2.147  1.00  0.00     0.049 A 
ATOM     43  H   UNL     1      -6.048   9.619  -0.124  1.00  0.00     0.167 HD
ATOM     44  C   UNL     1      -5.758  10.584   4.302  1.00  0.00     0.031 A 
ATOM     45  C   UNL     1      -6.088  10.790  -2.637  1.00  0.00     0.031 A 
ATOM     46  C   UNL     1      -7.058  10.016   4.072  1.00  0.00     0.049 A 
ATOM     47  C   UNL     1      -7.035  11.275  -1.597  1.00  0.00     0.074 A 
ATOM     48  C   UNL     1      -7.616   8.777   4.311  1.00  0.00     0.029 A 
ATOM     49  N   UNL     1      -7.873  10.638   3.154  1.00  0.00    -0.354 N 
ATOM     50  N   UNL     1      -8.098  10.613  -1.230  1.00  0.00    -0.248 NA
ATOM     51  C   UNL     1      -6.564  12.262  -0.633  1.00  0.00     0.031 C 
ATOM     52  C   UNL     1      -8.461   8.533   3.192  1.00  0.00     0.029 A 
ATOM     53  C   UNL     1      -8.414   9.656   2.362  1.00  0.00     0.049 A 
ATOM     54  H   UNL     1      -8.037  11.606   3.080  1.00  0.00     0.167 HD
ATOM     55  C   UNL     1      -8.166  10.775   0.148  1.00  0.00     0.074 A 
ATOM     56  C   UNL     1      -7.268  11.890   0.441  1.00  0.00     0.031 C 
ATOM     57  C   UNL     1      -8.712   9.812   0.952  1.00  0.00     0.031 A 
BRANCH  44  58
ATOM     58  C   UNL     1      -5.566  11.939   4.925  1.00  0.00    -0.014 A 
ATOM     59  C   UNL     1      -6.600  12.480   5.712  1.00  0.00     0.010 A 
ATOM     60  C   UNL     1      -4.528  12.812   4.534  1.00  0.00     0.010 A 
ATOM     61  C   UNL     1      -6.638  13.847   6.015  1.00  0.00     0.020 A 
ATOM     62  C   UNL     1      -4.533  14.165   4.869  1.00  0.00     0.020 A 
ATOM     63  C   UNL     1      -5.614  14.683   5.568  1.00  0.00     0.054 A 
BRANCH  63  64
ATOM     64  S   UNL     1      -5.757  16.469   5.814  1.00  0.00     0.124 S 
ATOM     65  O   UNL     1      -6.886  16.800   4.950  1.00  0.00    -0.237 OA
ATOM     66  O   UNL     1      -6.005  16.568   7.249  1.00  0.00    -0.237 OA
ATOM     67  O   UNL     1      -4.461  16.981   5.373  1.00  0.00    -0.744 OA
ENDBRANCH  63  64
ENDBRANCH  44  58
BRANCH  45  68
ATOM     68  C   UNL     1      -5.603  11.618  -3.773  1.00  0.00    -0.014 A 
ATOM     69  C   UNL     1      -6.393  12.638  -4.331  1.00  0.00     0.010 A 
ATOM     70  C   UNL     1      -4.249  11.557  -4.173  1.00  0.00     0.010 A 
ATOM     71  C   UNL     1      -5.838  13.584  -5.215  1.00  0.00     0.020 A 
ATOM     72  C   UNL     1      -3.693  12.480  -5.063  1.00  0.00     0.020 A 
ATOM     73  C   UNL     1      -4.486  13.506  -5.563  1.00  0.00     0.054 A 
BRANCH  73  74
ATOM     74  S   UNL     1      -3.731  14.818  -6.568  1.00  0.00     0.124 S 
ATOM     75  O   UNL     1      -4.312  14.576  -7.885  1.00  0.00    -0.237 OA
ATOM     76  O   UNL     1      -4.178  16.032  -5.891  1.00  0.00    -0.237 OA
ATOM     77  O   UNL     1      -2.297  14.549  -6.465  1.00  0.00    -0.744 OA
ENDBRANCH  73  74
ENDBRANCH  45  68
BRANCH  57  78
ATOM     78  C   UNL     1      -9.441   8.657   0.300  1.00  0.00    -0.014 A 
ATOM     79  C   UNL     1      -8.818   7.763  -0.594  1.00  0.00     0.010 A 
ATOM     80  C   UNL     1     -10.737   8.350   0.751  1.00  0.00     0.010 A 
ATOM     81  C   UNL     1      -9.479   6.611  -1.043  1.00  0.00     0.020 A 
ATOM     82  C   UNL     1     -11.395   7.192   0.324  1.00  0.00     0.020 A 
ATOM     83  C   UNL     1     -10.766   6.332  -0.578  1.00  0.00     0.054 A 
BRANCH  83  84
ATOM     84  S   UNL     1     -11.591   4.806  -1.110  1.00  0.00     0.124 S 
ATOM     85  O   UNL     1     -11.903   5.087  -2.509  1.00  0.00    -0.237 OA
ATOM     86  O   UNL     1     -10.568   3.786  -0.887  1.00  0.00    -0.237 OA
ATOM     87  O   UNL     1     -12.751   4.710  -0.225  1.00  0.00    -0.744 OA
ENDBRANCH  83  84
ENDBRANCH  57  78
ENDBRANCH  31  32
ENDBRANCH  24  26
ENDBRANCH  23  24
ENDBRANCH   1  23
TORSDOF 16
