REMARK SMILES C[NH2+][C@]1(C(=O)OCCOC(=O)c2ccc(-c3c4nc(c(-c5ccc(S(=O)(=O)[O-])cc5)c5ccc([nH]5)c(-c5ccc(S(=O)(=O)[O-])cc5)c5nc(c(-c6ccc(S(=O)(=O)[O-])cc6)c6ccc3[nH]6)C=C5)C=C4)cc2)CCC[C@@H]1CCOC[C@@H]1CCCO1
REMARK SMILES IDX 7 1 6 2 4 3 5 4 3 5 72 6 75 7 73 8 74 9 2 10 1 11 76 14
REMARK SMILES IDX 77 15 78 16 79 17 80 18 81 19 84 20 82 21 83 22 8 23 9 24
REMARK SMILES IDX 10 25 11 26 12 27 13 28 71 29 14 30 70 31 15 32 16 33 17 34
REMARK SMILES IDX 64 35 18 36 69 37 63 38 65 39 19 40 68 41 62 42 61 43 20 45
REMARK SMILES IDX 50 46 31 47 49 48 32 49 35 50 48 51 66 52 33 53 34 54 47 56
REMARK SMILES IDX 67 57 36 58 21 59 22 60 30 61 23 62 29 63 24 64 25 65 26 66
REMARK SMILES IDX 27 67 28 68 51 69 52 70 60 71 53 72 59 73 54 74 55 75 56 76
REMARK SMILES IDX 57 77 58 78 37 79 38 80 46 81 39 82 45 83 40 84 41 85 42 86
REMARK SMILES IDX 43 87 44 88
REMARK H PARENT 2 12 2 13 65 44 35 55
REMARK Flexibility Score: inf
ROOT
ATOM      1  C   UNL     1       2.477  -0.598  -1.058  1.00  0.00     0.274 C 
ENDROOT
BRANCH   1   2
ATOM      2  O   UNL     1       1.056  -0.459  -0.855  1.00  0.00    -0.457 OA
BRANCH   2   3
ATOM      3  C   UNL     1       0.404  -1.605  -0.501  1.00  0.00     0.368 C 
ATOM      4  O   UNL     1       0.966  -2.687  -0.373  1.00  0.00    -0.245 OA
BRANCH   3   5
ATOM      5  C   UNL     1      -1.119  -1.385  -0.259  1.00  0.00     0.197 C 
ATOM      6  C   UNL     1      -1.641  -0.139  -1.015  1.00  0.00     0.081 C 
ATOM      7  C   UNL     1      -1.907  -2.480  -1.044  1.00  0.00     0.065 C 
ATOM      8  C   UNL     1      -3.142  -0.374  -1.165  1.00  0.00     0.008 C 
ATOM      9  C   UNL     1      -3.327  -1.894  -1.166  1.00  0.00     0.011 C 
BRANCH   5  10
ATOM     10  N   UNL     1      -1.354  -1.159   1.185  1.00  0.00    -0.334 N 
ATOM     11  C   UNL     1      -2.200  -2.057   1.941  1.00  0.00     0.331 C 
ATOM     12  H   UNL     1      -0.439  -1.171   1.635  1.00  0.00     0.347 HD
ATOM     13  H   UNL     1      -1.878  -0.284   1.197  1.00  0.00     0.347 HD
ENDBRANCH   5  10
BRANCH   7  14
ATOM     14  C   UNL     1      -1.827  -3.925  -0.518  1.00  0.00     0.039 C 
BRANCH  14  15
ATOM     15  C   UNL     1      -1.706  -5.050  -1.559  1.00  0.00     0.161 C 
BRANCH  15  16
ATOM     16  O   UNL     1      -0.512  -5.052  -2.321  1.00  0.00    -0.379 OA
BRANCH  16  17
ATOM     17  C   UNL     1      -0.414  -4.361  -3.562  1.00  0.00     0.192 C 
BRANCH  17  18
ATOM     18  C   UNL     1      -1.544  -4.479  -4.600  1.00  0.00     0.144 C 
ATOM     19  C   UNL     1      -2.763  -3.606  -4.364  1.00  0.00     0.037 C 
ATOM     20  O   UNL     1      -2.022  -5.825  -4.757  1.00  0.00    -0.376 OA
ATOM     21  C   UNL     1      -3.851  -4.352  -5.088  1.00  0.00     0.031 C 
ATOM     22  C   UNL     1      -3.452  -5.795  -4.856  1.00  0.00     0.160 C 
ENDBRANCH  17  18
ENDBRANCH  16  17
ENDBRANCH  15  16
ENDBRANCH  14  15
ENDBRANCH   7  14
ENDBRANCH   3   5
ENDBRANCH   2   3
ENDBRANCH   1   2
BRANCH   1  23
ATOM     23  C   UNL     1       3.245  -0.041   0.136  1.00  0.00     0.275 C 
BRANCH  23  24
ATOM     24  O   UNL     1       2.905  -0.789   1.314  1.00  0.00    -0.458 OA
BRANCH  24  25
ATOM     25  C   UNL     1       2.371  -0.077   2.335  1.00  0.00     0.338 C 
ATOM     26  O   UNL     1       2.258   1.134   2.408  1.00  0.00    -0.246 OA
BRANCH  25  27
ATOM     27  C   UNL     1       1.914  -0.996   3.395  1.00  0.00     0.060 A 
ATOM     28  C   UNL     1       1.080  -2.061   3.073  1.00  0.00     0.016 A 
ATOM     29  C   UNL     1       2.199  -0.720   4.731  1.00  0.00     0.016 A 
ATOM     30  C   UNL     1       0.430  -2.768   4.080  1.00  0.00     0.010 A 
ATOM     31  C   UNL     1       1.632  -1.510   5.740  1.00  0.00     0.010 A 
ATOM     32  C   UNL     1       0.696  -2.514   5.430  1.00  0.00    -0.014 A 
BRANCH  32  33
ATOM     33  C   UNL     1      -0.060  -3.237   6.495  1.00  0.00     0.031 A 
ATOM     34  C   UNL     1      -0.817  -2.457   7.544  1.00  0.00     0.074 A 
ATOM     35  C   UNL     1      -0.133  -4.585   6.508  1.00  0.00     0.049 A 
ATOM     36  N   UNL     1      -1.348  -2.877   8.664  1.00  0.00    -0.248 NA
ATOM     37  C   UNL     1      -0.991  -1.014   7.306  1.00  0.00     0.031 C 
ATOM     38  C   UNL     1       0.458  -5.483   5.512  1.00  0.00     0.029 A 
ATOM     39  N   UNL     1      -0.761  -5.440   7.383  1.00  0.00    -0.354 N 
ATOM     40  C   UNL     1      -1.843  -1.743   9.299  1.00  0.00     0.074 A 
ATOM     41  C   UNL     1      -1.566  -0.618   8.433  1.00  0.00     0.031 C 
ATOM     42  C   UNL     1       0.107  -6.747   5.792  1.00  0.00     0.029 A 
ATOM     43  C   UNL     1      -0.622  -6.768   7.053  1.00  0.00     0.049 A 
ATOM     44  H   UNL     1      -1.263  -5.130   8.171  1.00  0.00     0.167 HD
ATOM     45  C   UNL     1      -2.459  -1.647  10.502  1.00  0.00     0.031 A 
ATOM     46  C   UNL     1      -0.983  -7.886   7.713  1.00  0.00     0.031 A 
ATOM     47  C   UNL     1      -2.784  -2.775  11.335  1.00  0.00     0.049 A 
ATOM     48  C   UNL     1      -1.618  -7.758   9.069  1.00  0.00     0.074 A 
ATOM     49  C   UNL     1      -3.380  -2.783  12.584  1.00  0.00     0.029 A 
ATOM     50  N   UNL     1      -2.564  -4.099  10.989  1.00  0.00    -0.354 N 
ATOM     51  N   UNL     1      -1.964  -6.672   9.716  1.00  0.00    -0.248 NA
ATOM     52  C   UNL     1      -1.878  -9.007   9.798  1.00  0.00     0.031 C 
ATOM     53  C   UNL     1      -3.490  -4.112  13.008  1.00  0.00     0.029 A 
ATOM     54  C   UNL     1      -3.005  -4.933  12.003  1.00  0.00     0.049 A 
ATOM     55  H   UNL     1      -2.154  -4.402  10.147  1.00  0.00     0.167 HD
ATOM     56  C   UNL     1      -2.480  -7.106  10.931  1.00  0.00     0.074 A 
ATOM     57  C   UNL     1      -2.429  -8.554  10.916  1.00  0.00     0.031 C 
ATOM     58  C   UNL     1      -2.944  -6.371  11.972  1.00  0.00     0.031 A 
BRANCH  45  59
ATOM     59  C   UNL     1      -2.762  -0.266  11.020  1.00  0.00    -0.014 A 
ATOM     60  C   UNL     1      -3.817   0.506  10.504  1.00  0.00     0.010 A 
ATOM     61  C   UNL     1      -1.979   0.256  12.068  1.00  0.00     0.010 A 
ATOM     62  C   UNL     1      -4.057   1.792  10.999  1.00  0.00     0.020 A 
ATOM     63  C   UNL     1      -2.231   1.531  12.581  1.00  0.00     0.020 A 
ATOM     64  C   UNL     1      -3.257   2.299  12.029  1.00  0.00     0.054 A 
BRANCH  64  65
ATOM     65  S   UNL     1      -3.592   3.967  12.660  1.00  0.00     0.124 S 
ATOM     66  O   UNL     1      -3.040   4.806  11.599  1.00  0.00    -0.237 OA
ATOM     67  O   UNL     1      -5.048   3.982  12.778  1.00  0.00    -0.237 OA
ATOM     68  O   UNL     1      -2.868   4.011  13.928  1.00  0.00    -0.744 OA
ENDBRANCH  64  65
ENDBRANCH  45  59
BRANCH  46  69
ATOM     69  C   UNL     1      -0.666  -9.224   7.140  1.00  0.00    -0.014 A 
ATOM     70  C   UNL     1      -1.691 -10.080   6.702  1.00  0.00     0.010 A 
ATOM     71  C   UNL     1       0.672  -9.642   7.014  1.00  0.00     0.010 A 
ATOM     72  C   UNL     1      -1.383 -11.330   6.155  1.00  0.00     0.020 A 
ATOM     73  C   UNL     1       0.985 -10.875   6.439  1.00  0.00     0.020 A 
ATOM     74  C   UNL     1      -0.047 -11.718   6.024  1.00  0.00     0.054 A 
BRANCH  74  75
ATOM     75  S   UNL     1       0.339 -13.316   5.255  1.00  0.00     0.124 S 
ATOM     76  O   UNL     1       0.079 -14.247   6.348  1.00  0.00    -0.237 OA
ATOM     77  O   UNL     1      -0.604 -13.370   4.140  1.00  0.00    -0.237 OA
ATOM     78  O   UNL     1       1.741 -13.177   4.869  1.00  0.00    -0.744 OA
ENDBRANCH  74  75
ENDBRANCH  46  69
BRANCH  58  79
ATOM     79  C   UNL     1      -3.455  -7.122  13.169  1.00  0.00    -0.014 A 
ATOM     80  C   UNL     1      -2.568  -7.729  14.075  1.00  0.00     0.010 A 
ATOM     81  C   UNL     1      -4.839  -7.182  13.412  1.00  0.00     0.010 A 
ATOM     82  C   UNL     1      -3.060  -8.408  15.193  1.00  0.00     0.020 A 
ATOM     83  C   UNL     1      -5.332  -7.841  14.540  1.00  0.00     0.020 A 
ATOM     84  C   UNL     1      -4.439  -8.462  15.417  1.00  0.00     0.054 A 
BRANCH  84  85
ATOM     85  S   UNL     1      -5.053  -9.311  16.897  1.00  0.00     0.124 S 
ATOM     86  O   UNL     1      -4.919 -10.715  16.519  1.00  0.00    -0.237 OA
ATOM     87  O   UNL     1      -4.138  -8.851  17.938  1.00  0.00    -0.237 OA
ATOM     88  O   UNL     1      -6.426  -8.829  17.027  1.00  0.00    -0.744 OA
ENDBRANCH  84  85
ENDBRANCH  58  79
ENDBRANCH  32  33
ENDBRANCH  25  27
ENDBRANCH  24  25
ENDBRANCH  23  24
ENDBRANCH   1  23
TORSDOF 20
