REMARK SMILES Cc1nc[nH]c1C(=O)[NH+]1CCC2(CC1)C[C@@H](C(=O)OCCOC(=O)c1ccc(-c3c4nc(c(-c5ccc(S(=O)(=O)[O-])cc5)c5ccc([nH]5)c(-c5ccc(S(=O)(=O)[O-])cc5)c5nc(c(-c6ccc(S(=O)(=O)[O-])cc6)c6ccc3[nH]6)C=C5)C=C4)cc1)N(C(=O)C1CC1)C2
REMARK SMILES IDX 21 1 20 2 19 3 17 4 18 5 16 6 9 7 10 8 14 9 11 11 13 12
REMARK SMILES IDX 12 13 15 14 91 15 85 16 7 17 8 18 6 19 1 20 2 21 3 22 4 23
REMARK SMILES IDX 5 24 86 26 87 27 88 28 89 29 90 30 22 31 23 32 24 33 25 34
REMARK SMILES IDX 26 35 84 36 27 37 83 38 28 39 29 40 30 41 77 42 31 43 82 44
REMARK SMILES IDX 76 45 78 46 32 47 81 48 75 49 74 50 33 52 63 53 44 54 62 55
REMARK SMILES IDX 45 56 48 57 61 58 79 59 46 60 47 61 60 63 80 64 49 65 34 66
REMARK SMILES IDX 35 67 43 68 36 69 42 70 37 71 38 72 39 73 40 74 41 75 64 76
REMARK SMILES IDX 65 77 73 78 66 79 72 80 67 81 68 82 69 83 70 84 71 85 50 86
REMARK SMILES IDX 51 87 59 88 52 89 58 90 53 91 54 92 55 93 56 94 57 95
REMARK H PARENT 9 10 5 25 78 51 48 62
REMARK Flexibility Score: inf
ROOT
ATOM      1  C   UNL     1       9.309  -2.242   2.469  1.00  0.00     0.275 C 
ENDROOT
BRANCH   1   2
ATOM      2  C   UNL     1       7.877  -1.753   2.260  1.00  0.00     0.274 C 
BRANCH   2   3
ATOM      3  O   UNL     1       7.232  -2.478   1.194  1.00  0.00    -0.461 OA
BRANCH   3   4
ATOM      4  C   UNL     1       7.161  -1.829  -0.002  1.00  0.00     0.328 C 
ATOM      5  O   UNL     1       7.519  -0.668  -0.180  1.00  0.00    -0.250 OA
BRANCH   4   6
ATOM      6  C   UNL     1       6.525  -2.671  -1.119  1.00  0.00     0.195 C 
ATOM      7  N   UNL     1       1.324  -2.634  -0.102  1.00  0.00    -0.266 N 
ATOM      8  C   UNL     1       1.747  -3.635  -1.059  1.00  0.00     0.271 C 
ATOM      9  C   UNL     1       2.272  -2.344   0.966  1.00  0.00     0.271 C 
ATOM     10  H   UNL     1       2.163  -2.269  -0.467  1.00  0.00     0.357 HD
ATOM     11  C   UNL     1       2.972  -3.098  -1.771  1.00  0.00     0.071 C 
ATOM     12  C   UNL     1       3.657  -1.973   0.430  1.00  0.00     0.071 C 
ATOM     13  C   UNL     1       4.125  -2.808  -0.787  1.00  0.00     0.001 C 
ATOM     14  C   UNL     1       5.221  -2.050  -1.567  1.00  0.00     0.046 C 
ATOM     15  C   UNL     1       4.798  -4.129  -0.343  1.00  0.00     0.128 C 
ATOM     16  N   UNL     1       6.168  -4.045  -0.793  1.00  0.00    -0.328 N 
BRANCH   7  17
ATOM     17  C   UNL     1      -0.019  -2.303  -0.067  1.00  0.00     0.362 C 
ATOM     18  O   UNL     1      -0.879  -3.152  -0.305  1.00  0.00    -0.224 OA
BRANCH  17  19
ATOM     19  C   UNL     1      -0.402  -0.930   0.155  1.00  0.00     0.167 A 
ATOM     20  C   UNL     1       1.587   0.686  -0.364  1.00  0.00     0.069 C 
ATOM     21  C   UNL     1       0.214   0.309   0.036  1.00  0.00     0.072 A 
ATOM     22  N   UNL     1      -0.689   1.326   0.273  1.00  0.00    -0.241 NA
ATOM     23  C   UNL     1      -1.845   0.740   0.456  1.00  0.00     0.197 A 
ATOM     24  N   UNL     1      -1.722  -0.612   0.403  1.00  0.00    -0.337 N 
ATOM     25  H   UNL     1      -2.454  -1.258   0.522  1.00  0.00     0.168 HD
ENDBRANCH  17  19
ENDBRANCH   7  17
BRANCH  16  26
ATOM     26  C   UNL     1       7.068  -5.057  -1.066  1.00  0.00     0.226 C 
ATOM     27  O   UNL     1       8.091  -4.823  -1.706  1.00  0.00    -0.275 OA
BRANCH  26  28
ATOM     28  C   UNL     1       6.863  -6.468  -0.632  1.00  0.00     0.079 C 
ATOM     29  C   UNL     1       5.743  -7.104   0.140  1.00  0.00     0.014 C 
ATOM     30  C   UNL     1       5.839  -7.327  -1.343  1.00  0.00     0.014 C 
ENDBRANCH  26  28
ENDBRANCH  16  26
ENDBRANCH   4   6
ENDBRANCH   3   4
ENDBRANCH   2   3
ENDBRANCH   1   2
BRANCH   1  31
ATOM     31  O   UNL     1      10.086  -2.049   1.276  1.00  0.00    -0.458 OA
BRANCH  31  32
ATOM     32  C   UNL     1      10.293  -3.171   0.543  1.00  0.00     0.338 C 
ATOM     33  O   UNL     1       9.953  -4.306   0.825  1.00  0.00    -0.246 OA
BRANCH  32  34
ATOM     34  C   UNL     1      10.992  -2.804  -0.698  1.00  0.00     0.060 A 
ATOM     35  C   UNL     1      10.245  -2.397  -1.802  1.00  0.00     0.016 A 
ATOM     36  C   UNL     1      12.372  -2.954  -0.800  1.00  0.00     0.016 A 
ATOM     37  C   UNL     1      10.855  -2.197  -3.034  1.00  0.00     0.010 A 
ATOM     38  C   UNL     1      12.996  -2.698  -2.025  1.00  0.00     0.010 A 
ATOM     39  C   UNL     1      12.239  -2.344  -3.158  1.00  0.00    -0.014 A 
BRANCH  39  40
ATOM     40  C   UNL     1      12.883  -2.185  -4.484  1.00  0.00     0.031 A 
ATOM     41  C   UNL     1      13.508  -3.377  -5.152  1.00  0.00     0.074 A 
ATOM     42  C   UNL     1      12.892  -0.983  -5.091  1.00  0.00     0.049 A 
ATOM     43  N   UNL     1      14.254  -3.424  -6.225  1.00  0.00    -0.248 NA
ATOM     44  C   UNL     1      13.269  -4.688  -4.525  1.00  0.00     0.031 C 
ATOM     45  C   UNL     1      12.259   0.233  -4.575  1.00  0.00     0.029 A 
ATOM     46  N   UNL     1      13.459  -0.586  -6.276  1.00  0.00    -0.354 N 
ATOM     47  C   UNL     1      14.614  -4.758  -6.375  1.00  0.00     0.074 A 
ATOM     48  C   UNL     1      14.006  -5.487  -5.283  1.00  0.00     0.031 C 
ATOM     49  C   UNL     1      12.465   1.237  -5.442  1.00  0.00     0.029 A 
ATOM     50  C   UNL     1      13.300   0.754  -6.537  1.00  0.00     0.049 A 
ATOM     51  H   UNL     1      13.932  -1.202  -6.880  1.00  0.00     0.167 HD
ATOM     52  C   UNL     1      15.389  -5.318  -7.334  1.00  0.00     0.031 A 
ATOM     53  C   UNL     1      13.805   1.518  -7.525  1.00  0.00     0.031 A 
ATOM     54  C   UNL     1      15.965  -4.586  -8.431  1.00  0.00     0.049 A 
ATOM     55  C   UNL     1      14.697   0.883  -8.554  1.00  0.00     0.074 A 
ATOM     56  C   UNL     1      16.760  -5.060  -9.460  1.00  0.00     0.029 A 
ATOM     57  N   UNL     1      15.799  -3.226  -8.647  1.00  0.00    -0.354 N 
ATOM     58  N   UNL     1      15.067  -0.371  -8.660  1.00  0.00    -0.248 NA
ATOM     59  C   UNL     1      15.246   1.765  -9.592  1.00  0.00     0.031 C 
ATOM     60  C   UNL     1      17.108  -3.978 -10.276  1.00  0.00     0.029 A 
ATOM     61  C   UNL     1      16.489  -2.839  -9.783  1.00  0.00     0.049 A 
ATOM     62  H   UNL     1      15.268  -2.624  -8.076  1.00  0.00     0.167 HD
ATOM     63  C   UNL     1      15.883  -0.432  -9.783  1.00  0.00     0.074 A 
ATOM     64  C   UNL     1      15.937   0.908 -10.332  1.00  0.00     0.031 C 
ATOM     65  C   UNL     1      16.531  -1.499 -10.310  1.00  0.00     0.031 A 
BRANCH  52  66
ATOM     66  C   UNL     1      15.698  -6.786  -7.210  1.00  0.00    -0.014 A 
ATOM     67  C   UNL     1      14.730  -7.768  -7.485  1.00  0.00     0.010 A 
ATOM     68  C   UNL     1      16.994  -7.187  -6.836  1.00  0.00     0.010 A 
ATOM     69  C   UNL     1      15.044  -9.124  -7.354  1.00  0.00     0.020 A 
ATOM     70  C   UNL     1      17.318  -8.542  -6.726  1.00  0.00     0.020 A 
ATOM     71  C   UNL     1      16.335  -9.503  -6.969  1.00  0.00     0.054 A 
BRANCH  71  72
ATOM     72  S   UNL     1      16.723 -11.269  -6.824  1.00  0.00     0.124 S 
ATOM     73  O   UNL     1      16.063 -11.620  -5.568  1.00  0.00    -0.237 OA
ATOM     74  O   UNL     1      16.119 -11.833  -8.028  1.00  0.00    -0.237 OA
ATOM     75  O   UNL     1      18.183 -11.302  -6.790  1.00  0.00    -0.744 OA
ENDBRANCH  71  72
ENDBRANCH  52  66
BRANCH  53  76
ATOM     76  C   UNL     1      13.516   2.978  -7.551  1.00  0.00    -0.014 A 
ATOM     77  C   UNL     1      12.669   3.524  -8.529  1.00  0.00     0.010 A 
ATOM     78  C   UNL     1      14.068   3.826  -6.572  1.00  0.00     0.010 A 
ATOM     79  C   UNL     1      12.383   4.893  -8.532  1.00  0.00     0.020 A 
ATOM     80  C   UNL     1      13.764   5.189  -6.556  1.00  0.00     0.020 A 
ATOM     81  C   UNL     1      12.930   5.716  -7.544  1.00  0.00     0.054 A 
BRANCH  81  82
ATOM     82  S   UNL     1      12.493   7.478  -7.524  1.00  0.00     0.124 S 
ATOM     83  O   UNL     1      13.322   8.008  -8.602  1.00  0.00    -0.237 OA
ATOM     84  O   UNL     1      11.056   7.452  -7.784  1.00  0.00    -0.237 OA
ATOM     85  O   UNL     1      12.866   7.906  -6.177  1.00  0.00    -0.744 OA
ENDBRANCH  81  82
ENDBRANCH  53  76
BRANCH  65  86
ATOM     86  C   UNL     1      17.333  -1.266 -11.560  1.00  0.00    -0.014 A 
ATOM     87  C   UNL     1      18.577  -0.613 -11.513  1.00  0.00     0.010 A 
ATOM     88  C   UNL     1      16.858  -1.755 -12.790  1.00  0.00     0.010 A 
ATOM     89  C   UNL     1      19.321  -0.430 -12.681  1.00  0.00     0.020 A 
ATOM     90  C   UNL     1      17.610  -1.594 -13.956  1.00  0.00     0.020 A 
ATOM     91  C   UNL     1      18.831  -0.920 -13.896  1.00  0.00     0.054 A 
BRANCH  91  92
ATOM     92  S   UNL     1      19.835  -0.712 -15.393  1.00  0.00     0.124 S 
ATOM     93  O   UNL     1      19.614   0.696 -15.712  1.00  0.00    -0.237 OA
ATOM     94  O   UNL     1      21.179  -1.047 -14.930  1.00  0.00    -0.237 OA
ATOM     95  O   UNL     1      19.252  -1.664 -16.335  1.00  0.00    -0.744 OA
ENDBRANCH  91  92
ENDBRANCH  65  86
ENDBRANCH  39  40
ENDBRANCH  32  34
ENDBRANCH  31  32
ENDBRANCH   1  31
TORSDOF 18
