REMARK SMILES O=C(OCCOC(=O)c1ccc(-c2c3nc(c(-c4ccc(S(=O)(=O)[O-])cc4)c4ccc([nH]4)c(-c4ccc(S(=O)(=O)[O-])cc4)c4nc(c(-c5ccc(S(=O)(=O)[O-])cc5)c5ccc2[nH]5)C=C4)C=C3)cc1)C1=Cc2cc(S(F)(F)(F)(F)F)ccc2O[C@@H]1C(F)(F)F
REMARK SMILES IDX 5 1 4 2 3 3 2 4 1 5 69 6 70 7 84 8 71 9 83 10 72 11 82 12
REMARK SMILES IDX 73 13 81 14 80 15 85 16 86 17 87 18 88 19 74 20 75 21 76 22
REMARK SMILES IDX 77 23 78 24 79 25 6 26 7 27 8 28 9 29 10 30 68 31 11 32
REMARK SMILES IDX 67 33 12 34 13 35 14 36 61 37 15 38 66 39 60 40 62 41 16 42
REMARK SMILES IDX 65 43 59 44 58 45 17 47 47 48 28 49 46 50 29 51 32 52 45 53
REMARK SMILES IDX 63 54 30 55 31 56 44 58 64 59 33 60 18 61 19 62 27 63 20 64
REMARK SMILES IDX 26 65 21 66 22 67 23 68 24 69 25 70 48 71 49 72 57 73 50 74
REMARK SMILES IDX 56 75 51 76 52 77 53 78 54 79 55 80 34 81 35 82 43 83 36 84
REMARK SMILES IDX 42 85 37 86 38 87 39 88 40 89 41 90
REMARK H PARENT 62 46 32 57
REMARK Flexibility Score: inf
ROOT
ATOM      1  C   UNL     1       4.865   0.221   1.263  1.00  0.00     0.275 C 
ENDROOT
BRANCH   1   2
ATOM      2  C   UNL     1       4.358   1.135   0.160  1.00  0.00     0.275 C 
BRANCH   2   3
ATOM      3  O   UNL     1       2.938   1.135   0.160  1.00  0.00    -0.459 OA
BRANCH   3   4
ATOM      4  C   UNL     1       2.228  -0.077  -0.046  1.00  0.00     0.338 C 
ATOM      5  O   UNL     1       0.957  -0.077  -0.046  1.00  0.00    -0.246 OA
BRANCH   4   6
ATOM      6  C   UNL     1       2.988  -1.375  -0.267  1.00  0.00     0.087 C 
ATOM      7  C   UNL     1       4.348  -1.375  -0.267  1.00  0.00     0.027 C 
ATOM      8  C   UNL     1       2.228  -2.673  -0.487  1.00  0.00     0.316 C 
ATOM      9  C   UNL     1       5.108  -0.077  -0.046  1.00  0.00     0.019 A 
ATOM     10  O   UNL     1       3.513   0.474   1.627  1.00  0.00    -0.475 OA
ATOM     11  C   UNL     1       6.191   0.231  -0.853  1.00  0.00     0.036 A 
ATOM     12  C   UNL     1       4.719   0.740   0.925  1.00  0.00     0.128 A 
ATOM     13  C   UNL     1       6.984   1.297  -0.367  1.00  0.00     0.107 A 
ATOM     14  C   UNL     1       5.472   1.839   1.258  1.00  0.00     0.048 A 
ATOM     15  C   UNL     1       6.588   2.171   0.541  1.00  0.00     0.028 A 
BRANCH   8  16
ATOM     16  C   UNL     1       2.595  -3.667   0.603  1.00  0.00     0.430 C 
ATOM     17  F   UNL     1       2.274  -3.161   1.790  1.00  0.00    -0.167 F 
ATOM     18  F   UNL     1       1.930  -4.802   0.410  1.00  0.00    -0.167 F 
ATOM     19  F   UNL     1       3.903  -3.906   0.562  1.00  0.00    -0.167 F 
ENDBRANCH   8  16
BRANCH  13  20
ATOM     20  S   UNL     1       8.657   1.475  -1.034  1.00  0.00     0.310 S 
ATOM     21  F   UNL     1       9.303   1.504   0.414  1.00  0.00    -0.094 F 
ATOM     22  F   UNL     1       8.504   3.039  -0.922  1.00  0.00    -0.094 F 
ATOM     23  F   UNL     1      10.093   1.629  -1.611  1.00  0.00    -0.094 F 
ATOM     24  F   UNL     1       8.845  -0.093  -1.008  1.00  0.00    -0.094 F 
ATOM     25  F   UNL     1       7.245   1.303  -0.345  1.00  0.00    -0.094 F 
ENDBRANCH  13  20
ENDBRANCH   4   6
ENDBRANCH   3   4
ENDBRANCH   2   3
ENDBRANCH   1   2
BRANCH   1  26
ATOM     26  O   UNL     1       4.391  -1.099   1.039  1.00  0.00    -0.458 OA
BRANCH  26  27
ATOM     27  C   UNL     1       2.995  -1.355   0.995  1.00  0.00     0.338 C 
ATOM     28  O   UNL     1       2.169  -0.403   1.157  1.00  0.00    -0.246 OA
BRANCH  27  29
ATOM     29  C   UNL     1       2.489  -2.768   0.755  1.00  0.00     0.060 A 
ATOM     30  C   UNL     1       1.461  -2.997  -0.145  1.00  0.00     0.016 A 
ATOM     31  C   UNL     1       3.055  -3.766   1.423  1.00  0.00     0.016 A 
ATOM     32  C   UNL     1       0.901  -4.293  -0.058  1.00  0.00     0.010 A 
ATOM     33  C   UNL     1       2.536  -5.037   1.354  1.00  0.00     0.010 A 
ATOM     34  C   UNL     1       1.483  -5.323   0.530  1.00  0.00    -0.014 A 
BRANCH  34  35
ATOM     35  C   UNL     1       1.008  -6.749   0.303  1.00  0.00     0.031 A 
ATOM     36  C   UNL     1       0.578  -7.449   1.432  1.00  0.00     0.074 A 
ATOM     37  C   UNL     1       1.036  -7.281  -0.974  1.00  0.00     0.049 A 
ATOM     38  N   UNL     1       0.103  -8.694   1.484  1.00  0.00    -0.248 NA
ATOM     39  C   UNL     1       0.580  -6.897   2.795  1.00  0.00     0.031 C 
ATOM     40  C   UNL     1       1.460  -6.578  -2.119  1.00  0.00     0.029 A 
ATOM     41  N   UNL     1       0.672  -8.549  -1.369  1.00  0.00    -0.354 N 
ATOM     42  C   UNL     1      -0.223  -9.011   2.739  1.00  0.00     0.074 A 
ATOM     43  C   UNL     1       0.085  -7.862   3.601  1.00  0.00     0.031 C 
ATOM     44  C   UNL     1       1.365  -7.414  -3.186  1.00  0.00     0.029 A 
ATOM     45  C   UNL     1       0.879  -8.653  -2.727  1.00  0.00     0.049 A 
ATOM     46  H   UNL     1       0.325  -9.259  -0.782  1.00  0.00     0.167 HD
ATOM     47  C   UNL     1      -0.767 -10.212   3.198  1.00  0.00     0.031 A 
ATOM     48  C   UNL     1       0.663  -9.757  -3.537  1.00  0.00     0.031 A 
ATOM     49  C   UNL     1      -1.023 -11.301   2.380  1.00  0.00     0.049 A 
ATOM     50  C   UNL     1       0.174 -10.978  -3.068  1.00  0.00     0.074 A 
ATOM     51  C   UNL     1      -1.578 -12.517   2.825  1.00  0.00     0.029 A 
ATOM     52  N   UNL     1      -0.794 -11.413   1.027  1.00  0.00    -0.354 N 
ATOM     53  N   UNL     1      -0.189 -11.281  -1.821  1.00  0.00    -0.248 NA
ATOM     54  C   UNL     1      -0.028 -12.164  -3.911  1.00  0.00     0.031 C 
ATOM     55  C   UNL     1      -1.673 -13.353   1.757  1.00  0.00     0.029 A 
ATOM     56  C   UNL     1      -1.179 -12.674   0.627  1.00  0.00     0.049 A 
ATOM     57  H   UNL     1      -0.419 -10.712   0.445  1.00  0.00     0.167 HD
ATOM     58  C   UNL     1      -0.625 -12.541  -1.762  1.00  0.00     0.074 A 
ATOM     59  C   UNL     1      -0.521 -13.129  -3.104  1.00  0.00     0.031 C 
ATOM     60  C   UNL     1      -1.110 -13.222  -0.644  1.00  0.00     0.031 A 
BRANCH  47  61
ATOM     61  C   UNL     1      -1.097 -10.332   4.677  1.00  0.00    -0.014 A 
ATOM     62  C   UNL     1      -1.996  -9.446   5.247  1.00  0.00     0.010 A 
ATOM     63  C   UNL     1      -0.503 -11.273   5.401  1.00  0.00     0.010 A 
ATOM     64  C   UNL     1      -1.987  -9.452   6.662  1.00  0.00     0.020 A 
ATOM     65  C   UNL     1      -0.648 -11.299   6.767  1.00  0.00     0.020 A 
ATOM     66  C   UNL     1      -1.475 -10.416   7.404  1.00  0.00     0.054 A 
BRANCH  66  67
ATOM     67  S   UNL     1      -1.849 -10.562   9.169  1.00  0.00     0.124 S 
ATOM     68  O   UNL     1      -1.395  -9.293   9.893  1.00  0.00    -0.237 OA
ATOM     69  O   UNL     1      -3.357 -10.746   9.358  1.00  0.00    -0.237 OA
ATOM     70  O   UNL     1      -1.025 -11.914   9.816  1.00  0.00    -0.744 OA
ENDBRANCH  66  67
ENDBRANCH  47  61
BRANCH  48  71
ATOM     71  C   UNL     1       0.977  -9.631  -5.019  1.00  0.00    -0.014 A 
ATOM     72  C   UNL     1      -0.036  -9.805  -5.947  1.00  0.00     0.010 A 
ATOM     73  C   UNL     1       2.216  -9.338  -5.398  1.00  0.00     0.010 A 
ATOM     74  C   UNL     1       0.422  -9.935  -7.279  1.00  0.00     0.020 A 
ATOM     75  C   UNL     1       2.562  -9.351  -6.728  1.00  0.00     0.020 A 
ATOM     76  C   UNL     1       1.623  -9.575  -7.696  1.00  0.00     0.054 A 
BRANCH  76  77
ATOM     77  S   UNL     1       2.004  -9.388  -9.456  1.00  0.00     0.124 S 
ATOM     78  O   UNL     1       1.776 -10.721 -10.172  1.00  0.00    -0.237 OA
ATOM     79  O   UNL     1       1.093  -8.319 -10.065  1.00  0.00    -0.237 OA
ATOM     80  O   UNL     1       3.638  -8.915  -9.638  1.00  0.00    -0.744 OA
ENDBRANCH  76  77
ENDBRANCH  48  71
BRANCH  60  81
ATOM     81  C   UNL     1      -1.591 -14.651  -0.832  1.00  0.00    -0.014 A 
ATOM     82  C   UNL     1      -0.712 -15.614  -1.299  1.00  0.00     0.010 A 
ATOM     83  C   UNL     1      -2.852 -14.951  -0.543  1.00  0.00     0.010 A 
ATOM     84  C   UNL     1      -1.340 -16.815  -1.706  1.00  0.00     0.020 A 
ATOM     85  C   UNL     1      -3.363 -16.191  -0.845  1.00  0.00     0.020 A 
ATOM     86  C   UNL     1      -2.565 -17.173  -1.364  1.00  0.00     0.054 A 
BRANCH  86  87
ATOM     87  S   UNL     1      -3.155 -18.871  -1.571  1.00  0.00     0.124 S 
ATOM     88  O   UNL     1      -3.083 -19.260  -3.049  1.00  0.00    -0.237 OA
ATOM     89  O   UNL     1      -2.278 -19.820  -0.751  1.00  0.00    -0.237 OA
ATOM     90  O   UNL     1      -4.774 -18.982  -1.030  1.00  0.00    -0.744 OA
ENDBRANCH  86  87
ENDBRANCH  60  81
ENDBRANCH  34  35
ENDBRANCH  27  29
ENDBRANCH  26  27
ENDBRANCH   1  26
TORSDOF 16
