REMARK SMILES C[NH2+][C@]1(C(=O)OCCOC(=O)c2ccc(-c3c4nc(c(-c5ccc(S(=O)(=O)[O-])cc5)c5ccc([nH]5)c(-c5ccc(S(=O)(=O)[O-])cc5)c5nc(c(-c6ccc(S(=O)(=O)[O-])cc6)c6ccc3[nH]6)C=C5)C=C4)cc2)CCC[C@H](Oc2ccc(C)cc2)C1
REMARK SMILES IDX 8 1 7 2 6 3 4 4 5 5 3 6 72 7 84 8 73 9 75 10 74 11 2 12 1 13
REMARK SMILES IDX 76 16 77 17 78 18 83 19 79 20 82 21 80 22 81 23 9 24 10 25
REMARK SMILES IDX 11 26 12 27 13 28 71 29 14 30 70 31 15 32 16 33 17 34 64 35
REMARK SMILES IDX 18 36 69 37 63 38 65 39 19 40 68 41 62 42 61 43 20 45 50 46
REMARK SMILES IDX 31 47 49 48 32 49 35 50 48 51 66 52 33 53 34 54 47 56 67 57
REMARK SMILES IDX 36 58 21 59 22 60 30 61 23 62 29 63 24 64 25 65 26 66 27 67
REMARK SMILES IDX 28 68 51 69 52 70 60 71 53 72 59 73 54 74 55 75 56 76 57 77
REMARK SMILES IDX 58 78 37 79 38 80 46 81 39 82 45 83 40 84 41 85 42 86 43 87
REMARK SMILES IDX 44 88
REMARK H PARENT 2 14 2 15 65 44 35 55
REMARK Flexibility Score: inf
ROOT
ATOM      1  C   UNL     1       3.170   0.102   0.270  1.00  0.00     0.275 C 
ENDROOT
BRANCH   1   2
ATOM      2  C   UNL     1       2.553   1.068   1.278  1.00  0.00     0.274 C 
BRANCH   2   3
ATOM      3  O   UNL     1       1.118   0.968   1.188  1.00  0.00    -0.457 OA
BRANCH   3   4
ATOM      4  C   UNL     1       0.405   2.131   1.153  1.00  0.00     0.368 C 
ATOM      5  O   UNL     1       0.909   3.245   1.241  1.00  0.00    -0.245 OA
BRANCH   4   6
ATOM      6  C   UNL     1      -1.130   1.874   1.016  1.00  0.00     0.197 C 
ATOM      7  C   UNL     1      -1.451   0.377   1.305  1.00  0.00     0.081 C 
ATOM      8  C   UNL     1      -1.868   2.735   2.079  1.00  0.00     0.126 C 
ATOM      9  C   UNL     1      -2.939   0.062   1.456  1.00  0.00     0.011 C 
ATOM     10  C   UNL     1      -3.387   2.468   2.133  1.00  0.00     0.180 C 
ATOM     11  C   UNL     1      -3.609   0.987   2.468  1.00  0.00     0.046 C 
BRANCH   6  12
ATOM     12  N   UNL     1      -1.581   2.154  -0.380  1.00  0.00    -0.334 N 
ATOM     13  C   UNL     1      -1.368   3.522  -0.852  1.00  0.00     0.331 C 
ATOM     14  H   UNL     1      -1.077   1.524  -1.004  1.00  0.00     0.347 HD
ATOM     15  H   UNL     1      -2.592   2.014  -0.379  1.00  0.00     0.347 HD
ENDBRANCH   6  12
BRANCH  10  16
ATOM     16  O   UNL     1      -3.906   2.824   0.849  1.00  0.00    -0.490 OA
BRANCH  16  17
ATOM     17  C   UNL     1      -5.236   2.775   0.577  1.00  0.00     0.119 A 
ATOM     18  C   UNL     1      -6.264   2.771   1.512  1.00  0.00     0.047 A 
ATOM     19  C   UNL     1      -5.541   2.739  -0.786  1.00  0.00     0.047 A 
ATOM     20  C   UNL     1      -7.593   2.690   1.081  1.00  0.00     0.007 A 
ATOM     21  C   UNL     1      -6.864   2.658  -1.218  1.00  0.00     0.007 A 
ATOM     22  C   UNL     1      -7.903   2.630  -0.285  1.00  0.00    -0.051 A 
ATOM     23  C   UNL     1      -9.328   2.516  -0.734  1.00  0.00     0.044 C 
ENDBRANCH  16  17
ENDBRANCH  10  16
ENDBRANCH   4   6
ENDBRANCH   3   4
ENDBRANCH   2   3
ENDBRANCH   1   2
BRANCH   1  24
ATOM     24  O   UNL     1       2.834   0.569  -1.047  1.00  0.00    -0.458 OA
BRANCH  24  25
ATOM     25  C   UNL     1       2.249  -0.327  -1.871  1.00  0.00     0.338 C 
ATOM     26  O   UNL     1       2.127  -1.531  -1.706  1.00  0.00    -0.246 OA
BRANCH  25  27
ATOM     27  C   UNL     1       1.688   0.418  -3.004  1.00  0.00     0.060 A 
ATOM     28  C   UNL     1       0.505   1.126  -2.797  1.00  0.00     0.016 A 
ATOM     29  C   UNL     1       2.284   0.390  -4.262  1.00  0.00     0.016 A 
ATOM     30  C   UNL     1      -0.095   1.817  -3.846  1.00  0.00     0.010 A 
ATOM     31  C   UNL     1       1.692   1.103  -5.313  1.00  0.00     0.010 A 
ATOM     32  C   UNL     1       0.493   1.814  -5.115  1.00  0.00    -0.014 A 
BRANCH  32  33
ATOM     33  C   UNL     1      -0.204   2.466  -6.253  1.00  0.00     0.031 A 
ATOM     34  C   UNL     1      -0.870   1.609  -7.292  1.00  0.00     0.074 A 
ATOM     35  C   UNL     1      -0.289   3.807  -6.341  1.00  0.00     0.049 A 
ATOM     36  N   UNL     1      -1.413   1.958  -8.429  1.00  0.00    -0.248 NA
ATOM     37  C   UNL     1      -0.939   0.167  -7.006  1.00  0.00     0.031 C 
ATOM     38  C   UNL     1       0.216   4.758  -5.351  1.00  0.00     0.029 A 
ATOM     39  N   UNL     1      -0.841   4.603  -7.317  1.00  0.00    -0.354 N 
ATOM     40  C   UNL     1      -1.861   0.778  -9.010  1.00  0.00     0.074 A 
ATOM     41  C   UNL     1      -1.525  -0.297  -8.100  1.00  0.00     0.031 C 
ATOM     42  C   UNL     1      -0.051   6.008  -5.768  1.00  0.00     0.029 A 
ATOM     43  C   UNL     1      -0.689   5.949  -7.082  1.00  0.00     0.049 A 
ATOM     44  H   UNL     1      -1.302   4.243  -8.109  1.00  0.00     0.167 HD
ATOM     45  C   UNL     1      -2.490   0.604 -10.197  1.00  0.00     0.031 A 
ATOM     46  C   UNL     1      -0.989   7.013  -7.854  1.00  0.00     0.031 A 
ATOM     47  C   UNL     1      -2.823   1.671 -11.102  1.00  0.00     0.049 A 
ATOM     48  C   UNL     1      -1.593   6.790  -9.216  1.00  0.00     0.074 A 
ATOM     49  C   UNL     1      -3.421   1.589 -12.347  1.00  0.00     0.029 A 
ATOM     50  N   UNL     1      -2.592   3.015 -10.856  1.00  0.00    -0.354 N 
ATOM     51  N   UNL     1      -1.948   5.663  -9.787  1.00  0.00    -0.248 NA
ATOM     52  C   UNL     1      -1.823   7.982 -10.046  1.00  0.00     0.031 C 
ATOM     53  C   UNL     1      -3.513   2.882 -12.873  1.00  0.00     0.029 A 
ATOM     54  C   UNL     1      -3.019   3.773 -11.933  1.00  0.00     0.049 A 
ATOM     55  H   UNL     1      -2.184   3.378 -10.037  1.00  0.00     0.167 HD
ATOM     56  C   UNL     1      -2.454   6.012 -11.035  1.00  0.00     0.074 A 
ATOM     57  C   UNL     1      -2.377   7.455 -11.130  1.00  0.00     0.031 C 
ATOM     58  C   UNL     1      -2.937   5.209 -12.015  1.00  0.00     0.031 A 
BRANCH  45  59
ATOM     59  C   UNL     1      -2.797  -0.810 -10.607  1.00  0.00    -0.014 A 
ATOM     60  C   UNL     1      -3.846  -1.533 -10.013  1.00  0.00     0.010 A 
ATOM     61  C   UNL     1      -2.022  -1.420 -11.610  1.00  0.00     0.010 A 
ATOM     62  C   UNL     1      -4.088  -2.858 -10.387  1.00  0.00     0.020 A 
ATOM     63  C   UNL     1      -2.275  -2.736 -12.002  1.00  0.00     0.020 A 
ATOM     64  C   UNL     1      -3.295  -3.454 -11.373  1.00  0.00     0.054 A 
BRANCH  64  65
ATOM     65  S   UNL     1      -3.626  -5.175 -11.841  1.00  0.00     0.124 S 
ATOM     66  O   UNL     1      -3.067  -5.907 -10.707  1.00  0.00    -0.237 OA
ATOM     67  O   UNL     1      -5.082  -5.205 -11.952  1.00  0.00    -0.237 OA
ATOM     68  O   UNL     1      -2.905  -5.335 -13.102  1.00  0.00    -0.744 OA
ENDBRANCH  64  65
ENDBRANCH  45  59
BRANCH  46  69
ATOM     69  C   UNL     1      -0.661   8.390  -7.389  1.00  0.00    -0.014 A 
ATOM     70  C   UNL     1      -1.679   9.304  -7.066  1.00  0.00     0.010 A 
ATOM     71  C   UNL     1       0.682   8.797  -7.279  1.00  0.00     0.010 A 
ATOM     72  C   UNL     1      -1.361  10.603  -6.654  1.00  0.00     0.020 A 
ATOM     73  C   UNL     1       1.004  10.084  -6.842  1.00  0.00     0.020 A 
ATOM     74  C   UNL     1      -0.020  10.984  -6.544  1.00  0.00     0.054 A 
BRANCH  74  75
ATOM     75  S   UNL     1       0.376  12.656  -5.962  1.00  0.00     0.124 S 
ATOM     76  O   UNL     1       0.108  13.462  -7.149  1.00  0.00    -0.237 OA
ATOM     77  O   UNL     1      -0.555  12.836  -4.851  1.00  0.00    -0.237 OA
ATOM     78  O   UNL     1       1.782  12.558  -5.575  1.00  0.00    -0.744 OA
ENDBRANCH  74  75
ENDBRANCH  46  69
BRANCH  58  79
ATOM     79  C   UNL     1      -3.448   5.870 -13.267  1.00  0.00    -0.014 A 
ATOM     80  C   UNL     1      -2.564   6.401 -14.222  1.00  0.00     0.010 A 
ATOM     81  C   UNL     1      -4.832   5.904 -13.518  1.00  0.00     0.010 A 
ATOM     82  C   UNL     1      -3.057   6.976 -15.397  1.00  0.00     0.020 A 
ATOM     83  C   UNL     1      -5.327   6.457 -14.702  1.00  0.00     0.020 A 
ATOM     84  C   UNL     1      -4.436   7.002 -15.629  1.00  0.00     0.054 A 
BRANCH  84  85
ATOM     85  S   UNL     1      -5.051   7.707 -17.184  1.00  0.00     0.124 S 
ATOM     86  O   UNL     1      -4.920   9.141 -16.940  1.00  0.00    -0.237 OA
ATOM     87  O   UNL     1      -4.132   7.152 -18.176  1.00  0.00    -0.237 OA
ATOM     88  O   UNL     1      -6.423   7.212 -17.270  1.00  0.00    -0.744 OA
ENDBRANCH  84  85
ENDBRANCH  58  79
ENDBRANCH  32  33
ENDBRANCH  25  27
ENDBRANCH  24  25
ENDBRANCH   1  24
TORSDOF 17
