REMARK SMILES C[C@@H](C(=O)OCCOC(=O)c1ccc(-c2c3nc(c(-c4ccc(S(=O)(=O)[O-])cc4)c4ccc([nH]4)c(-c4ccc(S(=O)(=O)[O-])cc4)c4nc(c(-c5ccc(S(=O)(=O)[O-])cc5)c5ccc2[nH]5)C=C4)C=C3)cc1)N(C)C(=O)NC[C@H]1C[N@@H+]2CCC[C@@H]2CO1
REMARK SMILES IDX 6 1 5 2 3 3 4 4 2 5 1 6 71 7 72 8 73 9 74 10 75 11 76 13
REMARK SMILES IDX 77 14 78 15 85 16 79 17 84 18 80 19 83 20 81 22 82 23 7 24
REMARK SMILES IDX 8 25 9 26 10 27 11 28 12 29 70 30 13 31 69 32 14 33 15 34
REMARK SMILES IDX 16 35 63 36 17 37 68 38 62 39 64 40 18 41 67 42 61 43 60 44
REMARK SMILES IDX 19 46 49 47 30 48 48 49 31 50 34 51 47 52 65 53 32 54 33 55
REMARK SMILES IDX 46 57 66 58 35 59 20 60 21 61 29 62 22 63 28 64 23 65 24 66
REMARK SMILES IDX 25 67 26 68 27 69 50 70 51 71 59 72 52 73 58 74 53 75 54 76
REMARK SMILES IDX 55 77 56 78 57 79 36 80 37 81 45 82 38 83 44 84 39 85 40 86
REMARK SMILES IDX 41 87 42 88 43 89
REMARK H PARENT 75 12 79 21 64 45 34 56
REMARK Flexibility Score: inf
ROOT
ATOM      1  C   UNL     1       2.367   0.563  -3.649  1.00  0.00     0.274 C 
ENDROOT
BRANCH   1   2
ATOM      2  O   UNL     1       1.983   0.484  -2.261  1.00  0.00    -0.461 OA
BRANCH   2   3
ATOM      3  C   UNL     1       0.941   1.277  -1.867  1.00  0.00     0.328 C 
ATOM      4  O   UNL     1       0.369   2.063  -2.614  1.00  0.00    -0.250 OA
BRANCH   3   5
ATOM      5  C   UNL     1       0.732   1.218  -0.337  1.00  0.00     0.193 C 
ATOM      6  C   UNL     1       1.297  -0.049   0.316  1.00  0.00     0.044 C 
BRANCH   5   7
ATOM      7  N   UNL     1      -0.661   1.556   0.070  1.00  0.00    -0.314 N 
ATOM      8  C   UNL     1      -0.893   2.957   0.381  1.00  0.00     0.149 C 
BRANCH   7   9
ATOM      9  C   UNL     1      -1.634   0.595   0.011  1.00  0.00     0.317 C 
ATOM     10  O   UNL     1      -1.358  -0.603  -0.104  1.00  0.00    -0.249 OA
ATOM     11  N   UNL     1      -2.955   0.867   0.070  1.00  0.00    -0.335 N 
ATOM     12  H   UNL     1      -3.495   0.065   0.253  1.00  0.00     0.165 HD
BRANCH  11  13
ATOM     13  C   UNL     1      -3.775   2.071  -0.075  1.00  0.00     0.155 C 
BRANCH  13  14
ATOM     14  C   UNL     1      -3.914   2.601  -1.519  1.00  0.00     0.192 C 
ATOM     15  C   UNL     1      -4.527   4.029  -1.546  1.00  0.00     0.296 C 
ATOM     16  O   UNL     1      -2.660   2.508  -2.200  1.00  0.00    -0.364 OA
ATOM     17  N   UNL     1      -3.870   5.032  -2.386  1.00  0.00    -0.328 N 
ATOM     18  C   UNL     1      -2.762   3.026  -3.522  1.00  0.00     0.225 C 
ATOM     19  C   UNL     1      -4.787   6.050  -2.919  1.00  0.00     0.262 C 
ATOM     20  C   UNL     1      -3.030   4.527  -3.484  1.00  0.00     0.210 C 
ATOM     21  H   UNL     1      -3.235   5.457  -1.710  1.00  0.00     0.348 HD
ATOM     22  C   UNL     1      -4.268   6.367  -4.313  1.00  0.00     0.068 C 
ATOM     23  C   UNL     1      -3.671   5.049  -4.762  1.00  0.00     0.073 C 
ENDBRANCH  13  14
ENDBRANCH  11  13
ENDBRANCH   7   9
ENDBRANCH   5   7
ENDBRANCH   3   5
ENDBRANCH   2   3
ENDBRANCH   1   2
BRANCH   1  24
ATOM     24  C   UNL     1       1.895  -0.679  -4.395  1.00  0.00     0.275 C 
BRANCH  24  25
ATOM     25  O   UNL     1       0.461  -0.668  -4.447  1.00  0.00    -0.458 OA
BRANCH  25  26
ATOM     26  C   UNL     1      -0.149  -1.854  -4.208  1.00  0.00     0.338 C 
ATOM     27  O   UNL     1       0.380  -2.939  -4.053  1.00  0.00    -0.246 OA
BRANCH  26  28
ATOM     28  C   UNL     1      -1.606  -1.636  -4.201  1.00  0.00     0.060 A 
ATOM     29  C   UNL     1      -2.155  -0.760  -3.272  1.00  0.00     0.016 A 
ATOM     30  C   UNL     1      -2.438  -2.358  -5.060  1.00  0.00     0.016 A 
ATOM     31  C   UNL     1      -3.538  -0.645  -3.170  1.00  0.00     0.010 A 
ATOM     32  C   UNL     1      -3.831  -2.186  -4.997  1.00  0.00     0.010 A 
ATOM     33  C   UNL     1      -4.394  -1.333  -4.037  1.00  0.00    -0.014 A 
BRANCH  33  34
ATOM     34  C   UNL     1      -5.861  -1.187  -3.847  1.00  0.00     0.031 A 
ATOM     35  C   UNL     1      -6.628  -2.251  -3.123  1.00  0.00     0.074 A 
ATOM     36  C   UNL     1      -6.489  -0.042  -4.179  1.00  0.00     0.049 A 
ATOM     37  N   UNL     1      -7.912  -2.313  -2.880  1.00  0.00    -0.248 NA
ATOM     38  C   UNL     1      -5.851  -3.380  -2.591  1.00  0.00     0.031 C 
ATOM     39  C   UNL     1      -5.840   1.116  -4.783  1.00  0.00     0.029 A 
ATOM     40  N   UNL     1      -7.791   0.362  -4.007  1.00  0.00    -0.354 N 
ATOM     41  C   UNL     1      -8.108  -3.514  -2.212  1.00  0.00     0.074 A 
ATOM     42  C   UNL     1      -6.805  -4.129  -2.057  1.00  0.00     0.031 C 
ATOM     43  C   UNL     1      -6.715   2.133  -4.838  1.00  0.00     0.029 A 
ATOM     44  C   UNL     1      -8.023   1.664  -4.389  1.00  0.00     0.049 A 
ATOM     45  H   UNL     1      -8.493  -0.226  -3.644  1.00  0.00     0.167 HD
ATOM     46  C   UNL     1      -9.272  -4.068  -1.799  1.00  0.00     0.031 A 
ATOM     47  C   UNL     1      -9.162   2.387  -4.416  1.00  0.00     0.031 A 
ATOM     48  C   UNL     1     -10.568  -3.467  -1.972  1.00  0.00     0.049 A 
ATOM     49  C   UNL     1     -10.456   1.721  -4.031  1.00  0.00     0.074 A 
ATOM     50  C   UNL     1     -11.812  -4.003  -1.687  1.00  0.00     0.029 A 
ATOM     51  N   UNL     1     -10.789  -2.192  -2.470  1.00  0.00    -0.354 N 
ATOM     52  N   UNL     1     -10.645   0.527  -3.522  1.00  0.00    -0.248 NA
ATOM     53  C   UNL     1     -11.693   2.480  -4.267  1.00  0.00     0.031 C 
ATOM     54  C   UNL     1     -12.788  -3.067  -2.054  1.00  0.00     0.029 A 
ATOM     55  C   UNL     1     -12.149  -1.929  -2.518  1.00  0.00     0.049 A 
ATOM     56  H   UNL     1     -10.083  -1.566  -2.750  1.00  0.00     0.167 HD
ATOM     57  C   UNL     1     -12.023   0.384  -3.396  1.00  0.00     0.074 A 
ATOM     58  C   UNL     1     -12.616   1.630  -3.837  1.00  0.00     0.031 C 
ATOM     59  C   UNL     1     -12.732  -0.693  -2.973  1.00  0.00     0.031 A 
BRANCH  46  60
ATOM     60  C   UNL     1      -9.191  -5.455  -1.230  1.00  0.00    -0.014 A 
ATOM     61  C   UNL     1      -8.734  -5.694   0.077  1.00  0.00     0.010 A 
ATOM     62  C   UNL     1      -9.566  -6.541  -2.040  1.00  0.00     0.010 A 
ATOM     63  C   UNL     1      -8.619  -7.004   0.551  1.00  0.00     0.020 A 
ATOM     64  C   UNL     1      -9.471  -7.849  -1.564  1.00  0.00     0.020 A 
ATOM     65  C   UNL     1      -8.980  -8.073  -0.277  1.00  0.00     0.054 A 
BRANCH  65  66
ATOM     66  S   UNL     1      -8.818  -9.766   0.354  1.00  0.00     0.124 S 
ATOM     67  O   UNL     1      -7.374  -9.975   0.286  1.00  0.00    -0.237 OA
ATOM     68  O   UNL     1      -9.376  -9.663   1.700  1.00  0.00    -0.237 OA
ATOM     69  O   UNL     1      -9.607 -10.562  -0.584  1.00  0.00    -0.744 OA
ENDBRANCH  65  66
ENDBRANCH  46  60
BRANCH  47  70
ATOM     70  C   UNL     1      -9.146   3.799  -4.897  1.00  0.00    -0.014 A 
ATOM     71  C   UNL     1      -9.480   4.859  -4.036  1.00  0.00     0.010 A 
ATOM     72  C   UNL     1      -8.784   4.094  -6.226  1.00  0.00     0.010 A 
ATOM     73  C   UNL     1      -9.441   6.183  -4.489  1.00  0.00     0.020 A 
ATOM     74  C   UNL     1      -8.707   5.415  -6.672  1.00  0.00     0.020 A 
ATOM     75  C   UNL     1      -9.042   6.452  -5.801  1.00  0.00     0.054 A 
BRANCH  75  76
ATOM     76  S   UNL     1      -8.894   8.177  -6.345  1.00  0.00     0.124 S 
ATOM     77  O   UNL     1     -10.285   8.535  -6.599  1.00  0.00    -0.237 OA
ATOM     78  O   UNL     1      -8.273   8.819  -5.189  1.00  0.00    -0.237 OA
ATOM     79  O   UNL     1      -8.040   8.086  -7.527  1.00  0.00    -0.744 OA
ENDBRANCH  75  76
ENDBRANCH  47  70
BRANCH  59  80
ATOM     80  C   UNL     1     -14.232  -0.572  -2.971  1.00  0.00    -0.014 A 
ATOM     81  C   UNL     1     -14.961  -0.604  -4.173  1.00  0.00     0.010 A 
ATOM     82  C   UNL     1     -14.925  -0.465  -1.752  1.00  0.00     0.010 A 
ATOM     83  C   UNL     1     -16.355  -0.495  -4.159  1.00  0.00     0.020 A 
ATOM     84  C   UNL     1     -16.320  -0.377  -1.732  1.00  0.00     0.020 A 
ATOM     85  C   UNL     1     -17.025  -0.377  -2.938  1.00  0.00     0.054 A 
BRANCH  85  86
ATOM     86  S   UNL     1     -18.836  -0.262  -2.942  1.00  0.00     0.124 S 
ATOM     87  O   UNL     1     -19.051   1.118  -3.369  1.00  0.00    -0.237 OA
ATOM     88  O   UNL     1     -19.223  -1.286  -3.908  1.00  0.00    -0.237 OA
ATOM     89  O   UNL     1     -19.203  -0.550  -1.557  1.00  0.00    -0.744 OA
ENDBRANCH  85  86
ENDBRANCH  59  80
ENDBRANCH  33  34
ENDBRANCH  26  28
ENDBRANCH  25  26
ENDBRANCH  24  25
ENDBRANCH   1  24
TORSDOF 18
