REMARK SMILES Nc1nonc1C(=O)N1[C@@H]2CC[C@H]1C[C@H](CC(=O)OCCOC(=O)c1ccc(-c3c4nc(c(-c5ccc(S(=O)(=O)[O-])cc5)c5ccc([nH]5)c(-c5ccc(S(=O)(=O)[O-])cc5)c5nc(c(-c6ccc(S(=O)(=O)[O-])cc6)c6ccc3[nH]6)C=C5)C=C4)cc1)C2
REMARK SMILES IDX 20 1 19 2 17 3 18 4 16 5 15 6 9 7 10 8 13 9 11 10 85 11
REMARK SMILES IDX 12 12 14 13 7 14 8 15 6 16 2 17 3 18 4 19 5 20 1 21 21 24
REMARK SMILES IDX 22 25 23 26 24 27 25 28 26 29 84 30 27 31 83 32 28 33 29 34
REMARK SMILES IDX 30 35 77 36 31 37 82 38 76 39 78 40 32 41 81 42 75 43 74 44
REMARK SMILES IDX 33 46 63 47 44 48 62 49 45 50 48 51 61 52 79 53 46 54 47 55
REMARK SMILES IDX 60 57 80 58 49 59 34 60 35 61 43 62 36 63 42 64 37 65 38 66
REMARK SMILES IDX 39 67 40 68 41 69 64 70 65 71 73 72 66 73 72 74 67 75 68 76
REMARK SMILES IDX 69 77 70 78 71 79 50 80 51 81 59 82 52 83 58 84 53 85 54 86
REMARK SMILES IDX 55 87 56 88 57 89
REMARK H PARENT 1 22 1 23 78 45 48 56
REMARK Flexibility Score: inf
ROOT
ATOM      1  C   UNL     1       7.246   0.410   0.308  1.00  0.00     0.274 C 
ENDROOT
BRANCH   1   2
ATOM      2  O   UNL     1       6.003  -0.146  -0.157  1.00  0.00    -0.462 OA
BRANCH   2   3
ATOM      3  C   UNL     1       5.756  -0.032  -1.484  1.00  0.00     0.306 C 
ATOM      4  O   UNL     1       6.449   0.593  -2.276  1.00  0.00    -0.252 OA
BRANCH   3   5
ATOM      5  C   UNL     1       4.461  -0.696  -1.891  1.00  0.00     0.126 C 
BRANCH   5   6
ATOM      6  C   UNL     1       4.124  -2.062  -1.246  1.00  0.00     0.004 C 
ATOM      7  N   UNL     1       1.567  -2.697  -0.212  1.00  0.00    -0.331 N 
ATOM      8  C   UNL     1       2.018  -3.574  -1.278  1.00  0.00     0.086 C 
ATOM      9  C   UNL     1       2.623  -2.745   0.784  1.00  0.00     0.086 C 
ATOM     10  C   UNL     1       2.693  -4.752  -0.564  1.00  0.00     0.027 C 
ATOM     11  C   UNL     1       3.008  -2.743  -2.094  1.00  0.00     0.029 C 
ATOM     12  C   UNL     1       2.978  -4.235   0.847  1.00  0.00     0.027 C 
ATOM     13  C   UNL     1       3.813  -1.922   0.274  1.00  0.00     0.029 C 
BRANCH   7  14
ATOM     14  C   UNL     1       0.224  -2.701   0.162  1.00  0.00     0.280 C 
ATOM     15  O   UNL     1      -0.425  -3.747   0.173  1.00  0.00    -0.267 OA
BRANCH  14  16
ATOM     16  C   UNL     1      -0.376  -1.393   0.444  1.00  0.00     0.216 A 
ATOM     17  C   UNL     1       0.113  -0.072   0.256  1.00  0.00     0.201 A 
ATOM     18  N   UNL     1      -0.812   0.809   0.625  1.00  0.00    -0.032 NA
ATOM     19  O   UNL     1      -1.904   0.048   1.007  1.00  0.00    -0.242 OA
ATOM     20  N   UNL     1      -1.634  -1.306   0.907  1.00  0.00    -0.042 NA
BRANCH  17  21
ATOM     21  N   UNL     1       1.305   0.284  -0.245  1.00  0.00    -0.379 N 
ATOM     22  H   UNL     1       1.538   1.236  -0.330  1.00  0.00     0.158 HD
ATOM     23  H   UNL     1       1.946  -0.407  -0.527  1.00  0.00     0.158 HD
ENDBRANCH  17  21
ENDBRANCH  14  16
ENDBRANCH   7  14
ENDBRANCH   5   6
ENDBRANCH   3   5
ENDBRANCH   2   3
ENDBRANCH   1   2
BRANCH   1  24
ATOM     24  C   UNL     1       8.312  -0.679   0.425  1.00  0.00     0.275 C 
BRANCH  24  25
ATOM     25  O   UNL     1       8.680  -1.186  -0.871  1.00  0.00    -0.458 OA
BRANCH  25  26
ATOM     26  C   UNL     1       8.083  -2.344  -1.241  1.00  0.00     0.338 C 
ATOM     27  O   UNL     1       7.321  -3.027  -0.582  1.00  0.00    -0.246 OA
BRANCH  26  28
ATOM     28  C   UNL     1       8.403  -2.611  -2.651  1.00  0.00     0.060 A 
ATOM     29  C   UNL     1       7.419  -2.397  -3.620  1.00  0.00     0.016 A 
ATOM     30  C   UNL     1       9.655  -3.108  -3.009  1.00  0.00     0.016 A 
ATOM     31  C   UNL     1       7.687  -2.660  -4.961  1.00  0.00     0.010 A 
ATOM     32  C   UNL     1       9.924  -3.370  -4.354  1.00  0.00     0.010 A 
ATOM     33  C   UNL     1       8.944  -3.145  -5.338  1.00  0.00    -0.014 A 
BRANCH  33  34
ATOM     34  C   UNL     1       9.237  -3.434  -6.760  1.00  0.00     0.031 A 
ATOM     35  C   UNL     1       9.344  -4.856  -7.226  1.00  0.00     0.074 A 
ATOM     36  C   UNL     1       9.428  -2.418  -7.622  1.00  0.00     0.049 A 
ATOM     37  N   UNL     1       9.726  -5.317  -8.388  1.00  0.00    -0.248 NA
ATOM     38  C   UNL     1       8.974  -5.897  -6.253  1.00  0.00     0.031 C 
ATOM     39  C   UNL     1       9.303  -0.996  -7.296  1.00  0.00     0.029 A 
ATOM     40  N   UNL     1       9.785  -2.428  -8.947  1.00  0.00    -0.354 N 
ATOM     41  C   UNL     1       9.666  -6.701  -8.283  1.00  0.00     0.074 A 
ATOM     42  C   UNL     1       9.222  -7.004  -6.938  1.00  0.00     0.031 C 
ATOM     43  C   UNL     1       9.590  -0.270  -8.389  1.00  0.00     0.029 A 
ATOM     44  C   UNL     1       9.971  -1.171  -9.473  1.00  0.00     0.049 A 
ATOM     45  H   UNL     1       9.897  -3.254  -9.470  1.00  0.00     0.167 HD
ATOM     46  C   UNL     1       9.960  -7.631  -9.222  1.00  0.00     0.031 A 
ATOM     47  C   UNL     1      10.437  -0.788 -10.677  1.00  0.00     0.031 A 
ATOM     48  C   UNL     1      10.412  -7.319 -10.552  1.00  0.00     0.049 A 
ATOM     49  C   UNL     1      10.830  -1.839 -11.679  1.00  0.00     0.074 A 
ATOM     50  C   UNL     1      10.733  -8.189 -11.579  1.00  0.00     0.029 A 
ATOM     51  N   UNL     1      10.612  -6.035 -11.038  1.00  0.00    -0.354 N 
ATOM     52  N   UNL     1      10.774  -3.145 -11.565  1.00  0.00    -0.248 NA
ATOM     53  C   UNL     1      11.353  -1.367 -12.967  1.00  0.00     0.031 C 
ATOM     54  C   UNL     1      11.174  -7.432 -12.670  1.00  0.00     0.029 A 
ATOM     55  C   UNL     1      11.076  -6.089 -12.341  1.00  0.00     0.049 A 
ATOM     56  H   UNL     1      10.449  -5.207 -10.530  1.00  0.00     0.167 HD
ATOM     57  C   UNL     1      11.241  -3.650 -12.772  1.00  0.00     0.074 A 
ATOM     58  C   UNL     1      11.560  -2.510 -13.608  1.00  0.00     0.031 C 
ATOM     59  C   UNL     1      11.393  -4.942 -13.155  1.00  0.00     0.031 A 
BRANCH  46  60
ATOM     60  C   UNL     1       9.842  -9.077  -8.822  1.00  0.00    -0.014 A 
ATOM     61  C   UNL     1       8.587  -9.685  -8.642  1.00  0.00     0.010 A 
ATOM     62  C   UNL     1      11.007  -9.845  -8.642  1.00  0.00     0.010 A 
ATOM     63  C   UNL     1       8.500 -11.022  -8.245  1.00  0.00     0.020 A 
ATOM     64  C   UNL     1      10.924 -11.189  -8.268  1.00  0.00     0.020 A 
ATOM     65  C   UNL     1       9.670 -11.763  -8.053  1.00  0.00     0.054 A 
BRANCH  65  66
ATOM     66  S   UNL     1       9.530 -13.497  -7.537  1.00  0.00     0.124 S 
ATOM     67  O   UNL     1       9.159 -13.361  -6.130  1.00  0.00    -0.237 OA
ATOM     68  O   UNL     1       8.482 -14.011  -8.415  1.00  0.00    -0.237 OA
ATOM     69  O   UNL     1      10.864 -14.040  -7.780  1.00  0.00    -0.744 OA
ENDBRANCH  65  66
ENDBRANCH  46  60
BRANCH  47  70
ATOM     70  C   UNL     1      10.598   0.660 -10.979  1.00  0.00    -0.014 A 
ATOM     71  C   UNL     1       9.747   1.301 -11.895  1.00  0.00     0.010 A 
ATOM     72  C   UNL     1      11.594   1.411 -10.327  1.00  0.00     0.010 A 
ATOM     73  C   UNL     1       9.892   2.667 -12.157  1.00  0.00     0.020 A 
ATOM     74  C   UNL     1      11.725   2.781 -10.568  1.00  0.00     0.020 A 
ATOM     75  C   UNL     1      10.878   3.399 -11.489  1.00  0.00     0.054 A 
BRANCH  75  76
ATOM     76  S   UNL     1      11.006   5.184 -11.794  1.00  0.00     0.124 S 
ATOM     77  O   UNL     1      11.649   5.222 -13.103  1.00  0.00    -0.237 OA
ATOM     78  O   UNL     1       9.609   5.611 -11.762  1.00  0.00    -0.237 OA
ATOM     79  O   UNL     1      11.821   5.662 -10.680  1.00  0.00    -0.744 OA
ENDBRANCH  75  76
ENDBRANCH  47  70
BRANCH  59  80
ATOM     80  C   UNL     1      11.906  -5.195 -14.546  1.00  0.00    -0.014 A 
ATOM     81  C   UNL     1      13.262  -5.005 -14.865  1.00  0.00     0.010 A 
ATOM     82  C   UNL     1      11.031  -5.693 -15.529  1.00  0.00     0.010 A 
ATOM     83  C   UNL     1      13.730  -5.289 -16.151  1.00  0.00     0.020 A 
ATOM     84  C   UNL     1      11.501  -6.000 -16.808  1.00  0.00     0.020 A 
ATOM     85  C   UNL     1      12.847  -5.787 -17.114  1.00  0.00     0.054 A 
BRANCH  85  86
ATOM     86  S   UNL     1      13.490  -6.204 -18.758  1.00  0.00     0.124 S 
ATOM     87  O   UNL     1      13.665  -4.885 -19.360  1.00  0.00    -0.237 OA
ATOM     88  O   UNL     1      14.724  -6.923 -18.448  1.00  0.00    -0.237 OA
ATOM     89  O   UNL     1      12.431  -7.022 -19.346  1.00  0.00    -0.744 OA
ENDBRANCH  85  86
ENDBRANCH  59  80
ENDBRANCH  33  34
ENDBRANCH  26  28
ENDBRANCH  25  26
ENDBRANCH  24  25
ENDBRANCH   1  24
TORSDOF 18
