REMARK SMILES C[C@H](C[NH+](C)[C@@H](C)[C@@H](C)O)C(=O)OCCOC(=O)c1ccc(-c2c3nc(c(-c4ccc(S(=O)(=O)[O-])cc4)c4ccc([nH]4)c(-c4ccc(S(=O)(=O)[O-])cc4)c4nc(c(-c5ccc(S(=O)(=O)[O-])cc5)c5ccc2[nH]5)C=C4)C=C3)cc1
REMARK SMILES IDX 14 1 13 2 11 3 12 4 2 5 1 6 3 7 4 8 5 9 6 11 7 12 8 13 9 14
REMARK SMILES IDX 10 15 15 17 16 18 17 19 18 20 19 21 20 22 78 23 21 24 77 25
REMARK SMILES IDX 22 26 23 27 24 28 71 29 25 30 76 31 70 32 72 33 26 34 75 35
REMARK SMILES IDX 69 36 68 37 27 39 57 40 38 41 56 42 39 43 42 44 55 45 73 46
REMARK SMILES IDX 40 47 41 48 54 50 74 51 43 52 28 53 29 54 37 55 30 56 36 57
REMARK SMILES IDX 31 58 32 59 33 60 34 61 35 62 58 63 59 64 67 65 60 66 66 67
REMARK SMILES IDX 61 68 62 69 63 70 64 71 65 72 44 73 45 74 53 75 46 76 52 77
REMARK SMILES IDX 47 78 48 79 49 80 50 81 51 82
REMARK H PARENT 4 10 10 16 72 38 42 49
REMARK Flexibility Score: inf
ROOT
ATOM      1  C   UNL     1      -3.124  -1.621   0.370  1.00  0.00     0.274 C 
ENDROOT
BRANCH   1   2
ATOM      2  O   UNL     1      -1.554  -1.904   0.355  1.00  0.00    -0.462 OA
BRANCH   2   3
ATOM      3  C   UNL     1      -0.557  -2.790  -0.075  1.00  0.00     0.314 C 
ATOM      4  O   UNL     1      -0.750  -3.990  -0.236  1.00  0.00    -0.252 OA
BRANCH   3   5
ATOM      5  C   UNL     1       0.770  -2.018  -0.718  1.00  0.00     0.151 C 
ATOM      6  C   UNL     1       1.977  -2.776  -1.273  1.00  0.00     0.026 C 
BRANCH   5   7
ATOM      7  C   UNL     1       1.335  -0.786  -0.014  1.00  0.00     0.277 C 
BRANCH   7   8
ATOM      8  N   UNL     1       0.385  -0.226   0.865  1.00  0.00    -0.332 N 
ATOM      9  C   UNL     1       0.674  -0.321   2.283  1.00  0.00     0.333 C 
ATOM     10  H   UNL     1      -0.281   0.398   1.321  1.00  0.00     0.348 HD
BRANCH   8  11
ATOM     11  C   UNL     1      -0.826   0.388   0.291  1.00  0.00     0.209 C 
ATOM     12  C   UNL     1      -0.966   1.712   1.072  1.00  0.00     0.078 C 
BRANCH  11  13
ATOM     13  C   UNL     1      -1.177  -0.001  -1.462  1.00  0.00     0.169 C 
ATOM     14  C   UNL     1      -1.782  -1.297  -2.167  1.00  0.00     0.045 C 
BRANCH  13  15
ATOM     15  O   UNL     1      -2.013   0.804  -2.263  1.00  0.00    -0.387 OA
ATOM     16  H   UNL     1      -2.938   0.545  -2.127  1.00  0.00     0.211 HD
ENDBRANCH  13  15
ENDBRANCH  11  13
ENDBRANCH   8  11
ENDBRANCH   7   8
ENDBRANCH   5   7
ENDBRANCH   3   5
ENDBRANCH   2   3
ENDBRANCH   1   2
BRANCH   1  17
ATOM     17  C   UNL     1      -3.775   0.062   0.387  1.00  0.00     0.275 C 
BRANCH  17  18
ATOM     18  O   UNL     1      -3.487   1.137  -0.724  1.00  0.00    -0.458 OA
BRANCH  18  19
ATOM     19  C   UNL     1      -3.194   2.540  -0.683  1.00  0.00     0.338 C 
ATOM     20  O   UNL     1      -3.428   3.223   0.312  1.00  0.00    -0.246 OA
BRANCH  19  21
ATOM     21  C   UNL     1      -2.535   3.324  -1.925  1.00  0.00     0.060 A 
ATOM     22  C   UNL     1      -1.305   3.051  -2.600  1.00  0.00     0.016 A 
ATOM     23  C   UNL     1      -3.092   4.554  -2.285  1.00  0.00     0.016 A 
ATOM     24  C   UNL     1      -0.773   3.796  -3.666  1.00  0.00     0.010 A 
ATOM     25  C   UNL     1      -2.509   5.381  -3.285  1.00  0.00     0.010 A 
ATOM     26  C   UNL     1      -1.359   4.997  -3.997  1.00  0.00    -0.014 A 
BRANCH  26  27
ATOM     27  C   UNL     1      -0.712   5.899  -4.978  1.00  0.00     0.031 A 
ATOM     28  C   UNL     1      -0.050   7.148  -4.484  1.00  0.00     0.074 A 
ATOM     29  C   UNL     1      -0.748   5.618  -6.293  1.00  0.00     0.049 A 
ATOM     30  N   UNL     1       0.253   8.238  -5.134  1.00  0.00    -0.248 NA
ATOM     31  C   UNL     1       0.304   7.173  -3.056  1.00  0.00     0.031 C 
ATOM     32  C   UNL     1      -1.226   4.364  -6.878  1.00  0.00     0.029 A 
ATOM     33  N   UNL     1      -0.432   6.398  -7.378  1.00  0.00    -0.354 N 
ATOM     34  C   UNL     1       0.758   9.114  -4.179  1.00  0.00     0.074 A 
ATOM     35  C   UNL     1       0.749   8.413  -2.913  1.00  0.00     0.031 C 
ATOM     36  C   UNL     1      -1.247   4.486  -8.214  1.00  0.00     0.029 A 
ATOM     37  C   UNL     1      -0.863   5.849  -8.564  1.00  0.00     0.049 A 
ATOM     38  H   UNL     1       0.049   7.254  -7.315  1.00  0.00     0.167 HD
ATOM     39  C   UNL     1       1.152  10.398  -4.356  1.00  0.00     0.031 A 
ATOM     40  C   UNL     1      -1.025   6.411  -9.777  1.00  0.00     0.031 A 
ATOM     41  C   UNL     1       1.127  11.055  -5.638  1.00  0.00     0.049 A 
ATOM     42  C   UNL     1      -0.674   7.861  -9.949  1.00  0.00     0.074 A 
ATOM     43  C   UNL     1       1.499  12.348  -5.956  1.00  0.00     0.029 A 
ATOM     44  N   UNL     1       0.692  10.461  -6.818  1.00  0.00    -0.354 N 
ATOM     45  N   UNL     1      -0.250   8.712  -9.044  1.00  0.00    -0.248 NA
ATOM     46  C   UNL     1      -0.818   8.426 -11.294  1.00  0.00     0.031 C 
ATOM     47  C   UNL     1       1.230  12.554  -7.314  1.00  0.00     0.029 A 
ATOM     48  C   UNL     1       0.762  11.367  -7.861  1.00  0.00     0.049 A 
ATOM     49  H   UNL     1       0.380   9.531  -6.899  1.00  0.00     0.167 HD
ATOM     50  C   UNL     1      -0.042   9.909  -9.717  1.00  0.00     0.074 A 
ATOM     51  C   UNL     1      -0.391   9.668 -11.105  1.00  0.00     0.031 C 
ATOM     52  C   UNL     1       0.407  11.095  -9.234  1.00  0.00     0.031 A 
BRANCH  39  53
ATOM     53  C   UNL     1       1.537  11.187  -3.129  1.00  0.00    -0.014 A 
ATOM     54  C   UNL     1       2.690  10.891  -2.379  1.00  0.00     0.010 A 
ATOM     55  C   UNL     1       0.710  12.246  -2.710  1.00  0.00     0.010 A 
ATOM     56  C   UNL     1       2.970  11.594  -1.202  1.00  0.00     0.020 A 
ATOM     57  C   UNL     1       1.004  12.974  -1.552  1.00  0.00     0.020 A 
ATOM     58  C   UNL     1       2.120  12.623  -0.790  1.00  0.00     0.054 A 
BRANCH  58  59
ATOM     59  S   UNL     1       2.482  13.509   0.752  1.00  0.00     0.124 S 
ATOM     60  O   UNL     1       2.151  12.497   1.762  1.00  0.00    -0.237 OA
ATOM     61  O   UNL     1       3.918  13.799   0.620  1.00  0.00    -0.237 OA
ATOM     62  O   UNL     1       1.612  14.661   0.714  1.00  0.00    -0.744 OA
ENDBRANCH  58  59
ENDBRANCH  39  53
BRANCH  40  63
ATOM     63  C   UNL     1      -1.604   5.596 -10.879  1.00  0.00    -0.014 A 
ATOM     64  C   UNL     1      -0.789   5.126 -11.920  1.00  0.00     0.010 A 
ATOM     65  C   UNL     1      -2.953   5.189 -10.827  1.00  0.00     0.010 A 
ATOM     66  C   UNL     1      -1.305   4.249 -12.880  1.00  0.00     0.020 A 
ATOM     67  C   UNL     1      -3.464   4.291 -11.769  1.00  0.00     0.020 A 
ATOM     68  C   UNL     1      -2.635   3.825 -12.789  1.00  0.00     0.054 A 
BRANCH  68  69
ATOM     69  S   UNL     1      -3.241   2.598 -13.980  1.00  0.00     0.124 S 
ATOM     70  O   UNL     1      -3.316   3.379 -15.211  1.00  0.00    -0.237 OA
ATOM     71  O   UNL     1      -2.194   1.579 -13.940  1.00  0.00    -0.237 OA
ATOM     72  O   UNL     1      -4.526   2.182 -13.422  1.00  0.00    -0.744 OA
ENDBRANCH  68  69
ENDBRANCH  40  63
BRANCH  52  73
ATOM     73  C   UNL     1       0.607  12.209 -10.225  1.00  0.00    -0.014 A 
ATOM     74  C   UNL     1      -0.480  12.903 -10.781  1.00  0.00     0.010 A 
ATOM     75  C   UNL     1       1.918  12.616 -10.537  1.00  0.00     0.010 A 
ATOM     76  C   UNL     1      -0.259  13.978 -11.646  1.00  0.00     0.020 A 
ATOM     77  C   UNL     1       2.143  13.707 -11.376  1.00  0.00     0.020 A 
ATOM     78  C   UNL     1       1.051  14.377 -11.932  1.00  0.00     0.054 A 
BRANCH  78  79
ATOM     79  S   UNL     1       1.310  15.822 -12.996  1.00  0.00     0.124 S 
ATOM     80  O   UNL     1       0.937  15.303 -14.309  1.00  0.00    -0.237 OA
ATOM     81  O   UNL     1       0.395  16.807 -12.426  1.00  0.00    -0.237 OA
ATOM     82  O   UNL     1       2.729  16.127 -12.828  1.00  0.00    -0.744 OA
ENDBRANCH  78  79
ENDBRANCH  52  73
ENDBRANCH  26  27
ENDBRANCH  19  21
ENDBRANCH  18  19
ENDBRANCH  17  18
ENDBRANCH   1  17
TORSDOF 19
