REMARK SMILES O=C(N[C@@H](Cc1c[nH]c2ccccc12)C(=O)N[C@@H](CO)C(=O)OCCOC(=O)c1ccc(-c2c3nc(c(-c4ccc(S(=O)(=O)[O-])cc4)c4ccc([nH]4)c(-c4ccc(S(=O)(=O)[O-])cc4)c4nc(c(-c5ccc(S(=O)(=O)[O-])cc5)c5ccc2[nH]5)C=C4)C=C3)cc1)c1ccc(F)cc1
REMARK SMILES IDX 24 1 23 2 21 3 22 4 18 5 17 6 15 7 16 8 4 10 3 11 1 12 2 13
REMARK SMILES IDX 89 15 90 16 95 17 91 18 94 19 92 20 93 21 5 22 6 23 7 24
REMARK SMILES IDX 14 25 8 26 9 27 13 28 10 30 12 31 11 32 19 33 20 34 25 36
REMARK SMILES IDX 26 37 27 38 28 39 29 40 30 41 88 42 31 43 87 44 32 45 33 46
REMARK SMILES IDX 34 47 81 48 35 49 86 50 80 51 82 52 36 53 85 54 79 55 78 56
REMARK SMILES IDX 37 58 67 59 48 60 66 61 49 62 52 63 65 64 83 65 50 66 51 67
REMARK SMILES IDX 64 69 84 70 53 71 38 72 39 73 47 74 40 75 46 76 41 77 42 78
REMARK SMILES IDX 43 79 44 80 45 81 68 82 69 83 77 84 70 85 76 86 71 87 72 88
REMARK SMILES IDX 73 89 74 90 75 91 54 92 55 93 63 94 56 95 62 96 57 97 58 98
REMARK SMILES IDX 59 99 60 100 61 101
REMARK H PARENT 17 9 3 14 8 29 20 35 82 57 52 68
REMARK Flexibility Score: inf
ROOT
ATOM      1  C   UNL     1       6.553   3.812   5.493  1.00  0.00     0.274 C 
ENDROOT
BRANCH   1   2
ATOM      2  O   UNL     1       5.822   2.673   5.002  1.00  0.00    -0.460 OA
BRANCH   2   3
ATOM      3  C   UNL     1       4.568   2.551   5.540  1.00  0.00     0.331 C 
ATOM      4  O   UNL     1       4.095   3.324   6.367  1.00  0.00    -0.250 OA
BRANCH   3   5
ATOM      5  C   UNL     1       3.764   1.415   4.891  1.00  0.00     0.218 C 
BRANCH   5   6
ATOM      6  N   UNL     1       4.485   0.414   4.128  1.00  0.00    -0.339 N 
ATOM      7  C   UNL     1       4.427   0.131   2.801  1.00  0.00     0.243 C 
ATOM      8  O   UNL     1       5.002  -0.919   2.479  1.00  0.00    -0.273 OA
ATOM      9  H   UNL     1       5.109  -0.141   4.649  1.00  0.00     0.164 HD
BRANCH   7  10
ATOM     10  C   UNL     1       3.599   0.931   1.730  1.00  0.00     0.176 C 
BRANCH  10  11
ATOM     11  N   UNL     1       2.307   0.339   1.396  1.00  0.00    -0.340 N 
ATOM     12  O   UNL     1       0.697  -0.506   0.085  1.00  0.00    -0.269 OA
ATOM     13  C   UNL     1       1.900  -0.310   0.250  1.00  0.00     0.251 C 
ATOM     14  H   UNL     1       1.620   0.414   2.097  1.00  0.00     0.164 HD
BRANCH  13  15
ATOM     15  C   UNL     1       2.842  -0.789  -0.800  1.00  0.00     0.040 A 
ATOM     16  C   UNL     1       3.902  -1.652  -0.496  1.00  0.00     0.017 A 
ATOM     17  C   UNL     1       2.545  -0.518  -2.147  1.00  0.00     0.017 A 
ATOM     18  C   UNL     1       4.676  -2.209  -1.522  1.00  0.00     0.040 A 
ATOM     19  C   UNL     1       3.317  -1.082  -3.171  1.00  0.00     0.040 A 
ATOM     20  C   UNL     1       4.374  -1.924  -2.848  1.00  0.00     0.123 A 
ATOM     21  F   UNL     1       5.090  -2.496  -3.825  1.00  0.00    -0.207 F 
ENDBRANCH  13  15
ENDBRANCH  10  11
BRANCH  10  22
ATOM     22  C   UNL     1       3.623   2.476   1.691  1.00  0.00     0.072 C 
BRANCH  22  23
ATOM     23  C   UNL     1       2.789   3.431   2.515  1.00  0.00    -0.020 A 
ATOM     24  C   UNL     1       1.607   3.268   3.214  1.00  0.00     0.087 A 
ATOM     25  C   UNL     1       3.193   4.795   2.772  1.00  0.00     0.003 A 
ATOM     26  N   UNL     1       1.464   4.344   4.066  1.00  0.00    -0.361 N 
ATOM     27  C   UNL     1       2.447   5.276   3.838  1.00  0.00     0.046 A 
ATOM     28  C   UNL     1       4.173   5.648   2.238  1.00  0.00     0.010 A 
ATOM     29  H   UNL     1       0.756   4.431   4.745  1.00  0.00     0.166 HD
ATOM     30  C   UNL     1       2.732   6.498   4.468  1.00  0.00     0.026 A 
ATOM     31  C   UNL     1       4.443   6.895   2.801  1.00  0.00     0.001 A 
ATOM     32  C   UNL     1       3.752   7.296   3.933  1.00  0.00     0.002 A 
ENDBRANCH  22  23
ENDBRANCH  10  22
ENDBRANCH   7  10
ENDBRANCH   5   6
BRANCH   5  33
ATOM     33  C   UNL     1       2.724   0.810   5.834  1.00  0.00     0.193 C 
BRANCH  33  34
ATOM     34  O   UNL     1       3.320   0.050   6.877  1.00  0.00    -0.394 OA
ATOM     35  H   UNL     1       3.819  -0.689   6.494  1.00  0.00     0.210 HD
ENDBRANCH  33  34
ENDBRANCH   5  33
ENDBRANCH   3   5
ENDBRANCH   2   3
ENDBRANCH   1   2
BRANCH   1  36
ATOM     36  C   UNL     1       7.772   4.138   4.622  1.00  0.00     0.275 C 
BRANCH  36  37
ATOM     37  O   UNL     1       7.420   4.608   3.303  1.00  0.00    -0.458 OA
BRANCH  37  38
ATOM     38  C   UNL     1       7.613   3.725   2.287  1.00  0.00     0.338 C 
ATOM     39  O   UNL     1       7.973   2.568   2.393  1.00  0.00    -0.246 OA
BRANCH  38  40
ATOM     40  C   UNL     1       7.142   4.312   1.005  1.00  0.00     0.060 A 
ATOM     41  C   UNL     1       6.283   3.524   0.236  1.00  0.00     0.016 A 
ATOM     42  C   UNL     1       7.432   5.616   0.588  1.00  0.00     0.016 A 
ATOM     43  C   UNL     1       5.546   4.092  -0.802  1.00  0.00     0.010 A 
ATOM     44  C   UNL     1       6.781   6.151  -0.541  1.00  0.00     0.010 A 
ATOM     45  C   UNL     1       5.787   5.412  -1.206  1.00  0.00    -0.014 A 
BRANCH  45  46
ATOM     46  C   UNL     1       5.105   5.898  -2.435  1.00  0.00     0.031 A 
ATOM     47  C   UNL     1       5.573   5.327  -3.746  1.00  0.00     0.074 A 
ATOM     48  C   UNL     1       4.012   6.691  -2.398  1.00  0.00     0.049 A 
ATOM     49  N   UNL     1       5.175   5.598  -4.958  1.00  0.00    -0.248 NA
ATOM     50  C   UNL     1       6.596   4.266  -3.671  1.00  0.00     0.031 C 
ATOM     51  C   UNL     1       3.314   7.125  -1.188  1.00  0.00     0.029 A 
ATOM     52  N   UNL     1       3.267   7.247  -3.414  1.00  0.00    -0.354 N 
ATOM     53  C   UNL     1       5.892   4.741  -5.784  1.00  0.00     0.074 A 
ATOM     54  C   UNL     1       6.723   3.917  -4.939  1.00  0.00     0.031 C 
ATOM     55  C   UNL     1       2.249   7.875  -1.530  1.00  0.00     0.029 A 
ATOM     56  C   UNL     1       2.223   8.039  -2.979  1.00  0.00     0.049 A 
ATOM     57  H   UNL     1       3.462   7.093  -4.367  1.00  0.00     0.167 HD
ATOM     58  C   UNL     1       5.893   4.673  -7.133  1.00  0.00     0.031 A 
ATOM     59  C   UNL     1       1.378   8.835  -3.672  1.00  0.00     0.031 A 
ATOM     60  C   UNL     1       5.139   5.565  -7.963  1.00  0.00     0.049 A 
ATOM     61  C   UNL     1       1.556   8.912  -5.172  1.00  0.00     0.074 A 
ATOM     62  C   UNL     1       5.186   5.717  -9.335  1.00  0.00     0.029 A 
ATOM     63  N   UNL     1       4.208   6.475  -7.482  1.00  0.00    -0.354 N 
ATOM     64  N   UNL     1       2.329   8.184  -5.947  1.00  0.00    -0.248 NA
ATOM     65  C   UNL     1       0.779   9.933  -5.891  1.00  0.00     0.031 C 
ATOM     66  C   UNL     1       4.322   6.762  -9.678  1.00  0.00     0.029 A 
ATOM     67  C   UNL     1       3.691   7.213  -8.528  1.00  0.00     0.049 A 
ATOM     68  H   UNL     1       3.955   6.579  -6.537  1.00  0.00     0.167 HD
ATOM     69  C   UNL     1       2.119   8.649  -7.240  1.00  0.00     0.074 A 
ATOM     70  C   UNL     1       1.132   9.705  -7.150  1.00  0.00     0.031 C 
ATOM     71  C   UNL     1       2.697   8.249  -8.399  1.00  0.00     0.031 A 
BRANCH  58  72
ATOM     72  C   UNL     1       6.849   3.696  -7.756  1.00  0.00    -0.014 A 
ATOM     73  C   UNL     1       6.602   2.311  -7.734  1.00  0.00     0.010 A 
ATOM     74  C   UNL     1       8.051   4.173  -8.308  1.00  0.00     0.010 A 
ATOM     75  C   UNL     1       7.561   1.418  -8.220  1.00  0.00     0.020 A 
ATOM     76  C   UNL     1       9.001   3.285  -8.816  1.00  0.00     0.020 A 
ATOM     77  C   UNL     1       8.758   1.912  -8.752  1.00  0.00     0.054 A 
BRANCH  77  78
ATOM     78  S   UNL     1       9.992   0.734  -9.367  1.00  0.00     0.124 S 
ATOM     79  O   UNL     1      10.495   0.149  -8.126  1.00  0.00    -0.237 OA
ATOM     80  O   UNL     1       9.193  -0.158 -10.204  1.00  0.00    -0.237 OA
ATOM     81  O   UNL     1      10.944   1.574 -10.088  1.00  0.00    -0.744 OA
ENDBRANCH  77  78
ENDBRANCH  58  72
BRANCH  59  82
ATOM     82  C   UNL     1       0.372   9.710  -2.985  1.00  0.00    -0.014 A 
ATOM     83  C   UNL     1      -1.005   9.611  -3.266  1.00  0.00     0.010 A 
ATOM     84  C   UNL     1       0.798  10.717  -2.097  1.00  0.00     0.010 A 
ATOM     85  C   UNL     1      -1.921  10.514  -2.703  1.00  0.00     0.020 A 
ATOM     86  C   UNL     1      -0.115  11.600  -1.507  1.00  0.00     0.020 A 
ATOM     87  C   UNL     1      -1.469  11.505  -1.828  1.00  0.00     0.054 A 
BRANCH  87  88
ATOM     88  S   UNL     1      -2.667  12.665  -1.107  1.00  0.00     0.124 S 
ATOM     89  O   UNL     1      -3.025  13.490  -2.257  1.00  0.00    -0.237 OA
ATOM     90  O   UNL     1      -3.716  11.774  -0.618  1.00  0.00    -0.237 OA
ATOM     91  O   UNL     1      -1.901  13.346  -0.065  1.00  0.00    -0.744 OA
ENDBRANCH  87  88
ENDBRANCH  59  82
BRANCH  71  92
ATOM     92  C   UNL     1       2.264   8.928  -9.668  1.00  0.00    -0.014 A 
ATOM     93  C   UNL     1       2.704  10.225  -9.979  1.00  0.00     0.010 A 
ATOM     94  C   UNL     1       1.513   8.205 -10.613  1.00  0.00     0.010 A 
ATOM     95  C   UNL     1       2.400  10.790 -11.220  1.00  0.00     0.020 A 
ATOM     96  C   UNL     1       1.231   8.756 -11.864  1.00  0.00     0.020 A 
ATOM     97  C   UNL     1       1.675  10.047 -12.158  1.00  0.00     0.054 A 
BRANCH  97  98
ATOM     98  S   UNL     1       1.386  10.763 -13.798  1.00  0.00     0.124 S 
ATOM     99  O   UNL     1       0.382  11.784 -13.512  1.00  0.00    -0.237 OA
ATOM    100  O   UNL     1       2.708  11.267 -14.163  1.00  0.00    -0.237 OA
ATOM    101  O   UNL     1       0.916   9.631 -14.593  1.00  0.00    -0.744 OA
ENDBRANCH  97  98
ENDBRANCH  71  92
ENDBRANCH  45  46
ENDBRANCH  38  40
ENDBRANCH  37  38
ENDBRANCH  36  37
ENDBRANCH   1  36
TORSDOF 22
