REMARK SMILES CC[C@@](C)(NC(=O)Nc1c(C)cccc1Cl)C(=O)OCCOC(=O)c1ccc(-c2c3nc(c(-c4ccc(S(=O)(=O)[O-])cc4)c4ccc([nH]4)c(-c4ccc(S(=O)(=O)[O-])cc4)c4nc(c(-c5ccc(S(=O)(=O)[O-])cc5)c5ccc2[nH]5)C=C4)C=C3)cc1
REMARK SMILES IDX 21 1 20 2 19 3 17 4 18 5 3 6 4 7 2 8 1 9 5 10 6 11 7 13 8 14
REMARK SMILES IDX 9 16 10 17 15 18 11 19 12 20 14 21 16 22 13 23 22 24 23 25
REMARK SMILES IDX 24 26 25 27 26 28 84 29 27 30 83 31 28 32 29 33 30 34 77 35
REMARK SMILES IDX 31 36 82 37 76 38 78 39 32 40 81 41 75 42 74 43 33 45 63 46
REMARK SMILES IDX 44 47 62 48 45 49 48 50 61 51 79 52 46 53 47 54 60 56 80 57
REMARK SMILES IDX 49 58 34 59 35 60 43 61 36 62 42 63 37 64 38 65 39 66 40 67
REMARK SMILES IDX 41 68 64 69 65 70 73 71 66 72 72 73 67 74 68 75 69 76 70 77
REMARK SMILES IDX 71 78 50 79 51 80 59 81 52 82 58 83 53 84 54 85 55 86 56 87
REMARK SMILES IDX 57 88
REMARK H PARENT 5 12 8 15 78 44 48 55
REMARK Flexibility Score: inf
ROOT
ATOM      1  C   UNL     1       3.888   3.455   3.684  1.00  0.00     0.275 C 
ENDROOT
BRANCH   1   2
ATOM      2  C   UNL     1       3.457   4.354   2.312  1.00  0.00     0.274 C 
BRANCH   2   3
ATOM      3  O   UNL     1       2.013   4.495   1.657  1.00  0.00    -0.460 OA
BRANCH   3   4
ATOM      4  C   UNL     1       1.345   3.936   0.477  1.00  0.00     0.331 C 
ATOM      5  O   UNL     1       1.381   4.467  -0.635  1.00  0.00    -0.249 OA
BRANCH   4   6
ATOM      6  C   UNL     1       0.180   2.886   0.785  1.00  0.00     0.136 C 
ATOM      7  C   UNL     1      -1.120   3.690   0.622  1.00  0.00     0.047 C 
BRANCH   6   8
ATOM      8  C   UNL     1      -0.170   1.393   0.453  1.00  0.00     0.037 C 
ATOM      9  C   UNL     1       0.353   0.668  -0.752  1.00  0.00     0.007 C 
ENDBRANCH   6   8
BRANCH   6  10
ATOM     10  N   UNL     1       0.589   2.739   2.107  1.00  0.00    -0.322 N 
ATOM     11  C   UNL     1       1.740   2.166   2.410  1.00  0.00     0.320 C 
ATOM     12  H   UNL     1       0.008   3.068   2.831  1.00  0.00     0.166 HD
ATOM     13  O   UNL     1       1.707   1.960   3.631  1.00  0.00    -0.248 OA
ATOM     14  N   UNL     1       2.807   1.814   1.573  1.00  0.00    -0.306 N 
ATOM     15  H   UNL     1       3.312   1.191   2.143  1.00  0.00     0.171 HD
BRANCH  14  16
ATOM     16  C   UNL     1       3.630   1.824   0.329  1.00  0.00     0.064 A 
ATOM     17  C   UNL     1       3.707   2.659  -0.824  1.00  0.00    -0.026 A 
ATOM     18  C   UNL     1       4.629   0.787   0.282  1.00  0.00     0.064 A 
ATOM     19  C   UNL     1       3.962   4.184  -0.876  1.00  0.00     0.046 C 
ATOM     20  C   UNL     1       4.293   2.150  -2.035  1.00  0.00     0.005 A 
ATOM     21  C   UNL     1       5.312   0.380  -0.874  1.00  0.00     0.023 A 
ATOM     22  Cl  UNL     1       5.271  -0.001   1.678  1.00  0.00    -0.082 Cl
ATOM     23  C   UNL     1       5.073   1.010  -2.066  1.00  0.00     0.002 A 
ENDBRANCH  14  16
ENDBRANCH   6  10
ENDBRANCH   4   6
ENDBRANCH   3   4
ENDBRANCH   2   3
ENDBRANCH   1   2
BRANCH   1  24
ATOM     24  O   UNL     1       4.111   1.944   3.556  1.00  0.00    -0.458 OA
BRANCH  24  25
ATOM     25  C   UNL     1       3.890   1.012   4.583  1.00  0.00     0.338 C 
ATOM     26  O   UNL     1       4.031   1.286   5.763  1.00  0.00    -0.246 OA
BRANCH  25  27
ATOM     27  C   UNL     1       3.456  -0.439   4.100  1.00  0.00     0.060 A 
ATOM     28  C   UNL     1       2.397  -0.699   3.203  1.00  0.00     0.016 A 
ATOM     29  C   UNL     1       4.066  -1.603   4.577  1.00  0.00     0.016 A 
ATOM     30  C   UNL     1       1.997  -1.951   2.717  1.00  0.00     0.010 A 
ATOM     31  C   UNL     1       3.640  -2.904   4.136  1.00  0.00     0.010 A 
ATOM     32  C   UNL     1       2.591  -3.092   3.204  1.00  0.00    -0.014 A 
BRANCH  32  33
ATOM     33  C   UNL     1       1.875  -4.390   2.970  1.00  0.00     0.031 A 
ATOM     34  C   UNL     1       1.105  -4.973   4.131  1.00  0.00     0.074 A 
ATOM     35  C   UNL     1       1.714  -4.976   1.760  1.00  0.00     0.049 A 
ATOM     36  N   UNL     1       0.553  -6.151   4.265  1.00  0.00    -0.248 NA
ATOM     37  C   UNL     1       0.926  -4.089   5.295  1.00  0.00     0.031 C 
ATOM     38  C   UNL     1       2.174  -4.446   0.475  1.00  0.00     0.029 A 
ATOM     39  N   UNL     1       1.100  -6.166   1.417  1.00  0.00    -0.354 N 
ATOM     40  C   UNL     1       0.037  -6.178   5.556  1.00  0.00     0.074 A 
ATOM     41  C   UNL     1       0.325  -4.894   6.155  1.00  0.00     0.031 C 
ATOM     42  C   UNL     1       1.852  -5.317  -0.503  1.00  0.00     0.029 A 
ATOM     43  C   UNL     1       1.224  -6.500   0.085  1.00  0.00     0.049 A 
ATOM     44  H   UNL     1       0.616  -6.725   2.067  1.00  0.00     0.167 HD
ATOM     45  C   UNL     1      -0.605  -7.184   6.195  1.00  0.00     0.031 A 
ATOM     46  C   UNL     1       0.922  -7.641  -0.576  1.00  0.00     0.031 A 
ATOM     47  C   UNL     1      -0.931  -8.448   5.594  1.00  0.00     0.049 A 
ATOM     48  C   UNL     1       0.334  -8.812   0.182  1.00  0.00     0.074 A 
ATOM     49  C   UNL     1      -1.544  -9.544   6.176  1.00  0.00     0.029 A 
ATOM     50  N   UNL     1      -0.687  -8.782   4.272  1.00  0.00    -0.354 N 
ATOM     51  N   UNL     1      -0.035  -8.880   1.439  1.00  0.00    -0.248 NA
ATOM     52  C   UNL     1       0.138 -10.066  -0.566  1.00  0.00     0.031 C 
ATOM     53  C   UNL     1      -1.616 -10.563   5.221  1.00  0.00     0.029 A 
ATOM     54  C   UNL     1      -1.112 -10.077   4.026  1.00  0.00     0.049 A 
ATOM     55  H   UNL     1      -0.272  -8.187   3.606  1.00  0.00     0.167 HD
ATOM     56  C   UNL     1      -0.526 -10.172   1.624  1.00  0.00     0.074 A 
ATOM     57  C   UNL     1      -0.424 -10.846   0.348  1.00  0.00     0.031 C 
ATOM     58  C   UNL     1      -1.016 -10.745   2.752  1.00  0.00     0.031 A 
BRANCH  45  59
ATOM     59  C   UNL     1      -0.910  -6.985   7.655  1.00  0.00    -0.014 A 
ATOM     60  C   UNL     1      -1.911  -6.102   8.097  1.00  0.00     0.010 A 
ATOM     61  C   UNL     1      -0.171  -7.715   8.606  1.00  0.00     0.010 A 
ATOM     62  C   UNL     1      -2.135  -5.920   9.464  1.00  0.00     0.020 A 
ATOM     63  C   UNL     1      -0.415  -7.561   9.971  1.00  0.00     0.020 A 
ATOM     64  C   UNL     1      -1.384  -6.649  10.393  1.00  0.00     0.054 A 
BRANCH  64  65
ATOM     65  S   UNL     1      -1.706  -6.406  12.160  1.00  0.00     0.124 S 
ATOM     66  O   UNL     1      -1.145  -5.078  12.390  1.00  0.00    -0.237 OA
ATOM     67  O   UNL     1      -3.163  -6.494  12.234  1.00  0.00    -0.237 OA
ATOM     68  O   UNL     1      -0.987  -7.505  12.799  1.00  0.00    -0.744 OA
ENDBRANCH  64  65
ENDBRANCH  45  59
BRANCH  46  69
ATOM     69  C   UNL     1       1.253  -7.791  -2.028  1.00  0.00    -0.014 A 
ATOM     70  C   UNL     1       0.245  -7.965  -2.995  1.00  0.00     0.010 A 
ATOM     71  C   UNL     1       2.598  -7.808  -2.447  1.00  0.00     0.010 A 
ATOM     72  C   UNL     1       0.574  -8.154  -4.344  1.00  0.00     0.020 A 
ATOM     73  C   UNL     1       2.930  -7.964  -3.797  1.00  0.00     0.020 A 
ATOM     74  C   UNL     1       1.915  -8.144  -4.738  1.00  0.00     0.054 A 
BRANCH  74  75
ATOM     75  S   UNL     1       2.318  -8.320  -6.500  1.00  0.00     0.124 S 
ATOM     76  O   UNL     1       2.025  -9.729  -6.743  1.00  0.00    -0.237 OA
ATOM     77  O   UNL     1       1.407  -7.366  -7.127  1.00  0.00    -0.237 OA
ATOM     78  O   UNL     1       3.731  -7.953  -6.566  1.00  0.00    -0.744 OA
ENDBRANCH  74  75
ENDBRANCH  46  69
BRANCH  58  79
ATOM     79  C   UNL     1      -1.527 -12.161   2.664  1.00  0.00    -0.014 A 
ATOM     80  C   UNL     1      -0.650 -13.251   2.522  1.00  0.00     0.010 A 
ATOM     81  C   UNL     1      -2.906 -12.409   2.799  1.00  0.00     0.010 A 
ATOM     82  C   UNL     1      -1.146 -14.559   2.487  1.00  0.00     0.020 A 
ATOM     83  C   UNL     1      -3.403 -13.716   2.794  1.00  0.00     0.020 A 
ATOM     84  C   UNL     1      -2.520 -14.783   2.625  1.00  0.00     0.054 A 
BRANCH  84  85
ATOM     85  S   UNL     1      -3.132 -16.491   2.622  1.00  0.00     0.124 S 
ATOM     86  O   UNL     1      -2.981 -16.867   1.218  1.00  0.00    -0.237 OA
ATOM     87  O   UNL     1      -2.226 -17.159   3.552  1.00  0.00    -0.237 OA
ATOM     88  O   UNL     1      -4.512 -16.367   3.087  1.00  0.00    -0.744 OA
ENDBRANCH  84  85
ENDBRANCH  58  79
ENDBRANCH  32  33
ENDBRANCH  25  27
ENDBRANCH  24  25
ENDBRANCH   1  24
TORSDOF 17
