REMARK SMILES C[C@@H](C(=O)OCCOC(=O)c1ccc(-c2c3nc(c(-c4ccc(S(=O)(=O)[O-])cc4)c4ccc([nH]4)c(-c4ccc(S(=O)(=O)[O-])cc4)c4nc(c(-c5ccc(S(=O)(=O)[O-])cc5)c5ccc2[nH]5)C=C4)C=C3)cc1)c1cc(/C=C/S(C)(=O)=O)cc(C(=O)c2ccccc2)c1
REMARK SMILES IDX 6 1 5 2 3 3 4 4 2 5 1 6 71 7 72 8 90 9 73 10 81 11 80 12
REMARK SMILES IDX 74 13 75 14 76 15 77 16 78 17 79 18 82 19 83 20 84 21 85 22
REMARK SMILES IDX 89 23 86 24 88 25 87 26 7 27 8 28 9 29 10 30 11 31 12 32
REMARK SMILES IDX 70 33 13 34 69 35 14 36 15 37 16 38 63 39 17 40 68 41 62 42
REMARK SMILES IDX 64 43 18 44 67 45 61 46 60 47 19 49 49 50 30 51 48 52 31 53
REMARK SMILES IDX 34 54 47 55 65 56 32 57 33 58 46 60 66 61 35 62 20 63 21 64
REMARK SMILES IDX 29 65 22 66 28 67 23 68 24 69 25 70 26 71 27 72 50 73 51 74
REMARK SMILES IDX 59 75 52 76 58 77 53 78 54 79 55 80 56 81 57 82 36 83 37 84
REMARK SMILES IDX 45 85 38 86 44 87 39 88 40 89 41 90 42 91 43 92
REMARK H PARENT 64 48 34 59
REMARK Flexibility Score: inf
ROOT
ATOM      1  C   UNL     1       2.726  -3.141   2.193  1.00  0.00     0.274 C 
ENDROOT
BRANCH   1   2
ATOM      2  O   UNL     1       2.315  -2.175   1.203  1.00  0.00    -0.462 OA
BRANCH   2   3
ATOM      3  C   UNL     1       1.271  -2.542   0.410  1.00  0.00     0.313 C 
ATOM      4  O   UNL     1       0.717  -3.632   0.498  1.00  0.00    -0.252 OA
BRANCH   3   5
ATOM      5  C   UNL     1       0.902  -1.474  -0.645  1.00  0.00     0.126 C 
ATOM      6  C   UNL     1       1.567  -0.124  -0.344  1.00  0.00     0.025 C 
BRANCH   5   7
ATOM      7  C   UNL     1      -0.619  -1.391  -0.850  1.00  0.00    -0.033 A 
ATOM      8  C   UNL     1      -1.375  -0.244  -0.543  1.00  0.00     0.012 A 
ATOM      9  C   UNL     1      -1.312  -2.537  -1.274  1.00  0.00     0.016 A 
ATOM     10  C   UNL     1      -2.783  -0.231  -0.608  1.00  0.00    -0.024 A 
ATOM     11  C   UNL     1      -2.710  -2.574  -1.275  1.00  0.00     0.023 A 
ATOM     12  C   UNL     1      -3.440  -1.409  -0.999  1.00  0.00     0.020 A 
BRANCH  10  13
ATOM     13  C   UNL     1      -3.594   0.934  -0.199  1.00  0.00     0.020 C 
ATOM     14  C   UNL     1      -3.113   2.073   0.331  1.00  0.00     0.106 C 
BRANCH  14  15
ATOM     15  S   UNL     1      -4.202   3.357   0.776  1.00  0.00     0.168 S 
ATOM     16  C   UNL     1      -3.470   3.936   2.291  1.00  0.00     0.163 C 
ATOM     17  O   UNL     1      -4.047   4.421  -0.203  1.00  0.00    -0.225 OA
ATOM     18  O   UNL     1      -5.498   2.821   1.100  1.00  0.00    -0.225 OA
ENDBRANCH  14  15
ENDBRANCH  10  13
BRANCH  11  19
ATOM     19  C   UNL     1      -3.443  -3.851  -1.489  1.00  0.00     0.193 C 
ATOM     20  O   UNL     1      -4.475  -3.820  -2.153  1.00  0.00    -0.289 OA
BRANCH  19  21
ATOM     21  C   UNL     1      -2.958  -5.148  -0.916  1.00  0.00     0.022 A 
ATOM     22  C   UNL     1      -3.362  -6.342  -1.522  1.00  0.00     0.012 A 
ATOM     23  C   UNL     1      -2.131  -5.214   0.214  1.00  0.00     0.012 A 
ATOM     24  C   UNL     1      -2.903  -7.573  -1.040  1.00  0.00     0.001 A 
ATOM     25  C   UNL     1      -1.665  -6.442   0.690  1.00  0.00     0.001 A 
ATOM     26  C   UNL     1      -2.044  -7.622   0.057  1.00  0.00     0.000 A 
ENDBRANCH  19  21
ENDBRANCH  11  19
ENDBRANCH   5   7
ENDBRANCH   3   5
ENDBRANCH   2   3
ENDBRANCH   1   2
BRANCH   1  27
ATOM     27  C   UNL     1       2.221  -2.750   3.580  1.00  0.00     0.275 C 
BRANCH  27  28
ATOM     28  O   UNL     1       0.786  -2.854   3.637  1.00  0.00    -0.458 OA
BRANCH  28  29
ATOM     29  C   UNL     1       0.115  -1.718   3.921  1.00  0.00     0.338 C 
ATOM     30  O   UNL     1       0.583  -0.610   4.150  1.00  0.00    -0.246 OA
BRANCH  29  31
ATOM     31  C   UNL     1      -1.329  -1.978   3.841  1.00  0.00     0.060 A 
ATOM     32  C   UNL     1      -1.897  -2.097   2.579  1.00  0.00     0.016 A 
ATOM     33  C   UNL     1      -2.139  -1.997   4.979  1.00  0.00     0.016 A 
ATOM     34  C   UNL     1      -3.277  -2.201   2.446  1.00  0.00     0.010 A 
ATOM     35  C   UNL     1      -3.529  -2.140   4.838  1.00  0.00     0.010 A 
ATOM     36  C   UNL     1      -4.115  -2.219   3.564  1.00  0.00    -0.014 A 
BRANCH  36  37
ATOM     37  C   UNL     1      -5.590  -2.212   3.347  1.00  0.00     0.031 A 
ATOM     38  C   UNL     1      -6.389  -0.983   3.691  1.00  0.00     0.074 A 
ATOM     39  C   UNL     1      -6.202  -3.233   2.711  1.00  0.00     0.049 A 
ATOM     40  N   UNL     1      -7.684  -0.801   3.651  1.00  0.00    -0.248 NA
ATOM     41  C   UNL     1      -5.627   0.198   4.128  1.00  0.00     0.031 C 
ATOM     42  C   UNL     1      -5.537  -4.428   2.189  1.00  0.00     0.029 A 
ATOM     43  N   UNL     1      -7.517  -3.404   2.350  1.00  0.00    -0.354 N 
ATOM     44  C   UNL     1      -7.897   0.496   4.105  1.00  0.00     0.074 A 
ATOM     45  C   UNL     1      -6.597   1.059   4.400  1.00  0.00     0.031 C 
ATOM     46  C   UNL     1      -6.431  -5.171   1.516  1.00  0.00     0.029 A 
ATOM     47  C   UNL     1      -7.751  -4.558   1.637  1.00  0.00     0.049 A 
ATOM     48  H   UNL     1      -8.226  -2.761   2.581  1.00  0.00     0.167 HD
ATOM     49  C   UNL     1      -9.070   1.150   4.283  1.00  0.00     0.031 A 
ATOM     50  C   UNL     1      -8.900  -5.079   1.161  1.00  0.00     0.031 A 
ATOM     51  C   UNL     1     -10.362   0.604   3.963  1.00  0.00     0.049 A 
ATOM     52  C   UNL     1     -10.200  -4.369   1.434  1.00  0.00     0.074 A 
ATOM     53  C   UNL     1     -11.612   1.159   4.180  1.00  0.00     0.029 A 
ATOM     54  N   UNL     1     -10.570  -0.614   3.335  1.00  0.00    -0.354 N 
ATOM     55  N   UNL     1     -10.401  -3.204   2.003  1.00  0.00    -0.248 NA
ATOM     56  C   UNL     1     -11.433  -5.062   1.031  1.00  0.00     0.031 C 
ATOM     57  C   UNL     1     -12.578   0.257   3.720  1.00  0.00     0.029 A 
ATOM     58  C   UNL     1     -11.927  -0.837   3.173  1.00  0.00     0.049 A 
ATOM     59  H   UNL     1      -9.858  -1.229   3.046  1.00  0.00     0.167 HD
ATOM     60  C   UNL     1     -11.780  -3.028   2.028  1.00  0.00     0.074 A 
ATOM     61  C   UNL     1     -12.365  -4.190   1.391  1.00  0.00     0.031 C 
ATOM     62  C   UNL     1     -12.499  -2.001   2.547  1.00  0.00     0.031 A 
BRANCH  49  63
ATOM     63  C   UNL     1      -9.008   2.495   4.952  1.00  0.00    -0.014 A 
ATOM     64  C   UNL     1      -8.586   3.649   4.269  1.00  0.00     0.010 A 
ATOM     65  C   UNL     1      -9.388   2.595   6.304  1.00  0.00     0.010 A 
ATOM     66  C   UNL     1      -8.505   4.872   4.943  1.00  0.00     0.020 A 
ATOM     67  C   UNL     1      -9.328   3.818   6.973  1.00  0.00     0.020 A 
ATOM     68  C   UNL     1      -8.865   4.946   6.293  1.00  0.00     0.054 A 
BRANCH  68  69
ATOM     69  S   UNL     1      -8.731   6.537   7.155  1.00  0.00     0.124 S 
ATOM     70  O   UNL     1      -7.287   6.650   7.350  1.00  0.00    -0.237 OA
ATOM     71  O   UNL     1      -9.311   7.475   6.198  1.00  0.00    -0.237 OA
ATOM     72  O   UNL     1      -9.508   6.337   8.376  1.00  0.00    -0.744 OA
ENDBRANCH  68  69
ENDBRANCH  49  63
BRANCH  50  73
ATOM     73  C   UNL     1      -8.891  -6.383   0.438  1.00  0.00    -0.014 A 
ATOM     74  C   UNL     1      -9.225  -6.451  -0.926  1.00  0.00     0.010 A 
ATOM     75  C   UNL     1      -8.564  -7.570   1.119  1.00  0.00     0.010 A 
ATOM     76  C   UNL     1      -9.246  -7.683  -1.591  1.00  0.00     0.020 A 
ATOM     77  C   UNL     1      -8.555  -8.797   0.452  1.00  0.00     0.020 A 
ATOM     78  C   UNL     1      -8.909  -8.849  -0.897  1.00  0.00     0.054 A 
BRANCH  78  79
ATOM     79  S   UNL     1      -8.888 -10.434  -1.780  1.00  0.00     0.124 S 
ATOM     80  O   UNL     1     -10.303 -10.790  -1.801  1.00  0.00    -0.237 OA
ATOM     81  O   UNL     1      -8.305 -10.079  -3.072  1.00  0.00    -0.237 OA
ATOM     82  O   UNL     1      -8.041 -11.279  -0.939  1.00  0.00    -0.744 OA
ENDBRANCH  78  79
ENDBRANCH  50  73
BRANCH  62  83
ATOM     83  C   UNL     1     -13.998  -2.084   2.452  1.00  0.00    -0.014 A 
ATOM     84  C   UNL     1     -14.727  -2.946   3.291  1.00  0.00     0.010 A 
ATOM     85  C   UNL     1     -14.692  -1.246   1.561  1.00  0.00     0.010 A 
ATOM     86  C   UNL     1     -16.122  -2.986   3.224  1.00  0.00     0.020 A 
ATOM     87  C   UNL     1     -16.089  -1.268   1.505  1.00  0.00     0.020 A 
ATOM     88  C   UNL     1     -16.795  -2.147   2.330  1.00  0.00     0.054 A 
BRANCH  88  89
ATOM     89  S   UNL     1     -18.609  -2.178   2.298  1.00  0.00     0.124 S 
ATOM     90  O   UNL     1     -18.879  -3.413   1.566  1.00  0.00    -0.237 OA
ATOM     91  O   UNL     1     -18.958  -2.200   3.716  1.00  0.00    -0.237 OA
ATOM     92  O   UNL     1     -18.964  -0.947   1.595  1.00  0.00    -0.744 OA
ENDBRANCH  88  89
ENDBRANCH  62  83
ENDBRANCH  36  37
ENDBRANCH  29  31
ENDBRANCH  28  29
ENDBRANCH  27  28
ENDBRANCH   1  27
TORSDOF 19
