REMARK SMILES COc1ccccc1[C@@H]1C[N@@H+](Cc2cn3cc(C)ccc3n2)C[C@H]1C(=O)OCCOC(=O)c1ccc(-c2c3nc(c(-c4ccc(S(=O)(=O)[O-])cc4)c4ccc([nH]4)c(-c4ccc(S(=O)(=O)[O-])cc4)c4nc(c(-c5ccc(S(=O)(=O)[O-])cc5)c5ccc2[nH]5)C=C4)C=C3)cc1
REMARK SMILES IDX 29 1 28 2 27 3 25 4 26 5 24 6 9 7 10 8 11 9 23 10 8 12 3 13
REMARK SMILES IDX 4 14 5 15 7 16 6 17 2 18 1 19 12 20 13 21 14 22 22 23 15 24
REMARK SMILES IDX 21 25 16 26 20 27 17 28 19 29 18 30 30 31 31 32 32 33 33 34
REMARK SMILES IDX 34 35 92 36 35 37 91 38 36 39 37 40 38 41 85 42 39 43 90 44
REMARK SMILES IDX 84 45 86 46 40 47 89 48 83 49 82 50 41 52 71 53 52 54 70 55
REMARK SMILES IDX 53 56 56 57 69 58 87 59 54 60 55 61 68 63 88 64 57 65 42 66
REMARK SMILES IDX 43 67 51 68 44 69 50 70 45 71 46 72 47 73 48 74 49 75 72 76
REMARK SMILES IDX 73 77 81 78 74 79 80 80 75 81 76 82 77 83 78 84 79 85 58 86
REMARK SMILES IDX 59 87 67 88 60 89 66 90 61 91 62 92 63 93 64 94 65 95
REMARK H PARENT 11 11 86 51 56 62
REMARK Flexibility Score: inf
ROOT
ATOM      1  C   UNL     1       3.746  -3.839   4.078  1.00  0.00     0.275 C 
ENDROOT
BRANCH   1   2
ATOM      2  C   UNL     1       3.948  -3.875   2.567  1.00  0.00     0.274 C 
BRANCH   2   3
ATOM      3  O   UNL     1       3.891  -2.571   1.957  1.00  0.00    -0.462 OA
BRANCH   3   4
ATOM      4  C   UNL     1       2.699  -2.175   1.440  1.00  0.00     0.315 C 
ATOM      5  O   UNL     1       1.670  -2.843   1.498  1.00  0.00    -0.252 OA
BRANCH   4   6
ATOM      6  C   UNL     1       2.774  -0.878   0.660  1.00  0.00     0.167 C 
ATOM      7  C   UNL     1       3.137   0.423   1.381  1.00  0.00     0.098 C 
ATOM      8  C   UNL     1       3.737   1.255   0.236  1.00  0.00     0.272 C 
ATOM      9  N   UNL     1       4.462   0.315  -0.627  1.00  0.00    -0.329 N 
ATOM     10  C   UNL     1       3.825  -1.001  -0.452  1.00  0.00     0.278 C 
ATOM     11  H   UNL     1       4.388   0.612  -1.600  1.00  0.00     0.348 HD
BRANCH   7  12
ATOM     12  C   UNL     1       2.103   1.229   2.156  1.00  0.00     0.004 A 
ATOM     13  C   UNL     1       0.907   1.753   1.636  1.00  0.00     0.122 A 
ATOM     14  C   UNL     1       0.046   2.520   2.438  1.00  0.00     0.047 A 
ATOM     15  C   UNL     1       0.379   2.814   3.761  1.00  0.00     0.004 A 
ATOM     16  C   UNL     1       2.432   1.583   3.485  1.00  0.00     0.008 A 
ATOM     17  C   UNL     1       1.587   2.365   4.277  1.00  0.00     0.001 A 
BRANCH  13  18
ATOM     18  O   UNL     1       0.665   1.756   0.288  1.00  0.00    -0.496 OA
ATOM     19  C   UNL     1      -0.166   0.688  -0.149  1.00  0.00     0.278 C 
ENDBRANCH  13  18
ENDBRANCH   7  12
BRANCH   9  20
ATOM     20  C   UNL     1       5.923   0.308  -0.426  1.00  0.00     0.321 C 
BRANCH  20  21
ATOM     21  C   UNL     1       6.360   0.131   0.997  1.00  0.00     0.114 A 
ATOM     22  C   UNL     1       6.628   1.110   1.937  1.00  0.00     0.122 A 
ATOM     23  N   UNL     1       6.502  -1.122   1.560  1.00  0.00    -0.228 NA
ATOM     24  N   UNL     1       6.799   0.449   3.125  1.00  0.00    -0.306 N 
ATOM     25  C   UNL     1       6.729  -0.907   2.840  1.00  0.00     0.137 A 
ATOM     26  C   UNL     1       6.987   0.965   4.404  1.00  0.00     0.096 A 
ATOM     27  C   UNL     1       6.864  -1.801   3.938  1.00  0.00     0.048 A 
ATOM     28  C   UNL     1       7.110   0.122   5.448  1.00  0.00    -0.034 A 
ATOM     29  C   UNL     1       7.033  -1.316   5.184  1.00  0.00     0.009 A 
ATOM     30  C   UNL     1       7.291   0.579   6.862  1.00  0.00     0.046 C 
ENDBRANCH  20  21
ENDBRANCH   9  20
ENDBRANCH   4   6
ENDBRANCH   3   4
ENDBRANCH   2   3
ENDBRANCH   1   2
BRANCH   1  31
ATOM     31  O   UNL     1       2.406  -3.510   4.441  1.00  0.00    -0.458 OA
BRANCH  31  32
ATOM     32  C   UNL     1       2.207  -2.177   4.529  1.00  0.00     0.338 C 
ATOM     33  O   UNL     1       2.962  -1.292   4.167  1.00  0.00    -0.246 OA
BRANCH  32  34
ATOM     34  C   UNL     1       1.023  -1.901   5.328  1.00  0.00     0.060 A 
ATOM     35  C   UNL     1       0.271  -0.767   5.028  1.00  0.00     0.016 A 
ATOM     36  C   UNL     1       0.859  -2.607   6.522  1.00  0.00     0.016 A 
ATOM     37  C   UNL     1      -0.568  -0.251   5.994  1.00  0.00     0.010 A 
ATOM     38  C   UNL     1       0.005  -2.104   7.478  1.00  0.00     0.010 A 
ATOM     39  C   UNL     1      -0.655  -0.898   7.232  1.00  0.00    -0.014 A 
BRANCH  39  40
ATOM     40  C   UNL     1      -1.586  -0.364   8.215  1.00  0.00     0.031 A 
ATOM     41  C   UNL     1      -3.006  -0.480   7.808  1.00  0.00     0.074 A 
ATOM     42  C   UNL     1      -1.217   0.005   9.456  1.00  0.00     0.049 A 
ATOM     43  N   UNL     1      -3.886   0.455   7.673  1.00  0.00    -0.248 NA
ATOM     44  C   UNL     1      -3.467  -1.813   7.377  1.00  0.00     0.031 C 
ATOM     45  C   UNL     1       0.109  -0.170  10.058  1.00  0.00     0.029 A 
ATOM     46  N   UNL     1      -1.974   0.475  10.490  1.00  0.00    -0.354 N 
ATOM     47  C   UNL     1      -5.071  -0.203   7.356  1.00  0.00     0.074 A 
ATOM     48  C   UNL     1      -4.714  -1.550   6.997  1.00  0.00     0.031 C 
ATOM     49  C   UNL     1       0.003  -0.050  11.398  1.00  0.00     0.029 A 
ATOM     50  C   UNL     1      -1.355   0.354  11.726  1.00  0.00     0.049 A 
ATOM     51  H   UNL     1      -2.872   0.861  10.370  1.00  0.00     0.167 HD
ATOM     52  C   UNL     1      -6.280   0.307   7.711  1.00  0.00     0.031 A 
ATOM     53  C   UNL     1      -1.917   0.514  12.947  1.00  0.00     0.031 A 
ATOM     54  C   UNL     1      -6.201   1.699   8.060  1.00  0.00     0.049 A 
ATOM     55  C   UNL     1      -3.159   1.306  12.799  1.00  0.00     0.074 A 
ATOM     56  C   UNL     1      -6.131   2.901   7.395  1.00  0.00     0.029 A 
ATOM     57  N   UNL     1      -5.871   1.933   9.369  1.00  0.00    -0.354 N 
ATOM     58  N   UNL     1      -3.176   2.548  12.405  1.00  0.00    -0.248 NA
ATOM     59  C   UNL     1      -4.456   0.638  12.809  1.00  0.00     0.031 C 
ATOM     60  C   UNL     1      -5.589   3.842   8.321  1.00  0.00     0.029 A 
ATOM     61  C   UNL     1      -5.350   3.192   9.529  1.00  0.00     0.049 A 
ATOM     62  H   UNL     1      -5.992   1.284  10.099  1.00  0.00     0.167 HD
ATOM     63  C   UNL     1      -4.380   2.685  11.745  1.00  0.00     0.074 A 
ATOM     64  C   UNL     1      -5.189   1.554  12.171  1.00  0.00     0.031 C 
ATOM     65  C   UNL     1      -4.503   3.506  10.664  1.00  0.00     0.031 A 
BRANCH  52  66
ATOM     66  C   UNL     1      -7.415  -0.557   8.222  1.00  0.00    -0.014 A 
ATOM     67  C   UNL     1      -8.631   0.065   8.569  1.00  0.00     0.010 A 
ATOM     68  C   UNL     1      -7.236  -1.889   8.656  1.00  0.00     0.010 A 
ATOM     69  C   UNL     1      -9.583  -0.588   9.365  1.00  0.00     0.020 A 
ATOM     70  C   UNL     1      -8.194  -2.563   9.414  1.00  0.00     0.020 A 
ATOM     71  C   UNL     1      -9.347  -1.894   9.796  1.00  0.00     0.054 A 
BRANCH  71  72
ATOM     72  S   UNL     1     -10.515  -2.686  10.927  1.00  0.00     0.124 S 
ATOM     73  O   UNL     1     -10.344  -1.891  12.139  1.00  0.00    -0.237 OA
ATOM     74  O   UNL     1     -11.786  -2.516  10.229  1.00  0.00    -0.237 OA
ATOM     75  O   UNL     1     -10.033  -4.063  11.007  1.00  0.00    -0.744 OA
ENDBRANCH  71  72
ENDBRANCH  52  66
BRANCH  53  76
ATOM     76  C   UNL     1      -1.546  -0.158  14.212  1.00  0.00    -0.014 A 
ATOM     77  C   UNL     1      -1.945   0.368  15.452  1.00  0.00     0.010 A 
ATOM     78  C   UNL     1      -1.012  -1.463  14.187  1.00  0.00     0.010 A 
ATOM     79  C   UNL     1      -1.864  -0.405  16.620  1.00  0.00     0.020 A 
ATOM     80  C   UNL     1      -0.917  -2.235  15.349  1.00  0.00     0.020 A 
ATOM     81  C   UNL     1      -1.367  -1.710  16.557  1.00  0.00     0.054 A 
BRANCH  81  82
ATOM     82  S   UNL     1      -1.429  -2.756  18.040  1.00  0.00     0.124 S 
ATOM     83  O   UNL     1      -0.412  -2.146  18.892  1.00  0.00    -0.237 OA
ATOM     84  O   UNL     1      -2.809  -2.593  18.486  1.00  0.00    -0.237 OA
ATOM     85  O   UNL     1      -1.096  -4.088  17.535  1.00  0.00    -0.744 OA
ENDBRANCH  81  82
ENDBRANCH  53  76
BRANCH  65  86
ATOM     86  C   UNL     1      -3.573   4.681  10.559  1.00  0.00    -0.014 A 
ATOM     87  C   UNL     1      -2.179   4.569  10.407  1.00  0.00     0.010 A 
ATOM     88  C   UNL     1      -4.152   5.963  10.552  1.00  0.00     0.010 A 
ATOM     89  C   UNL     1      -1.383   5.717  10.273  1.00  0.00     0.020 A 
ATOM     90  C   UNL     1      -3.368   7.107  10.400  1.00  0.00     0.020 A 
ATOM     91  C   UNL     1      -1.985   6.979  10.270  1.00  0.00     0.054 A 
BRANCH  91  92
ATOM     92  S   UNL     1      -0.955   8.457  10.050  1.00  0.00     0.124 S 
ATOM     93  O   UNL     1      -0.236   8.535  11.318  1.00  0.00    -0.237 OA
ATOM     94  O   UNL     1      -0.142   8.115   8.884  1.00  0.00    -0.237 OA
ATOM     95  O   UNL     1      -1.926   9.527   9.822  1.00  0.00    -0.744 OA
ENDBRANCH  91  92
ENDBRANCH  65  86
ENDBRANCH  39  40
ENDBRANCH  32  34
ENDBRANCH  31  32
ENDBRANCH   1  31
TORSDOF 18
