REMARK SMILES Nc1c(CC(=O)OCCOC(=O)c2ccc(-c3c4nc(c(-c5ccc(S(=O)(=O)[O-])cc5)c5ccc([nH]5)c(-c5ccc(S(=O)(=O)[O-])cc5)c5nc(c(-c6ccc(S(=O)(=O)[O-])cc6)c6ccc3[nH]6)C=C5)C=C4)cc2)cccc1C(=O)c1ccc(Br)cc1
REMARK SMILES IDX 8 1 7 2 5 3 6 4 4 5 3 6 2 7 76 8 73 9 75 10 74 11 1 12 77 15
REMARK SMILES IDX 78 16 79 17 80 18 85 19 81 20 84 21 82 22 83 23 9 24 10 25
REMARK SMILES IDX 11 26 12 27 13 28 14 29 72 30 15 31 71 32 16 33 17 34 18 35
REMARK SMILES IDX 65 36 19 37 70 38 64 39 66 40 20 41 69 42 63 43 62 44 21 46
REMARK SMILES IDX 51 47 32 48 50 49 33 50 36 51 49 52 67 53 34 54 35 55 48 57
REMARK SMILES IDX 68 58 37 59 22 60 23 61 31 62 24 63 30 64 25 65 26 66 27 67
REMARK SMILES IDX 28 68 29 69 52 70 53 71 61 72 54 73 60 74 55 75 56 76 57 77
REMARK SMILES IDX 58 78 59 79 38 80 39 81 47 82 40 83 46 84 41 85 42 86 43 87
REMARK SMILES IDX 44 88 45 89
REMARK H PARENT 1 13 1 14 66 45 36 56
REMARK Flexibility Score: inf
ROOT
ATOM      1  C   UNL     1       0.649  -3.353   3.432  1.00  0.00     0.274 C 
ENDROOT
BRANCH   1   2
ATOM      2  O   UNL     1       0.714  -2.564   2.230  1.00  0.00    -0.462 OA
BRANCH   2   3
ATOM      3  C   UNL     1       1.411  -3.101   1.196  1.00  0.00     0.310 C 
ATOM      4  O   UNL     1       2.069  -4.135   1.263  1.00  0.00    -0.252 OA
BRANCH   3   5
ATOM      5  C   UNL     1       1.274  -2.339  -0.099  1.00  0.00     0.160 C 
BRANCH   5   6
ATOM      6  C   UNL     1       0.560  -1.008  -0.039  1.00  0.00    -0.013 A 
ATOM      7  C   UNL     1       1.236   0.181   0.306  1.00  0.00     0.047 A 
ATOM      8  C   UNL     1       0.545   1.407   0.143  1.00  0.00     0.046 A 
ATOM      9  C   UNL     1      -0.816  -0.979  -0.339  1.00  0.00     0.006 A 
ATOM     10  C   UNL     1      -0.828   1.415  -0.161  1.00  0.00     0.014 A 
ATOM     11  C   UNL     1      -1.510   0.224  -0.376  1.00  0.00     0.001 A 
BRANCH   7  12
ATOM     12  N   UNL     1       2.571   0.113   0.706  1.00  0.00    -0.398 N 
ATOM     13  H   UNL     1       3.011  -0.762   0.806  1.00  0.00     0.156 HD
ATOM     14  H   UNL     1       3.073   0.940   0.888  1.00  0.00     0.156 HD
ENDBRANCH   7  12
BRANCH   8  15
ATOM     15  C   UNL     1       1.185   2.749   0.279  1.00  0.00     0.195 C 
ATOM     16  O   UNL     1       0.542   3.711   0.694  1.00  0.00    -0.289 OA
BRANCH  15  17
ATOM     17  C   UNL     1       2.611   2.958  -0.060  1.00  0.00     0.023 A 
ATOM     18  C   UNL     1       3.414   3.619   0.878  1.00  0.00     0.013 A 
ATOM     19  C   UNL     1       3.174   2.431  -1.229  1.00  0.00     0.013 A 
ATOM     20  C   UNL     1       4.793   3.689   0.681  1.00  0.00     0.016 A 
ATOM     21  C   UNL     1       4.555   2.506  -1.424  1.00  0.00     0.016 A 
ATOM     22  C   UNL     1       5.358   3.120  -0.461  1.00  0.00     0.018 A 
ATOM     23  Br  UNL     1       7.234   3.156  -0.691  1.00  0.00    -0.051 Br
ENDBRANCH  15  17
ENDBRANCH   8  15
ENDBRANCH   5   6
ENDBRANCH   3   5
ENDBRANCH   2   3
ENDBRANCH   1   2
BRANCH   1  24
ATOM     24  C   UNL     1      -0.730  -3.993   3.559  1.00  0.00     0.275 C 
BRANCH  24  25
ATOM     25  O   UNL     1      -1.006  -4.794   2.396  1.00  0.00    -0.458 OA
BRANCH  25  26
ATOM     26  C   UNL     1      -1.998  -4.333   1.599  1.00  0.00     0.338 C 
ATOM     27  O   UNL     1      -2.700  -3.353   1.772  1.00  0.00    -0.246 OA
BRANCH  26  28
ATOM     28  C   UNL     1      -2.145  -5.220   0.437  1.00  0.00     0.060 A 
ATOM     29  C   UNL     1      -1.121  -5.329  -0.506  1.00  0.00     0.016 A 
ATOM     30  C   UNL     1      -3.364  -5.866   0.238  1.00  0.00     0.016 A 
ATOM     31  C   UNL     1      -1.337  -6.037  -1.688  1.00  0.00     0.010 A 
ATOM     32  C   UNL     1      -3.546  -6.642  -0.905  1.00  0.00     0.010 A 
ATOM     33  C   UNL     1      -2.545  -6.716  -1.891  1.00  0.00    -0.014 A 
BRANCH  33  34
ATOM     34  C   UNL     1      -2.799  -7.514  -3.117  1.00  0.00     0.031 A 
ATOM     35  C   UNL     1      -3.947  -7.146  -4.016  1.00  0.00     0.074 A 
ATOM     36  C   UNL     1      -2.059  -8.608  -3.381  1.00  0.00     0.049 A 
ATOM     37  N   UNL     1      -4.526  -7.856  -4.949  1.00  0.00    -0.248 NA
ATOM     38  C   UNL     1      -4.530  -5.807  -3.827  1.00  0.00     0.031 C 
ATOM     39  C   UNL     1      -0.882  -9.043  -2.626  1.00  0.00     0.029 A 
ATOM     40  N   UNL     1      -2.209  -9.573  -4.346  1.00  0.00    -0.354 N 
ATOM     41  C   UNL     1      -5.573  -7.074  -5.423  1.00  0.00     0.074 A 
ATOM     42  C   UNL     1      -5.547  -5.833  -4.678  1.00  0.00     0.031 C 
ATOM     43  C   UNL     1      -0.422 -10.189  -3.151  1.00  0.00     0.029 A 
ATOM     44  C   UNL     1      -1.317 -10.612  -4.223  1.00  0.00     0.049 A 
ATOM     45  H   UNL     1      -2.889  -9.526  -5.056  1.00  0.00     0.167 HD
ATOM     46  C   UNL     1      -6.481  -7.373  -6.383  1.00  0.00     0.031 A 
ATOM     47  C   UNL     1      -1.259 -11.800  -4.855  1.00  0.00     0.031 A 
ATOM     48  C   UNL     1      -6.486  -8.605  -7.126  1.00  0.00     0.049 A 
ATOM     49  C   UNL     1      -2.311 -12.139  -5.873  1.00  0.00     0.074 A 
ATOM     50  C   UNL     1      -7.364  -9.011  -8.116  1.00  0.00     0.029 A 
ATOM     51  N   UNL     1      -5.561  -9.625  -6.967  1.00  0.00    -0.354 N 
ATOM     52  N   UNL     1      -3.329 -11.415  -6.274  1.00  0.00    -0.248 NA
ATOM     53  C   UNL     1      -2.215 -13.457  -6.514  1.00  0.00     0.031 C 
ATOM     54  C   UNL     1      -6.988 -10.292  -8.533  1.00  0.00     0.029 A 
ATOM     55  C   UNL     1      -5.849 -10.663  -7.835  1.00  0.00     0.049 A 
ATOM     56  H   UNL     1      -4.810  -9.613  -6.331  1.00  0.00     0.167 HD
ATOM     57  C   UNL     1      -3.980 -12.180  -7.234  1.00  0.00     0.074 A 
ATOM     58  C   UNL     1      -3.241 -13.421  -7.355  1.00  0.00     0.031 C 
ATOM     59  C   UNL     1      -5.088 -11.880  -7.953  1.00  0.00     0.031 A 
BRANCH  46  60
ATOM     60  C   UNL     1      -7.569  -6.370  -6.652  1.00  0.00    -0.014 A 
ATOM     61  C   UNL     1      -7.308  -5.174  -7.344  1.00  0.00     0.010 A 
ATOM     62  C   UNL     1      -8.884  -6.646  -6.235  1.00  0.00     0.010 A 
ATOM     63  C   UNL     1      -8.335  -4.256  -7.580  1.00  0.00     0.020 A 
ATOM     64  C   UNL     1      -9.918  -5.741  -6.489  1.00  0.00     0.020 A 
ATOM     65  C   UNL     1      -9.633  -4.542  -7.144  1.00  0.00     0.054 A 
BRANCH  65  66
ATOM     66  S   UNL     1     -10.952  -3.340  -7.472  1.00  0.00     0.124 S 
ATOM     67  O   UNL     1     -10.675  -2.312  -6.472  1.00  0.00    -0.237 OA
ATOM     68  O   UNL     1     -10.698  -2.951  -8.857  1.00  0.00    -0.237 OA
ATOM     69  O   UNL     1     -12.178  -4.104  -7.258  1.00  0.00    -0.744 OA
ENDBRANCH  65  66
ENDBRANCH  46  60
BRANCH  47  70
ATOM     70  C   UNL     1      -0.192 -12.773  -4.499  1.00  0.00    -0.014 A 
ATOM     71  C   UNL     1       0.864 -13.026  -5.390  1.00  0.00     0.010 A 
ATOM     72  C   UNL     1      -0.210 -13.427  -3.253  1.00  0.00     0.010 A 
ATOM     73  C   UNL     1       1.881 -13.922  -5.044  1.00  0.00     0.020 A 
ATOM     74  C   UNL     1       0.817 -14.303  -2.894  1.00  0.00     0.020 A 
ATOM     75  C   UNL     1       1.852 -14.552  -3.797  1.00  0.00     0.054 A 
BRANCH  75  76
ATOM     76  S   UNL     1       3.215 -15.660  -3.341  1.00  0.00     0.124 S 
ATOM     77  O   UNL     1       2.886 -16.868  -4.091  1.00  0.00    -0.237 OA
ATOM     78  O   UNL     1       4.390 -14.927  -3.805  1.00  0.00    -0.237 OA
ATOM     79  O   UNL     1       3.093 -15.770  -1.889  1.00  0.00    -0.744 OA
ENDBRANCH  75  76
ENDBRANCH  47  70
BRANCH  59  80
ATOM     80  C   UNL     1      -5.543 -12.878  -8.980  1.00  0.00    -0.014 A 
ATOM     81  C   UNL     1      -6.258 -14.029  -8.610  1.00  0.00     0.010 A 
ATOM     82  C   UNL     1      -5.333 -12.603 -10.344  1.00  0.00     0.010 A 
ATOM     83  C   UNL     1      -6.753 -14.893  -9.590  1.00  0.00     0.020 A 
ATOM     84  C   UNL     1      -5.842 -13.454 -11.325  1.00  0.00     0.020 A 
ATOM     85  C   UNL     1      -6.546 -14.598 -10.942  1.00  0.00     0.054 A 
BRANCH  85  86
ATOM     86  S   UNL     1      -7.273 -15.687 -12.197  1.00  0.00     0.124 S 
ATOM     87  O   UNL     1      -6.366 -16.831 -12.169  1.00  0.00    -0.237 OA
ATOM     88  O   UNL     1      -8.614 -15.934 -11.673  1.00  0.00    -0.237 OA
ATOM     89  O   UNL     1      -7.227 -14.885 -13.418  1.00  0.00    -0.744 OA
ENDBRANCH  85  86
ENDBRANCH  59  80
ENDBRANCH  33  34
ENDBRANCH  26  28
ENDBRANCH  25  26
ENDBRANCH  24  25
ENDBRANCH   1  24
TORSDOF 18
