REMARK SMILES C#CCN(CC(=O)OCCOC(=O)c1ccc(-c2c3nc(c(-c4ccc(S(=O)(=O)[O-])cc4)c4ccc([nH]4)c(-c4ccc(S(=O)(=O)[O-])cc4)c4nc(c(-c5ccc(S(=O)(=O)[O-])cc5)c5ccc2[nH]5)C=C4)C=C3)cc1)C(=O)NCCc1ccco1
REMARK SMILES IDX 9 1 8 2 6 3 7 4 5 5 4 6 3 7 2 8 1 9 74 10 75 11 76 12 77 14
REMARK SMILES IDX 78 15 79 16 80 17 83 18 81 19 82 20 10 21 11 22 12 23 13 24
REMARK SMILES IDX 14 25 15 26 73 27 16 28 72 29 17 30 18 31 19 32 66 33 20 34
REMARK SMILES IDX 71 35 65 36 67 37 21 38 70 39 64 40 63 41 22 43 52 44 33 45
REMARK SMILES IDX 51 46 34 47 37 48 50 49 68 50 35 51 36 52 49 54 69 55 38 56
REMARK SMILES IDX 23 57 24 58 32 59 25 60 31 61 26 62 27 63 28 64 29 65 30 66
REMARK SMILES IDX 53 67 54 68 62 69 55 70 61 71 56 72 57 73 58 74 59 75 60 76
REMARK SMILES IDX 39 77 40 78 48 79 41 80 47 81 42 82 43 83 44 84 45 85 46 86
REMARK H PARENT 76 13 67 42 37 53
REMARK Flexibility Score: inf
ROOT
ATOM      1  C   UNL     1      -6.601  -0.015   1.615  1.00  0.00     0.274 C 
ENDROOT
BRANCH   1   2
ATOM      2  O   UNL     1      -5.193  -0.304   1.437  1.00  0.00    -0.461 OA
BRANCH   2   3
ATOM      3  C   UNL     1      -4.335   0.537   2.081  1.00  0.00     0.325 C 
ATOM      4  O   UNL     1      -4.694   1.571   2.638  1.00  0.00    -0.250 OA
BRANCH   3   5
ATOM      5  C   UNL     1      -2.912  -0.024   2.258  1.00  0.00     0.245 C 
BRANCH   5   6
ATOM      6  N   UNL     1      -2.363  -0.786   1.155  1.00  0.00    -0.303 N 
BRANCH   6   7
ATOM      7  C   UNL     1      -1.895   0.049   0.051  1.00  0.00     0.211 C 
BRANCH   7   8
ATOM      8  C   UNL     1      -0.375   0.049   0.051  1.00  0.00    -0.085 C 
ATOM      9  C   UNL     1       0.929   0.049   0.051  1.00  0.00     0.006 C 
ENDBRANCH   7   8
ENDBRANCH   6   7
BRANCH   6  10
ATOM     10  C   UNL     1      -2.198  -2.126   1.008  1.00  0.00     0.318 C 
ATOM     11  O   UNL     1      -1.903  -2.602  -0.098  1.00  0.00    -0.249 OA
ATOM     12  N   UNL     1      -2.262  -3.048   1.971  1.00  0.00    -0.337 N 
ATOM     13  H   UNL     1      -2.062  -3.922   1.563  1.00  0.00     0.165 HD
BRANCH  12  14
ATOM     14  C   UNL     1      -2.515  -3.268   3.405  1.00  0.00     0.125 C 
BRANCH  14  15
ATOM     15  C   UNL     1      -3.667  -4.274   3.574  1.00  0.00     0.096 C 
BRANCH  15  16
ATOM     16  C   UNL     1      -3.534  -5.272   4.664  1.00  0.00     0.105 A 
ATOM     17  C   UNL     1      -3.373  -5.208   6.032  1.00  0.00     0.045 A 
ATOM     18  O   UNL     1      -3.776  -6.561   4.287  1.00  0.00    -0.469 OA
ATOM     19  C   UNL     1      -3.542  -6.531   6.515  1.00  0.00     0.042 A 
ATOM     20  C   UNL     1      -3.783  -7.315   5.412  1.00  0.00     0.195 A 
ENDBRANCH  15  16
ENDBRANCH  14  15
ENDBRANCH  12  14
ENDBRANCH   6  10
ENDBRANCH   5   6
ENDBRANCH   3   5
ENDBRANCH   2   3
ENDBRANCH   1   2
BRANCH   1  21
ATOM     21  C   UNL     1      -7.243  -0.732   2.825  1.00  0.00     0.275 C 
BRANCH  21  22
ATOM     22  O   UNL     1      -6.709  -0.328   4.111  1.00  0.00    -0.458 OA
BRANCH  22  23
ATOM     23  C   UNL     1      -5.575  -0.992   4.397  1.00  0.00     0.338 C 
ATOM     24  O   UNL     1      -5.033  -1.777   3.632  1.00  0.00    -0.246 OA
BRANCH  23  25
ATOM     25  C   UNL     1      -4.886  -0.702   5.653  1.00  0.00     0.060 A 
ATOM     26  C   UNL     1      -3.830   0.212   5.618  1.00  0.00     0.016 A 
ATOM     27  C   UNL     1      -4.978  -1.631   6.694  1.00  0.00     0.016 A 
ATOM     28  C   UNL     1      -2.833   0.164   6.588  1.00  0.00     0.010 A 
ATOM     29  C   UNL     1      -4.019  -1.624   7.713  1.00  0.00     0.010 A 
ATOM     30  C   UNL     1      -2.931  -0.739   7.657  1.00  0.00    -0.014 A 
BRANCH  30  31
ATOM     31  C   UNL     1      -2.028  -0.580   8.820  1.00  0.00     0.031 A 
ATOM     32  C   UNL     1      -0.920  -1.539   9.141  1.00  0.00     0.074 A 
ATOM     33  C   UNL     1      -2.270   0.479   9.614  1.00  0.00     0.049 A 
ATOM     34  N   UNL     1      -0.118  -1.536  10.177  1.00  0.00    -0.248 NA
ATOM     35  C   UNL     1      -0.673  -2.635   8.193  1.00  0.00     0.031 C 
ATOM     36  C   UNL     1      -3.320   1.477   9.380  1.00  0.00     0.029 A 
ATOM     37  N   UNL     1      -1.670   0.890  10.772  1.00  0.00    -0.354 N 
ATOM     38  C   UNL     1       0.723  -2.631  10.018  1.00  0.00     0.074 A 
ATOM     39  C   UNL     1       0.327  -3.283   8.785  1.00  0.00     0.031 C 
ATOM     40  C   UNL     1      -3.293   2.381  10.365  1.00  0.00     0.029 A 
ATOM     41  C   UNL     1      -2.265   1.998  11.323  1.00  0.00     0.049 A 
ATOM     42  H   UNL     1      -0.891   0.438  11.170  1.00  0.00     0.167 HD
ATOM     43  C   UNL     1       1.728  -3.044  10.831  1.00  0.00     0.031 A 
ATOM     44  C   UNL     1      -2.043   2.623  12.491  1.00  0.00     0.031 A 
ATOM     45  C   UNL     1       2.108  -2.378  12.055  1.00  0.00     0.049 A 
ATOM     46  C   UNL     1      -0.963   2.119  13.387  1.00  0.00     0.074 A 
ATOM     47  C   UNL     1       3.146  -2.690  12.918  1.00  0.00     0.029 A 
ATOM     48  N   UNL     1       1.464  -1.275  12.595  1.00  0.00    -0.354 N 
ATOM     49  N   UNL     1      -0.171   1.090  13.212  1.00  0.00    -0.248 NA
ATOM     50  C   UNL     1      -0.740   2.862  14.631  1.00  0.00     0.031 C 
ATOM     51  C   UNL     1       3.101  -1.804  14.002  1.00  0.00     0.029 A 
ATOM     52  C   UNL     1       2.063  -0.912  13.792  1.00  0.00     0.049 A 
ATOM     53  H   UNL     1       0.694  -0.816  12.188  1.00  0.00     0.167 HD
ATOM     54  C   UNL     1       0.657   1.063  14.324  1.00  0.00     0.074 A 
ATOM     55  C   UNL     1       0.274   2.189  15.157  1.00  0.00     0.031 C 
ATOM     56  C   UNL     1       1.648   0.189  14.624  1.00  0.00     0.031 A 
BRANCH  43  57
ATOM     57  C   UNL     1       2.489  -4.289  10.451  1.00  0.00    -0.014 A 
ATOM     58  C   UNL     1       3.466  -4.267   9.441  1.00  0.00     0.010 A 
ATOM     59  C   UNL     1       2.305  -5.470  11.196  1.00  0.00     0.010 A 
ATOM     60  C   UNL     1       4.234  -5.407   9.172  1.00  0.00     0.020 A 
ATOM     61  C   UNL     1       3.081  -6.605  10.942  1.00  0.00     0.020 A 
ATOM     62  C   UNL     1       4.036  -6.569   9.924  1.00  0.00     0.054 A 
BRANCH  62  63
ATOM     63  S   UNL     1       5.085  -8.017   9.601  1.00  0.00     0.124 S 
ATOM     64  O   UNL     1       4.483  -8.557   8.385  1.00  0.00    -0.237 OA
ATOM     65  O   UNL     1       6.411  -7.426   9.436  1.00  0.00    -0.237 OA
ATOM     66  O   UNL     1       4.919  -8.838  10.797  1.00  0.00    -0.744 OA
ENDBRANCH  62  63
ENDBRANCH  43  57
BRANCH  44  67
ATOM     67  C   UNL     1      -2.904   3.775  12.848  1.00  0.00    -0.014 A 
ATOM     68  C   UNL     1      -2.439   5.088  12.675  1.00  0.00     0.010 A 
ATOM     69  C   UNL     1      -4.242   3.555  13.226  1.00  0.00     0.010 A 
ATOM     70  C   UNL     1      -3.308   6.167  12.854  1.00  0.00     0.020 A 
ATOM     71  C   UNL     1      -5.117   4.630  13.384  1.00  0.00     0.020 A 
ATOM     72  C   UNL     1      -4.644   5.931  13.196  1.00  0.00     0.054 A 
BRANCH  72  73
ATOM     73  S   UNL     1      -5.792   7.332  13.290  1.00  0.00     0.124 S 
ATOM     74  O   UNL     1      -5.533   7.844  14.632  1.00  0.00    -0.237 OA
ATOM     75  O   UNL     1      -5.349   8.185  12.190  1.00  0.00    -0.237 OA
ATOM     76  O   UNL     1      -7.100   6.710  13.095  1.00  0.00    -0.744 OA
ENDBRANCH  72  73
ENDBRANCH  44  67
BRANCH  56  77
ATOM     77  C   UNL     1       2.381   0.435  15.910  1.00  0.00    -0.014 A 
ATOM     78  C   UNL     1       1.795   0.110  17.146  1.00  0.00     0.010 A 
ATOM     79  C   UNL     1       3.657   1.024  15.883  1.00  0.00     0.010 A 
ATOM     80  C   UNL     1       2.454   0.416  18.339  1.00  0.00     0.020 A 
ATOM     81  C   UNL     1       4.327   1.314  17.074  1.00  0.00     0.020 A 
ATOM     82  C   UNL     1       3.710   1.029  18.295  1.00  0.00     0.054 A 
BRANCH  82  83
ATOM     83  S   UNL     1       4.546   1.433  19.852  1.00  0.00     0.124 S 
ATOM     84  O   UNL     1       3.881   2.675  20.238  1.00  0.00    -0.237 OA
ATOM     85  O   UNL     1       4.248   0.275  20.692  1.00  0.00    -0.237 OA
ATOM     86  O   UNL     1       5.948   1.568  19.464  1.00  0.00    -0.744 OA
ENDBRANCH  82  83
ENDBRANCH  56  77
ENDBRANCH  30  31
ENDBRANCH  23  25
ENDBRANCH  22  23
ENDBRANCH  21  22
ENDBRANCH   1  21
TORSDOF 21
