REMARK SMILES COc1cccc([C@H]2[NH2+][C@@](CC(C)C)(C(=O)OCCOC(=O)c3ccc(-c4c5nc(c(-c6ccc(S(=O)(=O)[O-])cc6)c6ccc([nH]6)c(-c6ccc(S(=O)(=O)[O-])cc6)c6nc(c(-c7ccc(S(=O)(=O)[O-])cc7)c7ccc4[nH]7)C=C6)C=C5)cc3)[C@H]3C(=O)N(C(C)C)C(=O)[C@H]23)c1O
REMARK SMILES IDX 19 1 18 2 17 3 15 4 16 5 10 6 8 7 9 8 92 9 83 12 90 13 84 14
REMARK SMILES IDX 86 15 91 16 85 17 7 18 3 19 4 20 93 21 5 22 6 23 2 24 1 25
REMARK SMILES IDX 94 26 11 28 12 29 13 30 14 31 87 32 88 33 89 34 20 35 21 36
REMARK SMILES IDX 22 37 23 38 24 39 82 40 25 41 81 42 26 43 27 44 28 45 75 46
REMARK SMILES IDX 29 47 80 48 74 49 76 50 30 51 79 52 73 53 72 54 31 56 61 57
REMARK SMILES IDX 42 58 60 59 43 60 46 61 59 62 77 63 44 64 45 65 58 67 78 68
REMARK SMILES IDX 47 69 32 70 33 71 41 72 34 73 40 74 35 75 36 76 37 77 38 78
REMARK SMILES IDX 39 79 62 80 63 81 71 82 64 83 70 84 65 85 66 86 67 87 68 88
REMARK SMILES IDX 69 89 48 90 49 91 57 92 50 93 56 94 51 95 52 96 53 97 54 98
REMARK SMILES IDX 55 99
REMARK H PARENT 9 10 9 11 94 27 76 55 46 66
REMARK Flexibility Score: inf
ROOT
ATOM      1  C   UNL     1       2.292  -8.989  -2.744  1.00  0.00     0.275 C 
ENDROOT
BRANCH   1   2
ATOM      2  C   UNL     1       1.201  -7.993  -3.144  1.00  0.00     0.274 C 
BRANCH   2   3
ATOM      3  O   UNL     1       1.482  -6.680  -2.625  1.00  0.00    -0.457 OA
BRANCH   3   4
ATOM      4  C   UNL     1       0.846  -6.308  -1.490  1.00  0.00     0.369 C 
ATOM      5  O   UNL     1       0.001  -7.016  -0.953  1.00  0.00    -0.245 OA
BRANCH   4   6
ATOM      6  C   UNL     1       1.268  -4.880  -0.979  1.00  0.00     0.207 C 
ATOM      7  C   UNL     1       0.065  -4.292   1.155  1.00  0.00     0.232 C 
ATOM      8  N   UNL     1       1.308  -4.907   0.579  1.00  0.00    -0.324 N 
ATOM      9  C   UNL     1      -0.783  -4.234  -0.060  1.00  0.00     0.161 C 
ATOM     10  H   UNL     1       1.380  -5.875   0.895  1.00  0.00     0.347 HD
ATOM     11  H   UNL     1       2.115  -4.370   0.895  1.00  0.00     0.347 HD
ATOM     12  C   UNL     1       0.163  -3.854  -1.181  1.00  0.00     0.171 C 
ATOM     13  C   UNL     1      -1.892  -3.271  -0.246  1.00  0.00     0.240 C 
ATOM     14  C   UNL     1      -0.904  -3.764  -2.244  1.00  0.00     0.240 C 
ATOM     15  N   UNL     1      -2.014  -3.212  -1.620  1.00  0.00    -0.279 N 
ATOM     16  O   UNL     1      -2.579  -2.755   0.610  1.00  0.00    -0.274 OA
ATOM     17  O   UNL     1      -0.794  -4.041  -3.424  1.00  0.00    -0.274 OA
BRANCH   7  18
ATOM     18  C   UNL     1      -0.518  -5.011   2.368  1.00  0.00     0.056 A 
ATOM     19  C   UNL     1      -2.240  -6.320   3.562  1.00  0.00     0.161 A 
ATOM     20  C   UNL     1      -1.581  -6.112   4.767  1.00  0.00     0.050 A 
ATOM     21  C   UNL     1      -1.741  -5.722   2.393  1.00  0.00     0.166 A 
ATOM     22  C   UNL     1      -0.391  -5.387   4.792  1.00  0.00     0.005 A 
ATOM     23  C   UNL     1       0.141  -4.859   3.606  1.00  0.00     0.014 A 
BRANCH  19  24
ATOM     24  O   UNL     1      -3.425  -7.008   3.623  1.00  0.00    -0.493 OA
ATOM     25  C   UNL     1      -3.610  -8.023   2.631  1.00  0.00     0.278 C 
ENDBRANCH  19  24
BRANCH  21  26
ATOM     26  O   UNL     1      -2.556  -5.748   1.293  1.00  0.00    -0.504 OA
ATOM     27  H   UNL     1      -3.364  -6.222   1.320  1.00  0.00     0.293 HD
ENDBRANCH  21  26
ENDBRANCH   7  18
BRANCH   6  28
ATOM     28  C   UNL     1       2.693  -4.410  -1.435  1.00  0.00     0.085 C 
BRANCH  28  29
ATOM     29  C   UNL     1       3.169  -4.495  -2.912  1.00  0.00    -0.011 C 
ATOM     30  C   UNL     1       2.199  -3.922  -3.934  1.00  0.00     0.007 C 
ATOM     31  C   UNL     1       4.535  -3.818  -3.085  1.00  0.00     0.007 C 
ENDBRANCH  28  29
ENDBRANCH   6  28
BRANCH  15  32
ATOM     32  C   UNL     1      -3.241  -2.836  -2.303  1.00  0.00     0.087 C 
ATOM     33  C   UNL     1      -4.307  -3.916  -2.101  1.00  0.00     0.031 C 
ATOM     34  C   UNL     1      -3.752  -1.467  -1.862  1.00  0.00     0.031 C 
ENDBRANCH  15  32
ENDBRANCH   4   6
ENDBRANCH   3   4
ENDBRANCH   2   3
ENDBRANCH   1   2
BRANCH   1  35
ATOM     35  O   UNL     1       2.185  -9.364  -1.357  1.00  0.00    -0.458 OA
BRANCH  35  36
ATOM     36  C   UNL     1       2.964  -8.657  -0.506  1.00  0.00     0.338 C 
ATOM     37  O   UNL     1       3.775  -7.793  -0.797  1.00  0.00    -0.246 OA
BRANCH  36  38
ATOM     38  C   UNL     1       2.592  -8.973   0.883  1.00  0.00     0.060 A 
ATOM     39  C   UNL     1       1.833  -8.028   1.559  1.00  0.00     0.016 A 
ATOM     40  C   UNL     1       3.047 -10.106   1.555  1.00  0.00     0.016 A 
ATOM     41  C   UNL     1       1.559  -8.173   2.908  1.00  0.00     0.010 A 
ATOM     42  C   UNL     1       2.740 -10.271   2.918  1.00  0.00     0.010 A 
ATOM     43  C   UNL     1       2.005  -9.291   3.609  1.00  0.00    -0.014 A 
BRANCH  43  44
ATOM     44  C   UNL     1       1.728  -9.342   5.067  1.00  0.00     0.031 A 
ATOM     45  C   UNL     1       2.840  -9.104   6.044  1.00  0.00     0.074 A 
ATOM     46  C   UNL     1       0.459  -9.458   5.507  1.00  0.00     0.049 A 
ATOM     47  N   UNL     1       2.800  -9.113   7.351  1.00  0.00    -0.248 NA
ATOM     48  C   UNL     1       4.172  -8.829   5.482  1.00  0.00     0.031 C 
ATOM     49  C   UNL     1      -0.713  -9.595   4.642  1.00  0.00     0.029 A 
ATOM     50  N   UNL     1      -0.069  -9.413   6.775  1.00  0.00    -0.354 N 
ATOM     51  C   UNL     1       4.114  -8.940   7.768  1.00  0.00     0.074 A 
ATOM     52  C   UNL     1       4.919  -8.779   6.576  1.00  0.00     0.031 C 
ATOM     53  C   UNL     1      -1.821  -9.529   5.396  1.00  0.00     0.029 A 
ATOM     54  C   UNL     1      -1.447  -9.408   6.799  1.00  0.00     0.049 A 
ATOM     55  H   UNL     1       0.484  -9.387   7.588  1.00  0.00     0.167 HD
ATOM     56  C   UNL     1       4.600  -8.965   9.032  1.00  0.00     0.031 A 
ATOM     57  C   UNL     1      -2.310  -9.306   7.831  1.00  0.00     0.031 A 
ATOM     58  C   UNL     1       3.779  -9.114  10.206  1.00  0.00     0.049 A 
ATOM     59  C   UNL     1      -1.745  -9.295   9.227  1.00  0.00     0.074 A 
ATOM     60  C   UNL     1       4.175  -9.225  11.527  1.00  0.00     0.029 A 
ATOM     61  N   UNL     1       2.391  -9.162  10.201  1.00  0.00    -0.354 N 
ATOM     62  N   UNL     1      -0.491  -9.233   9.609  1.00  0.00    -0.248 NA
ATOM     63  C   UNL     1      -2.708  -9.391  10.333  1.00  0.00     0.031 C 
ATOM     64  C   UNL     1       3.032  -9.398  12.313  1.00  0.00     0.029 A 
ATOM     65  C   UNL     1       1.918  -9.319  11.493  1.00  0.00     0.049 A 
ATOM     66  H   UNL     1       1.827  -9.094   9.397  1.00  0.00     0.167 HD
ATOM     67  C   UNL     1      -0.514  -9.310  10.997  1.00  0.00     0.074 A 
ATOM     68  C   UNL     1      -1.907  -9.354  11.390  1.00  0.00     0.031 C 
ATOM     69  C   UNL     1       0.526  -9.375  11.865  1.00  0.00     0.031 A 
BRANCH  56  70
ATOM     70  C   UNL     1       6.097  -8.956   9.195  1.00  0.00    -0.014 A 
ATOM     71  C   UNL     1       6.873  -7.809   8.957  1.00  0.00     0.010 A 
ATOM     72  C   UNL     1       6.735 -10.142   9.608  1.00  0.00     0.010 A 
ATOM     73  C   UNL     1       8.265  -7.862   9.090  1.00  0.00     0.020 A 
ATOM     74  C   UNL     1       8.121 -10.190   9.772  1.00  0.00     0.020 A 
ATOM     75  C   UNL     1       8.880  -9.053   9.493  1.00  0.00     0.054 A 
BRANCH  75  76
ATOM     76  S   UNL     1      10.684  -9.090   9.669  1.00  0.00     0.124 S 
ATOM     77  O   UNL     1      11.124  -9.038   8.277  1.00  0.00    -0.237 OA
ATOM     78  O   UNL     1      10.953  -7.890  10.458  1.00  0.00    -0.237 OA
ATOM     79  O   UNL     1      10.942 -10.354  10.355  1.00  0.00    -0.744 OA
ENDBRANCH  75  76
ENDBRANCH  56  70
BRANCH  57  80
ATOM     80  C   UNL     1      -3.786  -9.237   7.604  1.00  0.00    -0.014 A 
ATOM     81  C   UNL     1      -4.524  -8.117   8.033  1.00  0.00     0.010 A 
ATOM     82  C   UNL     1      -4.474 -10.290   6.972  1.00  0.00     0.010 A 
ATOM     83  C   UNL     1      -5.912  -8.060   7.853  1.00  0.00     0.020 A 
ATOM     84  C   UNL     1      -5.853 -10.218   6.749  1.00  0.00     0.020 A 
ATOM     85  C   UNL     1      -6.567  -9.111   7.208  1.00  0.00     0.054 A 
BRANCH  85  86
ATOM     86  S   UNL     1      -8.360  -9.007   6.942  1.00  0.00     0.124 S 
ATOM     87  O   UNL     1      -8.882  -9.314   8.269  1.00  0.00    -0.237 OA
ATOM     88  O   UNL     1      -8.539  -7.628   6.495  1.00  0.00    -0.237 OA
ATOM     89  O   UNL     1      -8.611 -10.021   5.920  1.00  0.00    -0.744 OA
ENDBRANCH  85  86
ENDBRANCH  57  80
BRANCH  69  90
ATOM     90  C   UNL     1       0.196  -9.513  13.329  1.00  0.00    -0.014 A 
ATOM     91  C   UNL     1      -0.348 -10.706  13.840  1.00  0.00     0.010 A 
ATOM     92  C   UNL     1       0.490  -8.460  14.214  1.00  0.00     0.010 A 
ATOM     93  C   UNL     1      -0.623 -10.831  15.204  1.00  0.00     0.020 A 
ATOM     94  C   UNL     1       0.245  -8.593  15.584  1.00  0.00     0.020 A 
ATOM     95  C   UNL     1      -0.323  -9.773  16.068  1.00  0.00     0.054 A 
BRANCH  95  96
ATOM     96  S   UNL     1      -0.648  -9.978  17.840  1.00  0.00     0.124 S 
ATOM     97  O   UNL     1      -2.107  -9.929  17.890  1.00  0.00    -0.237 OA
ATOM     98  O   UNL     1      -0.052 -11.281  18.126  1.00  0.00    -0.237 OA
ATOM     99  O   UNL     1       0.034  -8.839  18.452  1.00  0.00    -0.744 OA
ENDBRANCH  95  96
ENDBRANCH  69  90
ENDBRANCH  43  44
ENDBRANCH  36  38
ENDBRANCH  35  36
ENDBRANCH   1  35
TORSDOF 20
