REMARK SMILES Cc1cc(C(=O)OCCOC(=O)c2ccc(-c3c4nc(c(-c5ccc(S(=O)(=O)[O-])cc5)c5ccc([nH]5)c(-c5ccc(S(=O)(=O)[O-])cc5)c5nc(c(-c6ccc(S(=O)(=O)[O-])cc6)c6ccc3[nH]6)C=C5)C=C4)cc2)c(C)n1[C@@H]1C[N@H+]2CC[C@@H]1CC2
REMARK SMILES IDX 9 1 8 2 7 3 5 4 6 5 4 6 1 7 2 8 3 9 75 10 73 11 74 12 76 13
REMARK SMILES IDX 77 14 81 15 78 16 82 17 80 18 83 19 79 20 10 22 11 23 12 24
REMARK SMILES IDX 13 25 14 26 72 27 15 28 71 29 16 30 17 31 18 32 65 33 19 34
REMARK SMILES IDX 70 35 64 36 66 37 20 38 69 39 63 40 62 41 21 43 51 44 32 45
REMARK SMILES IDX 50 46 33 47 36 48 49 49 67 50 34 51 35 52 48 54 68 55 37 56
REMARK SMILES IDX 22 57 23 58 31 59 24 60 30 61 25 62 26 63 27 64 28 65 29 66
REMARK SMILES IDX 52 67 53 68 61 69 54 70 60 71 55 72 56 73 57 74 58 75 59 76
REMARK SMILES IDX 38 77 39 78 47 79 40 80 46 81 41 82 42 83 43 84 44 85 45 86
REMARK H PARENT 78 21 66 42 36 53
REMARK Flexibility Score: inf
ROOT
ATOM      1  C   UNL     1       0.448   0.190   8.194  1.00  0.00     0.275 C 
ENDROOT
BRANCH   1   2
ATOM      2  C   UNL     1      -0.747  -0.214   7.287  1.00  0.00     0.275 C 
BRANCH   2   3
ATOM      3  O   UNL     1      -0.364  -0.262   5.881  1.00  0.00    -0.458 OA
BRANCH   3   4
ATOM      4  C   UNL     1      -0.944   0.665   5.066  1.00  0.00     0.340 C 
ATOM      5  O   UNL     1      -1.812   1.454   5.443  1.00  0.00    -0.246 OA
BRANCH   4   6
ATOM      6  C   UNL     1      -0.418   0.687   3.695  1.00  0.00     0.081 A 
ATOM      7  C   UNL     1       0.319  -0.589   0.275  1.00  0.00     0.064 C 
ATOM      8  C   UNL     1       0.152   0.181   1.542  1.00  0.00     0.016 A 
ATOM      9  C   UNL     1      -0.260  -0.358   2.756  1.00  0.00     0.038 A 
ATOM     10  N   UNL     1       0.360   1.545   1.731  1.00  0.00    -0.339 N 
ATOM     11  C   UNL     1       0.002   1.847   3.050  1.00  0.00     0.030 A 
ATOM     12  C   UNL     1       0.074   3.192   3.709  1.00  0.00     0.065 C 
BRANCH  10  13
ATOM     13  C   UNL     1       0.813   2.557   0.768  1.00  0.00     0.145 C 
ATOM     14  C   UNL     1       0.041   2.688  -0.567  1.00  0.00     0.288 C 
ATOM     15  C   UNL     1       2.340   2.646   0.483  1.00  0.00     0.029 C 
ATOM     16  N   UNL     1       0.953   2.941  -1.718  1.00  0.00    -0.333 N 
ATOM     17  C   UNL     1       2.584   4.037  -0.155  1.00  0.00     0.067 C 
ATOM     18  C   UNL     1       2.777   1.647  -0.595  1.00  0.00     0.067 C 
ATOM     19  C   UNL     1       1.747   4.163  -1.444  1.00  0.00     0.262 C 
ATOM     20  C   UNL     1       1.888   1.799  -1.840  1.00  0.00     0.262 C 
ATOM     21  H   UNL     1       0.410   3.055  -2.574  1.00  0.00     0.348 HD
ENDBRANCH  10  13
ENDBRANCH   4   6
ENDBRANCH   3   4
ENDBRANCH   2   3
ENDBRANCH   1   2
BRANCH   1  22
ATOM     22  O   UNL     1       0.315   1.427   8.992  1.00  0.00    -0.458 OA
BRANCH  22  23
ATOM     23  C   UNL     1       1.386   2.297   8.947  1.00  0.00     0.338 C 
ATOM     24  O   UNL     1       2.228   2.264   8.061  1.00  0.00    -0.246 OA
BRANCH  23  25
ATOM     25  C   UNL     1       1.507   3.290  10.111  1.00  0.00     0.060 A 
ATOM     26  C   UNL     1       0.801   4.489  10.123  1.00  0.00     0.016 A 
ATOM     27  C   UNL     1       2.537   3.202  11.075  1.00  0.00     0.016 A 
ATOM     28  C   UNL     1       1.091   5.523  11.092  1.00  0.00     0.010 A 
ATOM     29  C   UNL     1       2.851   4.268  12.033  1.00  0.00     0.010 A 
ATOM     30  C   UNL     1       2.136   5.480  12.087  1.00  0.00    -0.014 A 
BRANCH  30  31
ATOM     31  C   UNL     1       2.684   6.896  12.654  1.00  0.00     0.031 A 
ATOM     32  C   UNL     1       2.949   7.661  11.402  1.00  0.00     0.074 A 
ATOM     33  C   UNL     1       3.060   7.576  13.819  1.00  0.00     0.049 A 
ATOM     34  N   UNL     1       3.780   7.205  10.508  1.00  0.00    -0.248 NA
ATOM     35  C   UNL     1       2.058   8.722  10.935  1.00  0.00     0.031 C 
ATOM     36  C   UNL     1       3.125   7.057  15.196  1.00  0.00     0.029 A 
ATOM     37  N   UNL     1       3.479   8.932  14.065  1.00  0.00    -0.354 N 
ATOM     38  C   UNL     1       3.726   8.085   9.456  1.00  0.00     0.074 A 
ATOM     39  C   UNL     1       2.502   8.846   9.681  1.00  0.00     0.031 C 
ATOM     40  C   UNL     1       3.389   8.045  16.106  1.00  0.00     0.029 A 
ATOM     41  C   UNL     1       3.596   9.337  15.452  1.00  0.00     0.049 A 
ATOM     42  H   UNL     1       3.676   9.553  13.328  1.00  0.00     0.167 HD
ATOM     43  C   UNL     1       4.916   8.562   8.989  1.00  0.00     0.031 A 
ATOM     44  C   UNL     1       3.902  10.570  16.038  1.00  0.00     0.031 A 
ATOM     45  C   UNL     1       5.198   9.882   9.490  1.00  0.00     0.049 A 
ATOM     46  C   UNL     1       4.667  11.325  15.034  1.00  0.00     0.074 A 
ATOM     47  C   UNL     1       4.455  11.041   9.588  1.00  0.00     0.029 A 
ATOM     48  N   UNL     1       6.238   9.992  10.392  1.00  0.00    -0.354 N 
ATOM     49  N   UNL     1       5.911  11.056  14.784  1.00  0.00    -0.248 NA
ATOM     50  C   UNL     1       4.130  12.507  14.368  1.00  0.00     0.031 C 
ATOM     51  C   UNL     1       4.786  11.583  10.849  1.00  0.00     0.029 A 
ATOM     52  C   UNL     1       5.925  10.950  11.334  1.00  0.00     0.049 A 
ATOM     53  H   UNL     1       7.072   9.468  10.367  1.00  0.00     0.167 HD
ATOM     54  C   UNL     1       6.133  11.688  13.597  1.00  0.00     0.074 A 
ATOM     55  C   UNL     1       5.146  12.749  13.537  1.00  0.00     0.031 C 
ATOM     56  C   UNL     1       6.638  10.931  12.591  1.00  0.00     0.031 A 
BRANCH  43  57
ATOM     57  C   UNL     1       5.998   7.548   8.744  1.00  0.00    -0.014 A 
ATOM     58  C   UNL     1       6.519   7.418   7.450  1.00  0.00     0.010 A 
ATOM     59  C   UNL     1       6.494   6.700   9.758  1.00  0.00     0.010 A 
ATOM     60  C   UNL     1       7.460   6.423   7.164  1.00  0.00     0.020 A 
ATOM     61  C   UNL     1       7.418   5.692   9.476  1.00  0.00     0.020 A 
ATOM     62  C   UNL     1       7.886   5.552   8.173  1.00  0.00     0.054 A 
BRANCH  62  63
ATOM     63  S   UNL     1       9.005   4.196   7.731  1.00  0.00     0.124 S 
ATOM     64  O   UNL     1       8.339   3.606   6.570  1.00  0.00    -0.237 OA
ATOM     65  O   UNL     1      10.246   4.904   7.434  1.00  0.00    -0.237 OA
ATOM     66  O   UNL     1       9.022   3.347   8.919  1.00  0.00    -0.744 OA
ENDBRANCH  62  63
ENDBRANCH  43  57
BRANCH  44  67
ATOM     67  C   UNL     1       3.929  11.401  17.370  1.00  0.00    -0.014 A 
ATOM     68  C   UNL     1       4.979  12.366  17.583  1.00  0.00     0.010 A 
ATOM     69  C   UNL     1       2.793  11.612  18.170  1.00  0.00     0.010 A 
ATOM     70  C   UNL     1       4.853  13.518  18.402  1.00  0.00     0.020 A 
ATOM     71  C   UNL     1       2.670  12.755  19.030  1.00  0.00     0.020 A 
ATOM     72  C   UNL     1       3.676  13.727  19.104  1.00  0.00     0.054 A 
BRANCH  72  73
ATOM     73  S   UNL     1       3.427  15.326  19.976  1.00  0.00     0.124 S 
ATOM     74  O   UNL     1       4.421  15.278  21.044  1.00  0.00    -0.237 OA
ATOM     75  O   UNL     1       3.684  16.310  18.926  1.00  0.00    -0.237 OA
ATOM     76  O   UNL     1       2.036  15.261  20.421  1.00  0.00    -0.744 OA
ENDBRANCH  72  73
ENDBRANCH  44  67
BRANCH  56  77
ATOM     77  C   UNL     1       7.752   9.958  12.942  1.00  0.00    -0.014 A 
ATOM     78  C   UNL     1       7.740   9.061  14.037  1.00  0.00     0.010 A 
ATOM     79  C   UNL     1       8.916  10.000  12.158  1.00  0.00     0.010 A 
ATOM     80  C   UNL     1       8.872   8.308  14.383  1.00  0.00     0.020 A 
ATOM     81  C   UNL     1      10.037   9.220  12.471  1.00  0.00     0.020 A 
ATOM     82  C   UNL     1      10.022   8.405  13.603  1.00  0.00     0.054 A 
BRANCH  82  83
ATOM     83  S   UNL     1      11.506   7.490  14.105  1.00  0.00     0.124 S 
ATOM     84  O   UNL     1      11.895   8.181  15.334  1.00  0.00    -0.237 OA
ATOM     85  O   UNL     1      11.004   6.132  14.289  1.00  0.00    -0.237 OA
ATOM     86  O   UNL     1      12.424   7.677  12.984  1.00  0.00    -0.744 OA
ENDBRANCH  82  83
ENDBRANCH  56  77
ENDBRANCH  30  31
ENDBRANCH  23  25
ENDBRANCH  22  23
ENDBRANCH   1  22
TORSDOF 15
