REMARK SMILES COc1ccc2[nH]cc([C@H](C(=O)OCCOC(=O)c3ccc(-c4c5nc(c(-c6ccc(S(=O)(=O)[O-])cc6)c6ccc([nH]6)c(-c6ccc(S(=O)(=O)[O-])cc6)c6nc(c(-c7ccc(S(=O)(=O)[O-])cc7)c7ccc4[nH]7)C=C6)C=C5)cc3)[NH+]3CC[NH+](Cc4cccc5ccccc45)CC3)c2c1
REMARK SMILES IDX 14 1 13 2 11 3 12 4 10 5 9 6 3 7 4 8 97 9 5 10 96 11 6 12
REMARK SMILES IDX 7 13 8 14 2 16 1 17 79 18 80 19 95 20 81 22 94 23 82 24
REMARK SMILES IDX 83 26 84 27 85 28 93 29 86 30 88 31 92 32 87 33 89 34 91 35
REMARK SMILES IDX 90 36 15 37 16 38 17 39 18 40 19 41 20 42 78 43 21 44 77 45
REMARK SMILES IDX 22 46 23 47 24 48 71 49 25 50 76 51 70 52 72 53 26 54 75 55
REMARK SMILES IDX 69 56 68 57 27 59 57 60 38 61 56 62 39 63 42 64 55 65 73 66
REMARK SMILES IDX 40 67 41 68 54 70 74 71 43 72 28 73 29 74 37 75 30 76 36 77
REMARK SMILES IDX 31 78 32 79 33 80 34 81 35 82 58 83 59 84 67 85 60 86 66 87
REMARK SMILES IDX 61 88 62 89 63 90 64 91 65 92 44 93 45 94 53 95 46 96 52 97
REMARK SMILES IDX 47 98 48 99 49 100 50 101 51 102
REMARK H PARENT 7 15 79 21 82 25 72 58 42 69
REMARK Flexibility Score: inf
ROOT
ATOM      1  C   UNL     1       1.817   4.290   2.694  1.00  0.00     0.274 C 
ENDROOT
BRANCH   1   2
ATOM      2  O   UNL     1       0.470   4.758   2.980  1.00  0.00    -0.457 OA
BRANCH   2   3
ATOM      3  C   UNL     1      -0.615   4.109   2.490  1.00  0.00     0.370 C 
ATOM      4  O   UNL     1      -0.497   3.198   1.669  1.00  0.00    -0.245 OA
BRANCH   3   5
ATOM      5  C   UNL     1      -2.008   4.639   2.963  1.00  0.00     0.328 C 
BRANCH   5   6
ATOM      6  C   UNL     1      -2.790   4.111   4.229  1.00  0.00     0.046 A 
ATOM      7  C   UNL     1      -1.321   3.616   7.790  1.00  0.00     0.119 A 
ATOM      8  C   UNL     1      -2.437   3.016   8.349  1.00  0.00     0.048 A 
ATOM      9  C   UNL     1      -1.399   4.244   6.537  1.00  0.00     0.057 A 
ATOM     10  C   UNL     1      -3.629   2.973   7.628  1.00  0.00     0.030 A 
ATOM     11  C   UNL     1      -2.487   3.967   5.667  1.00  0.00     0.013 A 
ATOM     12  C   UNL     1      -3.610   3.408   6.291  1.00  0.00     0.046 A 
ATOM     13  N   UNL     1      -4.623   3.426   5.370  1.00  0.00    -0.361 N 
ATOM     14  C   UNL     1      -4.149   3.805   4.148  1.00  0.00     0.094 A 
ATOM     15  H   UNL     1      -5.561   3.198   5.563  1.00  0.00     0.166 HD
BRANCH   7  16
ATOM     16  O   UNL     1      -0.099   3.594   8.420  1.00  0.00    -0.497 OA
ATOM     17  C   UNL     1       0.338   2.247   8.655  1.00  0.00     0.278 C 
ENDBRANCH   7  16
ENDBRANCH   5   6
BRANCH   5  18
ATOM     18  N   UNL     1      -2.227   6.083   2.856  1.00  0.00    -0.310 N 
ATOM     19  C   UNL     1      -1.943   6.806   4.073  1.00  0.00     0.325 C 
ATOM     20  C   UNL     1      -1.703   6.803   1.696  1.00  0.00     0.325 C 
ATOM     21  H   UNL     1      -3.232   6.073   2.682  1.00  0.00     0.349 HD
ATOM     22  C   UNL     1      -0.471   7.161   4.282  1.00  0.00     0.324 C 
ATOM     23  C   UNL     1      -0.355   7.582   1.880  1.00  0.00     0.324 C 
ATOM     24  N   UNL     1       0.065   8.024   3.229  1.00  0.00    -0.322 N 
ATOM     25  H   UNL     1       1.078   7.910   3.185  1.00  0.00     0.348 HD
BRANCH  24  26
ATOM     26  C   UNL     1      -0.065   9.458   3.560  1.00  0.00     0.300 C 
BRANCH  26  27
ATOM     27  C   UNL     1      -1.479  10.027   3.670  1.00  0.00     0.014 A 
ATOM     28  C   UNL     1      -2.006  10.598   2.499  1.00  0.00     0.010 A 
ATOM     29  C   UNL     1      -2.340   9.787   4.796  1.00  0.00    -0.010 A 
ATOM     30  C   UNL     1      -3.371  10.809   2.368  1.00  0.00     0.001 A 
ATOM     31  C   UNL     1      -3.738   9.841   4.569  1.00  0.00    -0.018 A 
ATOM     32  C   UNL     1      -1.919   9.313   6.069  1.00  0.00     0.009 A 
ATOM     33  C   UNL     1      -4.232  10.379   3.373  1.00  0.00     0.009 A 
ATOM     34  C   UNL     1      -4.623   9.240   5.484  1.00  0.00     0.009 A 
ATOM     35  C   UNL     1      -2.810   8.707   6.964  1.00  0.00     0.001 A 
ATOM     36  C   UNL     1      -4.158   8.632   6.649  1.00  0.00     0.001 A 
ENDBRANCH  26  27
ENDBRANCH  24  26
ENDBRANCH   5  18
ENDBRANCH   3   5
ENDBRANCH   2   3
ENDBRANCH   1   2
BRANCH   1  37
ATOM     37  C   UNL     1       2.445   3.574   3.909  1.00  0.00     0.275 C 
BRANCH  37  38
ATOM     38  O   UNL     1       1.967   2.207   4.016  1.00  0.00    -0.458 OA
BRANCH  38  39
ATOM     39  C   UNL     1       0.733   2.204   4.556  1.00  0.00     0.338 C 
ATOM     40  O   UNL     1       0.214   3.202   4.996  1.00  0.00    -0.246 OA
BRANCH  39  41
ATOM     41  C   UNL     1      -0.080   1.003   4.451  1.00  0.00     0.060 A 
ATOM     42  C   UNL     1      -1.323   1.149   3.824  1.00  0.00     0.016 A 
ATOM     43  C   UNL     1       0.239  -0.167   5.119  1.00  0.00     0.016 A 
ATOM     44  C   UNL     1      -2.242   0.134   3.791  1.00  0.00     0.010 A 
ATOM     45  C   UNL     1      -0.656  -1.230   5.035  1.00  0.00     0.010 A 
ATOM     46  C   UNL     1      -1.862  -1.086   4.322  1.00  0.00    -0.014 A 
BRANCH  46  47
ATOM     47  C   UNL     1      -2.670  -2.246   3.955  1.00  0.00     0.031 A 
ATOM     48  C   UNL     1      -3.542  -2.886   4.966  1.00  0.00     0.074 A 
ATOM     49  C   UNL     1      -2.575  -2.668   2.680  1.00  0.00     0.049 A 
ATOM     50  N   UNL     1      -4.170  -4.022   4.886  1.00  0.00    -0.248 NA
ATOM     51  C   UNL     1      -3.731  -2.162   6.234  1.00  0.00     0.031 C 
ATOM     52  C   UNL     1      -1.813  -1.993   1.617  1.00  0.00     0.029 A 
ATOM     53  N   UNL     1      -3.107  -3.759   2.060  1.00  0.00    -0.354 N 
ATOM     54  C   UNL     1      -4.798  -4.181   6.110  1.00  0.00     0.074 A 
ATOM     55  C   UNL     1      -4.481  -3.019   6.913  1.00  0.00     0.031 C 
ATOM     56  C   UNL     1      -1.919  -2.696   0.483  1.00  0.00     0.029 A 
ATOM     57  C   UNL     1      -2.674  -3.906   0.764  1.00  0.00     0.049 A 
ATOM     58  H   UNL     1      -3.737  -4.378   2.495  1.00  0.00     0.167 HD
ATOM     59  C   UNL     1      -5.549  -5.231   6.509  1.00  0.00     0.031 A 
ATOM     60  C   UNL     1      -2.816  -4.943  -0.077  1.00  0.00     0.031 A 
ATOM     61  C   UNL     1      -5.802  -6.371   5.667  1.00  0.00     0.049 A 
ATOM     62  C   UNL     1      -3.567  -6.136   0.433  1.00  0.00     0.074 A 
ATOM     63  C   UNL     1      -6.530  -7.509   5.951  1.00  0.00     0.029 A 
ATOM     64  N   UNL     1      -5.320  -6.515   4.369  1.00  0.00    -0.354 N 
ATOM     65  N   UNL     1      -4.138  -6.306   1.604  1.00  0.00    -0.248 NA
ATOM     66  C   UNL     1      -3.688  -7.276  -0.477  1.00  0.00     0.031 C 
ATOM     67  C   UNL     1      -6.434  -8.368   4.852  1.00  0.00     0.029 A 
ATOM     68  C   UNL     1      -5.707  -7.737   3.851  1.00  0.00     0.049 A 
ATOM     69  H   UNL     1      -4.781  -5.844   3.890  1.00  0.00     0.167 HD
ATOM     70  C   UNL     1      -4.706  -7.570   1.567  1.00  0.00     0.074 A 
ATOM     71  C   UNL     1      -4.426  -8.106   0.246  1.00  0.00     0.031 C 
ATOM     72  C   UNL     1      -5.393  -8.232   2.531  1.00  0.00     0.031 A 
BRANCH  59  73
ATOM     73  C   UNL     1      -6.063  -5.217   7.920  1.00  0.00    -0.014 A 
ATOM     74  C   UNL     1      -7.060  -4.315   8.332  1.00  0.00     0.010 A 
ATOM     75  C   UNL     1      -5.536  -6.129   8.852  1.00  0.00     0.010 A 
ATOM     76  C   UNL     1      -7.497  -4.305   9.660  1.00  0.00     0.020 A 
ATOM     77  C   UNL     1      -5.990  -6.141  10.173  1.00  0.00     0.020 A 
ATOM     78  C   UNL     1      -6.959  -5.219  10.572  1.00  0.00     0.054 A 
BRANCH  78  79
ATOM     79  S   UNL     1      -7.564  -5.199  12.281  1.00  0.00     0.124 S 
ATOM     80  O   UNL     1      -7.003  -3.948  12.784  1.00  0.00    -0.237 OA
ATOM     81  O   UNL     1      -9.014  -5.210  12.105  1.00  0.00    -0.237 OA
ATOM     82  O   UNL     1      -7.000  -6.413  12.864  1.00  0.00    -0.744 OA
ENDBRANCH  78  79
ENDBRANCH  59  73
BRANCH  60  83
ATOM     83  C   UNL     1      -2.189  -4.905  -1.424  1.00  0.00    -0.014 A 
ATOM     84  C   UNL     1      -2.986  -4.859  -2.579  1.00  0.00     0.010 A 
ATOM     85  C   UNL     1      -0.787  -4.874  -1.560  1.00  0.00     0.010 A 
ATOM     86  C   UNL     1      -2.393  -4.804  -3.845  1.00  0.00     0.020 A 
ATOM     87  C   UNL     1      -0.192  -4.786  -2.821  1.00  0.00     0.020 A 
ATOM     88  C   UNL     1      -1.000  -4.766  -3.957  1.00  0.00     0.054 A 
BRANCH  88  89
ATOM     89  S   UNL     1      -0.261  -4.659  -5.610  1.00  0.00     0.124 S 
ATOM     90  O   UNL     1      -0.534  -5.987  -6.151  1.00  0.00    -0.237 OA
ATOM     91  O   UNL     1      -1.009  -3.561  -6.219  1.00  0.00    -0.237 OA
ATOM     92  O   UNL     1       1.146  -4.371  -5.340  1.00  0.00    -0.744 OA
ENDBRANCH  88  89
ENDBRANCH  60  83
BRANCH  72  93
ATOM     93  C   UNL     1      -5.906  -9.596   2.168  1.00  0.00    -0.014 A 
ATOM     94  C   UNL     1      -5.030 -10.686   2.022  1.00  0.00     0.010 A 
ATOM     95  C   UNL     1      -7.290  -9.793   2.016  1.00  0.00     0.010 A 
ATOM     96  C   UNL     1      -5.530 -11.947   1.697  1.00  0.00     0.020 A 
ATOM     97  C   UNL     1      -7.795 -11.060   1.728  1.00  0.00     0.020 A 
ATOM     98  C   UNL     1      -6.910 -12.126   1.556  1.00  0.00     0.054 A 
BRANCH  98  99
ATOM     99  S   UNL     1      -7.536 -13.785   1.186  1.00  0.00     0.124 S 
ATOM    100  O   UNL     1      -7.129 -13.960  -0.205  1.00  0.00    -0.237 OA
ATOM    101  O   UNL     1      -6.830 -14.616   2.158  1.00  0.00    -0.237 OA
ATOM    102  O   UNL     1      -8.976 -13.669   1.404  1.00  0.00    -0.744 OA
ENDBRANCH  98  99
ENDBRANCH  72  93
ENDBRANCH  46  47
ENDBRANCH  39  41
ENDBRANCH  38  39
ENDBRANCH  37  38
ENDBRANCH   1  37
TORSDOF 19
