REMARK SMILES Cc1ccc(S(=O)(=O)n2cc(C(=O)C(=O)N[C@@H](Cc3c[nH]c4ccccc34)C(=O)OCCOC(=O)c3ccc(-c4c5nc(c(-c6ccc(S(=O)(=O)[O-])cc6)c6ccc([nH]6)c(-c6ccc(S(=O)(=O)[O-])cc6)c6nc(c(-c7ccc(S(=O)(=O)[O-])cc7)c7ccc4[nH]7)C=C6)C=C5)cc3)c3ccccc32)cc1
REMARK SMILES IDX 31 1 30 2 28 3 29 4 17 5 16 6 14 7 15 8 12 10 13 11 11 12
REMARK SMILES IDX 9 13 10 14 101 15 96 16 100 17 97 18 99 19 98 20 6 21 7 22
REMARK SMILES IDX 8 23 5 24 1 25 2 26 3 27 103 28 4 29 102 30 18 31 19 32
REMARK SMILES IDX 20 33 27 34 21 35 22 36 26 37 23 39 25 40 24 41 32 42 33 43
REMARK SMILES IDX 34 44 35 45 36 46 37 47 95 48 38 49 94 50 39 51 40 52 41 53
REMARK SMILES IDX 88 54 42 55 93 56 87 57 89 58 43 59 92 60 86 61 85 62 44 64
REMARK SMILES IDX 74 65 55 66 73 67 56 68 59 69 72 70 90 71 57 72 58 73 71 75
REMARK SMILES IDX 91 76 60 77 45 78 46 79 54 80 47 81 53 82 48 83 49 84 50 85
REMARK SMILES IDX 51 86 52 87 75 88 76 89 84 90 77 91 83 92 78 93 79 94 80 95
REMARK SMILES IDX 81 96 82 97 61 98 62 99 70 100 63 101 69 102 64 103 65 104
REMARK SMILES IDX 66 105 67 106 68 107
REMARK H PARENT 16 9 21 38 89 63 59 74
REMARK Flexibility Score: inf
ROOT
ATOM      1  C   UNL     1     -12.001   4.167  -3.203  1.00  0.00     0.274 C 
ENDROOT
BRANCH   1   2
ATOM      2  O   UNL     1     -11.152   3.983  -2.060  1.00  0.00    -0.461 OA
BRANCH   2   3
ATOM      3  C   UNL     1     -11.724   3.325  -1.014  1.00  0.00     0.329 C 
ATOM      4  O   UNL     1     -12.920   3.053  -0.959  1.00  0.00    -0.250 OA
BRANCH   3   5
ATOM      5  C   UNL     1     -10.683   2.877   0.035  1.00  0.00     0.197 C 
BRANCH   5   6
ATOM      6  N   UNL     1      -9.357   3.538  -0.145  1.00  0.00    -0.335 N 
ATOM      7  C   UNL     1      -8.065   3.009  -0.163  1.00  0.00     0.293 C 
ATOM      8  O   UNL     1      -7.104   3.736  -0.401  1.00  0.00    -0.265 OA
ATOM      9  H   UNL     1      -9.400   4.513  -0.272  1.00  0.00     0.164 HD
BRANCH   7  10
ATOM     10  C   UNL     1      -7.821   1.539   0.204  1.00  0.00     0.252 C 
ATOM     11  O   UNL     1      -8.769   0.972   0.755  1.00  0.00    -0.283 OA
BRANCH  10  12
ATOM     12  C   UNL     1      -6.543   0.792   0.109  1.00  0.00     0.054 A 
ATOM     13  N   UNL     1      -4.528  -0.077   0.597  1.00  0.00    -0.240 N 
ATOM     14  C   UNL     1      -5.179   1.112   0.246  1.00  0.00     0.117 A 
ATOM     15  C   UNL     1      -5.489  -1.093   0.679  1.00  0.00     0.065 A 
ATOM     16  C   UNL     1      -6.556  -0.623  -0.064  1.00  0.00     0.012 A 
ATOM     17  C   UNL     1      -5.390  -2.446   1.062  1.00  0.00     0.028 A 
ATOM     18  C   UNL     1      -7.416  -1.559  -0.659  1.00  0.00     0.011 A 
ATOM     19  C   UNL     1      -6.208  -3.361   0.406  1.00  0.00     0.002 A 
ATOM     20  C   UNL     1      -7.170  -2.925  -0.493  1.00  0.00     0.001 A 
BRANCH  13  21
ATOM     21  S   UNL     1      -2.997  -0.731   0.165  1.00  0.00     0.268 S 
ATOM     22  O   UNL     1      -3.250  -1.315  -1.144  1.00  0.00    -0.201 OA
ATOM     23  O   UNL     1      -2.716  -1.575   1.324  1.00  0.00    -0.201 OA
BRANCH  21  24
ATOM     24  C   UNL     1      -1.430   0.017  -0.033  1.00  0.00     0.088 A 
ATOM     25  C   UNL     1       2.824   0.736  -0.056  1.00  0.00     0.044 C 
ATOM     26  C   UNL     1       1.338   0.537  -0.119  1.00  0.00    -0.051 A 
ATOM     27  C   UNL     1       0.888  -0.757  -0.322  1.00  0.00     0.005 A 
ATOM     28  C   UNL     1       0.391   1.571   0.079  1.00  0.00     0.005 A 
ATOM     29  C   UNL     1      -0.469  -1.000  -0.294  1.00  0.00     0.022 A 
ATOM     30  C   UNL     1      -1.006   1.320   0.129  1.00  0.00     0.022 A 
ENDBRANCH  21  24
ENDBRANCH  13  21
ENDBRANCH  10  12
ENDBRANCH   7  10
ENDBRANCH   5   6
BRANCH   5  31
ATOM     31  C   UNL     1     -11.290   3.027   1.457  1.00  0.00     0.074 C 
BRANCH  31  32
ATOM     32  C   UNL     1     -12.085   4.296   1.612  1.00  0.00    -0.020 A 
ATOM     33  C   UNL     1     -13.457   4.427   1.515  1.00  0.00     0.087 A 
ATOM     34  C   UNL     1     -11.559   5.616   1.643  1.00  0.00     0.003 A 
ATOM     35  N   UNL     1     -13.769   5.750   1.377  1.00  0.00    -0.361 N 
ATOM     36  C   UNL     1     -12.613   6.492   1.382  1.00  0.00     0.046 A 
ATOM     37  C   UNL     1     -10.255   6.127   1.742  1.00  0.00     0.010 A 
ATOM     38  H   UNL     1     -14.679   6.115   1.288  1.00  0.00     0.166 HD
ATOM     39  C   UNL     1     -12.417   7.852   1.137  1.00  0.00     0.026 A 
ATOM     40  C   UNL     1     -10.039   7.483   1.503  1.00  0.00     0.001 A 
ATOM     41  C   UNL     1     -11.103   8.326   1.186  1.00  0.00     0.002 A 
ENDBRANCH  31  32
ENDBRANCH   5  31
ENDBRANCH   3   5
ENDBRANCH   2   3
ENDBRANCH   1   2
BRANCH   1  42
ATOM     42  C   UNL     1     -11.246   3.775  -4.483  1.00  0.00     0.275 C 
BRANCH  42  43
ATOM     43  O   UNL     1     -10.945   2.371  -4.691  1.00  0.00    -0.458 OA
BRANCH  43  44
ATOM     44  C   UNL     1     -10.517   1.614  -3.639  1.00  0.00     0.338 C 
ATOM     45  O   UNL     1      -9.458   1.780  -3.055  1.00  0.00    -0.246 OA
BRANCH  44  46
ATOM     46  C   UNL     1     -11.670   0.817  -3.118  1.00  0.00     0.060 A 
ATOM     47  C   UNL     1     -11.597   0.165  -1.874  1.00  0.00     0.016 A 
ATOM     48  C   UNL     1     -12.909   1.058  -3.696  1.00  0.00     0.016 A 
ATOM     49  C   UNL     1     -12.767  -0.075  -1.126  1.00  0.00     0.010 A 
ATOM     50  C   UNL     1     -14.025   0.966  -2.908  1.00  0.00     0.010 A 
ATOM     51  C   UNL     1     -13.983   0.400  -1.618  1.00  0.00    -0.014 A 
BRANCH  51  52
ATOM     52  C   UNL     1     -15.331   0.265  -1.046  1.00  0.00     0.031 A 
ATOM     53  C   UNL     1     -15.838   1.041   0.122  1.00  0.00     0.074 A 
ATOM     54  C   UNL     1     -16.149  -0.448  -1.857  1.00  0.00     0.049 A 
ATOM     55  N   UNL     1     -16.986   1.648   0.158  1.00  0.00    -0.248 NA
ATOM     56  C   UNL     1     -15.080   1.177   1.374  1.00  0.00     0.031 C 
ATOM     57  C   UNL     1     -17.588  -0.597  -1.846  1.00  0.00     0.029 A 
ATOM     58  N   UNL     1     -15.742  -1.356  -2.847  1.00  0.00    -0.354 N 
ATOM     59  C   UNL     1     -17.187   2.138   1.444  1.00  0.00     0.074 A 
ATOM     60  C   UNL     1     -15.932   1.877   2.142  1.00  0.00     0.031 C 
ATOM     61  C   UNL     1     -17.895  -1.749  -2.475  1.00  0.00     0.029 A 
ATOM     62  C   UNL     1     -16.632  -2.418  -2.786  1.00  0.00     0.049 A 
ATOM     63  H   UNL     1     -14.978  -1.259  -3.461  1.00  0.00     0.167 HD
ATOM     64  C   UNL     1     -18.373   1.934   2.092  1.00  0.00     0.031 A 
ATOM     65  C   UNL     1     -16.213  -3.624  -2.295  1.00  0.00     0.031 A 
ATOM     66  C   UNL     1     -19.054   0.760   1.610  1.00  0.00     0.049 A 
ATOM     67  C   UNL     1     -16.963  -3.914  -1.023  1.00  0.00     0.074 A 
ATOM     68  C   UNL     1     -19.965   0.532   0.599  1.00  0.00     0.029 A 
ATOM     69  N   UNL     1     -18.633  -0.468   2.081  1.00  0.00    -0.354 N 
ATOM     70  N   UNL     1     -17.296  -3.008  -0.143  1.00  0.00    -0.248 NA
ATOM     71  C   UNL     1     -17.497  -5.237  -0.725  1.00  0.00     0.031 C 
ATOM     72  C   UNL     1     -20.026  -0.871   0.404  1.00  0.00     0.029 A 
ATOM     73  C   UNL     1     -19.173  -1.474   1.316  1.00  0.00     0.049 A 
ATOM     74  H   UNL     1     -18.034  -0.602   2.851  1.00  0.00     0.167 HD
ATOM     75  C   UNL     1     -18.189  -3.572   0.730  1.00  0.00     0.074 A 
ATOM     76  C   UNL     1     -18.238  -4.976   0.363  1.00  0.00     0.031 C 
ATOM     77  C   UNL     1     -18.917  -2.862   1.638  1.00  0.00     0.031 A 
BRANCH  64  78
ATOM     78  C   UNL     1     -19.071   3.053   2.830  1.00  0.00    -0.014 A 
ATOM     79  C   UNL     1     -20.482   3.024   2.924  1.00  0.00     0.010 A 
ATOM     80  C   UNL     1     -18.424   4.177   3.381  1.00  0.00     0.010 A 
ATOM     81  C   UNL     1     -21.221   4.087   3.456  1.00  0.00     0.020 A 
ATOM     82  C   UNL     1     -19.159   5.247   3.936  1.00  0.00     0.020 A 
ATOM     83  C   UNL     1     -20.556   5.208   3.940  1.00  0.00     0.054 A 
BRANCH  83  84
ATOM     84  S   UNL     1     -21.551   6.612   4.523  1.00  0.00     0.124 S 
ATOM     85  O   UNL     1     -22.229   7.040   3.302  1.00  0.00    -0.237 OA
ATOM     86  O   UNL     1     -22.409   6.001   5.534  1.00  0.00    -0.237 OA
ATOM     87  O   UNL     1     -20.558   7.552   5.039  1.00  0.00    -0.744 OA
ENDBRANCH  83  84
ENDBRANCH  64  78
BRANCH  65  88
ATOM     88  C   UNL     1     -14.764  -3.929  -2.540  1.00  0.00    -0.014 A 
ATOM     89  C   UNL     1     -14.349  -4.037  -3.889  1.00  0.00     0.010 A 
ATOM     90  C   UNL     1     -13.777  -3.729  -1.557  1.00  0.00     0.010 A 
ATOM     91  C   UNL     1     -13.022  -3.804  -4.261  1.00  0.00     0.020 A 
ATOM     92  C   UNL     1     -12.434  -3.518  -1.927  1.00  0.00     0.020 A 
ATOM     93  C   UNL     1     -12.079  -3.506  -3.281  1.00  0.00     0.054 A 
BRANCH  93  94
ATOM     94  S   UNL     1     -10.445  -2.928  -3.828  1.00  0.00     0.124 S 
ATOM     95  O   UNL     1      -9.878  -4.124  -4.439  1.00  0.00    -0.237 OA
ATOM     96  O   UNL     1     -10.788  -1.847  -4.752  1.00  0.00    -0.237 OA
ATOM     97  O   UNL     1      -9.815  -2.497  -2.587  1.00  0.00    -0.744 OA
ENDBRANCH  93  94
ENDBRANCH  65  88
BRANCH  77  98
ATOM     98  C   UNL     1     -19.584  -3.461   2.846  1.00  0.00    -0.014 A 
ATOM     99  C   UNL     1     -19.221  -4.712   3.366  1.00  0.00     0.010 A 
ATOM    100  C   UNL     1     -20.506  -2.693   3.596  1.00  0.00     0.010 A 
ATOM    101  C   UNL     1     -19.830  -5.226   4.511  1.00  0.00     0.020 A 
ATOM    102  C   UNL     1     -21.078  -3.173   4.776  1.00  0.00     0.020 A 
ATOM    103  C   UNL     1     -20.765  -4.458   5.202  1.00  0.00     0.054 A 
BRANCH 103 104
ATOM    104  S   UNL     1     -21.532  -5.149   6.684  1.00  0.00     0.124 S 
ATOM    105  O   UNL     1     -22.591  -5.974   6.111  1.00  0.00    -0.237 OA
ATOM    106  O   UNL     1     -20.432  -5.884   7.305  1.00  0.00    -0.237 OA
ATOM    107  O   UNL     1     -21.980  -3.971   7.421  1.00  0.00    -0.744 OA
ENDBRANCH 103 104
ENDBRANCH  77  98
ENDBRANCH  51  52
ENDBRANCH  44  46
ENDBRANCH  43  44
ENDBRANCH  42  43
ENDBRANCH   1  42
TORSDOF 21
