REMARK SMILES O=C(OCCOC(=O)c1ccc(-c2c3nc(c(-c4ccc(S(=O)(=O)[O-])cc4)c4ccc([nH]4)c(-c4ccc(S(=O)(=O)[O-])cc4)c4nc(c(-c5ccc(S(=O)(=O)[O-])cc5)c5ccc2[nH]5)C=C4)C=C3)cc1)C1=Cc2cc(Cl)cc(-c3ccccc3)c2O[C@@H]1C(F)(F)F
REMARK SMILES IDX 5 1 4 2 3 3 2 4 1 5 69 6 70 7 85 8 71 9 84 10 72 11 83 12
REMARK SMILES IDX 73 13 76 14 74 15 75 16 86 17 87 18 88 19 89 20 77 21 78 22
REMARK SMILES IDX 82 23 79 24 81 25 80 26 6 27 7 28 8 29 9 30 10 31 68 32
REMARK SMILES IDX 11 33 67 34 12 35 13 36 14 37 61 38 15 39 66 40 60 41 62 42
REMARK SMILES IDX 16 43 65 44 59 45 58 46 17 48 47 49 28 50 46 51 29 52 32 53
REMARK SMILES IDX 45 54 63 55 30 56 31 57 44 59 64 60 33 61 18 62 19 63 27 64
REMARK SMILES IDX 20 65 26 66 21 67 22 68 23 69 24 70 25 71 48 72 49 73 57 74
REMARK SMILES IDX 50 75 56 76 51 77 52 78 53 79 54 80 55 81 34 82 35 83 43 84
REMARK SMILES IDX 36 85 42 86 37 87 38 88 39 89 40 90 41 91
REMARK H PARENT 62 47 32 58
REMARK Flexibility Score: inf
ROOT
ATOM      1  C   UNL     1       2.623   0.214  -2.459  1.00  0.00     0.275 C 
ENDROOT
BRANCH   1   2
ATOM      2  C   UNL     1       2.374  -0.744  -1.263  1.00  0.00     0.275 C 
BRANCH   2   3
ATOM      3  O   UNL     1       1.829  -0.103  -0.076  1.00  0.00    -0.459 OA
BRANCH   3   4
ATOM      4  C   UNL     1       2.391  -0.415   1.132  1.00  0.00     0.338 C 
ATOM      5  O   UNL     1       1.876  -1.181   1.931  1.00  0.00    -0.246 OA
BRANCH   4   6
ATOM      6  C   UNL     1       3.699   0.247   1.352  1.00  0.00     0.087 C 
ATOM      7  C   UNL     1       4.682  -0.361   2.041  1.00  0.00     0.027 C 
ATOM      8  C   UNL     1       4.113   1.342   0.436  1.00  0.00     0.316 C 
ATOM      9  C   UNL     1       5.897  -0.550   1.193  1.00  0.00     0.019 A 
ATOM     10  O   UNL     1       4.956   0.784  -0.603  1.00  0.00    -0.475 OA
ATOM     11  C   UNL     1       6.950  -1.354   1.626  1.00  0.00     0.032 A 
ATOM     12  C   UNL     1       5.807  -0.217  -0.182  1.00  0.00     0.135 A 
ATOM     13  C   UNL     1       7.849  -1.867   0.690  1.00  0.00     0.042 A 
ATOM     14  C   UNL     1       6.525  -0.965  -1.139  1.00  0.00     0.026 A 
ATOM     15  Cl  UNL     1       9.171  -2.838   1.209  1.00  0.00    -0.084 Cl
ATOM     16  C   UNL     1       7.613  -1.720  -0.676  1.00  0.00     0.033 A 
BRANCH   8  17
ATOM     17  C   UNL     1       4.625   2.578   1.208  1.00  0.00     0.430 C 
ATOM     18  F   UNL     1       3.574   3.243   1.757  1.00  0.00    -0.167 F 
ATOM     19  F   UNL     1       5.467   2.284   2.223  1.00  0.00    -0.167 F 
ATOM     20  F   UNL     1       5.260   3.449   0.393  1.00  0.00    -0.167 F 
ENDBRANCH   8  17
BRANCH  14  21
ATOM     21  C   UNL     1       5.991  -1.323  -2.480  1.00  0.00    -0.015 A 
ATOM     22  C   UNL     1       5.385  -2.597  -2.630  1.00  0.00     0.009 A 
ATOM     23  C   UNL     1       6.082  -0.519  -3.620  1.00  0.00     0.009 A 
ATOM     24  C   UNL     1       4.899  -3.053  -3.859  1.00  0.00     0.001 A 
ATOM     25  C   UNL     1       5.586  -0.974  -4.856  1.00  0.00     0.001 A 
ATOM     26  C   UNL     1       5.002  -2.237  -4.977  1.00  0.00     0.000 A 
ENDBRANCH  14  21
ENDBRANCH   4   6
ENDBRANCH   3   4
ENDBRANCH   2   3
ENDBRANCH   1   2
BRANCH   1  27
ATOM     27  O   UNL     1       2.507   1.600  -2.125  1.00  0.00    -0.458 OA
BRANCH  27  28
ATOM     28  C   UNL     1       1.239   2.061  -2.126  1.00  0.00     0.338 C 
ATOM     29  O   UNL     1       0.275   1.518  -2.645  1.00  0.00    -0.246 OA
BRANCH  28  30
ATOM     30  C   UNL     1       1.150   3.187  -1.171  1.00  0.00     0.060 A 
ATOM     31  C   UNL     1       0.043   3.189  -0.321  1.00  0.00     0.016 A 
ATOM     32  C   UNL     1       2.132   4.181  -1.051  1.00  0.00     0.016 A 
ATOM     33  C   UNL     1      -0.127   4.217   0.600  1.00  0.00     0.010 A 
ATOM     34  C   UNL     1       1.972   5.201  -0.102  1.00  0.00     0.010 A 
ATOM     35  C   UNL     1       0.815   5.252   0.695  1.00  0.00    -0.014 A 
BRANCH  35  36
ATOM     36  C   UNL     1       0.448   6.451   1.495  1.00  0.00     0.031 A 
ATOM     37  C   UNL     1      -0.013   7.688   0.769  1.00  0.00     0.074 A 
ATOM     38  C   UNL     1       0.372   6.393   2.840  1.00  0.00     0.049 A 
ATOM     39  N   UNL     1      -0.603   8.755   1.245  1.00  0.00    -0.248 NA
ATOM     40  C   UNL     1       0.207   7.726  -0.687  1.00  0.00     0.031 C 
ATOM     41  C   UNL     1       0.784   5.257   3.666  1.00  0.00     0.029 A 
ATOM     42  N   UNL     1      -0.113   7.305   3.746  1.00  0.00    -0.354 N 
ATOM     43  C   UNL     1      -0.856   9.567   0.145  1.00  0.00     0.074 A 
ATOM     44  C   UNL     1      -0.286   8.911  -1.009  1.00  0.00     0.031 C 
ATOM     45  C   UNL     1       0.511   5.531   4.955  1.00  0.00     0.029 A 
ATOM     46  C   UNL     1      -0.090   6.861   5.048  1.00  0.00     0.049 A 
ATOM     47  H   UNL     1      -0.446   8.195   3.488  1.00  0.00     0.167 HD
ATOM     48  C   UNL     1      -1.537  10.735   0.087  1.00  0.00     0.031 A 
ATOM     49  C   UNL     1      -0.517   7.452   6.183  1.00  0.00     0.031 A 
ATOM     50  C   UNL     1      -2.083  11.409   1.232  1.00  0.00     0.049 A 
ATOM     51  C   UNL     1      -1.203   8.796   6.100  1.00  0.00     0.074 A 
ATOM     52  C   UNL     1      -2.783  12.601   1.276  1.00  0.00     0.029 A 
ATOM     53  N   UNL     1      -1.985  10.952   2.537  1.00  0.00    -0.354 N 
ATOM     54  N   UNL     1      -1.499   9.512   5.040  1.00  0.00    -0.248 NA
ATOM     55  C   UNL     1      -1.639   9.398   7.369  1.00  0.00     0.031 C 
ATOM     56  C   UNL     1      -3.058  12.894   2.615  1.00  0.00     0.029 A 
ATOM     57  C   UNL     1      -2.589  11.851   3.397  1.00  0.00     0.049 A 
ATOM     58  H   UNL     1      -1.550  10.112   2.810  1.00  0.00     0.167 HD
ATOM     59  C   UNL     1      -2.182  10.629   5.514  1.00  0.00     0.074 A 
ATOM     60  C   UNL     1      -2.280  10.480   6.950  1.00  0.00     0.031 C 
ATOM     61  C   UNL     1      -2.682  11.687   4.826  1.00  0.00     0.031 A 
BRANCH  48  62
ATOM     62  C   UNL     1      -1.725  11.352  -1.272  1.00  0.00    -0.014 A 
ATOM     63  C   UNL     1      -2.591  10.764  -2.213  1.00  0.00     0.010 A 
ATOM     64  C   UNL     1      -1.054  12.541  -1.607  1.00  0.00     0.010 A 
ATOM     65  C   UNL     1      -2.756  11.336  -3.477  1.00  0.00     0.020 A 
ATOM     66  C   UNL     1      -1.238  13.131  -2.861  1.00  0.00     0.020 A 
ATOM     67  C   UNL     1      -2.078  12.517  -3.792  1.00  0.00     0.054 A 
BRANCH  67  68
ATOM     68  S   UNL     1      -2.336  13.251  -5.430  1.00  0.00     0.124 S 
ATOM     69  O   UNL     1      -1.645  12.301  -6.299  1.00  0.00    -0.237 OA
ATOM     70  O   UNL     1      -3.792  13.265  -5.547  1.00  0.00    -0.237 OA
ATOM     71  O   UNL     1      -1.709  14.566  -5.324  1.00  0.00    -0.744 OA
ENDBRANCH  67  68
ENDBRANCH  48  62
BRANCH  49  72
ATOM     72  C   UNL     1      -0.310   6.798   7.509  1.00  0.00    -0.014 A 
ATOM     73  C   UNL     1      -1.399   6.384   8.299  1.00  0.00     0.010 A 
ATOM     74  C   UNL     1       0.992   6.655   8.023  1.00  0.00     0.010 A 
ATOM     75  C   UNL     1      -1.192   5.889   9.592  1.00  0.00     0.020 A 
ATOM     76  C   UNL     1       1.205   6.130   9.301  1.00  0.00     0.020 A 
ATOM     77  C   UNL     1       0.109   5.772  10.087  1.00  0.00     0.054 A 
BRANCH  77  78
ATOM     78  S   UNL     1       0.356   5.136  11.770  1.00  0.00     0.124 S 
ATOM     79  O   UNL     1      -0.115   6.250  12.587  1.00  0.00    -0.237 OA
ATOM     80  O   UNL     1      -0.483   3.942  11.781  1.00  0.00    -0.237 OA
ATOM     81  O   UNL     1       1.794   4.880  11.831  1.00  0.00    -0.744 OA
ENDBRANCH  77  78
ENDBRANCH  49  72
BRANCH  61  82
ATOM     82  C   UNL     1      -3.409  12.750   5.611  1.00  0.00    -0.014 A 
ATOM     83  C   UNL     1      -2.728  13.599   6.501  1.00  0.00     0.010 A 
ATOM     84  C   UNL     1      -4.793  12.928   5.422  1.00  0.00     0.010 A 
ATOM     85  C   UNL     1      -3.424  14.571   7.225  1.00  0.00     0.020 A 
ATOM     86  C   UNL     1      -5.486  13.922   6.116  1.00  0.00     0.020 A 
ATOM     87  C   UNL     1      -4.800  14.724   7.030  1.00  0.00     0.054 A 
BRANCH  87  88
ATOM     88  S   UNL     1      -5.677  16.007   7.965  1.00  0.00     0.124 S 
ATOM     89  O   UNL     1      -5.710  15.435   9.308  1.00  0.00    -0.237 OA
ATOM     90  O   UNL     1      -4.812  17.173   7.799  1.00  0.00    -0.237 OA
ATOM     91  O   UNL     1      -6.973  16.101   7.296  1.00  0.00    -0.744 OA
ENDBRANCH  87  88
ENDBRANCH  61  82
ENDBRANCH  35  36
ENDBRANCH  28  30
ENDBRANCH  27  28
ENDBRANCH   1  27
TORSDOF 16
