REMARK SMILES C[C@@H](C(=O)OCCOC(=O)c1ccc(-c2c3nc(c(-c4ccc(S(=O)(=O)[O-])cc4)c4ccc([nH]4)c(-c4ccc(S(=O)(=O)[O-])cc4)c4nc(c(-c5ccc(S(=O)(=O)[O-])cc5)c5ccc2[nH]5)C=C4)C=C3)cc1)c1ccc(-c2ccc3[nH]ccc3c2)cc1
REMARK SMILES IDX 7 1 6 2 5 3 3 4 4 5 2 6 1 7 71 8 72 9 85 10 73 11 84 12
REMARK SMILES IDX 74 13 75 14 76 15 83 16 77 17 82 18 78 19 81 20 79 21 80 22
REMARK SMILES IDX 8 24 9 25 10 26 11 27 12 28 70 29 13 30 69 31 14 32 15 33
REMARK SMILES IDX 16 34 63 35 17 36 68 37 62 38 64 39 18 40 67 41 61 42 60 43
REMARK SMILES IDX 19 45 49 46 30 47 48 48 31 49 34 50 47 51 65 52 32 53 33 54
REMARK SMILES IDX 46 56 66 57 35 58 20 59 21 60 29 61 22 62 28 63 23 64 24 65
REMARK SMILES IDX 25 66 26 67 27 68 50 69 51 70 59 71 52 72 58 73 53 74 54 75
REMARK SMILES IDX 55 76 56 77 57 78 36 79 37 80 45 81 38 82 44 83 39 84 40 85
REMARK SMILES IDX 41 86 42 87 43 88
REMARK H PARENT 79 23 64 44 34 55
REMARK Flexibility Score: inf
ROOT
ATOM      1  C   UNL     1       2.131  -2.994  -3.248  1.00  0.00     0.275 C 
ENDROOT
BRANCH   1   2
ATOM      2  C   UNL     1       2.595  -1.541  -3.250  1.00  0.00     0.274 C 
BRANCH   2   3
ATOM      3  O   UNL     1       2.150  -0.872  -2.052  1.00  0.00    -0.462 OA
BRANCH   3   4
ATOM      4  C   UNL     1       1.124   0.016  -2.188  1.00  0.00     0.313 C 
ATOM      5  O   UNL     1       0.614   0.307  -3.264  1.00  0.00    -0.252 OA
BRANCH   4   6
ATOM      6  C   UNL     1       0.732   0.671  -0.856  1.00  0.00     0.126 C 
ATOM      7  C   UNL     1       1.427   0.052   0.361  1.00  0.00     0.025 C 
BRANCH   6   8
ATOM      8  C   UNL     1      -0.784   0.757  -0.699  1.00  0.00    -0.034 A 
ATOM      9  C   UNL     1      -1.472   1.841  -1.264  1.00  0.00     0.005 A 
ATOM     10  C   UNL     1      -1.541  -0.238  -0.066  1.00  0.00     0.005 A 
ATOM     11  C   UNL     1      -2.870   1.906  -1.234  1.00  0.00     0.009 A 
ATOM     12  C   UNL     1      -2.943  -0.166  -0.034  1.00  0.00     0.009 A 
ATOM     13  C   UNL     1      -3.639   0.888  -0.648  1.00  0.00    -0.018 A 
BRANCH  13  14
ATOM     14  C   UNL     1      -5.116   0.875  -0.767  1.00  0.00    -0.018 A 
ATOM     15  C   UNL     1      -5.730   1.191  -1.993  1.00  0.00     0.011 A 
ATOM     16  C   UNL     1      -5.944   0.491   0.306  1.00  0.00     0.019 A 
ATOM     17  C   UNL     1      -7.115   1.116  -2.187  1.00  0.00     0.027 A 
ATOM     18  C   UNL     1      -7.345   0.397   0.138  1.00  0.00    -0.000 A 
ATOM     19  C   UNL     1      -7.892   0.693  -1.109  1.00  0.00     0.045 A 
ATOM     20  C   UNL     1      -8.425   0.030   0.988  1.00  0.00     0.028 A 
ATOM     21  N   UNL     1      -9.245   0.446  -1.032  1.00  0.00    -0.361 N 
ATOM     22  C   UNL     1      -9.582   0.080   0.244  1.00  0.00     0.083 A 
ATOM     23  H   UNL     1      -9.877   0.521  -1.783  1.00  0.00     0.166 HD
ENDBRANCH  13  14
ENDBRANCH   6   8
ENDBRANCH   4   6
ENDBRANCH   3   4
ENDBRANCH   2   3
ENDBRANCH   1   2
BRANCH   1  24
ATOM     24  O   UNL     1       0.700  -3.039  -3.372  1.00  0.00    -0.458 OA
BRANCH  24  25
ATOM     25  C   UNL     1       0.026  -3.515  -2.304  1.00  0.00     0.338 C 
ATOM     26  O   UNL     1       0.500  -3.977  -1.273  1.00  0.00    -0.246 OA
BRANCH  25  27
ATOM     27  C   UNL     1      -1.421  -3.401  -2.542  1.00  0.00     0.060 A 
ATOM     28  C   UNL     1      -1.977  -2.162  -2.849  1.00  0.00     0.016 A 
ATOM     29  C   UNL     1      -2.245  -4.509  -2.336  1.00  0.00     0.016 A 
ATOM     30  C   UNL     1      -3.363  -2.011  -2.850  1.00  0.00     0.010 A 
ATOM     31  C   UNL     1      -3.635  -4.367  -2.425  1.00  0.00     0.010 A 
ATOM     32  C   UNL     1      -4.216  -3.104  -2.631  1.00  0.00    -0.014 A 
BRANCH  32  33
ATOM     33  C   UNL     1      -5.696  -2.909  -2.548  1.00  0.00     0.031 A 
ATOM     34  C   UNL     1      -6.458  -3.334  -1.313  1.00  0.00     0.074 A 
ATOM     35  C   UNL     1      -6.371  -2.313  -3.553  1.00  0.00     0.049 A 
ATOM     36  N   UNL     1      -7.752  -3.410  -1.124  1.00  0.00    -0.248 NA
ATOM     37  C   UNL     1      -5.662  -3.761  -0.150  1.00  0.00     0.031 C 
ATOM     38  C   UNL     1      -5.776  -1.787  -4.783  1.00  0.00     0.029 A 
ATOM     39  N   UNL     1      -7.705  -2.006  -3.676  1.00  0.00    -0.354 N 
ATOM     40  C   UNL     1      -7.922  -3.958   0.143  1.00  0.00     0.074 A 
ATOM     41  C   UNL     1      -6.600  -4.196   0.680  1.00  0.00     0.031 C 
ATOM     42  C   UNL     1      -6.717  -1.135  -5.482  1.00  0.00     0.029 A 
ATOM     43  C   UNL     1      -8.002  -1.280  -4.805  1.00  0.00     0.049 A 
ATOM     44  H   UNL     1      -8.384  -2.280  -3.018  1.00  0.00     0.167 HD
ATOM     45  C   UNL     1      -9.074  -4.249   0.796  1.00  0.00     0.031 A 
ATOM     46  C   UNL     1      -9.172  -0.788  -5.259  1.00  0.00     0.031 A 
ATOM     47  C   UNL     1     -10.388  -3.927   0.304  1.00  0.00     0.049 A 
ATOM     48  C   UNL     1     -10.435  -1.077  -4.502  1.00  0.00     0.074 A 
ATOM     49  C   UNL     1     -11.617  -4.200   0.880  1.00  0.00     0.029 A 
ATOM     50  N   UNL     1     -10.640  -3.218  -0.859  1.00  0.00    -0.354 N 
ATOM     51  N   UNL     1     -10.581  -1.667  -3.341  1.00  0.00    -0.248 NA
ATOM     52  C   UNL     1     -11.695  -0.654  -5.130  1.00  0.00     0.031 C 
ATOM     53  C   UNL     1     -12.615  -3.678   0.049  1.00  0.00     0.029 A 
ATOM     54  C   UNL     1     -12.005  -3.047  -1.022  1.00  0.00     0.049 A 
ATOM     55  H   UNL     1      -9.951  -2.885  -1.478  1.00  0.00     0.167 HD
ATOM     56  C   UNL     1     -11.952  -1.737  -3.125  1.00  0.00     0.074 A 
ATOM     57  C   UNL     1     -12.587  -1.051  -4.232  1.00  0.00     0.031 C 
ATOM     58  C   UNL     1     -12.623  -2.347  -2.118  1.00  0.00     0.031 A 
BRANCH  45  59
ATOM     59  C   UNL     1      -8.971  -5.005   2.094  1.00  0.00    -0.014 A 
ATOM     60  C   UNL     1      -8.569  -4.383   3.288  1.00  0.00     0.010 A 
ATOM     61  C   UNL     1      -9.332  -6.367   2.120  1.00  0.00     0.010 A 
ATOM     62  C   UNL     1      -8.497  -5.117   4.477  1.00  0.00     0.020 A 
ATOM     63  C   UNL     1      -9.284  -7.097   3.310  1.00  0.00     0.020 A 
ATOM     64  C   UNL     1      -8.849  -6.471   4.479  1.00  0.00     0.054 A 
BRANCH  64  65
ATOM     65  S   UNL     1      -8.770  -7.399   6.037  1.00  0.00     0.124 S 
ATOM     66  O   UNL     1      -7.336  -7.641   6.170  1.00  0.00    -0.237 OA
ATOM     67  O   UNL     1      -9.341  -6.462   7.001  1.00  0.00    -0.237 OA
ATOM     68  O   UNL     1      -9.580  -8.586   5.774  1.00  0.00    -0.744 OA
ENDBRANCH  64  65
ENDBRANCH  45  59
BRANCH  46  69
ATOM     69  C   UNL     1      -9.201   0.004  -6.517  1.00  0.00    -0.014 A 
ATOM     70  C   UNL     1      -9.467   1.383  -6.480  1.00  0.00     0.010 A 
ATOM     71  C   UNL     1      -8.920  -0.608  -7.753  1.00  0.00     0.010 A 
ATOM     72  C   UNL     1      -9.441   2.140  -7.656  1.00  0.00     0.020 A 
ATOM     73  C   UNL     1      -8.864   0.150  -8.925  1.00  0.00     0.020 A 
ATOM     74  C   UNL     1      -9.131   1.519  -8.869  1.00  0.00     0.054 A 
BRANCH  74  75
ATOM     75  S   UNL     1      -8.998   2.528 -10.372  1.00  0.00     0.124 S 
ATOM     76  O   UNL     1     -10.390   2.624 -10.795  1.00  0.00    -0.237 OA
ATOM     77  O   UNL     1      -8.399   3.765  -9.877  1.00  0.00    -0.237 OA
ATOM     78  O   UNL     1      -8.130   1.730 -11.236  1.00  0.00    -0.744 OA
ENDBRANCH  74  75
ENDBRANCH  46  69
BRANCH  58  79
ATOM     79  C   UNL     1     -14.124  -2.285  -2.159  1.00  0.00    -0.014 A 
ATOM     80  C   UNL     1     -14.853  -3.091  -3.052  1.00  0.00     0.010 A 
ATOM     81  C   UNL     1     -14.815  -1.443  -1.271  1.00  0.00     0.010 A 
ATOM     82  C   UNL     1     -16.248  -3.029  -3.080  1.00  0.00     0.020 A 
ATOM     83  C   UNL     1     -16.212  -1.393  -1.284  1.00  0.00     0.020 A 
ATOM     84  C   UNL     1     -16.919  -2.175  -2.200  1.00  0.00     0.054 A 
BRANCH  84  85
ATOM     85  S   UNL     1     -18.732  -2.126  -2.237  1.00  0.00     0.124 S 
ATOM     86  O   UNL     1     -18.988  -1.307  -3.418  1.00  0.00    -0.237 OA
ATOM     87  O   UNL     1     -19.092  -3.536  -2.360  1.00  0.00    -0.237 OA
ATOM     88  O   UNL     1     -19.086  -1.508  -0.961  1.00  0.00    -0.744 OA
ENDBRANCH  84  85
ENDBRANCH  58  79
ENDBRANCH  32  33
ENDBRANCH  25  27
ENDBRANCH  24  25
ENDBRANCH   1  24
TORSDOF 16
