REMARK SMILES CC(C)[NH2+][C@@]1(C(=O)OCCOC(=O)c2ccc(-c3c4nc(c(-c5ccc(S(=O)(=O)[O-])cc5)c5ccc([nH]5)c(-c5ccc(S(=O)(=O)[O-])cc5)c5nc(c(-c6ccc(S(=O)(=O)[O-])cc6)c6ccc3[nH]6)C=C5)C=C4)cc2)CCC[C@H](SC2CCCCC2)C1
REMARK SMILES IDX 10 1 9 2 8 3 6 4 7 5 5 6 74 7 85 8 75 9 77 10 76 11 4 12
REMARK SMILES IDX 2 15 1 16 3 17 78 18 79 19 80 20 84 21 81 22 83 23 82 24
REMARK SMILES IDX 11 25 12 26 13 27 14 28 15 29 73 30 16 31 72 32 17 33 18 34
REMARK SMILES IDX 19 35 66 36 20 37 71 38 65 39 67 40 21 41 70 42 64 43 63 44
REMARK SMILES IDX 22 46 52 47 33 48 51 49 34 50 37 51 50 52 68 53 35 54 36 55
REMARK SMILES IDX 49 57 69 58 38 59 23 60 24 61 32 62 25 63 31 64 26 65 27 66
REMARK SMILES IDX 28 67 29 68 30 69 53 70 54 71 62 72 55 73 61 74 56 75 57 76
REMARK SMILES IDX 58 77 59 78 60 79 39 80 40 81 48 82 41 83 47 84 42 85 43 86
REMARK SMILES IDX 44 87 45 88 46 89
REMARK H PARENT 4 13 4 14 67 45 37 56
REMARK Flexibility Score: inf
ROOT
ATOM      1  C   UNL     1      -5.770   0.161   3.191  1.00  0.00     0.275 C 
ENDROOT
BRANCH   1   2
ATOM      2  C   UNL     1      -5.021  -1.167   3.243  1.00  0.00     0.274 C 
BRANCH   2   3
ATOM      3  O   UNL     1      -3.619  -0.876   3.397  1.00  0.00    -0.457 OA
BRANCH   3   4
ATOM      4  C   UNL     1      -2.713  -1.509   2.630  1.00  0.00     0.368 C 
ATOM      5  O   UNL     1      -3.019  -2.296   1.740  1.00  0.00    -0.245 OA
BRANCH   4   6
ATOM      6  C   UNL     1      -1.222  -1.125   3.006  1.00  0.00     0.195 C 
ATOM      7  C   UNL     1      -0.582  -2.472   3.411  1.00  0.00     0.081 C 
ATOM      8  C   UNL     1      -1.076  -0.053   4.136  1.00  0.00     0.095 C 
ATOM      9  C   UNL     1      -1.019  -2.905   4.813  1.00  0.00     0.008 C 
ATOM     10  C   UNL     1      -1.248  -0.500   5.616  1.00  0.00     0.053 C 
ATOM     11  C   UNL     1      -0.575  -1.856   5.824  1.00  0.00     0.015 C 
BRANCH   6  12
ATOM     12  N   UNL     1      -0.676  -0.542   1.745  1.00  0.00    -0.330 N 
ATOM     13  H   UNL     1      -1.168  -1.008   0.983  1.00  0.00     0.347 HD
ATOM     14  H   UNL     1      -0.815   0.456   1.902  1.00  0.00     0.347 HD
BRANCH  12  15
ATOM     15  C   UNL     1       0.742  -0.593   1.402  1.00  0.00     0.176 C 
ATOM     16  C   UNL     1       0.828  -0.444  -0.124  1.00  0.00     0.075 C 
ATOM     17  C   UNL     1       1.556   0.530   2.046  1.00  0.00     0.075 C 
ENDBRANCH  12  15
ENDBRANCH   6  12
BRANCH  10  18
ATOM     18  S   UNL     1      -3.018  -0.311   6.087  1.00  0.00    -0.155 SA
BRANCH  18  19
ATOM     19  C   UNL     1      -3.202  -0.797   7.823  1.00  0.00     0.047 C 
ATOM     20  C   UNL     1      -3.258  -2.316   8.003  1.00  0.00     0.014 C 
ATOM     21  C   UNL     1      -2.255  -0.085   8.783  1.00  0.00     0.014 C 
ATOM     22  C   UNL     1      -3.513  -2.695   9.458  1.00  0.00     0.001 C 
ATOM     23  C   UNL     1      -2.586  -0.474  10.224  1.00  0.00     0.001 C 
ATOM     24  C   UNL     1      -2.547  -1.989  10.406  1.00  0.00     0.000 C 
ENDBRANCH  18  19
ENDBRANCH  10  18
ENDBRANCH   4   6
ENDBRANCH   3   4
ENDBRANCH   2   3
ENDBRANCH   1   2
BRANCH   1  25
ATOM     25  O   UNL     1      -5.472   0.798   1.938  1.00  0.00    -0.458 OA
BRANCH  25  26
ATOM     26  C   UNL     1      -4.450   1.676   1.965  1.00  0.00     0.338 C 
ATOM     27  O   UNL     1      -3.876   2.153   2.937  1.00  0.00    -0.246 OA
BRANCH  26  28
ATOM     28  C   UNL     1      -4.021   1.912   0.590  1.00  0.00     0.060 A 
ATOM     29  C   UNL     1      -3.138   1.006   0.003  1.00  0.00     0.016 A 
ATOM     30  C   UNL     1      -4.436   3.052  -0.090  1.00  0.00     0.016 A 
ATOM     31  C   UNL     1      -2.597   1.276  -1.245  1.00  0.00     0.010 A 
ATOM     32  C   UNL     1      -3.964   3.273  -1.383  1.00  0.00     0.010 A 
ATOM     33  C   UNL     1      -3.024   2.399  -1.962  1.00  0.00    -0.014 A 
BRANCH  33  34
ATOM     34  C   UNL     1      -2.501   2.664  -3.323  1.00  0.00     0.031 A 
ATOM     35  C   UNL     1      -1.754   3.937  -3.597  1.00  0.00     0.074 A 
ATOM     36  C   UNL     1      -2.732   1.780  -4.312  1.00  0.00     0.049 A 
ATOM     37  N   UNL     1      -1.424   4.469  -4.744  1.00  0.00    -0.248 NA
ATOM     38  C   UNL     1      -1.340   4.726  -2.424  1.00  0.00     0.031 C 
ATOM     39  C   UNL     1      -3.402   0.485  -4.155  1.00  0.00     0.029 A 
ATOM     40  N   UNL     1      -2.441   1.841  -5.651  1.00  0.00    -0.354 N 
ATOM     41  C   UNL     1      -0.824   5.684  -4.436  1.00  0.00     0.074 A 
ATOM     42  C   UNL     1      -0.825   5.806  -2.995  1.00  0.00     0.031 C 
ATOM     43  C   UNL     1      -3.461  -0.128  -5.346  1.00  0.00     0.029 A 
ATOM     44  C   UNL     1      -2.917   0.764  -6.362  1.00  0.00     0.049 A 
ATOM     45  H   UNL     1      -1.941   2.582  -6.063  1.00  0.00     0.167 HD
ATOM     46  C   UNL     1      -0.335   6.617  -5.287  1.00  0.00     0.031 A 
ATOM     47  C   UNL     1      -2.967   0.543  -7.689  1.00  0.00     0.031 A 
ATOM     48  C   UNL     1      -0.321   6.462  -6.718  1.00  0.00     0.049 A 
ATOM     49  C   UNL     1      -2.439   1.598  -8.615  1.00  0.00     0.074 A 
ATOM     50  C   UNL     1       0.164   7.335  -7.675  1.00  0.00     0.029 A 
ATOM     51  N   UNL     1      -0.809   5.353  -7.394  1.00  0.00    -0.354 N 
ATOM     52  N   UNL     1      -1.909   2.760  -8.316  1.00  0.00    -0.248 NA
ATOM     53  C   UNL     1      -2.527   1.323 -10.055  1.00  0.00     0.031 C 
ATOM     54  C   UNL     1      -0.066   6.769  -8.934  1.00  0.00     0.029 A 
ATOM     55  C   UNL     1      -0.652   5.524  -8.758  1.00  0.00     0.049 A 
ATOM     56  H   UNL     1      -1.207   4.561  -6.967  1.00  0.00     0.167 HD
ATOM     57  C   UNL     1      -1.595   3.356  -9.530  1.00  0.00     0.074 A 
ATOM     58  C   UNL     1      -1.978   2.417 -10.567  1.00  0.00     0.031 C 
ATOM     59  C   UNL     1      -1.044   4.571  -9.767  1.00  0.00     0.031 A 
BRANCH  46  60
ATOM     60  C   UNL     1       0.160   7.908  -4.692  1.00  0.00    -0.014 A 
ATOM     61  C   UNL     1       1.370   7.977  -3.980  1.00  0.00     0.010 A 
ATOM     62  C   UNL     1      -0.606   9.077  -4.855  1.00  0.00     0.010 A 
ATOM     63  C   UNL     1       1.781   9.182  -3.400  1.00  0.00     0.020 A 
ATOM     64  C   UNL     1      -0.188  10.289  -4.297  1.00  0.00     0.020 A 
ATOM     65  C   UNL     1       0.993  10.328  -3.554  1.00  0.00     0.054 A 
BRANCH  65  66
ATOM     66  S   UNL     1       1.541  11.879  -2.788  1.00  0.00     0.124 S 
ATOM     67  O   UNL     1       1.202  11.657  -1.385  1.00  0.00    -0.237 OA
ATOM     68  O   UNL     1       2.970  11.903  -3.091  1.00  0.00    -0.237 OA
ATOM     69  O   UNL     1       0.748  12.900  -3.467  1.00  0.00    -0.744 OA
ENDBRANCH  65  66
ENDBRANCH  46  60
BRANCH  47  70
ATOM     70  C   UNL     1      -3.599  -0.704  -8.197  1.00  0.00    -0.014 A 
ATOM     71  C   UNL     1      -2.816  -1.739  -8.733  1.00  0.00     0.010 A 
ATOM     72  C   UNL     1      -4.990  -0.889  -8.077  1.00  0.00     0.010 A 
ATOM     73  C   UNL     1      -3.412  -2.940  -9.134  1.00  0.00     0.020 A 
ATOM     74  C   UNL     1      -5.585  -2.096  -8.453  1.00  0.00     0.020 A 
ATOM     75  C   UNL     1      -4.792  -3.113  -8.985  1.00  0.00     0.054 A 
BRANCH  75  76
ATOM     76  S   UNL     1      -5.532  -4.711  -9.424  1.00  0.00     0.124 S 
ATOM     77  O   UNL     1      -5.594  -4.626 -10.880  1.00  0.00    -0.237 OA
ATOM     78  O   UNL     1      -4.568  -5.669  -8.887  1.00  0.00    -0.237 OA
ATOM     79  O   UNL     1      -6.822  -4.689  -8.739  1.00  0.00    -0.744 OA
ENDBRANCH  75  76
ENDBRANCH  47  70
BRANCH  59  80
ATOM     80  C   UNL     1      -0.798   4.946 -11.200  1.00  0.00    -0.014 A 
ATOM     81  C   UNL     1      -1.852   5.379 -12.023  1.00  0.00     0.010 A 
ATOM     82  C   UNL     1       0.515   4.937 -11.703  1.00  0.00     0.010 A 
ATOM     83  C   UNL     1      -1.596   5.788 -13.334  1.00  0.00     0.020 A 
ATOM     84  C   UNL     1       0.776   5.363 -13.006  1.00  0.00     0.020 A 
ATOM     85  C   UNL     1      -0.283   5.779 -13.816  1.00  0.00     0.054 A 
BRANCH  85  86
ATOM     86  S   UNL     1       0.035   6.381 -15.497  1.00  0.00     0.124 S 
ATOM     87  O   UNL     1      -0.413   5.256 -16.312  1.00  0.00    -0.237 OA
ATOM     88  O   UNL     1      -0.794   7.582 -15.572  1.00  0.00    -0.237 OA
ATOM     89  O   UNL     1       1.476   6.626 -15.509  1.00  0.00    -0.744 OA
ENDBRANCH  85  86
ENDBRANCH  59  80
ENDBRANCH  33  34
ENDBRANCH  26  28
ENDBRANCH  25  26
ENDBRANCH   1  25
TORSDOF 18
