REMARK SMILES O=C(OCCOC(=O)[C@@]1(CCc2ccccc2)CCC[N@H+](Cc2cccnc2)C1)c1ccc(-c2c3nc(c(-c4ccc(S(=O)(=O)[O-])cc4)c4ccc([nH]4)c(-c4ccc(S(=O)(=O)[O-])cc4)c4nc(c(-c5ccc(S(=O)(=O)[O-])cc5)c5ccc2[nH]5)C=C4)C=C3)cc1
REMARK SMILES IDX 4 1 3 2 2 3 1 4 30 5 31 6 89 7 32 8 88 9 33 10 34 11 35 12
REMARK SMILES IDX 82 13 36 14 87 15 81 16 83 17 37 18 86 19 80 20 79 21 38 23
REMARK SMILES IDX 68 24 49 25 67 26 50 27 53 28 66 29 84 30 51 31 52 32 65 34
REMARK SMILES IDX 85 35 54 36 39 37 40 38 48 39 41 40 47 41 42 42 43 43 44 44
REMARK SMILES IDX 45 45 46 46 69 47 70 48 78 49 71 50 77 51 72 52 73 53 74 54
REMARK SMILES IDX 75 55 76 56 55 57 56 58 64 59 57 60 63 61 58 62 59 63 60 64
REMARK SMILES IDX 61 65 62 66 5 67 6 68 7 69 8 70 9 71 18 72 29 73 19 74 21 75
REMARK SMILES IDX 20 76 10 78 11 79 12 80 13 81 17 82 14 83 16 84 15 85 22 86
REMARK SMILES IDX 23 87 24 88 28 89 25 90 27 91 26 92
REMARK H PARENT 83 22 53 33 21 77
REMARK Flexibility Score: inf
ROOT
ATOM      1  C   UNL     1       4.324  -2.706  -0.980  1.00  0.00     0.275 C 
ENDROOT
BRANCH   1   2
ATOM      2  O   UNL     1       3.313  -2.043   0.428  1.00  0.00    -0.458 OA
BRANCH   2   3
ATOM      3  C   UNL     1       2.196  -0.470   0.476  1.00  0.00     0.338 C 
ATOM      4  O   UNL     1       1.001  -0.365   0.847  1.00  0.00    -0.246 OA
BRANCH   3   5
ATOM      5  C   UNL     1       2.784   1.034   0.161  1.00  0.00     0.060 A 
ATOM      6  C   UNL     1       4.486   1.444  -0.634  1.00  0.00     0.016 A 
ATOM      7  C   UNL     1       2.249   2.086   1.513  1.00  0.00     0.016 A 
ATOM      8  C   UNL     1       5.471   2.753  -0.072  1.00  0.00     0.010 A 
ATOM      9  C   UNL     1       3.303   3.461   1.948  1.00  0.00     0.010 A 
ATOM     10  C   UNL     1       4.853   3.783   1.153  1.00  0.00    -0.014 A 
BRANCH  10  11
ATOM     11  C   UNL     1       5.466   5.169   1.053  1.00  0.00     0.031 A 
ATOM     12  C   UNL     1       6.012   5.782   2.287  1.00  0.00     0.074 A 
ATOM     13  C   UNL     1       5.636   5.829  -0.134  1.00  0.00     0.049 A 
ATOM     14  N   UNL     1       6.720   6.872   2.393  1.00  0.00    -0.248 NA
ATOM     15  C   UNL     1       5.811   5.043   3.538  1.00  0.00     0.031 C 
ATOM     16  C   UNL     1       5.338   5.314  -1.470  1.00  0.00     0.029 A 
ATOM     17  N   UNL     1       6.129   7.083  -0.449  1.00  0.00    -0.354 N 
ATOM     18  C   UNL     1       7.117   6.914   3.715  1.00  0.00     0.074 A 
ATOM     19  C   UNL     1       6.496   5.791   4.388  1.00  0.00     0.031 C 
ATOM     20  C   UNL     1       5.563   6.215  -2.426  1.00  0.00     0.029 A 
ATOM     21  C   UNL     1       6.066   7.404  -1.799  1.00  0.00     0.049 A 
ATOM     22  H   UNL     1       6.493   7.698   0.228  1.00  0.00     0.167 HD
ATOM     23  C   UNL     1       7.965   7.788   4.299  1.00  0.00     0.031 A 
ATOM     24  C   UNL     1       6.403   8.495  -2.513  1.00  0.00     0.031 A 
ATOM     25  C   UNL     1       8.512   8.942   3.644  1.00  0.00     0.049 A 
ATOM     26  C   UNL     1       7.139   9.562  -1.783  1.00  0.00     0.074 A 
ATOM     27  C   UNL     1       9.305   9.936   4.184  1.00  0.00     0.029 A 
ATOM     28  N   UNL     1       8.296   9.277   2.313  1.00  0.00    -0.354 N 
ATOM     29  N   UNL     1       7.522   9.557  -0.530  1.00  0.00    -0.248 NA
ATOM     30  C   UNL     1       7.544  10.742  -2.550  1.00  0.00     0.031 C 
ATOM     31  C   UNL     1       9.509  10.909   3.200  1.00  0.00     0.029 A 
ATOM     32  C   UNL     1       8.903  10.488   2.026  1.00  0.00     0.049 A 
ATOM     33  H   UNL     1       7.787   8.733   1.669  1.00  0.00     0.167 HD
ATOM     34  C   UNL     1       8.260  10.713  -0.366  1.00  0.00     0.074 A 
ATOM     35  C   UNL     1       8.268  11.392  -1.649  1.00  0.00     0.031 C 
ATOM     36  C   UNL     1       8.887  11.155   0.747  1.00  0.00     0.031 A 
BRANCH  23  37
ATOM     37  C   UNL     1       8.262   7.521   5.742  1.00  0.00    -0.014 A 
ATOM     38  C   UNL     1       9.061   6.426   6.122  1.00  0.00     0.010 A 
ATOM     39  C   UNL     1       7.636   8.300   6.727  1.00  0.00     0.010 A 
ATOM     40  C   UNL     1       9.169   6.072   7.467  1.00  0.00     0.020 A 
ATOM     41  C   UNL     1       7.765   7.965   8.074  1.00  0.00     0.020 A 
ATOM     42  C   UNL     1       8.507   6.836   8.432  1.00  0.00     0.054 A 
BRANCH  42  43
ATOM     43  S   UNL     1       8.614   6.324  10.167  1.00  0.00     0.124 S 
ATOM     44  O   UNL     1       7.759   5.140  10.182  1.00  0.00    -0.237 OA
ATOM     45  O   UNL     1      10.042   6.071  10.337  1.00  0.00    -0.237 OA
ATOM     46  O   UNL     1       8.096   7.477  10.900  1.00  0.00    -0.744 OA
ENDBRANCH  42  43
ENDBRANCH  23  37
BRANCH  24  47
ATOM     47  C   UNL     1       6.098   8.608  -3.978  1.00  0.00    -0.014 A 
ATOM     48  C   UNL     1       7.115   8.608  -4.950  1.00  0.00     0.010 A 
ATOM     49  C   UNL     1       4.762   8.745  -4.409  1.00  0.00     0.010 A 
ATOM     50  C   UNL     1       6.811   8.786  -6.308  1.00  0.00     0.020 A 
ATOM     51  C   UNL     1       4.451   8.903  -5.767  1.00  0.00     0.020 A 
ATOM     52  C   UNL     1       5.480   8.939  -6.708  1.00  0.00     0.054 A 
BRANCH  52  53
ATOM     53  S   UNL     1       5.114   9.173  -8.474  1.00  0.00     0.124 S 
ATOM     54  O   UNL     1       5.670  10.497  -8.730  1.00  0.00    -0.237 OA
ATOM     55  O   UNL     1       5.826   8.057  -9.091  1.00  0.00    -0.237 OA
ATOM     56  O   UNL     1       3.656   9.084  -8.537  1.00  0.00    -0.744 OA
ENDBRANCH  52  53
ENDBRANCH  24  47
BRANCH  36  57
ATOM     57  C   UNL     1       9.652  12.437   0.619  1.00  0.00    -0.014 A 
ATOM     58  C   UNL     1       8.987  13.668   0.493  1.00  0.00     0.010 A 
ATOM     59  C   UNL     1      11.056  12.406   0.691  1.00  0.00     0.010 A 
ATOM     60  C   UNL     1       9.719  14.853   0.430  1.00  0.00     0.020 A 
ATOM     61  C   UNL     1      11.788  13.592   0.661  1.00  0.00     0.020 A 
ATOM     62  C   UNL     1      11.114  14.807   0.524  1.00  0.00     0.054 A 
BRANCH  62  63
ATOM     63  S   UNL     1      12.034  16.367   0.531  1.00  0.00     0.124 S 
ATOM     64  O   UNL     1      11.950  16.774  -0.869  1.00  0.00    -0.237 OA
ATOM     65  O   UNL     1      11.272  17.183   1.472  1.00  0.00    -0.237 OA
ATOM     66  O   UNL     1      13.367  15.979   0.989  1.00  0.00    -0.744 OA
ENDBRANCH  62  63
ENDBRANCH  36  57
ENDBRANCH  10  11
ENDBRANCH   3   5
ENDBRANCH   2   3
ENDBRANCH   1   2
BRANCH   1  67
ATOM     67  C   UNL     1       4.338  -1.716  -2.627  1.00  0.00     0.274 C 
BRANCH  67  68
ATOM     68  O   UNL     1       3.794  -0.035  -2.782  1.00  0.00    -0.461 OA
BRANCH  68  69
ATOM     69  C   UNL     1       2.565   0.737  -2.567  1.00  0.00     0.317 C 
ATOM     70  O   UNL     1       1.475   0.273  -2.903  1.00  0.00    -0.251 OA
BRANCH  69  71
ATOM     71  C   UNL     1       2.666   2.412  -1.906  1.00  0.00     0.117 C 
ATOM     72  C   UNL     1       3.308   3.110  -3.157  1.00  0.00     0.030 C 
ATOM     73  C   UNL     1       1.244   3.187  -1.763  1.00  0.00     0.281 C 
ATOM     74  C   UNL     1       2.721   4.413  -3.736  1.00  0.00     0.063 C 
ATOM     75  N   UNL     1       1.332   4.678  -1.683  1.00  0.00    -0.330 N 
ATOM     76  C   UNL     1       1.879   5.317  -2.857  1.00  0.00     0.262 C 
ATOM     77  H   UNL     1       0.320   4.645  -1.561  1.00  0.00     0.348 HD
BRANCH  71  78
ATOM     78  C   UNL     1       3.311   2.870  -0.163  1.00  0.00     0.029 C 
BRANCH  78  79
ATOM     79  C   UNL     1       4.271   1.557   1.325  1.00  0.00     0.037 C 
BRANCH  79  80
ATOM     80  C   UNL     1       4.216  -0.356   1.192  1.00  0.00    -0.048 A 
ATOM     81  C   UNL     1       3.142  -1.228   2.308  1.00  0.00     0.004 A 
ATOM     82  C   UNL     1       3.910  -0.679  -0.569  1.00  0.00     0.004 A 
ATOM     83  C   UNL     1       1.848  -2.333   1.744  1.00  0.00     0.000 A 
ATOM     84  C   UNL     1       2.393  -1.638  -1.175  1.00  0.00     0.000 A 
ATOM     85  C   UNL     1       1.446  -2.530   0.024  1.00  0.00     0.000 A 
ENDBRANCH  79  80
ENDBRANCH  78  79
ENDBRANCH  71  78
BRANCH  75  86
ATOM     86  C   UNL     1       1.480   5.518  -0.478  1.00  0.00     0.300 C 
BRANCH  86  87
ATOM     87  C   UNL     1       0.187   6.004   0.110  1.00  0.00     0.025 A 
ATOM     88  C   UNL     1      -0.575   5.196   0.952  1.00  0.00     0.013 A 
ATOM     89  C   UNL     1      -0.270   7.298  -0.128  1.00  0.00     0.120 A 
ATOM     90  C   UNL     1      -1.777   5.675   1.460  1.00  0.00     0.021 A 
ATOM     91  N   UNL     1      -1.433   7.794   0.355  1.00  0.00    -0.264 NA
ATOM     92  C   UNL     1      -2.167   6.961   1.121  1.00  0.00     0.111 A 
ENDBRANCH  86  87
ENDBRANCH  75  86
ENDBRANCH  69  71
ENDBRANCH  68  69
ENDBRANCH  67  68
ENDBRANCH   1  67
TORSDOF 19
