REMARK SMILES O=C(OCCOC(=O)[C@H]1CCCN(C(=O)CCOc2ccc(F)cc2)C1)c1ccc(-c2c3nc(c(-c4ccc(S(=O)(=O)[O-])cc4)c4ccc([nH]4)c(-c4ccc(S(=O)(=O)[O-])cc4)c4nc(c(-c5ccc(S(=O)(=O)[O-])cc5)c5ccc2[nH]5)C=C4)C=C3)cc1
REMARK SMILES IDX 5 1 4 2 3 3 2 4 1 5 27 6 28 7 86 8 29 9 85 10 30 11 31 12
REMARK SMILES IDX 32 13 79 14 33 15 84 16 78 17 80 18 34 19 83 20 77 21 76 22
REMARK SMILES IDX 35 24 65 25 46 26 64 27 47 28 50 29 63 30 81 31 48 32 49 33
REMARK SMILES IDX 62 35 82 36 51 37 36 38 37 39 45 40 38 41 44 42 39 43 40 44
REMARK SMILES IDX 41 45 42 46 43 47 66 48 67 49 75 50 68 51 74 52 69 53 70 54
REMARK SMILES IDX 71 55 72 56 73 57 52 58 53 59 61 60 54 61 60 62 55 63 56 64
REMARK SMILES IDX 57 65 58 66 59 67 6 68 7 69 8 70 9 71 10 72 26 73 11 74
REMARK SMILES IDX 13 75 12 76 14 77 15 78 16 79 17 80 18 81 19 82 20 83 25 84
REMARK SMILES IDX 21 85 24 86 22 87 23 88
REMARK H PARENT 80 23 50 34
REMARK Flexibility Score: inf
ROOT
ATOM      1  C   UNL     1       2.667   1.204   5.074  1.00  0.00     0.274 C 
ENDROOT
BRANCH   1   2
ATOM      2  C   UNL     1       2.014   0.797   6.407  1.00  0.00     0.275 C 
BRANCH   2   3
ATOM      3  O   UNL     1       1.882  -0.608   6.668  1.00  0.00    -0.458 OA
BRANCH   3   4
ATOM      4  C   UNL     1       0.901  -1.449   6.264  1.00  0.00     0.338 C 
ATOM      5  O   UNL     1       0.855  -2.592   6.715  1.00  0.00    -0.246 OA
BRANCH   4   6
ATOM      6  C   UNL     1      -0.014  -1.094   5.144  1.00  0.00     0.060 A 
ATOM      7  C   UNL     1      -0.579   0.161   4.910  1.00  0.00     0.016 A 
ATOM      8  C   UNL     1      -0.292  -2.123   4.241  1.00  0.00     0.016 A 
ATOM      9  C   UNL     1      -1.246   0.436   3.710  1.00  0.00     0.010 A 
ATOM     10  C   UNL     1      -0.923  -1.842   3.031  1.00  0.00     0.010 A 
ATOM     11  C   UNL     1      -1.376  -0.548   2.729  1.00  0.00    -0.014 A 
BRANCH  11  12
ATOM     12  C   UNL     1      -2.031  -0.264   1.424  1.00  0.00     0.031 A 
ATOM     13  C   UNL     1      -3.240  -1.077   1.043  1.00  0.00     0.074 A 
ATOM     14  C   UNL     1      -1.539   0.661   0.567  1.00  0.00     0.049 A 
ATOM     15  N   UNL     1      -3.974  -1.010  -0.037  1.00  0.00    -0.248 NA
ATOM     16  C   UNL     1      -3.686  -2.109   2.000  1.00  0.00     0.031 C 
ATOM     17  C   UNL     1      -0.334   1.474   0.769  1.00  0.00     0.029 A 
ATOM     18  N   UNL     1      -1.962   1.032  -0.689  1.00  0.00    -0.354 N 
ATOM     19  C   UNL     1      -4.989  -1.935   0.156  1.00  0.00     0.074 A 
ATOM     20  C   UNL     1      -4.673  -2.689   1.343  1.00  0.00     0.031 C 
ATOM     21  C   UNL     1      -0.060   2.160  -0.357  1.00  0.00     0.029 A 
ATOM     22  C   UNL     1      -1.093   1.880  -1.344  1.00  0.00     0.049 A 
ATOM     23  H   UNL     1      -2.809   0.721  -1.084  1.00  0.00     0.167 HD
ATOM     24  C   UNL     1      -6.161  -2.049  -0.505  1.00  0.00     0.031 A 
ATOM     25  C   UNL     1      -1.132   2.371  -2.600  1.00  0.00     0.031 A 
ATOM     26  C   UNL     1      -6.484  -1.290  -1.674  1.00  0.00     0.049 A 
ATOM     27  C   UNL     1      -2.372   2.114  -3.420  1.00  0.00     0.074 A 
ATOM     28  C   UNL     1      -7.660  -1.272  -2.397  1.00  0.00     0.029 A 
ATOM     29  N   UNL     1      -5.608  -0.411  -2.293  1.00  0.00    -0.354 N 
ATOM     30  N   UNL     1      -3.413   1.369  -3.131  1.00  0.00    -0.248 NA
ATOM     31  C   UNL     1      -2.484   2.833  -4.697  1.00  0.00     0.031 C 
ATOM     32  C   UNL     1      -7.478  -0.414  -3.487  1.00  0.00     0.029 A 
ATOM     33  C   UNL     1      -6.209   0.141  -3.407  1.00  0.00     0.049 A 
ATOM     34  H   UNL     1      -4.695  -0.211  -1.985  1.00  0.00     0.167 HD
ATOM     35  C   UNL     1      -4.335   1.595  -4.146  1.00  0.00     0.074 A 
ATOM     36  C   UNL     1      -3.722   2.534  -5.064  1.00  0.00     0.031 C 
ATOM     37  C   UNL     1      -5.587   1.093  -4.291  1.00  0.00     0.031 A 
BRANCH  24  38
ATOM     38  C   UNL     1      -7.188  -2.951   0.118  1.00  0.00    -0.014 A 
ATOM     39  C   UNL     1      -7.762  -2.599   1.357  1.00  0.00     0.010 A 
ATOM     40  C   UNL     1      -7.554  -4.161  -0.490  1.00  0.00     0.010 A 
ATOM     41  C   UNL     1      -8.638  -3.466   2.007  1.00  0.00     0.020 A 
ATOM     42  C   UNL     1      -8.459  -5.019   0.144  1.00  0.00     0.020 A 
ATOM     43  C   UNL     1      -8.979  -4.674   1.396  1.00  0.00     0.054 A 
BRANCH  43  44
ATOM     44  S   UNL     1     -10.129  -5.777   2.260  1.00  0.00     0.124 S 
ATOM     45  O   UNL     1      -9.307  -6.266   3.364  1.00  0.00    -0.237 OA
ATOM     46  O   UNL     1     -11.213  -4.873   2.637  1.00  0.00    -0.237 OA
ATOM     47  O   UNL     1     -10.475  -6.775   1.251  1.00  0.00    -0.744 OA
ENDBRANCH  43  44
ENDBRANCH  24  38
BRANCH  25  48
ATOM     48  C   UNL     1      -0.026   3.211  -3.150  1.00  0.00    -0.014 A 
ATOM     49  C   UNL     1      -0.192   4.597  -3.332  1.00  0.00     0.010 A 
ATOM     50  C   UNL     1       1.177   2.615  -3.572  1.00  0.00     0.010 A 
ATOM     51  C   UNL     1       0.792   5.357  -3.976  1.00  0.00     0.020 A 
ATOM     52  C   UNL     1       2.175   3.376  -4.198  1.00  0.00     0.020 A 
ATOM     53  C   UNL     1       1.966   4.740  -4.415  1.00  0.00     0.054 A 
BRANCH  53  54
ATOM     54  S   UNL     1       3.216   5.747  -5.268  1.00  0.00     0.124 S 
ATOM     55  O   UNL     1       2.549   6.060  -6.528  1.00  0.00    -0.237 OA
ATOM     56  O   UNL     1       3.393   6.871  -4.351  1.00  0.00    -0.237 OA
ATOM     57  O   UNL     1       4.366   4.852  -5.376  1.00  0.00    -0.744 OA
ENDBRANCH  53  54
ENDBRANCH  25  48
BRANCH  37  58
ATOM     58  C   UNL     1      -6.409   1.607  -5.439  1.00  0.00    -0.014 A 
ATOM     59  C   UNL     1      -6.114   1.259  -6.767  1.00  0.00     0.010 A 
ATOM     60  C   UNL     1      -7.538   2.402  -5.166  1.00  0.00     0.010 A 
ATOM     61  C   UNL     1      -6.917   1.727  -7.808  1.00  0.00     0.020 A 
ATOM     62  C   UNL     1      -8.364   2.839  -6.201  1.00  0.00     0.020 A 
ATOM     63  C   UNL     1      -8.038   2.511  -7.518  1.00  0.00     0.054 A 
BRANCH  63  64
ATOM     64  S   UNL     1      -9.094   3.061  -8.884  1.00  0.00     0.124 S 
ATOM     65  O   UNL     1      -8.278   4.105  -9.497  1.00  0.00    -0.237 OA
ATOM     66  O   UNL     1      -9.255   1.842  -9.675  1.00  0.00    -0.237 OA
ATOM     67  O   UNL     1     -10.308   3.528  -8.218  1.00  0.00    -0.744 OA
ENDBRANCH  63  64
ENDBRANCH  37  58
ENDBRANCH  11  12
ENDBRANCH   4   6
ENDBRANCH   3   4
ENDBRANCH   2   3
ENDBRANCH   1   2
BRANCH   1  68
ATOM     68  O   UNL     1       2.636   0.201   4.042  1.00  0.00    -0.462 OA
BRANCH  68  69
ATOM     69  C   UNL     1       3.646   0.308   3.109  1.00  0.00     0.310 C 
ATOM     70  O   UNL     1       4.420   1.261   3.068  1.00  0.00    -0.252 OA
BRANCH  69  71
ATOM     71  C   UNL     1       3.774  -1.021   2.054  1.00  0.00     0.119 C 
ATOM     72  C   UNL     1       4.638  -3.057   2.267  1.00  0.00     0.019 C 
ATOM     73  C   UNL     1       1.917  -0.997   1.499  1.00  0.00     0.134 C 
ATOM     74  C   UNL     1       3.297  -4.486   1.990  1.00  0.00     0.022 C 
ATOM     75  N   UNL     1       1.260  -2.385   0.784  1.00  0.00    -0.342 N 
ATOM     76  C   UNL     1       1.555  -3.978   1.431  1.00  0.00     0.119 C 
BRANCH  75  77
ATOM     77  C   UNL     1       1.168  -2.143  -0.626  1.00  0.00     0.226 C 
ATOM     78  O   UNL     1       0.470  -1.229  -1.064  1.00  0.00    -0.275 OA
BRANCH  77  79
ATOM     79  C   UNL     1       2.218  -2.790  -1.587  1.00  0.00     0.141 C 
BRANCH  79  80
ATOM     80  C   UNL     1       3.548  -1.934  -1.771  1.00  0.00     0.239 C 
BRANCH  80  81
ATOM     81  O   UNL     1       4.820  -2.153  -1.028  1.00  0.00    -0.493 OA
BRANCH  81  82
ATOM     82  C   UNL     1       4.760  -1.990   0.323  1.00  0.00     0.119 A 
ATOM     83  C   UNL     1       3.376  -2.570   1.004  1.00  0.00     0.049 A 
ATOM     84  C   UNL     1       5.927  -1.397   1.418  1.00  0.00     0.049 A 
ATOM     85  C   UNL     1       2.935  -2.512   2.897  1.00  0.00     0.043 A 
ATOM     86  C   UNL     1       5.683  -1.355   3.159  1.00  0.00     0.043 A 
ATOM     87  C   UNL     1       4.212  -1.900   3.945  1.00  0.00     0.123 A 
ATOM     88  F   UNL     1       4.096  -1.909   5.274  1.00  0.00    -0.207 F 
ENDBRANCH  81  82
ENDBRANCH  80  81
ENDBRANCH  79  80
ENDBRANCH  77  79
ENDBRANCH  75  77
ENDBRANCH  69  71
ENDBRANCH  68  69
ENDBRANCH   1  68
TORSDOF 19
