REMARK SMILES COc1ccc(C(=O)N(C)C)cc1NC(=O)[C@H]1[C@@H](C(=O)OCCOC(=O)c2ccc(-c3c4nc(c(-c5ccc(S(=O)(=O)[O-])cc5)c5ccc([nH]5)c(-c5ccc(S(=O)(=O)[O-])cc5)c5nc(c(-c6ccc(S(=O)(=O)[O-])cc6)c6ccc3[nH]6)C=C5)C=C4)cc2)[C@H]2C=C[C@@H]1C2
REMARK SMILES IDX 22 1 21 2 19 3 20 4 18 5 17 6 90 7 87 8 89 9 91 10 88 11
REMARK SMILES IDX 15 12 14 13 16 15 13 16 3 17 4 18 5 19 12 20 6 21 2 22 1 23
REMARK SMILES IDX 7 24 8 25 9 26 10 27 11 28 23 29 24 30 25 31 26 32 27 33
REMARK SMILES IDX 28 34 86 35 29 36 85 37 30 38 31 39 32 40 79 41 33 42 84 43
REMARK SMILES IDX 78 44 80 45 34 46 83 47 77 48 76 49 35 51 65 52 46 53 64 54
REMARK SMILES IDX 47 55 50 56 63 57 81 58 48 59 49 60 62 62 82 63 51 64 36 65
REMARK SMILES IDX 37 66 45 67 38 68 44 69 39 70 40 71 41 72 42 73 43 74 66 75
REMARK SMILES IDX 67 76 75 77 68 78 74 79 69 80 70 81 71 82 72 83 73 84 52 85
REMARK SMILES IDX 53 86 61 87 54 88 60 89 55 90 56 91 57 92 58 93 59 94
REMARK H PARENT 14 14 80 50 50 61
REMARK Flexibility Score: inf
ROOT
ATOM      1  C   UNL     1       8.966  -4.911   2.305  1.00  0.00     0.274 C 
ENDROOT
BRANCH   1   2
ATOM      2  O   UNL     1       7.530  -4.983   2.288  1.00  0.00    -0.462 OA
BRANCH   2   3
ATOM      3  C   UNL     1       6.920  -4.254   1.334  1.00  0.00     0.310 C 
ATOM      4  O   UNL     1       7.490  -3.513   0.536  1.00  0.00    -0.252 OA
BRANCH   3   5
ATOM      5  C   UNL     1       5.426  -4.399   1.298  1.00  0.00     0.119 C 
ATOM      6  C   UNL     1       4.625  -3.299   2.045  1.00  0.00     0.100 C 
ATOM      7  C   UNL     1       3.439  -4.111   2.642  1.00  0.00     0.025 C 
ATOM      8  C   UNL     1       4.701  -5.702   1.693  1.00  0.00     0.027 C 
ATOM      9  C   UNL     1       3.957  -5.002   3.749  1.00  0.00    -0.027 C 
ATOM     10  C   UNL     1       3.245  -5.203   1.583  1.00  0.00     0.017 C 
ATOM     11  C   UNL     1       4.735  -5.933   3.178  1.00  0.00    -0.027 C 
BRANCH   6  12
ATOM     12  C   UNL     1       5.334  -2.492   3.121  1.00  0.00     0.229 C 
ATOM     13  N   UNL     1       5.030  -1.185   3.360  1.00  0.00    -0.323 N 
ATOM     14  H   UNL     1       5.412  -0.851   4.204  1.00  0.00     0.170 HD
ATOM     15  O   UNL     1       6.215  -2.980   3.836  1.00  0.00    -0.274 OA
BRANCH  13  16
ATOM     16  C   UNL     1       4.293  -0.210   2.667  1.00  0.00     0.084 A 
ATOM     17  C   UNL     1       4.649   1.132   2.901  1.00  0.00     0.142 A 
ATOM     18  C   UNL     1       4.060   2.172   2.183  1.00  0.00     0.049 A 
ATOM     19  C   UNL     1       3.126   1.879   1.189  1.00  0.00     0.018 A 
ATOM     20  C   UNL     1       3.274  -0.472   1.754  1.00  0.00     0.044 A 
ATOM     21  C   UNL     1       2.740   0.553   0.963  1.00  0.00     0.042 A 
BRANCH  17  22
ATOM     22  O   UNL     1       5.537   1.460   3.897  1.00  0.00    -0.495 OA
ATOM     23  C   UNL     1       6.893   1.391   3.451  1.00  0.00     0.278 C 
ENDBRANCH  17  22
BRANCH  21  24
ATOM     24  C   UNL     1       1.679   0.270  -0.040  1.00  0.00     0.253 C 
ATOM     25  O   UNL     1       0.730   1.052  -0.080  1.00  0.00    -0.269 OA
ATOM     26  N   UNL     1       1.774  -0.851  -0.869  1.00  0.00    -0.345 N 
ATOM     27  C   UNL     1       2.978  -1.633  -1.118  1.00  0.00     0.146 C 
ATOM     28  C   UNL     1       0.617  -1.216  -1.670  1.00  0.00     0.146 C 
ENDBRANCH  21  24
ENDBRANCH  13  16
ENDBRANCH   6  12
ENDBRANCH   3   5
ENDBRANCH   2   3
ENDBRANCH   1   2
BRANCH   1  29
ATOM     29  C   UNL     1       9.533  -6.315   2.144  1.00  0.00     0.275 C 
BRANCH  29  30
ATOM     30  O   UNL     1       9.005  -6.914   0.946  1.00  0.00    -0.458 OA
BRANCH  30  31
ATOM     31  C   UNL     1       7.977  -7.766   1.151  1.00  0.00     0.338 C 
ATOM     32  O   UNL     1       7.510  -8.136   2.221  1.00  0.00    -0.246 OA
BRANCH  31  33
ATOM     33  C   UNL     1       7.447  -8.223  -0.135  1.00  0.00     0.060 A 
ATOM     34  C   UNL     1       6.635  -7.380  -0.897  1.00  0.00     0.016 A 
ATOM     35  C   UNL     1       7.651  -9.549  -0.510  1.00  0.00     0.016 A 
ATOM     36  C   UNL     1       5.954  -7.892  -2.000  1.00  0.00     0.010 A 
ATOM     37  C   UNL     1       7.037 -10.034  -1.663  1.00  0.00     0.010 A 
ATOM     38  C   UNL     1       6.157  -9.222  -2.401  1.00  0.00    -0.014 A 
BRANCH  38  39
ATOM     39  C   UNL     1       5.460  -9.785  -3.586  1.00  0.00     0.031 A 
ATOM     40  C   UNL     1       4.529 -10.957  -3.430  1.00  0.00     0.074 A 
ATOM     41  C   UNL     1       5.707  -9.280  -4.809  1.00  0.00     0.049 A 
ATOM     42  N   UNL     1       4.001 -11.720  -4.351  1.00  0.00    -0.248 NA
ATOM     43  C   UNL     1       4.159 -11.327  -2.054  1.00  0.00     0.031 C 
ATOM     44  C   UNL     1       6.568  -8.131  -5.095  1.00  0.00     0.029 A 
ATOM     45  N   UNL     1       5.272  -9.687  -6.046  1.00  0.00    -0.354 N 
ATOM     46  C   UNL     1       3.275 -12.691  -3.670  1.00  0.00     0.074 A 
ATOM     47  C   UNL     1       3.434 -12.420  -2.256  1.00  0.00     0.031 C 
ATOM     48  C   UNL     1       6.598  -7.925  -6.420  1.00  0.00     0.029 A 
ATOM     49  C   UNL     1       5.821  -8.968  -7.080  1.00  0.00     0.049 A 
ATOM     50  H   UNL     1       4.630 -10.422  -6.179  1.00  0.00     0.167 HD
ATOM     51  C   UNL     1       2.550 -13.718  -4.175  1.00  0.00     0.031 A 
ATOM     52  C   UNL     1       5.754  -9.152  -8.412  1.00  0.00     0.031 A 
ATOM     53  C   UNL     1       2.390 -13.977  -5.582  1.00  0.00     0.049 A 
ATOM     54  C   UNL     1       4.968 -10.309  -8.953  1.00  0.00     0.074 A 
ATOM     55  C   UNL     1       1.670 -14.986  -6.199  1.00  0.00     0.029 A 
ATOM     56  N   UNL     1       2.955 -13.215  -6.594  1.00  0.00    -0.354 N 
ATOM     57  N   UNL     1       4.311 -11.235  -8.295  1.00  0.00    -0.248 NA
ATOM     58  C   UNL     1       4.918 -10.450 -10.414  1.00  0.00     0.031 C 
ATOM     59  C   UNL     1       1.830 -14.854  -7.584  1.00  0.00     0.029 A 
ATOM     60  C   UNL     1       2.612 -13.737  -7.830  1.00  0.00     0.049 A 
ATOM     61  H   UNL     1       3.518 -12.419  -6.454  1.00  0.00     0.167 HD
ATOM     62  C   UNL     1       3.767 -12.070  -9.263  1.00  0.00     0.074 A 
ATOM     63  C   UNL     1       4.154 -11.526 -10.550  1.00  0.00     0.031 C 
ATOM     64  C   UNL     1       3.019 -13.189  -9.100  1.00  0.00     0.031 A 
BRANCH  51  65
ATOM     65  C   UNL     1       1.919 -14.665  -3.189  1.00  0.00    -0.014 A 
ATOM     66  C   UNL     1       0.803 -14.287  -2.421  1.00  0.00     0.010 A 
ATOM     67  C   UNL     1       2.457 -15.955  -3.024  1.00  0.00     0.010 A 
ATOM     68  C   UNL     1       0.272 -15.159  -1.467  1.00  0.00     0.020 A 
ATOM     69  C   UNL     1       1.915 -16.839  -2.087  1.00  0.00     0.020 A 
ATOM     70  C   UNL     1       0.841 -16.426  -1.296  1.00  0.00     0.054 A 
BRANCH  70  71
ATOM     71  S   UNL     1       0.151 -17.535  -0.037  1.00  0.00     0.124 S 
ATOM     72  O   UNL     1       0.723 -16.987   1.190  1.00  0.00    -0.237 OA
ATOM     73  O   UNL     1      -1.289 -17.350  -0.195  1.00  0.00    -0.237 OA
ATOM     74  O   UNL     1       0.652 -18.852  -0.425  1.00  0.00    -0.744 OA
ENDBRANCH  70  71
ENDBRANCH  51  65
BRANCH  52  75
ATOM     75  C   UNL     1       6.500  -8.231  -9.307  1.00  0.00    -0.014 A 
ATOM     76  C   UNL     1       5.823  -7.243 -10.040  1.00  0.00     0.010 A 
ATOM     77  C   UNL     1       7.906  -8.289  -9.365  1.00  0.00     0.010 A 
ATOM     78  C   UNL     1       6.540  -6.320 -10.807  1.00  0.00     0.020 A 
ATOM     79  C   UNL     1       8.626  -7.354 -10.111  1.00  0.00     0.020 A 
ATOM     80  C   UNL     1       7.937  -6.375 -10.830  1.00  0.00     0.054 A 
BRANCH  80  81
ATOM     81  S   UNL     1       8.853  -5.100 -11.740  1.00  0.00     0.124 S 
ATOM     82  O   UNL     1       8.729  -5.562 -13.118  1.00  0.00    -0.237 OA
ATOM     83  O   UNL     1       8.115  -3.882 -11.411  1.00  0.00    -0.237 OA
ATOM     84  O   UNL     1      10.196  -5.175 -11.169  1.00  0.00    -0.744 OA
ENDBRANCH  80  81
ENDBRANCH  52  75
BRANCH  64  85
ATOM     85  C   UNL     1       2.558 -13.888 -10.348  1.00  0.00    -0.014 A 
ATOM     86  C   UNL     1       3.444 -14.673 -11.106  1.00  0.00     0.010 A 
ATOM     87  C   UNL     1       1.214 -13.784 -10.748  1.00  0.00     0.010 A 
ATOM     88  C   UNL     1       3.000 -15.320 -12.262  1.00  0.00     0.020 A 
ATOM     89  C   UNL     1       0.762 -14.446 -11.892  1.00  0.00     0.020 A 
ATOM     90  C   UNL     1       1.662 -15.199 -12.650  1.00  0.00     0.054 A 
BRANCH  90  91
ATOM     91  S   UNL     1       1.097 -16.073 -14.135  1.00  0.00     0.124 S 
ATOM     92  O   UNL     1       1.598 -15.213 -15.203  1.00  0.00    -0.237 OA
ATOM     93  O   UNL     1       1.752 -17.374 -14.015  1.00  0.00    -0.237 OA
ATOM     94  O   UNL     1      -0.357 -16.101 -13.986  1.00  0.00    -0.744 OA
ENDBRANCH  90  91
ENDBRANCH  64  85
ENDBRANCH  38  39
ENDBRANCH  31  33
ENDBRANCH  30  31
ENDBRANCH  29  30
ENDBRANCH   1  29
TORSDOF 18
