REMARK SMILES Cc1c(NC(=O)C(F)(F)F)cccc1C(=O)OCCOC(=O)c1ccc(-c2c3nc(c(-c4ccc(S(=O)(=O)[O-])cc4)c4ccc([nH]4)c(-c4ccc(S(=O)(=O)[O-])cc4)c4nc(c(-c5ccc(S(=O)(=O)[O-])cc5)c5ccc2[nH]5)C=C4)C=C3)cc1
REMARK SMILES IDX 19 1 18 2 17 3 15 4 16 5 14 6 1 7 2 8 3 9 11 10 13 11 12 12
REMARK SMILES IDX 4 13 5 14 6 16 7 17 8 18 9 19 10 20 20 21 21 22 22 23 23 24
REMARK SMILES IDX 24 25 82 26 25 27 81 28 26 29 27 30 28 31 75 32 29 33 80 34
REMARK SMILES IDX 74 35 76 36 30 37 79 38 73 39 72 40 31 42 61 43 42 44 60 45
REMARK SMILES IDX 43 46 46 47 59 48 77 49 44 50 45 51 58 53 78 54 47 55 32 56
REMARK SMILES IDX 33 57 41 58 34 59 40 60 35 61 36 62 37 63 38 64 39 65 62 66
REMARK SMILES IDX 63 67 71 68 64 69 70 70 65 71 66 72 67 73 68 74 69 75 48 76
REMARK SMILES IDX 49 77 57 78 50 79 56 80 51 81 52 82 53 83 54 84 55 85
REMARK H PARENT 4 15 76 41 46 52
REMARK Flexibility Score: inf
ROOT
ATOM      1  C   UNL     1       3.255   3.954  -3.008  1.00  0.00     0.275 C 
ENDROOT
BRANCH   1   2
ATOM      2  C   UNL     1       3.501   2.727  -2.110  1.00  0.00     0.275 C 
BRANCH   2   3
ATOM      3  O   UNL     1       2.429   1.766  -2.161  1.00  0.00    -0.458 OA
BRANCH   3   4
ATOM      4  C   UNL     1       2.244   1.125  -0.976  1.00  0.00     0.338 C 
ATOM      5  O   UNL     1       2.926   1.275   0.011  1.00  0.00    -0.246 OA
BRANCH   4   6
ATOM      6  C   UNL     1       1.183   0.088  -1.009  1.00  0.00     0.065 A 
ATOM      7  C   UNL     1       2.950  -1.632  -0.417  1.00  0.00     0.047 C 
ATOM      8  C   UNL     1       1.503  -1.226  -0.595  1.00  0.00    -0.013 A 
ATOM      9  C   UNL     1       0.457  -2.164  -0.375  1.00  0.00     0.045 A 
ATOM     10  C   UNL     1      -0.867  -1.737  -0.498  1.00  0.00     0.026 A 
ATOM     11  C   UNL     1      -0.143   0.450  -1.241  1.00  0.00     0.016 A 
ATOM     12  C   UNL     1      -1.165  -0.446  -0.945  1.00  0.00     0.003 A 
BRANCH   9  13
ATOM     13  N   UNL     1       0.835  -3.483  -0.046  1.00  0.00    -0.318 N 
ATOM     14  C   UNL     1       0.187  -4.675   0.119  1.00  0.00     0.330 C 
ATOM     15  H   UNL     1       1.806  -3.565   0.101  1.00  0.00     0.170 HD
ATOM     16  O   UNL     1       0.930  -5.647   0.340  1.00  0.00    -0.264 OA
BRANCH  14  17
ATOM     17  C   UNL     1      -1.331  -4.847   0.027  1.00  0.00     0.471 C 
ATOM     18  F   UNL     1      -1.997  -4.202   1.024  1.00  0.00    -0.162 F 
ATOM     19  F   UNL     1      -1.850  -4.404  -1.153  1.00  0.00    -0.162 F 
ATOM     20  F   UNL     1      -1.710  -6.157   0.117  1.00  0.00    -0.162 F 
ENDBRANCH  14  17
ENDBRANCH   9  13
ENDBRANCH   4   6
ENDBRANCH   3   4
ENDBRANCH   2   3
ENDBRANCH   1   2
BRANCH   1  21
ATOM     21  O   UNL     1       2.145   4.828  -2.704  1.00  0.00    -0.458 OA
BRANCH  21  22
ATOM     22  C   UNL     1       1.014   4.246  -2.223  1.00  0.00     0.338 C 
ATOM     23  O   UNL     1       0.288   3.523  -2.890  1.00  0.00    -0.246 OA
BRANCH  22  24
ATOM     24  C   UNL     1       1.053   4.320  -0.735  1.00  0.00     0.060 A 
ATOM     25  C   UNL     1       0.177   3.537   0.029  1.00  0.00     0.016 A 
ATOM     26  C   UNL     1       2.189   4.885  -0.148  1.00  0.00     0.016 A 
ATOM     27  C   UNL     1       0.502   3.200   1.339  1.00  0.00     0.010 A 
ATOM     28  C   UNL     1       2.593   4.433   1.078  1.00  0.00     0.010 A 
ATOM     29  C   UNL     1       1.733   3.626   1.833  1.00  0.00    -0.014 A 
BRANCH  29  30
ATOM     30  C   UNL     1       2.080   3.628   3.239  1.00  0.00     0.031 A 
ATOM     31  C   UNL     1       2.668   2.455   3.908  1.00  0.00     0.074 A 
ATOM     32  C   UNL     1       1.910   4.867   3.759  1.00  0.00     0.049 A 
ATOM     33  N   UNL     1       2.733   2.328   5.184  1.00  0.00    -0.248 NA
ATOM     34  C   UNL     1       3.214   1.286   3.218  1.00  0.00     0.031 C 
ATOM     35  C   UNL     1       2.334   5.475   5.002  1.00  0.00     0.029 A 
ATOM     36  N   UNL     1       1.126   5.872   3.204  1.00  0.00    -0.354 N 
ATOM     37  C   UNL     1       3.583   1.275   5.468  1.00  0.00     0.074 A 
ATOM     38  C   UNL     1       3.757   0.583   4.221  1.00  0.00     0.031 C 
ATOM     39  C   UNL     1       1.542   6.547   5.239  1.00  0.00     0.029 A 
ATOM     40  C   UNL     1       0.501   6.571   4.208  1.00  0.00     0.049 A 
ATOM     41  H   UNL     1       1.034   6.054   2.241  1.00  0.00     0.167 HD
ATOM     42  C   UNL     1       4.164   1.237   6.701  1.00  0.00     0.031 A 
ATOM     43  C   UNL     1      -0.832   6.330   4.419  1.00  0.00     0.031 A 
ATOM     44  C   UNL     1       3.591   2.299   7.526  1.00  0.00     0.049 A 
ATOM     45  C   UNL     1      -0.993   5.589   5.730  1.00  0.00     0.074 A 
ATOM     46  C   UNL     1       4.011   3.596   7.766  1.00  0.00     0.029 A 
ATOM     47  N   UNL     1       2.237   2.248   7.834  1.00  0.00    -0.354 N 
ATOM     48  N   UNL     1      -0.169   4.675   6.177  1.00  0.00    -0.248 NA
ATOM     49  C   UNL     1      -2.011   5.968   6.702  1.00  0.00     0.031 C 
ATOM     50  C   UNL     1       2.853   4.362   8.079  1.00  0.00     0.029 A 
ATOM     51  C   UNL     1       1.747   3.525   8.040  1.00  0.00     0.049 A 
ATOM     52  H   UNL     1       1.704   1.423   7.897  1.00  0.00     0.167 HD
ATOM     53  C   UNL     1      -0.435   4.456   7.504  1.00  0.00     0.074 A 
ATOM     54  C   UNL     1      -1.623   5.255   7.771  1.00  0.00     0.031 C 
ATOM     55  C   UNL     1       0.342   3.721   8.355  1.00  0.00     0.031 A 
BRANCH  42  56
ATOM     56  C   UNL     1       5.422   0.487   7.084  1.00  0.00    -0.014 A 
ATOM     57  C   UNL     1       6.126   0.915   8.234  1.00  0.00     0.010 A 
ATOM     58  C   UNL     1       6.011  -0.567   6.359  1.00  0.00     0.010 A 
ATOM     59  C   UNL     1       7.363   0.375   8.608  1.00  0.00     0.020 A 
ATOM     60  C   UNL     1       7.256  -1.121   6.724  1.00  0.00     0.020 A 
ATOM     61  C   UNL     1       7.931  -0.636   7.841  1.00  0.00     0.054 A 
BRANCH  61  62
ATOM     62  S   UNL     1       9.547  -1.296   8.335  1.00  0.00     0.124 S 
ATOM     63  O   UNL     1      10.413  -0.126   8.216  1.00  0.00    -0.237 OA
ATOM     64  O   UNL     1       9.297  -1.756   9.698  1.00  0.00    -0.237 OA
ATOM     65  O   UNL     1       9.803  -2.355   7.361  1.00  0.00    -0.744 OA
ENDBRANCH  61  62
ENDBRANCH  42  56
BRANCH  43  66
ATOM     66  C   UNL     1      -1.671   6.143   3.176  1.00  0.00    -0.014 A 
ATOM     67  C   UNL     1      -1.599   7.148   2.177  1.00  0.00     0.010 A 
ATOM     68  C   UNL     1      -2.327   4.947   2.834  1.00  0.00     0.010 A 
ATOM     69  C   UNL     1      -2.036   6.926   0.865  1.00  0.00     0.020 A 
ATOM     70  C   UNL     1      -2.795   4.726   1.516  1.00  0.00     0.020 A 
ATOM     71  C   UNL     1      -2.613   5.704   0.532  1.00  0.00     0.054 A 
BRANCH  71  72
ATOM     72  S   UNL     1      -2.909   5.344  -1.234  1.00  0.00     0.124 S 
ATOM     73  O   UNL     1      -4.167   6.038  -1.488  1.00  0.00    -0.237 OA
ATOM     74  O   UNL     1      -1.728   5.930  -1.867  1.00  0.00    -0.237 OA
ATOM     75  O   UNL     1      -2.976   3.885  -1.272  1.00  0.00    -0.744 OA
ENDBRANCH  71  72
ENDBRANCH  43  66
BRANCH  55  76
ATOM     76  C   UNL     1      -0.150   3.184   9.671  1.00  0.00    -0.014 A 
ATOM     77  C   UNL     1      -1.510   2.987   9.949  1.00  0.00     0.010 A 
ATOM     78  C   UNL     1       0.785   2.696  10.615  1.00  0.00     0.010 A 
ATOM     79  C   UNL     1      -1.924   2.430  11.158  1.00  0.00     0.020 A 
ATOM     80  C   UNL     1       0.383   2.071  11.792  1.00  0.00     0.020 A 
ATOM     81  C   UNL     1      -0.973   1.982  12.075  1.00  0.00     0.054 A 
BRANCH  81  82
ATOM     82  S   UNL     1      -1.527   1.245  13.625  1.00  0.00     0.124 S 
ATOM     83  O   UNL     1      -1.734   2.428  14.455  1.00  0.00    -0.237 OA
ATOM     84  O   UNL     1      -2.742   0.534  13.232  1.00  0.00    -0.237 OA
ATOM     85  O   UNL     1      -0.410   0.389  14.016  1.00  0.00    -0.744 OA
ENDBRANCH  81  82
ENDBRANCH  55  76
ENDBRANCH  29  30
ENDBRANCH  22  24
ENDBRANCH  21  22
ENDBRANCH   1  21
TORSDOF 16
