REMARK SMILES Cc1cc(NC(=O)[C@@H]2CCC[C@@H](C(=O)OCCOC(=O)c3ccc(-c4c5nc(c(-c6ccc(S(=O)(=O)[O-])cc6)c6ccc([nH]6)c(-c6ccc(S(=O)(=O)[O-])cc6)c6nc(c(-c7ccc(S(=O)(=O)[O-])cc7)c7ccc4[nH]7)C=C6)C=C5)cc3)C2)ncc1Br
REMARK SMILES IDX 17 1 16 2 15 3 13 4 14 5 12 6 8 7 9 8 81 9 10 10 11 11 6 12
REMARK SMILES IDX 5 13 7 15 4 16 1 17 2 18 3 19 84 20 83 21 85 22 82 23 18 24
REMARK SMILES IDX 19 25 20 26 21 27 22 28 80 29 23 30 79 31 24 32 25 33 26 34
REMARK SMILES IDX 73 35 27 36 78 37 72 38 74 39 28 40 77 41 71 42 70 43 29 45
REMARK SMILES IDX 59 46 40 47 58 48 41 49 44 50 57 51 75 52 42 53 43 54 56 56
REMARK SMILES IDX 76 57 45 58 30 59 31 60 39 61 32 62 38 63 33 64 34 65 35 66
REMARK SMILES IDX 36 67 37 68 60 69 61 70 69 71 62 72 68 73 63 74 64 75 65 76
REMARK SMILES IDX 66 77 67 78 46 79 47 80 55 81 48 82 54 83 49 84 50 85 51 86
REMARK SMILES IDX 52 87 53 88
REMARK H PARENT 5 14 74 44 44 55
REMARK Flexibility Score: inf
ROOT
ATOM      1  C   UNL     1      -0.611   7.447  -1.034  1.00  0.00     0.275 C 
ENDROOT
BRANCH   1   2
ATOM      2  C   UNL     1      -0.164   8.453   0.020  1.00  0.00     0.274 C 
BRANCH   2   3
ATOM      3  O   UNL     1      -0.370   7.932   1.350  1.00  0.00    -0.462 OA
BRANCH   3   4
ATOM      4  C   UNL     1      -1.454   8.405   2.021  1.00  0.00     0.309 C 
ATOM      5  O   UNL     1      -2.283   9.175   1.550  1.00  0.00    -0.252 OA
BRANCH   4   6
ATOM      6  C   UNL     1      -1.544   7.886   3.453  1.00  0.00     0.100 C 
ATOM      7  C   UNL     1      -1.504   5.343   3.241  1.00  0.00     0.080 C 
ATOM      8  C   UNL     1      -0.291   5.309   4.179  1.00  0.00     0.013 C 
ATOM      9  C   UNL     1      -2.343   6.580   3.589  1.00  0.00     0.028 C 
ATOM     10  C   UNL     1       0.588   6.530   3.945  1.00  0.00     0.002 C 
ATOM     11  C   UNL     1      -0.182   7.833   4.156  1.00  0.00     0.015 C 
BRANCH   7  12
ATOM     12  C   UNL     1      -2.289   4.038   3.360  1.00  0.00     0.228 C 
ATOM     13  N   UNL     1      -1.847   2.887   2.767  1.00  0.00    -0.310 N 
ATOM     14  H   UNL     1      -2.394   2.090   2.949  1.00  0.00     0.171 HD
ATOM     15  O   UNL     1      -3.326   3.977   4.028  1.00  0.00    -0.274 OA
BRANCH  13  16
ATOM     16  C   UNL     1      -0.739   2.667   1.942  1.00  0.00     0.132 A 
ATOM     17  C   UNL     1       0.785  -0.279   0.094  1.00  0.00     0.046 C 
ATOM     18  C   UNL     1       0.567   1.113   0.612  1.00  0.00    -0.032 A 
ATOM     19  C   UNL     1      -0.525   1.377   1.461  1.00  0.00     0.051 A 
ATOM     20  C   UNL     1       1.388   2.182   0.248  1.00  0.00     0.039 A 
ATOM     21  C   UNL     1       1.110   3.428   0.781  1.00  0.00     0.129 A 
ATOM     22  Br  UNL     1       2.853   2.012  -0.937  1.00  0.00    -0.049 Br
ATOM     23  N   UNL     1       0.089   3.676   1.629  1.00  0.00    -0.238 NA
ENDBRANCH  13  16
ENDBRANCH   7  12
ENDBRANCH   4   6
ENDBRANCH   3   4
ENDBRANCH   2   3
ENDBRANCH   1   2
BRANCH   1  24
ATOM     24  O   UNL     1      -2.016   7.214  -0.876  1.00  0.00    -0.458 OA
BRANCH  24  25
ATOM     25  C   UNL     1      -2.403   5.922  -0.828  1.00  0.00     0.338 C 
ATOM     26  O   UNL     1      -1.710   4.932  -1.018  1.00  0.00    -0.246 OA
BRANCH  25  27
ATOM     27  C   UNL     1      -3.849   5.874  -0.562  1.00  0.00     0.060 A 
ATOM     28  C   UNL     1      -4.648   5.039  -1.339  1.00  0.00     0.016 A 
ATOM     29  C   UNL     1      -4.415   6.626   0.470  1.00  0.00     0.016 A 
ATOM     30  C   UNL     1      -6.022   5.002  -1.107  1.00  0.00     0.010 A 
ATOM     31  C   UNL     1      -5.768   6.502   0.771  1.00  0.00     0.010 A 
ATOM     32  C   UNL     1      -6.596   5.723  -0.042  1.00  0.00    -0.014 A 
BRANCH  32  33
ATOM     33  C   UNL     1      -8.062   5.674   0.185  1.00  0.00     0.031 A 
ATOM     34  C   UNL     1      -8.902   6.915   0.031  1.00  0.00     0.074 A 
ATOM     35  C   UNL     1      -8.641   4.496   0.490  1.00  0.00     0.049 A 
ATOM     36  N   UNL     1     -10.206   7.026   0.043  1.00  0.00    -0.248 NA
ATOM     37  C   UNL     1      -8.199   8.197  -0.145  1.00  0.00     0.031 C 
ATOM     38  C   UNL     1      -7.919   3.243   0.726  1.00  0.00     0.029 A 
ATOM     39  N   UNL     1      -9.963   4.147   0.618  1.00  0.00    -0.354 N 
ATOM     40  C   UNL     1     -10.474   8.379  -0.131  1.00  0.00     0.074 A 
ATOM     41  C   UNL     1      -9.203   9.062  -0.174  1.00  0.00     0.031 C 
ATOM     42  C   UNL     1      -8.806   2.250   0.890  1.00  0.00     0.029 A 
ATOM     43  C   UNL     1     -10.158   2.798   0.806  1.00  0.00     0.049 A 
ATOM     44  H   UNL     1     -10.699   4.799   0.579  1.00  0.00     0.167 HD
ATOM     45  C   UNL     1     -11.671   8.992  -0.280  1.00  0.00     0.031 A 
ATOM     46  C   UNL     1     -11.294   2.075   0.874  1.00  0.00     0.031 A 
ATOM     47  C   UNL     1     -12.931   8.299  -0.255  1.00  0.00     0.049 A 
ATOM     48  C   UNL     1     -12.613   2.772   0.693  1.00  0.00     0.074 A 
ATOM     49  C   UNL     1     -14.197   8.820  -0.445  1.00  0.00     0.029 A 
ATOM     50  N   UNL     1     -13.083   6.938  -0.035  1.00  0.00    -0.354 N 
ATOM     51  N   UNL     1     -12.842   4.042   0.453  1.00  0.00    -0.248 NA
ATOM     52  C   UNL     1     -13.824   1.946   0.774  1.00  0.00     0.031 C 
ATOM     53  C   UNL     1     -15.120   7.785  -0.286  1.00  0.00     0.029 A 
ATOM     54  C   UNL     1     -14.425   6.606  -0.063  1.00  0.00     0.049 A 
ATOM     55  H   UNL     1     -12.346   6.304   0.119  1.00  0.00     0.167 HD
ATOM     56  C   UNL     1     -14.222   4.164   0.342  1.00  0.00     0.074 A 
ATOM     57  C   UNL     1     -14.775   2.837   0.521  1.00  0.00     0.031 C 
ATOM     58  C   UNL     1     -14.960   5.278   0.116  1.00  0.00     0.031 A 
BRANCH  45  59
ATOM     59  C   UNL     1     -11.685  10.479  -0.525  1.00  0.00    -0.014 A 
ATOM     60  C   UNL     1     -12.251  11.347   0.426  1.00  0.00     0.010 A 
ATOM     61  C   UNL     1     -11.233  11.008  -1.748  1.00  0.00     0.010 A 
ATOM     62  C   UNL     1     -12.389  12.710   0.150  1.00  0.00     0.020 A 
ATOM     63  C   UNL     1     -11.342  12.374  -2.017  1.00  0.00     0.020 A 
ATOM     64  C   UNL     1     -11.941  13.214  -1.075  1.00  0.00     0.054 A 
BRANCH  64  65
ATOM     65  S   UNL     1     -12.148  14.981  -1.429  1.00  0.00     0.124 S 
ATOM     66  O   UNL     1     -13.570  15.069  -1.742  1.00  0.00    -0.237 OA
ATOM     67  O   UNL     1     -11.737  15.610  -0.175  1.00  0.00    -0.237 OA
ATOM     68  O   UNL     1     -11.244  15.212  -2.554  1.00  0.00    -0.744 OA
ENDBRANCH  64  65
ENDBRANCH  45  59
BRANCH  46  69
ATOM     69  C   UNL     1     -11.202   0.598   1.044  1.00  0.00    -0.014 A 
ATOM     70  C   UNL     1     -10.733   0.046   2.251  1.00  0.00     0.010 A 
ATOM     71  C   UNL     1     -11.483  -0.260  -0.034  1.00  0.00     0.010 A 
ATOM     72  C   UNL     1     -10.491  -1.327   2.358  1.00  0.00     0.020 A 
ATOM     73  C   UNL     1     -11.270  -1.638   0.079  1.00  0.00     0.020 A 
ATOM     74  C   UNL     1     -10.745  -2.158   1.264  1.00  0.00     0.054 A 
BRANCH  74  75
ATOM     75  S   UNL     1     -10.359  -3.926   1.402  1.00  0.00     0.124 S 
ATOM     76  O   UNL     1      -8.904  -3.925   1.271  1.00  0.00    -0.237 OA
ATOM     77  O   UNL     1     -10.871  -4.263   2.728  1.00  0.00    -0.237 OA
ATOM     78  O   UNL     1     -11.086  -4.523   0.286  1.00  0.00    -0.744 OA
ENDBRANCH  74  75
ENDBRANCH  46  69
BRANCH  58  79
ATOM     79  C   UNL     1     -16.458   5.141   0.051  1.00  0.00    -0.014 A 
ATOM     80  C   UNL     1     -17.126   5.367  -1.167  1.00  0.00     0.010 A 
ATOM     81  C   UNL     1     -17.210   4.954   1.223  1.00  0.00     0.010 A 
ATOM     82  C   UNL     1     -18.519   5.455  -1.205  1.00  0.00     0.020 A 
ATOM     83  C   UNL     1     -18.606   5.014   1.184  1.00  0.00     0.020 A 
ATOM     84  C   UNL     1     -19.249   5.293  -0.025  1.00  0.00     0.054 A 
BRANCH  84  85
ATOM     85  S   UNL     1     -21.053   5.469  -0.082  1.00  0.00     0.124 S 
ATOM     86  O   UNL     1     -21.219   6.917  -0.157  1.00  0.00    -0.237 OA
ATOM     87  O   UNL     1     -21.411   4.730  -1.291  1.00  0.00    -0.237 OA
ATOM     88  O   UNL     1     -21.496   4.853   1.168  1.00  0.00    -0.744 OA
ENDBRANCH  84  85
ENDBRANCH  58  79
ENDBRANCH  32  33
ENDBRANCH  25  27
ENDBRANCH  24  25
ENDBRANCH   1  24
TORSDOF 16
