REMARK SMILES Cc1ccc(C(=O)NC2(CC(=O)OCCOC(=O)c3ccc(-c4c5nc(c(-c6ccc(S(=O)(=O)[O-])cc6)c6ccc([nH]6)c(-c6ccc(S(=O)(=O)[O-])cc6)c6nc(c(-c7ccc(S(=O)(=O)[O-])cc7)c7ccc4[nH]7)C=C6)C=C5)cc3)CCC2)cc1
REMARK SMILES IDX 14 1 13 2 11 3 12 4 10 5 9 6 79 7 81 8 80 9 8 10 6 11 7 12
REMARK SMILES IDX 5 14 1 15 2 16 3 17 83 18 4 19 82 20 15 21 16 22 17 23 18 24
REMARK SMILES IDX 19 25 20 26 78 27 21 28 77 29 22 30 23 31 24 32 71 33 25 34
REMARK SMILES IDX 76 35 70 36 72 37 26 38 75 39 69 40 68 41 27 43 57 44 38 45
REMARK SMILES IDX 56 46 39 47 42 48 55 49 73 50 40 51 41 52 54 54 74 55 43 56
REMARK SMILES IDX 28 57 29 58 37 59 30 60 36 61 31 62 32 63 33 64 34 65 35 66
REMARK SMILES IDX 58 67 59 68 67 69 60 70 66 71 61 72 62 73 63 74 64 75 65 76
REMARK SMILES IDX 44 77 45 78 53 79 46 80 52 81 47 82 48 83 49 84 50 85 51 86
REMARK H PARENT 8 13 72 42 42 53
REMARK Flexibility Score: inf
ROOT
ATOM      1  C   UNL     1      -0.586  -0.496   2.161  1.00  0.00     0.274 C 
ENDROOT
BRANCH   1   2
ATOM      2  O   UNL     1      -0.332   1.217   1.034  1.00  0.00    -0.462 OA
BRANCH   2   3
ATOM      3  C   UNL     1      -0.817   2.201   0.112  1.00  0.00     0.308 C 
ATOM      4  O   UNL     1      -0.157   2.473  -0.896  1.00  0.00    -0.252 OA
BRANCH   3   5
ATOM      5  C   UNL     1      -2.100   2.969   0.004  1.00  0.00     0.151 C 
BRANCH   5   6
ATOM      6  C   UNL     1      -3.316   3.124   0.882  1.00  0.00     0.051 C 
ATOM      7  C   UNL     1      -4.233   4.247   0.287  1.00  0.00     0.029 C 
ATOM      8  C   UNL     1      -3.248   4.019   2.155  1.00  0.00     0.029 C 
ATOM      9  C   UNL     1      -3.527   5.227   1.248  1.00  0.00     0.005 C 
BRANCH   6  10
ATOM     10  N   UNL     1      -4.060   1.881   1.105  1.00  0.00    -0.346 N 
ATOM     11  C   UNL     1      -3.513   0.882   1.837  1.00  0.00     0.251 C 
ATOM     12  O   UNL     1      -4.097   0.206   2.668  1.00  0.00    -0.269 OA
ATOM     13  H   UNL     1      -4.961   1.772   0.721  1.00  0.00     0.164 HD
BRANCH  11  14
ATOM     14  C   UNL     1      -2.084   0.778   1.614  1.00  0.00     0.039 A 
ATOM     15  C   UNL     1       2.986   0.376   1.133  1.00  0.00     0.044 C 
ATOM     16  C   UNL     1       1.503   0.440   1.411  1.00  0.00    -0.051 A 
ATOM     17  C   UNL     1       0.541  -0.380   0.240  1.00  0.00     0.004 A 
ATOM     18  C   UNL     1       0.754   1.406   2.672  1.00  0.00     0.004 A 
ATOM     19  C   UNL     1      -1.235  -0.201   0.270  1.00  0.00     0.014 A 
ATOM     20  C   UNL     1      -1.018   1.607   2.804  1.00  0.00     0.014 A 
ENDBRANCH  11  14
ENDBRANCH   6  10
ENDBRANCH   5   6
ENDBRANCH   3   5
ENDBRANCH   2   3
ENDBRANCH   1   2
BRANCH   1  21
ATOM     21  C   UNL     1      -1.978  -1.728   1.785  1.00  0.00     0.275 C 
BRANCH  21  22
ATOM     22  O   UNL     1      -3.290  -1.534   0.692  1.00  0.00    -0.458 OA
BRANCH  22  23
ATOM     23  C   UNL     1      -3.809  -0.978  -0.543  1.00  0.00     0.338 C 
ATOM     24  O   UNL     1      -4.976  -0.585  -0.549  1.00  0.00    -0.246 OA
BRANCH  23  25
ATOM     25  C   UNL     1      -2.946  -0.676  -1.819  1.00  0.00     0.060 A 
ATOM     26  C   UNL     1      -2.732   0.597  -2.420  1.00  0.00     0.016 A 
ATOM     27  C   UNL     1      -2.011  -1.619  -2.127  1.00  0.00     0.016 A 
ATOM     28  C   UNL     1      -1.428   1.007  -2.949  1.00  0.00     0.010 A 
ATOM     29  C   UNL     1      -0.736  -1.136  -2.422  1.00  0.00     0.010 A 
ATOM     30  C   UNL     1      -0.316   0.184  -2.772  1.00  0.00    -0.014 A 
BRANCH  30  31
ATOM     31  C   UNL     1       1.239   0.448  -2.818  1.00  0.00     0.031 A 
ATOM     32  C   UNL     1       2.093   1.736  -2.504  1.00  0.00     0.074 A 
ATOM     33  C   UNL     1       1.948  -0.676  -3.140  1.00  0.00     0.049 A 
ATOM     34  N   UNL     1       2.968   2.311  -3.297  1.00  0.00    -0.248 NA
ATOM     35  C   UNL     1       2.167   2.443  -1.206  1.00  0.00     0.031 C 
ATOM     36  C   UNL     1       3.363  -0.960  -3.292  1.00  0.00     0.029 A 
ATOM     37  N   UNL     1       1.400  -1.893  -3.591  1.00  0.00    -0.354 N 
ATOM     38  C   UNL     1       3.747   3.200  -2.509  1.00  0.00     0.074 A 
ATOM     39  C   UNL     1       2.968   3.495  -1.365  1.00  0.00     0.031 C 
ATOM     40  C   UNL     1       3.484  -1.985  -4.177  1.00  0.00     0.029 A 
ATOM     41  C   UNL     1       2.141  -2.325  -4.659  1.00  0.00     0.049 A 
ATOM     42  H   UNL     1       0.620  -2.353  -3.205  1.00  0.00     0.167 HD
ATOM     43  C   UNL     1       5.118   3.282  -2.563  1.00  0.00     0.031 A 
ATOM     44  C   UNL     1       1.549  -2.188  -5.881  1.00  0.00     0.031 A 
ATOM     45  C   UNL     1       5.596   2.275  -3.486  1.00  0.00     0.049 A 
ATOM     46  C   UNL     1       2.363  -1.220  -6.690  1.00  0.00     0.074 A 
ATOM     47  C   UNL     1       6.233   1.060  -3.321  1.00  0.00     0.029 A 
ATOM     48  N   UNL     1       5.100   2.297  -4.767  1.00  0.00    -0.354 N 
ATOM     49  N   UNL     1       3.180  -0.353  -6.160  1.00  0.00    -0.248 NA
ATOM     50  C   UNL     1       2.390  -1.195  -8.141  1.00  0.00     0.031 C 
ATOM     51  C   UNL     1       6.099   0.343  -4.545  1.00  0.00     0.029 A 
ATOM     52  C   UNL     1       5.391   1.134  -5.434  1.00  0.00     0.049 A 
ATOM     53  H   UNL     1       4.599   3.050  -5.156  1.00  0.00     0.167 HD
ATOM     54  C   UNL     1       3.930   0.239  -7.132  1.00  0.00     0.074 A 
ATOM     55  C   UNL     1       3.331  -0.258  -8.362  1.00  0.00     0.031 C 
ATOM     56  C   UNL     1       4.988   1.051  -6.827  1.00  0.00     0.031 A 
BRANCH  43  57
ATOM     57  C   UNL     1       6.088   4.012  -1.600  1.00  0.00    -0.014 A 
ATOM     58  C   UNL     1       7.463   3.664  -1.624  1.00  0.00     0.010 A 
ATOM     59  C   UNL     1       5.766   5.061  -0.707  1.00  0.00     0.010 A 
ATOM     60  C   UNL     1       8.434   4.265  -0.800  1.00  0.00     0.020 A 
ATOM     61  C   UNL     1       6.732   5.669   0.142  1.00  0.00     0.020 A 
ATOM     62  C   UNL     1       8.064   5.266   0.088  1.00  0.00     0.054 A 
BRANCH  62  63
ATOM     63  S   UNL     1       9.352   6.044   1.114  1.00  0.00     0.124 S 
ATOM     64  O   UNL     1       9.880   4.913   1.873  1.00  0.00    -0.237 OA
ATOM     65  O   UNL     1      10.259   6.605   0.116  1.00  0.00    -0.237 OA
ATOM     66  O   UNL     1       8.620   7.029   1.907  1.00  0.00    -0.744 OA
ENDBRANCH  62  63
ENDBRANCH  43  57
BRANCH  44  67
ATOM     67  C   UNL     1       0.031  -2.386  -5.886  1.00  0.00    -0.014 A 
ATOM     68  C   UNL     1      -0.482  -3.611  -5.373  1.00  0.00     0.010 A 
ATOM     69  C   UNL     1      -0.903  -1.343  -6.052  1.00  0.00     0.010 A 
ATOM     70  C   UNL     1      -1.820  -3.758  -4.952  1.00  0.00     0.020 A 
ATOM     71  C   UNL     1      -2.261  -1.492  -5.650  1.00  0.00     0.020 A 
ATOM     72  C   UNL     1      -2.708  -2.693  -5.082  1.00  0.00     0.054 A 
BRANCH  72  73
ATOM     73  S   UNL     1      -4.366  -2.840  -4.300  1.00  0.00     0.124 S 
ATOM     74  O   UNL     1      -5.079  -3.703  -5.236  1.00  0.00    -0.237 OA
ATOM     75  O   UNL     1      -4.066  -3.462  -3.009  1.00  0.00    -0.237 OA
ATOM     76  O   UNL     1      -4.839  -1.461  -4.232  1.00  0.00    -0.744 OA
ENDBRANCH  72  73
ENDBRANCH  44  67
BRANCH  56  77
ATOM     77  C   UNL     1       5.748   1.920  -7.796  1.00  0.00    -0.014 A 
ATOM     78  C   UNL     1       5.808   1.683  -9.166  1.00  0.00     0.010 A 
ATOM     79  C   UNL     1       6.466   3.050  -7.314  1.00  0.00     0.010 A 
ATOM     80  C   UNL     1       6.439   2.583 -10.026  1.00  0.00     0.020 A 
ATOM     81  C   UNL     1       7.115   3.947  -8.154  1.00  0.00     0.020 A 
ATOM     82  C   UNL     1       7.079   3.712  -9.516  1.00  0.00     0.054 A 
BRANCH  82  83
ATOM     83  S   UNL     1       7.911   4.821 -10.662  1.00  0.00     0.124 S 
ATOM     84  O   UNL     1       8.835   3.915 -11.340  1.00  0.00    -0.237 OA
ATOM     85  O   UNL     1       6.799   5.309 -11.473  1.00  0.00    -0.237 OA
ATOM     86  O   UNL     1       8.538   5.817  -9.797  1.00  0.00    -0.744 OA
ENDBRANCH  82  83
ENDBRANCH  56  77
ENDBRANCH  30  31
ENDBRANCH  23  25
ENDBRANCH  22  23
ENDBRANCH  21  22
ENDBRANCH   1  21
TORSDOF 17
