REMARK SMILES C=C(C(=O)OCCOC(=O)c1ccc(-c2c3nc(c(-c4ccc(S(=O)(=O)[O-])cc4)c4ccc([nH]4)c(-c4ccc(S(=O)(=O)[O-])cc4)c4nc(c(-c5ccc(S(=O)(=O)[O-])cc5)c5ccc2[nH]5)C=C4)C=C3)cc1)[C@@H]1CC[C@]2(C)CCCC(=C)[C@H]2[C@H]1O
REMARK SMILES IDX 7 1 6 2 5 3 3 4 4 5 2 6 1 7 71 8 72 9 82 10 73 11 81 12
REMARK SMILES IDX 74 13 79 14 75 15 76 16 78 17 80 18 77 19 83 20 8 22 9 23
REMARK SMILES IDX 10 24 11 25 12 26 70 27 13 28 69 29 14 30 15 31 16 32 63 33
REMARK SMILES IDX 17 34 68 35 62 36 64 37 18 38 67 39 61 40 60 41 19 43 49 44
REMARK SMILES IDX 30 45 48 46 31 47 34 48 47 49 65 50 32 51 33 52 46 54 66 55
REMARK SMILES IDX 35 56 20 57 21 58 29 59 22 60 28 61 23 62 24 63 25 64 26 65
REMARK SMILES IDX 27 66 50 67 51 68 59 69 52 70 58 71 53 72 54 73 55 74 56 75
REMARK SMILES IDX 57 76 36 77 37 78 45 79 38 80 44 81 39 82 40 83 41 84 42 85
REMARK SMILES IDX 43 86
REMARK H PARENT 83 21 64 42 34 53
REMARK Flexibility Score: inf
ROOT
ATOM      1  C   UNL     1      -4.153   1.156   0.461  1.00  0.00     0.275 C 
ENDROOT
BRANCH   1   2
ATOM      2  C   UNL     1      -3.400   0.077  -0.314  1.00  0.00     0.275 C 
BRANCH   2   3
ATOM      3  O   UNL     1      -1.992   0.098  -0.008  1.00  0.00    -0.459 OA
BRANCH   3   4
ATOM      4  C   UNL     1      -1.158   0.626  -0.942  1.00  0.00     0.333 C 
ATOM      5  O   UNL     1      -1.493   1.136  -2.001  1.00  0.00    -0.247 OA
BRANCH   4   6
ATOM      6  C   UNL     1       0.265   0.428  -0.543  1.00  0.00     0.036 C 
ATOM      7  C   UNL     1       0.559  -0.845  -0.207  1.00  0.00     0.020 C 
BRANCH   6   8
ATOM      8  C   UNL     1       1.277   1.557  -0.785  1.00  0.00     0.055 C 
ATOM      9  C   UNL     1       2.740   1.178  -0.467  1.00  0.00     0.012 C 
ATOM     10  C   UNL     1       0.982   2.923  -0.097  1.00  0.00     0.129 C 
ATOM     11  C   UNL     1       3.011   1.113   1.042  1.00  0.00     0.008 C 
ATOM     12  C   UNL     1       1.359   2.999   1.406  1.00  0.00     0.050 C 
ATOM     13  C   UNL     1       2.771   2.454   1.771  1.00  0.00    -0.024 C 
ATOM     14  C   UNL     1       1.164   4.304   2.176  1.00  0.00    -0.071 C 
ATOM     15  C   UNL     1       3.928   3.424   1.421  1.00  0.00     0.012 C 
ATOM     16  C   UNL     1       2.787   2.205   3.315  1.00  0.00     0.008 C 
ATOM     17  C   UNL     1       1.097   4.095   3.670  1.00  0.00     0.031 C 
ATOM     18  C   UNL     1       1.167   5.545   1.671  1.00  0.00     0.008 C 
ATOM     19  C   UNL     1       2.385   3.428   4.157  1.00  0.00     0.005 C 
BRANCH  10  20
ATOM     20  O   UNL     1       1.560   3.958  -0.899  1.00  0.00    -0.392 OA
ATOM     21  H   UNL     1       2.522   3.837  -0.938  1.00  0.00     0.211 HD
ENDBRANCH  10  20
ENDBRANCH   6   8
ENDBRANCH   4   6
ENDBRANCH   3   4
ENDBRANCH   2   3
ENDBRANCH   1   2
BRANCH   1  22
ATOM     22  O   UNL     1      -3.910   2.451  -0.115  1.00  0.00    -0.458 OA
BRANCH  22  23
ATOM     23  C   UNL     1      -2.900   3.132   0.468  1.00  0.00     0.338 C 
ATOM     24  O   UNL     1      -2.239   2.785   1.433  1.00  0.00    -0.246 OA
BRANCH  23  25
ATOM     25  C   UNL     1      -2.634   4.379  -0.260  1.00  0.00     0.060 A 
ATOM     26  C   UNL     1      -1.778   4.341  -1.355  1.00  0.00     0.016 A 
ATOM     27  C   UNL     1      -3.001   5.597   0.301  1.00  0.00     0.016 A 
ATOM     28  C   UNL     1      -1.136   5.503  -1.763  1.00  0.00     0.010 A 
ATOM     29  C   UNL     1      -2.483   6.781  -0.235  1.00  0.00     0.010 A 
ATOM     30  C   UNL     1      -1.493   6.749  -1.234  1.00  0.00    -0.014 A 
BRANCH  30  31
ATOM     31  C   UNL     1      -0.831   8.000  -1.710  1.00  0.00     0.031 A 
ATOM     32  C   UNL     1      -0.226   8.982  -0.732  1.00  0.00     0.074 A 
ATOM     33  C   UNL     1      -0.779   8.270  -3.031  1.00  0.00     0.049 A 
ATOM     34  N   UNL     1       0.248  10.185  -0.942  1.00  0.00    -0.248 NA
ATOM     35  C   UNL     1      -0.135   8.555   0.672  1.00  0.00     0.031 C 
ATOM     36  C   UNL     1      -1.247   7.390  -4.107  1.00  0.00     0.029 A 
ATOM     37  N   UNL     1      -0.324   9.382  -3.698  1.00  0.00    -0.354 N 
ATOM     38  C   UNL     1       0.673  10.655   0.299  1.00  0.00     0.074 A 
ATOM     39  C   UNL     1       0.406   9.611   1.260  1.00  0.00     0.031 C 
ATOM     40  C   UNL     1      -1.047   7.985  -5.288  1.00  0.00     0.029 A 
ATOM     41  C   UNL     1      -0.559   9.335  -5.052  1.00  0.00     0.049 A 
ATOM     42  H   UNL     1       0.125  10.136  -3.252  1.00  0.00     0.167 HD
ATOM     43  C   UNL     1       1.206  11.859   0.618  1.00  0.00     0.031 A 
ATOM     44  C   UNL     1      -0.485  10.289  -5.998  1.00  0.00     0.031 A 
ATOM     45  C   UNL     1       1.390  12.925  -0.332  1.00  0.00     0.049 A 
ATOM     46  C   UNL     1      -0.057  11.668  -5.603  1.00  0.00     0.074 A 
ATOM     47  C   UNL     1       1.872  14.203  -0.112  1.00  0.00     0.029 A 
ATOM     48  N   UNL     1       1.067  12.844  -1.679  1.00  0.00    -0.354 N 
ATOM     49  N   UNL     1       0.309  12.107  -4.423  1.00  0.00    -0.248 NA
ATOM     50  C   UNL     1      -0.042  12.683  -6.662  1.00  0.00     0.031 C 
ATOM     51  C   UNL     1       1.759  14.920  -1.307  1.00  0.00     0.029 A 
ATOM     52  C   UNL     1       1.294  14.063  -2.292  1.00  0.00     0.049 A 
ATOM     53  H   UNL     1       0.727  12.039  -2.131  1.00  0.00     0.167 HD
ATOM     54  C   UNL     1       0.629  13.446  -4.603  1.00  0.00     0.074 A 
ATOM     55  C   UNL     1       0.415  13.742  -6.006  1.00  0.00     0.031 C 
ATOM     56  C   UNL     1       1.072  14.344  -3.689  1.00  0.00     0.031 A 
BRANCH  43  57
ATOM     57  C   UNL     1       1.527  12.123   2.069  1.00  0.00    -0.014 A 
ATOM     58  C   UNL     1       2.601  11.490   2.720  1.00  0.00     0.010 A 
ATOM     59  C   UNL     1       0.741  13.041   2.792  1.00  0.00     0.010 A 
ATOM     60  C   UNL     1       2.856  11.738   4.074  1.00  0.00     0.020 A 
ATOM     61  C   UNL     1       1.008  13.312   4.137  1.00  0.00     0.020 A 
ATOM     62  C   UNL     1       2.053  12.644   4.776  1.00  0.00     0.054 A 
BRANCH  62  63
ATOM     63  S   UNL     1       2.399  12.942   6.532  1.00  0.00     0.124 S 
ATOM     64  O   UNL     1       1.989  11.678   7.139  1.00  0.00    -0.237 OA
ATOM     65  O   UNL     1       3.836  13.204   6.536  1.00  0.00    -0.237 OA
ATOM     66  O   UNL     1       1.558  14.090   6.863  1.00  0.00    -0.744 OA
ENDBRANCH  62  63
ENDBRANCH  43  57
BRANCH  44  67
ATOM     67  C   UNL     1      -0.915   9.965  -7.387  1.00  0.00    -0.014 A 
ATOM     68  C   UNL     1       0.023   9.881  -8.428  1.00  0.00     0.010 A 
ATOM     69  C   UNL     1      -2.265   9.659  -7.654  1.00  0.00     0.010 A 
ATOM     70  C   UNL     1      -0.379   9.487  -9.708  1.00  0.00     0.020 A 
ATOM     71  C   UNL     1      -2.663   9.231  -8.922  1.00  0.00     0.020 A 
ATOM     72  C   UNL     1      -1.716   9.153  -9.944  1.00  0.00     0.054 A 
BRANCH  72  73
ATOM     73  S   UNL     1      -2.192   8.556 -11.589  1.00  0.00     0.124 S 
ATOM     74  O   UNL     1      -2.111   9.774 -12.389  1.00  0.00    -0.237 OA
ATOM     75  O   UNL     1      -1.172   7.547 -11.865  1.00  0.00    -0.237 OA
ATOM     76  O   UNL     1      -3.540   8.028 -11.387  1.00  0.00    -0.744 OA
ENDBRANCH  72  73
ENDBRANCH  44  67
BRANCH  56  77
ATOM     77  C   UNL     1       1.414  15.722  -4.183  1.00  0.00    -0.014 A 
ATOM     78  C   UNL     1       0.418  16.638  -4.564  1.00  0.00     0.010 A 
ATOM     79  C   UNL     1       2.763  16.123  -4.201  1.00  0.00     0.010 A 
ATOM     80  C   UNL     1       0.770  17.926  -4.975  1.00  0.00     0.020 A 
ATOM     81  C   UNL     1       3.115  17.419  -4.581  1.00  0.00     0.020 A 
ATOM     82  C   UNL     1       2.115  18.309  -4.976  1.00  0.00     0.054 A 
BRANCH  82  83
ATOM     83  S   UNL     1       2.540  20.005  -5.455  1.00  0.00     0.124 S 
ATOM     84  O   UNL     1       2.300  19.983  -6.896  1.00  0.00    -0.237 OA
ATOM     85  O   UNL     1       1.598  20.803  -4.673  1.00  0.00    -0.237 OA
ATOM     86  O   UNL     1       3.940  20.139  -5.059  1.00  0.00    -0.744 OA
ENDBRANCH  82  83
ENDBRANCH  56  77
ENDBRANCH  30  31
ENDBRANCH  23  25
ENDBRANCH  22  23
ENDBRANCH   1  22
TORSDOF 16
