REMARK SMILES NS(=O)(=O)c1ccc(-n2nc(C(=O)NCCCCCCCCCCC(=O)OCCOC(=O)c3ccc(-c4c5nc(c(-c6ccc(S(=O)(=O)[O-])cc6)c6ccc([nH]6)c(-c6ccc(S(=O)(=O)[O-])cc6)c6nc(c(-c7ccc(S(=O)(=O)[O-])cc7)c7ccc4[nH]7)C=C6)C=C5)cc3)cc2-c2ccccc2)cc1
REMARK SMILES IDX 22 1 21 2 20 3 19 4 18 5 17 6 16 7 15 8 14 9 12 10 13 11
REMARK SMILES IDX 11 13 9 14 10 15 94 16 93 17 8 18 5 19 6 20 102 21 7 22
REMARK SMILES IDX 101 23 2 24 3 25 4 26 1 27 95 30 96 31 100 32 97 33 99 34
REMARK SMILES IDX 98 35 23 36 24 37 25 38 26 39 27 40 28 41 29 42 30 43 31 44
REMARK SMILES IDX 32 45 33 46 34 47 92 48 35 49 91 50 36 51 37 52 38 53 85 54
REMARK SMILES IDX 39 55 90 56 84 57 86 58 40 59 89 60 83 61 82 62 41 64 71 65
REMARK SMILES IDX 52 66 70 67 53 68 56 69 69 70 87 71 54 72 55 73 68 75 88 76
REMARK SMILES IDX 57 77 42 78 43 79 51 80 44 81 50 82 45 83 46 84 47 85 48 86
REMARK SMILES IDX 49 87 72 88 73 89 81 90 74 91 80 92 75 93 76 94 77 95 78 96
REMARK SMILES IDX 79 97 58 98 59 99 67 100 60 101 66 102 61 103 62 104 63 105
REMARK SMILES IDX 64 106 65 107
REMARK H PARENT 14 12 1 28 1 29 86 63 56 74
REMARK Flexibility Score: inf
ROOT
ATOM      1  C   UNL     1       2.783 -15.556  -7.973  1.00  0.00     0.001 C 
ENDROOT
BRANCH   1   2
ATOM      2  C   UNL     1       3.493 -14.217  -8.173  1.00  0.00     0.000 C 
BRANCH   2   3
ATOM      3  C   UNL     1       2.655 -13.047  -7.657  1.00  0.00     0.000 C 
BRANCH   3   4
ATOM      4  C   UNL     1       2.384 -13.147  -6.155  1.00  0.00     0.000 C 
BRANCH   4   5
ATOM      5  C   UNL     1       3.675 -13.198  -5.331  1.00  0.00     0.000 C 
BRANCH   5   6
ATOM      6  C   UNL     1       4.487 -11.898  -5.412  1.00  0.00     0.002 C 
BRANCH   6   7
ATOM      7  C   UNL     1       3.683 -10.668  -4.982  1.00  0.00     0.021 C 
BRANCH   7   8
ATOM      8  C   UNL     1       3.212 -10.804  -3.537  1.00  0.00     0.116 C 
BRANCH   8   9
ATOM      9  N   UNL     1       4.186 -10.219  -2.652  1.00  0.00    -0.351 N 
ATOM     10  C   UNL     1       4.263  -8.996  -2.038  1.00  0.00     0.271 C 
ATOM     11  O   UNL     1       5.323  -8.765  -1.448  1.00  0.00    -0.267 OA
ATOM     12  H   UNL     1       4.945 -10.813  -2.448  1.00  0.00     0.163 HD
BRANCH  10  13
ATOM     13  C   UNL     1       3.132  -8.044  -2.034  1.00  0.00     0.151 A 
ATOM     14  N   UNL     1       1.991  -6.378  -1.301  1.00  0.00    -0.232 N 
ATOM     15  N   UNL     1       3.230  -6.908  -1.315  1.00  0.00    -0.162 NA
ATOM     16  C   UNL     1       1.127  -7.039  -2.149  1.00  0.00     0.075 A 
ATOM     17  C   UNL     1       1.873  -8.066  -2.681  1.00  0.00     0.065 A 
BRANCH  14  18
ATOM     18  C   UNL     1       1.721  -5.216  -0.549  1.00  0.00     0.065 A 
ATOM     19  C   UNL     1       1.029  -2.799   0.599  1.00  0.00     0.082 A 
ATOM     20  C   UNL     1       0.175  -3.897   0.747  1.00  0.00     0.024 A 
ATOM     21  C   UNL     1       2.249  -2.916  -0.078  1.00  0.00     0.024 A 
ATOM     22  C   UNL     1       0.520  -5.111   0.164  1.00  0.00     0.030 A 
ATOM     23  C   UNL     1       2.613  -4.141  -0.631  1.00  0.00     0.030 A 
BRANCH  19  24
ATOM     24  S   UNL     1       0.495  -1.235   1.216  1.00  0.00     0.238 S 
ATOM     25  O   UNL     1       1.168  -0.978   2.468  1.00  0.00    -0.207 OA
ATOM     26  O   UNL     1      -0.937  -1.133   1.060  1.00  0.00    -0.207 OA
BRANCH  24  27
ATOM     27  N   UNL     1       1.125  -0.135   0.111  1.00  0.00    -0.225 NA
ATOM     28  H   UNL     1       0.865   0.812   0.388  1.00  0.00     0.137 HD
ATOM     29  H   UNL     1       0.751  -0.332  -0.817  1.00  0.00     0.137 HD
ENDBRANCH  24  27
ENDBRANCH  19  24
ENDBRANCH  14  18
BRANCH  16  30
ATOM     30  C   UNL     1      -0.231  -6.640  -2.502  1.00  0.00     0.000 A 
ATOM     31  C   UNL     1      -0.484  -5.382  -3.062  1.00  0.00     0.010 A 
ATOM     32  C   UNL     1      -1.293  -7.532  -2.311  1.00  0.00     0.010 A 
ATOM     33  C   UNL     1      -1.784  -5.010  -3.401  1.00  0.00     0.001 A 
ATOM     34  C   UNL     1      -2.594  -7.160  -2.654  1.00  0.00     0.001 A 
ATOM     35  C   UNL     1      -2.838  -5.899  -3.196  1.00  0.00     0.000 A 
ENDBRANCH  16  30
ENDBRANCH  10  13
ENDBRANCH   8   9
ENDBRANCH   7   8
ENDBRANCH   6   7
ENDBRANCH   5   6
ENDBRANCH   4   5
ENDBRANCH   3   4
ENDBRANCH   2   3
ENDBRANCH   1   2
BRANCH   1  36
ATOM     36  C   UNL     1       1.600 -15.733  -8.928  1.00  0.00     0.012 C 
BRANCH  36  37
ATOM     37  C   UNL     1       1.917 -15.591 -10.420  1.00  0.00     0.123 C 
BRANCH  37  38
ATOM     38  C   UNL     1       2.988 -16.488 -11.013  1.00  0.00     0.305 C 
ATOM     39  O   UNL     1       2.882 -17.005 -12.119  1.00  0.00    -0.252 OA
BRANCH  38  40
ATOM     40  O   UNL     1       4.089 -16.587 -10.226  1.00  0.00    -0.462 OA
BRANCH  40  41
ATOM     41  C   UNL     1       5.076 -17.576 -10.573  1.00  0.00     0.274 C 
BRANCH  41  42
ATOM     42  C   UNL     1       4.760 -18.929  -9.947  1.00  0.00     0.275 C 
BRANCH  42  43
ATOM     43  O   UNL     1       3.536 -19.446 -10.464  1.00  0.00    -0.458 OA
BRANCH  43  44
ATOM     44  C   UNL     1       2.470 -19.230  -9.664  1.00  0.00     0.338 C 
ATOM     45  O   UNL     1       2.443 -18.565  -8.644  1.00  0.00    -0.246 OA
BRANCH  44  46
ATOM     46  C   UNL     1       1.346 -20.060 -10.082  1.00  0.00     0.060 A 
ATOM     47  C   UNL     1       0.069 -19.724  -9.616  1.00  0.00     0.016 A 
ATOM     48  C   UNL     1       1.642 -21.316 -10.620  1.00  0.00     0.016 A 
ATOM     49  C   UNL     1      -0.878 -20.721  -9.526  1.00  0.00     0.010 A 
ATOM     50  C   UNL     1       0.709 -22.312 -10.499  1.00  0.00     0.010 A 
ATOM     51  C   UNL     1      -0.509 -22.020  -9.886  1.00  0.00    -0.014 A 
BRANCH  51  52
ATOM     52  C   UNL     1      -1.457 -23.094  -9.684  1.00  0.00     0.031 A 
ATOM     53  C   UNL     1      -2.527 -23.138 -10.706  1.00  0.00     0.074 A 
ATOM     54  C   UNL     1      -1.240 -24.065  -8.777  1.00  0.00     0.049 A 
ATOM     55  N   UNL     1      -3.801 -23.021 -10.539  1.00  0.00    -0.248 NA
ATOM     56  C   UNL     1      -2.100 -23.173 -12.117  1.00  0.00     0.031 C 
ATOM     57  C   UNL     1      -0.040 -24.279  -7.960  1.00  0.00     0.029 A 
ATOM     58  N   UNL     1      -1.994 -25.161  -8.507  1.00  0.00    -0.354 N 
ATOM     59  C   UNL     1      -4.351 -23.183 -11.806  1.00  0.00     0.074 A 
ATOM     60  C   UNL     1      -3.267 -23.066 -12.747  1.00  0.00     0.031 C 
ATOM     61  C   UNL     1      -0.049 -25.546  -7.486  1.00  0.00     0.029 A 
ATOM     62  C   UNL     1      -1.304 -26.178  -7.858  1.00  0.00     0.049 A 
ATOM     63  H   UNL     1      -2.946 -25.229  -8.748  1.00  0.00     0.167 HD
ATOM     64  C   UNL     1      -5.602 -23.682 -11.991  1.00  0.00     0.031 A 
ATOM     65  C   UNL     1      -1.709 -27.467  -7.729  1.00  0.00     0.031 A 
ATOM     66  C   UNL     1      -6.403 -23.602 -10.800  1.00  0.00     0.049 A 
ATOM     67  C   UNL     1      -3.166 -27.505  -8.011  1.00  0.00     0.074 A 
ATOM     68  C   UNL     1      -6.803 -22.567  -9.978  1.00  0.00     0.029 A 
ATOM     69  N   UNL     1      -6.573 -24.754 -10.069  1.00  0.00    -0.354 N 
ATOM     70  N   UNL     1      -4.066 -26.955  -7.247  1.00  0.00    -0.248 NA
ATOM     71  C   UNL     1      -3.594 -27.781  -9.375  1.00  0.00     0.031 C 
ATOM     72  C   UNL     1      -6.733 -23.097  -8.656  1.00  0.00     0.029 A 
ATOM     73  C   UNL     1      -6.358 -24.439  -8.750  1.00  0.00     0.049 A 
ATOM     74  H   UNL     1      -6.806 -25.642 -10.426  1.00  0.00     0.167 HD
ATOM     75  C   UNL     1      -5.007 -26.431  -8.122  1.00  0.00     0.074 A 
ATOM     76  C   UNL     1      -4.718 -27.060  -9.408  1.00  0.00     0.031 C 
ATOM     77  C   UNL     1      -5.749 -25.333  -7.787  1.00  0.00     0.031 A 
BRANCH  64  78
ATOM     78  C   UNL     1      -5.927 -24.593 -13.147  1.00  0.00    -0.014 A 
ATOM     79  C   UNL     1      -7.262 -24.948 -13.402  1.00  0.00     0.010 A 
ATOM     80  C   UNL     1      -4.927 -25.309 -13.845  1.00  0.00     0.010 A 
ATOM     81  C   UNL     1      -7.575 -25.984 -14.295  1.00  0.00     0.020 A 
ATOM     82  C   UNL     1      -5.227 -26.304 -14.772  1.00  0.00     0.020 A 
ATOM     83  C   UNL     1      -6.553 -26.657 -14.970  1.00  0.00     0.054 A 
BRANCH  83  84
ATOM     84  S   UNL     1      -6.957 -28.037 -16.066  1.00  0.00     0.124 S 
ATOM     85  O   UNL     1      -7.430 -29.041 -15.118  1.00  0.00    -0.237 OA
ATOM     86  O   UNL     1      -7.976 -27.454 -16.935  1.00  0.00    -0.237 OA
ATOM     87  O   UNL     1      -5.686 -28.338 -16.720  1.00  0.00    -0.744 OA
ENDBRANCH  83  84
ENDBRANCH  64  78
BRANCH  65  88
ATOM     88  C   UNL     1      -0.884 -28.700  -7.707  1.00  0.00    -0.014 A 
ATOM     89  C   UNL     1      -1.452 -29.932  -7.330  1.00  0.00     0.010 A 
ATOM     90  C   UNL     1       0.376 -28.726  -8.339  1.00  0.00     0.010 A 
ATOM     91  C   UNL     1      -0.822 -31.146  -7.645  1.00  0.00     0.020 A 
ATOM     92  C   UNL     1       1.016 -29.933  -8.647  1.00  0.00     0.020 A 
ATOM     93  C   UNL     1       0.398 -31.139  -8.325  1.00  0.00     0.054 A 
BRANCH  93  94
ATOM     94  S   UNL     1       1.102 -32.709  -8.911  1.00  0.00     0.124 S 
ATOM     95  O   UNL     1       1.532 -33.341  -7.667  1.00  0.00    -0.237 OA
ATOM     96  O   UNL     1      -0.035 -33.336  -9.579  1.00  0.00    -0.237 OA
ATOM     97  O   UNL     1       2.184 -32.290  -9.801  1.00  0.00    -0.744 OA
ENDBRANCH  93  94
ENDBRANCH  65  88
BRANCH  77  98
ATOM     98  C   UNL     1      -5.744 -24.880  -6.341  1.00  0.00    -0.014 A 
ATOM     99  C   UNL     1      -4.580 -24.524  -5.630  1.00  0.00     0.010 A 
ATOM    100  C   UNL     1      -6.988 -24.698  -5.712  1.00  0.00     0.010 A 
ATOM    101  C   UNL     1      -4.659 -24.045  -4.313  1.00  0.00     0.020 A 
ATOM    102  C   UNL     1      -7.076 -24.201  -4.409  1.00  0.00     0.020 A 
ATOM    103  C   UNL     1      -5.910 -23.892  -3.708  1.00  0.00     0.054 A 
BRANCH 103 104
ATOM    104  S   UNL     1      -6.010 -23.259  -2.010  1.00  0.00     0.124 S 
ATOM    105  O   UNL     1      -5.433 -24.349  -1.230  1.00  0.00    -0.237 OA
ATOM    106  O   UNL     1      -5.212 -22.037  -2.071  1.00  0.00    -0.237 OA
ATOM    107  O   UNL     1      -7.442 -23.042  -1.804  1.00  0.00    -0.744 OA
ENDBRANCH 103 104
ENDBRANCH  77  98
ENDBRANCH  51  52
ENDBRANCH  44  46
ENDBRANCH  43  44
ENDBRANCH  42  43
ENDBRANCH  41  42
ENDBRANCH  40  41
ENDBRANCH  38  40
ENDBRANCH  37  38
ENDBRANCH  36  37
ENDBRANCH   1  36
TORSDOF 29
