REMARK SMILES O=C(OCCOC(=O)C1(Cc2nccs2)CC1)c1ccc(-c2c3nc(c(-c4ccc(S(=O)(=O)[O-])cc4)c4ccc([nH]4)c(-c4ccc(S(=O)(=O)[O-])cc4)c4nc(c(-c5ccc(S(=O)(=O)[O-])cc5)c5ccc2[nH]5)C=C4)C=C3)cc1
REMARK SMILES IDX 4 1 3 2 2 3 1 4 18 5 19 6 77 7 20 8 76 9 21 10 22 11 23 12
REMARK SMILES IDX 70 13 24 14 75 15 69 16 71 17 25 18 74 19 68 20 67 21 26 23
REMARK SMILES IDX 56 24 37 25 55 26 38 27 41 28 54 29 72 30 39 31 40 32 53 34
REMARK SMILES IDX 73 35 42 36 27 37 28 38 36 39 29 40 35 41 30 42 31 43 32 44
REMARK SMILES IDX 33 45 34 46 57 47 58 48 66 49 59 50 65 51 60 52 61 53 62 54
REMARK SMILES IDX 63 55 64 56 43 57 44 58 52 59 45 60 51 61 46 62 47 63 48 64
REMARK SMILES IDX 49 65 50 66 5 67 6 68 7 69 8 70 9 71 16 72 17 73 10 74 11 75
REMARK SMILES IDX 12 76 15 77 13 78 14 79
REMARK H PARENT 71 22 41 33
REMARK Flexibility Score: inf
ROOT
ATOM      1  C   UNL     1       4.840  -1.200  -1.598  1.00  0.00     0.275 C 
ENDROOT
BRANCH   1   2
ATOM      2  O   UNL     1       5.181  -1.081  -0.217  1.00  0.00    -0.458 OA
BRANCH   2   3
ATOM      3  C   UNL     1       4.213  -0.738   0.655  1.00  0.00     0.338 C 
ATOM      4  O   UNL     1       3.256  -1.433   0.939  1.00  0.00    -0.246 OA
BRANCH   3   5
ATOM      5  C   UNL     1       4.544   0.621   1.173  1.00  0.00     0.060 A 
ATOM      6  C   UNL     1       5.644   1.325   0.658  1.00  0.00     0.016 A 
ATOM      7  C   UNL     1       3.701   1.243   2.094  1.00  0.00     0.016 A 
ATOM      8  C   UNL     1       5.905   2.625   1.061  1.00  0.00     0.010 A 
ATOM      9  C   UNL     1       3.931   2.574   2.458  1.00  0.00     0.010 A 
ATOM     10  C   UNL     1       5.053   3.260   1.967  1.00  0.00    -0.014 A 
BRANCH  10  11
ATOM     11  C   UNL     1       5.488   4.566   2.509  1.00  0.00     0.031 A 
ATOM     12  C   UNL     1       6.000   4.606   3.920  1.00  0.00     0.074 A 
ATOM     13  C   UNL     1       5.573   5.645   1.705  1.00  0.00     0.049 A 
ATOM     14  N   UNL     1       6.648   5.559   4.534  1.00  0.00    -0.248 NA
ATOM     15  C   UNL     1       5.762   3.411   4.747  1.00  0.00     0.031 C 
ATOM     16  C   UNL     1       5.127   5.698   0.310  1.00  0.00     0.029 A 
ATOM     17  N   UNL     1       6.111   6.887   1.926  1.00  0.00    -0.354 N 
ATOM     18  C   UNL     1       6.896   5.073   5.812  1.00  0.00     0.074 A 
ATOM     19  C   UNL     1       6.264   3.780   5.912  1.00  0.00     0.031 C 
ATOM     20  C   UNL     1       5.445   6.894  -0.212  1.00  0.00     0.029 A 
ATOM     21  C   UNL     1       6.121   7.691   0.808  1.00  0.00     0.049 A 
ATOM     22  H   UNL     1       6.457   7.176   2.800  1.00  0.00     0.167 HD
ATOM     23  C   UNL     1       7.624   5.632   6.805  1.00  0.00     0.031 A 
ATOM     24  C   UNL     1       6.655   8.914   0.620  1.00  0.00     0.031 A 
ATOM     25  C   UNL     1       8.255   6.914   6.692  1.00  0.00     0.049 A 
ATOM     26  C   UNL     1       7.433   9.535   1.750  1.00  0.00     0.074 A 
ATOM     27  C   UNL     1       9.016   7.589   7.625  1.00  0.00     0.029 A 
ATOM     28  N   UNL     1       8.192   7.715   5.560  1.00  0.00    -0.354 N 
ATOM     29  N   UNL     1       7.699   9.040   2.937  1.00  0.00    -0.248 NA
ATOM     30  C   UNL     1       8.011  10.863   1.506  1.00  0.00     0.031 C 
ATOM     31  C   UNL     1       9.385   8.819   7.068  1.00  0.00     0.029 A 
ATOM     32  C   UNL     1       8.894   8.886   5.772  1.00  0.00     0.049 A 
ATOM     33  H   UNL     1       7.717   7.484   4.729  1.00  0.00     0.167 HD
ATOM     34  C   UNL     1       8.510   9.977   3.566  1.00  0.00     0.074 A 
ATOM     35  C   UNL     1       8.692  11.066   2.626  1.00  0.00     0.031 C 
ATOM     36  C   UNL     1       9.063   9.941   4.804  1.00  0.00     0.031 A 
BRANCH  23  37
ATOM     37  C   UNL     1       7.728   4.846   8.083  1.00  0.00    -0.014 A 
ATOM     38  C   UNL     1       8.459   3.643   8.139  1.00  0.00     0.010 A 
ATOM     39  C   UNL     1       7.010   5.264   9.216  1.00  0.00     0.010 A 
ATOM     40  C   UNL     1       8.398   2.831   9.274  1.00  0.00     0.020 A 
ATOM     41  C   UNL     1       6.973   4.470  10.365  1.00  0.00     0.020 A 
ATOM     42  C   UNL     1       7.639   3.242  10.373  1.00  0.00     0.054 A 
BRANCH  42  43
ATOM     43  S   UNL     1       7.522   2.144  11.812  1.00  0.00     0.124 S 
ATOM     44  O   UNL     1       6.582   1.131  11.340  1.00  0.00    -0.237 OA
ATOM     45  O   UNL     1       8.900   1.690  11.985  1.00  0.00    -0.237 OA
ATOM     46  O   UNL     1       7.020   3.016  12.871  1.00  0.00    -0.744 OA
ENDBRANCH  42  43
ENDBRANCH  23  37
BRANCH  24  47
ATOM     47  C   UNL     1       6.530   9.598  -0.699  1.00  0.00    -0.014 A 
ATOM     48  C   UNL     1       7.649   9.767  -1.534  1.00  0.00     0.010 A 
ATOM     49  C   UNL     1       5.282  10.086  -1.131  1.00  0.00     0.010 A 
ATOM     50  C   UNL     1       7.529  10.427  -2.763  1.00  0.00     0.020 A 
ATOM     51  C   UNL     1       5.152  10.726  -2.368  1.00  0.00     0.020 A 
ATOM     52  C   UNL     1       6.280  10.902  -3.172  1.00  0.00     0.054 A 
BRANCH  52  53
ATOM     53  S   UNL     1       6.139  11.718  -4.789  1.00  0.00     0.124 S 
ATOM     54  O   UNL     1       6.813  12.990  -4.548  1.00  0.00    -0.237 OA
ATOM     55  O   UNL     1       6.839  10.788  -5.672  1.00  0.00    -0.237 OA
ATOM     56  O   UNL     1       4.697  11.803  -5.005  1.00  0.00    -0.744 OA
ENDBRANCH  52  53
ENDBRANCH  24  47
BRANCH  36  57
ATOM     57  C   UNL     1       9.955  11.085   5.195  1.00  0.00    -0.014 A 
ATOM     58  C   UNL     1       9.424  12.343   5.524  1.00  0.00     0.010 A 
ATOM     59  C   UNL     1      11.340  10.866   5.314  1.00  0.00     0.010 A 
ATOM     60  C   UNL     1      10.269  13.372   5.946  1.00  0.00     0.020 A 
ATOM     61  C   UNL     1      12.183  11.884   5.760  1.00  0.00     0.020 A 
ATOM     62  C   UNL     1      11.643  13.135   6.063  1.00  0.00     0.054 A 
BRANCH  62  63
ATOM     63  S   UNL     1      12.710  14.466   6.675  1.00  0.00     0.124 S 
ATOM     64  O   UNL     1      12.811  15.335   5.506  1.00  0.00    -0.237 OA
ATOM     65  O   UNL     1      11.942  15.005   7.795  1.00  0.00    -0.237 OA
ATOM     66  O   UNL     1      13.943  13.776   7.049  1.00  0.00    -0.744 OA
ENDBRANCH  62  63
ENDBRANCH  36  57
ENDBRANCH  10  11
ENDBRANCH   3   5
ENDBRANCH   2   3
ENDBRANCH   1   2
BRANCH   1  67
ATOM     67  C   UNL     1       3.731  -0.326  -2.225  1.00  0.00     0.274 C 
BRANCH  67  68
ATOM     68  O   UNL     1       3.267   0.807  -1.472  1.00  0.00    -0.462 OA
BRANCH  68  69
ATOM     69  C   UNL     1       1.930   1.076  -1.622  1.00  0.00     0.312 C 
ATOM     70  O   UNL     1       1.135   0.396  -2.256  1.00  0.00    -0.252 OA
BRANCH  69  71
ATOM     71  C   UNL     1       1.519   2.425  -1.090  1.00  0.00     0.074 C 
ATOM     72  C   UNL     1       2.309   3.649  -1.548  1.00  0.00     0.020 C 
ATOM     73  C   UNL     1       0.962   3.393  -2.139  1.00  0.00     0.020 C 
BRANCH  71  74
ATOM     74  C   UNL     1       0.914   2.535   0.303  1.00  0.00     0.086 C 
BRANCH  74  75
ATOM     75  C   UNL     1       0.197   1.359   0.892  1.00  0.00     0.094 A 
ATOM     76  N   UNL     1       0.787   0.235   1.226  1.00  0.00    -0.250 NA
ATOM     77  S   UNL     1      -1.456   1.478   1.362  1.00  0.00    -0.127 S 
ATOM     78  C   UNL     1      -0.075  -0.566   1.945  1.00  0.00     0.123 A 
ATOM     79  C   UNL     1      -1.337  -0.049   2.134  1.00  0.00     0.087 A 
ENDBRANCH  74  75
ENDBRANCH  71  74
ENDBRANCH  69  71
ENDBRANCH  68  69
ENDBRANCH  67  68
ENDBRANCH   1  67
TORSDOF 16
