REMARK SMILES O=C(Cc1cccn(C(F)F)c1=O)OCCOC(=O)c1ccc(-c2c3nc(c(-c4ccc(S(=O)(=O)[O-])cc4)c4ccc([nH]4)c(-c4ccc(S(=O)(=O)[O-])cc4)c4nc(c(-c5ccc(S(=O)(=O)[O-])cc5)c5ccc2[nH]5)C=C4)C=C3)cc1
REMARK SMILES IDX 16 1 15 2 14 3 2 4 1 5 3 6 4 7 5 8 12 9 6 10 8 11 13 12 7 13
REMARK SMILES IDX 9 14 10 15 11 16 17 17 18 18 19 19 20 20 21 21 79 22 22 23
REMARK SMILES IDX 78 24 23 25 24 26 25 27 72 28 26 29 77 30 71 31 73 32 27 33
REMARK SMILES IDX 76 34 70 35 69 36 28 38 58 39 39 40 57 41 40 42 43 43 56 44
REMARK SMILES IDX 74 45 41 46 42 47 55 49 75 50 44 51 29 52 30 53 38 54 31 55
REMARK SMILES IDX 37 56 32 57 33 58 34 59 35 60 36 61 59 62 60 63 68 64 61 65
REMARK SMILES IDX 67 66 62 67 63 68 64 69 65 70 66 71 45 72 46 73 54 74 47 75
REMARK SMILES IDX 53 76 48 77 49 78 50 79 51 80 52 81
REMARK H PARENT 73 37 43 48
REMARK Flexibility Score: inf
ROOT
ATOM      1  C   UNL     1       4.396   1.336  -1.351  1.00  0.00     0.275 C 
ENDROOT
BRANCH   1   2
ATOM      2  C   UNL     1       4.357  -0.102  -0.834  1.00  0.00     0.274 C 
BRANCH   2   3
ATOM      3  O   UNL     1       3.005  -0.604  -0.813  1.00  0.00    -0.462 OA
BRANCH   3   4
ATOM      4  C   UNL     1       2.171  -0.618   0.252  1.00  0.00     0.310 C 
ATOM      5  O   UNL     1       0.975  -0.861   0.090  1.00  0.00    -0.252 OA
BRANCH   4   6
ATOM      6  C   UNL     1       2.703  -0.258   1.631  1.00  0.00     0.164 C 
BRANCH   6   7
ATOM      7  C   UNL     1       3.689  -1.159   2.302  1.00  0.00     0.029 A 
ATOM      8  C   UNL     1       4.626  -0.674   3.139  1.00  0.00     0.011 A 
ATOM      9  C   UNL     1       3.628  -2.636   2.065  1.00  0.00     0.258 A 
ATOM     10  C   UNL     1       5.542  -1.543   3.826  1.00  0.00     0.019 A 
ATOM     11  N   UNL     1       4.548  -3.402   2.758  1.00  0.00    -0.258 N 
ATOM     12  O   UNL     1       2.812  -3.105   1.279  1.00  0.00    -0.269 OA
ATOM     13  C   UNL     1       5.476  -2.863   3.627  1.00  0.00     0.095 A 
BRANCH  11  14
ATOM     14  C   UNL     1       4.503  -4.828   2.563  1.00  0.00     0.451 C 
ATOM     15  F   UNL     1       5.730  -5.269   2.171  1.00  0.00    -0.185 F 
ATOM     16  F   UNL     1       4.240  -5.444   3.745  1.00  0.00    -0.185 F 
ENDBRANCH  11  14
ENDBRANCH   6   7
ENDBRANCH   4   6
ENDBRANCH   3   4
ENDBRANCH   2   3
ENDBRANCH   1   2
BRANCH   1  17
ATOM     17  O   UNL     1       3.973   2.222  -0.301  1.00  0.00    -0.458 OA
BRANCH  17  18
ATOM     18  C   UNL     1       2.705   2.699  -0.382  1.00  0.00     0.338 C 
ATOM     19  O   UNL     1       1.942   2.589  -1.325  1.00  0.00    -0.246 OA
BRANCH  18  20
ATOM     20  C   UNL     1       2.315   3.179   0.966  1.00  0.00     0.060 A 
ATOM     21  C   UNL     1       3.247   3.776   1.823  1.00  0.00     0.016 A 
ATOM     22  C   UNL     1       1.010   2.929   1.411  1.00  0.00     0.016 A 
ATOM     23  C   UNL     1       2.867   4.131   3.119  1.00  0.00     0.010 A 
ATOM     24  C   UNL     1       0.630   3.293   2.706  1.00  0.00     0.010 A 
ATOM     25  C   UNL     1       1.552   3.910   3.563  1.00  0.00    -0.014 A 
BRANCH  25  26
ATOM     26  C   UNL     1       1.107   4.521   4.839  1.00  0.00     0.031 A 
ATOM     27  C   UNL     1       0.971   3.739   6.108  1.00  0.00     0.074 A 
ATOM     28  C   UNL     1       0.845   5.842   4.830  1.00  0.00     0.049 A 
ATOM     29  N   UNL     1       0.733   4.186   7.315  1.00  0.00    -0.248 NA
ATOM     30  C   UNL     1       1.120   2.280   6.022  1.00  0.00     0.031 C 
ATOM     31  C   UNL     1       0.921   6.697   3.643  1.00  0.00     0.029 A 
ATOM     32  N   UNL     1       0.482   6.695   5.838  1.00  0.00    -0.354 N 
ATOM     33  C   UNL     1       0.734   3.072   8.143  1.00  0.00     0.074 A 
ATOM     34  C   UNL     1       0.950   1.920   7.290  1.00  0.00     0.031 C 
ATOM     35  C   UNL     1       0.646   7.960   3.998  1.00  0.00     0.029 A 
ATOM     36  C   UNL     1       0.351   8.000   5.428  1.00  0.00     0.049 A 
ATOM     37  H   UNL     1       0.330   6.402   6.766  1.00  0.00     0.167 HD
ATOM     38  C   UNL     1       0.586   3.024   9.490  1.00  0.00     0.031 A 
ATOM     39  C   UNL     1       0.044   9.114   6.119  1.00  0.00     0.031 A 
ATOM     40  C   UNL     1       0.325   4.174  10.323  1.00  0.00     0.049 A 
ATOM     41  C   UNL     1      -0.159   9.030   7.601  1.00  0.00     0.074 A 
ATOM     42  C   UNL     1       0.192   4.221  11.701  1.00  0.00     0.029 A 
ATOM     43  N   UNL     1       0.141   5.471   9.866  1.00  0.00    -0.354 N 
ATOM     44  N   UNL     1      -0.079   7.977   8.379  1.00  0.00    -0.248 NA
ATOM     45  C   UNL     1      -0.471  10.281   8.302  1.00  0.00     0.031 C 
ATOM     46  C   UNL     1      -0.136   5.529  12.069  1.00  0.00     0.029 A 
ATOM     47  C   UNL     1      -0.138   6.317  10.930  1.00  0.00     0.049 A 
ATOM     48  H   UNL     1       0.199   5.751   8.923  1.00  0.00     0.167 HD
ATOM     49  C   UNL     1      -0.328   8.439   9.665  1.00  0.00     0.074 A 
ATOM     50  C   UNL     1      -0.533   9.871   9.563  1.00  0.00     0.031 C 
ATOM     51  C   UNL     1      -0.381   7.736  10.823  1.00  0.00     0.031 A 
BRANCH  38  52
ATOM     52  C   UNL     1       0.723   1.688  10.174  1.00  0.00    -0.014 A 
ATOM     53  C   UNL     1      -0.385   1.102  10.816  1.00  0.00     0.010 A 
ATOM     54  C   UNL     1       1.985   1.079  10.300  1.00  0.00     0.010 A 
ATOM     55  C   UNL     1      -0.228  -0.051  11.592  1.00  0.00     0.020 A 
ATOM     56  C   UNL     1       2.141  -0.087  11.056  1.00  0.00     0.020 A 
ATOM     57  C   UNL     1       1.037  -0.631  11.716  1.00  0.00     0.054 A 
BRANCH  57  58
ATOM     58  S   UNL     1       1.230  -2.111  12.749  1.00  0.00     0.124 S 
ATOM     59  O   UNL     1       1.197  -1.552  14.097  1.00  0.00    -0.237 OA
ATOM     60  O   UNL     1       0.074  -2.920  12.370  1.00  0.00    -0.237 OA
ATOM     61  O   UNL     1       2.522  -2.652  12.328  1.00  0.00    -0.744 OA
ENDBRANCH  57  58
ENDBRANCH  38  52
BRANCH  39  62
ATOM     62  C   UNL     1      -0.023  10.404   5.384  1.00  0.00    -0.014 A 
ATOM     63  C   UNL     1      -1.063  10.640   4.466  1.00  0.00     0.010 A 
ATOM     64  C   UNL     1       1.021  11.337   5.497  1.00  0.00     0.010 A 
ATOM     65  C   UNL     1      -1.023  11.753   3.624  1.00  0.00     0.020 A 
ATOM     66  C   UNL     1       1.050  12.466   4.675  1.00  0.00     0.020 A 
ATOM     67  C   UNL     1       0.045  12.648   3.720  1.00  0.00     0.054 A 
BRANCH  67  68
ATOM     68  S   UNL     1       0.125  14.039   2.560  1.00  0.00     0.124 S 
ATOM     69  O   UNL     1       0.602  13.384   1.344  1.00  0.00    -0.237 OA
ATOM     70  O   UNL     1      -1.258  14.506   2.523  1.00  0.00    -0.237 OA
ATOM     71  O   UNL     1       1.073  14.954   3.191  1.00  0.00    -0.744 OA
ENDBRANCH  67  68
ENDBRANCH  39  62
BRANCH  51  72
ATOM     72  C   UNL     1      -0.704   8.492  12.086  1.00  0.00    -0.014 A 
ATOM     73  C   UNL     1       0.273   8.641  13.088  1.00  0.00     0.010 A 
ATOM     74  C   UNL     1      -1.998   8.993  12.316  1.00  0.00     0.010 A 
ATOM     75  C   UNL     1      -0.041   9.260  14.301  1.00  0.00     0.020 A 
ATOM     76  C   UNL     1      -2.309   9.639  13.516  1.00  0.00     0.020 A 
ATOM     77  C   UNL     1      -1.333   9.751  14.509  1.00  0.00     0.054 A 
BRANCH  77  78
ATOM     78  S   UNL     1      -1.722  10.564  16.084  1.00  0.00     0.124 S 
ATOM     79  O   UNL     1      -1.925   9.426  16.976  1.00  0.00    -0.237 OA
ATOM     80  O   UNL     1      -0.524  11.361  16.343  1.00  0.00    -0.237 OA
ATOM     81  O   UNL     1      -2.921  11.342  15.780  1.00  0.00    -0.744 OA
ENDBRANCH  77  78
ENDBRANCH  51  72
ENDBRANCH  25  26
ENDBRANCH  18  20
ENDBRANCH  17  18
ENDBRANCH   1  17
TORSDOF 16
