REMARK SMILES O=C(C[NH+]1CCC(C(=O)OCCOC(=O)c2ccc(-c3c4nc(c(-c5ccc(S(=O)(=O)[O-])cc5)c5ccc([nH]5)c(-c5ccc(S(=O)(=O)[O-])cc5)c5nc(c(-c6ccc(S(=O)(=O)[O-])cc6)c6ccc3[nH]6)C=C5)C=C4)cc2)CC1)Nc1ccccc1Oc1ccccc1
REMARK SMILES IDX 11 1 10 2 8 3 9 4 7 5 4 6 5 7 77 8 6 10 76 11 3 12 2 13 1 14
REMARK SMILES IDX 78 15 79 17 80 18 84 19 81 20 83 21 82 22 85 23 86 24 87 25
REMARK SMILES IDX 91 26 88 27 90 28 89 29 12 30 13 31 14 32 15 33 16 34 17 35
REMARK SMILES IDX 75 36 18 37 74 38 19 39 20 40 21 41 68 42 22 43 73 44 67 45
REMARK SMILES IDX 69 46 23 47 72 48 66 49 65 50 24 52 54 53 35 54 53 55 36 56
REMARK SMILES IDX 39 57 52 58 70 59 37 60 38 61 51 63 71 64 40 65 25 66 26 67
REMARK SMILES IDX 34 68 27 69 33 70 28 71 29 72 30 73 31 74 32 75 55 76 56 77
REMARK SMILES IDX 64 78 57 79 63 80 58 81 59 82 60 83 61 84 62 85 41 86 42 87
REMARK SMILES IDX 50 88 43 89 49 90 44 91 45 92 46 93 47 94 48 95
REMARK H PARENT 4 9 78 16 69 51 39 62
REMARK Flexibility Score: inf
ROOT
ATOM      1  C   UNL     1       7.407  -5.868  -3.663  1.00  0.00     0.274 C 
ENDROOT
BRANCH   1   2
ATOM      2  O   UNL     1       6.622  -5.008  -2.819  1.00  0.00    -0.462 OA
BRANCH   2   3
ATOM      3  C   UNL     1       5.781  -4.170  -3.475  1.00  0.00     0.309 C 
ATOM      4  O   UNL     1       5.723  -4.048  -4.694  1.00  0.00    -0.252 OA
BRANCH   3   5
ATOM      5  C   UNL     1       4.934  -3.334  -2.551  1.00  0.00     0.110 C 
ATOM      6  N   UNL     1       4.205  -1.731  -0.248  1.00  0.00    -0.327 N 
ATOM      7  C   UNL     1       3.591  -3.049  -0.462  1.00  0.00     0.263 C 
ATOM      8  C   UNL     1       4.666  -1.110  -1.495  1.00  0.00     0.263 C 
ATOM      9  H   UNL     1       5.054  -1.869   0.299  1.00  0.00     0.348 HD
ATOM     10  C   UNL     1       4.537  -3.980  -1.226  1.00  0.00     0.077 C 
ATOM     11  C   UNL     1       5.616  -2.003  -2.280  1.00  0.00     0.077 C 
BRANCH   6  12
ATOM     12  C   UNL     1       3.313  -0.857   0.557  1.00  0.00     0.363 C 
BRANCH  12  13
ATOM     13  C   UNL     1       2.270  -0.077  -0.262  1.00  0.00     0.279 C 
ATOM     14  O   UNL     1       1.165  -0.530  -0.540  1.00  0.00    -0.268 OA
ATOM     15  N   UNL     1       2.775   1.144  -0.694  1.00  0.00    -0.318 N 
ATOM     16  H   UNL     1       3.705   1.364  -0.457  1.00  0.00     0.170 HD
BRANCH  15  17
ATOM     17  C   UNL     1       2.055   2.085  -1.442  1.00  0.00     0.084 A 
ATOM     18  C   UNL     1       2.582   2.359  -2.716  1.00  0.00     0.030 A 
ATOM     19  C   UNL     1       0.932   2.792  -0.985  1.00  0.00     0.150 A 
ATOM     20  C   UNL     1       1.960   3.268  -3.569  1.00  0.00     0.002 A 
ATOM     21  C   UNL     1       0.325   3.713  -1.857  1.00  0.00     0.049 A 
ATOM     22  C   UNL     1       0.827   3.945  -3.140  1.00  0.00     0.004 A 
BRANCH  19  23
ATOM     23  O   UNL     1       0.312   2.758   0.247  1.00  0.00    -0.455 OA
BRANCH  23  24
ATOM     24  C   UNL     1       0.921   2.202   1.340  1.00  0.00     0.127 A 
ATOM     25  C   UNL     1       0.233   1.166   1.974  1.00  0.00     0.047 A 
ATOM     26  C   UNL     1       2.135   2.658   1.858  1.00  0.00     0.047 A 
ATOM     27  C   UNL     1       0.800   0.517   3.068  1.00  0.00     0.004 A 
ATOM     28  C   UNL     1       2.705   2.002   2.952  1.00  0.00     0.004 A 
ATOM     29  C   UNL     1       2.044   0.925   3.548  1.00  0.00     0.000 A 
ENDBRANCH  23  24
ENDBRANCH  19  23
ENDBRANCH  15  17
ENDBRANCH  12  13
ENDBRANCH   6  12
ENDBRANCH   3   5
ENDBRANCH   2   3
ENDBRANCH   1   2
BRANCH   1  30
ATOM     30  C   UNL     1       6.774  -7.255  -3.789  1.00  0.00     0.275 C 
BRANCH  30  31
ATOM     31  O   UNL     1       5.479  -7.204  -4.415  1.00  0.00    -0.458 OA
BRANCH  31  32
ATOM     32  C   UNL     1       4.429  -7.188  -3.558  1.00  0.00     0.338 C 
ATOM     33  O   UNL     1       4.472  -7.241  -2.341  1.00  0.00    -0.246 OA
BRANCH  32  34
ATOM     34  C   UNL     1       3.174  -6.995  -4.302  1.00  0.00     0.060 A 
ATOM     35  C   UNL     1       2.479  -5.794  -4.141  1.00  0.00     0.016 A 
ATOM     36  C   UNL     1       2.631  -8.029  -5.063  1.00  0.00     0.016 A 
ATOM     37  C   UNL     1       1.231  -5.618  -4.734  1.00  0.00     0.010 A 
ATOM     38  C   UNL     1       1.379  -7.851  -5.661  1.00  0.00     0.010 A 
ATOM     39  C   UNL     1       0.665  -6.651  -5.489  1.00  0.00    -0.014 A 
BRANCH  39  40
ATOM     40  C   UNL     1      -0.698  -6.499  -6.053  1.00  0.00     0.031 A 
ATOM     41  C   UNL     1      -1.843  -7.266  -5.457  1.00  0.00     0.074 A 
ATOM     42  C   UNL     1      -0.906  -5.685  -7.104  1.00  0.00     0.049 A 
ATOM     43  N   UNL     1      -3.078  -7.367  -5.875  1.00  0.00    -0.248 NA
ATOM     44  C   UNL     1      -1.555  -8.025  -4.230  1.00  0.00     0.031 C 
ATOM     45  C   UNL     1       0.115  -4.855  -7.744  1.00  0.00     0.029 A 
ATOM     46  N   UNL     1      -2.046  -5.435  -7.825  1.00  0.00    -0.354 N 
ATOM     47  C   UNL     1      -3.707  -8.231  -4.987  1.00  0.00     0.074 A 
ATOM     48  C   UNL     1      -2.714  -8.629  -4.011  1.00  0.00     0.031 C 
ATOM     49  C   UNL     1      -0.443  -4.196  -8.772  1.00  0.00     0.029 A 
ATOM     50  C   UNL     1      -1.843  -4.594  -8.892  1.00  0.00     0.049 A 
ATOM     51  H   UNL     1      -2.923  -5.821  -7.601  1.00  0.00     0.167 HD
ATOM     52  C   UNL     1      -4.993  -8.659  -4.990  1.00  0.00     0.031 A 
ATOM     53  C   UNL     1      -2.678  -4.214  -9.879  1.00  0.00     0.031 A 
ATOM     54  C   UNL     1      -5.976  -8.258  -5.962  1.00  0.00     0.049 A 
ATOM     55  C   UNL     1      -4.090  -4.727  -9.888  1.00  0.00     0.074 A 
ATOM     56  C   UNL     1      -7.310  -8.617  -6.039  1.00  0.00     0.029 A 
ATOM     57  N   UNL     1      -5.729  -7.410  -7.032  1.00  0.00    -0.354 N 
ATOM     58  N   UNL     1      -4.673  -5.544  -9.043  1.00  0.00    -0.248 NA
ATOM     59  C   UNL     1      -4.956  -4.269 -10.982  1.00  0.00     0.031 C 
ATOM     60  C   UNL     1      -7.857  -8.024  -7.183  1.00  0.00     0.029 A 
ATOM     61  C   UNL     1      -6.878  -7.255  -7.791  1.00  0.00     0.049 A 
ATOM     62  H   UNL     1      -4.864  -6.981  -7.225  1.00  0.00     0.167 HD
ATOM     63  C   UNL     1      -5.979  -5.691  -9.497  1.00  0.00     0.074 A 
ATOM     64  C   UNL     1      -6.103  -4.865 -10.682  1.00  0.00     0.031 C 
ATOM     65  C   UNL     1      -6.982  -6.442  -8.978  1.00  0.00     0.031 A 
BRANCH  52  66
ATOM     66  C   UNL     1      -5.380  -9.666  -3.939  1.00  0.00    -0.014 A 
ATOM     67  C   UNL     1      -5.507  -9.307  -2.585  1.00  0.00     0.010 A 
ATOM     68  C   UNL     1      -5.602 -11.003  -4.316  1.00  0.00     0.010 A 
ATOM     69  C   UNL     1      -5.783 -10.280  -1.619  1.00  0.00     0.020 A 
ATOM     70  C   UNL     1      -5.904 -11.974  -3.357  1.00  0.00     0.020 A 
ATOM     71  C   UNL     1      -5.965 -11.610  -2.011  1.00  0.00     0.054 A 
BRANCH  71  72
ATOM     72  S   UNL     1      -6.287 -12.863  -0.739  1.00  0.00     0.124 S 
ATOM     73  O   UNL     1      -4.955 -13.064  -0.172  1.00  0.00    -0.237 OA
ATOM     74  O   UNL     1      -7.247 -12.197   0.138  1.00  0.00    -0.237 OA
ATOM     75  O   UNL     1      -6.820 -13.994  -1.494  1.00  0.00    -0.744 OA
ENDBRANCH  71  72
ENDBRANCH  52  66
BRANCH  53  76
ATOM     76  C   UNL     1      -2.166  -3.325 -10.956  1.00  0.00    -0.014 A 
ATOM     77  C   UNL     1      -2.525  -1.968 -10.997  1.00  0.00     0.010 A 
ATOM     78  C   UNL     1      -1.249  -3.822 -11.902  1.00  0.00     0.010 A 
ATOM     79  C   UNL     1      -1.963  -1.119 -11.956  1.00  0.00     0.020 A 
ATOM     80  C   UNL     1      -0.668  -2.972 -12.846  1.00  0.00     0.020 A 
ATOM     81  C   UNL     1      -1.029  -1.624 -12.867  1.00  0.00     0.054 A 
BRANCH  81  82
ATOM     82  S   UNL     1      -0.226  -0.481 -14.026  1.00  0.00     0.124 S 
ATOM     83  O   UNL     1      -1.277  -0.261 -15.014  1.00  0.00    -0.237 OA
ATOM     84  O   UNL     1       0.092   0.663 -13.175  1.00  0.00    -0.237 OA
ATOM     85  O   UNL     1       0.933  -1.234 -14.500  1.00  0.00    -0.744 OA
ENDBRANCH  81  82
ENDBRANCH  53  76
BRANCH  65  86
ATOM     86  C   UNL     1      -8.312  -6.396  -9.682  1.00  0.00    -0.014 A 
ATOM     87  C   UNL     1      -8.511  -7.068 -10.900  1.00  0.00     0.010 A 
ATOM     88  C   UNL     1      -9.391  -5.716  -9.088  1.00  0.00     0.010 A 
ATOM     89  C   UNL     1      -9.760  -7.039 -11.527  1.00  0.00     0.020 A 
ATOM     90  C   UNL     1     -10.647  -5.703  -9.700  1.00  0.00     0.020 A 
ATOM     91  C   UNL     1     -10.820  -6.354 -10.924  1.00  0.00     0.054 A 
BRANCH  91  92
ATOM     92  S   UNL     1     -12.444  -6.366 -11.732  1.00  0.00     0.124 S 
ATOM     93  O   UNL     1     -12.251  -5.406 -12.815  1.00  0.00    -0.237 OA
ATOM     94  O   UNL     1     -12.590  -7.760 -12.146  1.00  0.00    -0.237 OA
ATOM     95  O   UNL     1     -13.359  -5.939 -10.676  1.00  0.00    -0.744 OA
ENDBRANCH  91  92
ENDBRANCH  65  86
ENDBRANCH  39  40
ENDBRANCH  32  34
ENDBRANCH  31  32
ENDBRANCH  30  31
ENDBRANCH   1  30
TORSDOF 19
