REMARK SMILES O=C(OCCOC(=O)c1cc(SCc2csc(-c3ccsc3)n2)ccn1)c1ccc(-c2c3nc(c(-c4ccc(S(=O)(=O)[O-])cc4)c4ccc([nH]4)c(-c4ccc(S(=O)(=O)[O-])cc4)c4nc(c(-c5ccc(S(=O)(=O)[O-])cc5)c5ccc2[nH]5)C=C4)C=C3)cc1
REMARK SMILES IDX 5 1 4 2 3 3 2 4 1 5 27 6 28 7 86 8 29 9 85 10 30 11 31 12
REMARK SMILES IDX 32 13 79 14 33 15 84 16 78 17 80 18 34 19 83 20 77 21 76 22
REMARK SMILES IDX 35 24 65 25 46 26 64 27 47 28 50 29 63 30 81 31 48 32 49 33
REMARK SMILES IDX 62 35 82 36 51 37 36 38 37 39 45 40 38 41 44 42 39 43 40 44
REMARK SMILES IDX 41 45 42 46 43 47 66 48 67 49 75 50 68 51 74 52 69 53 70 54
REMARK SMILES IDX 71 55 72 56 73 57 52 58 53 59 61 60 54 61 60 62 55 63 56 64
REMARK SMILES IDX 57 65 58 66 59 67 6 68 7 69 8 70 9 71 10 72 26 73 11 74
REMARK SMILES IDX 25 75 24 76 12 77 13 78 14 79 15 80 23 81 16 82 17 83 18 84
REMARK SMILES IDX 19 85 22 86 20 87 21 88
REMARK H PARENT 80 23 50 34
REMARK Flexibility Score: inf
ROOT
ATOM      1  C   UNL     1       4.190  -2.015  -0.560  1.00  0.00     0.275 C 
ENDROOT
BRANCH   1   2
ATOM      2  C   UNL     1       4.348  -1.114   0.668  1.00  0.00     0.275 C 
BRANCH   2   3
ATOM      3  O   UNL     1       3.104  -0.495   1.047  1.00  0.00    -0.458 OA
BRANCH   3   4
ATOM      4  C   UNL     1       2.671   0.782   0.921  1.00  0.00     0.338 C 
ATOM      5  O   UNL     1       1.776   1.156   1.681  1.00  0.00    -0.246 OA
BRANCH   4   6
ATOM      6  C   UNL     1       3.153   1.763  -0.116  1.00  0.00     0.060 A 
ATOM      7  C   UNL     1       4.255   1.617  -0.953  1.00  0.00     0.016 A 
ATOM      8  C   UNL     1       2.395   2.946  -0.264  1.00  0.00     0.016 A 
ATOM      9  C   UNL     1       4.603   2.613  -1.876  1.00  0.00     0.010 A 
ATOM     10  C   UNL     1       2.737   3.943  -1.194  1.00  0.00     0.010 A 
ATOM     11  C   UNL     1       3.869   3.797  -1.995  1.00  0.00    -0.014 A 
BRANCH  11  12
ATOM     12  C   UNL     1       4.369   4.917  -2.846  1.00  0.00     0.031 A 
ATOM     13  C   UNL     1       5.079   6.059  -2.193  1.00  0.00     0.074 A 
ATOM     14  C   UNL     1       4.351   4.867  -4.193  1.00  0.00     0.049 A 
ATOM     15  N   UNL     1       5.703   7.058  -2.756  1.00  0.00    -0.248 NA
ATOM     16  C   UNL     1       5.153   6.038  -0.726  1.00  0.00     0.031 C 
ATOM     17  C   UNL     1       3.862   3.725  -4.930  1.00  0.00     0.029 A 
ATOM     18  N   UNL     1       4.793   5.722  -5.176  1.00  0.00    -0.354 N 
ATOM     19  C   UNL     1       6.231   7.799  -1.714  1.00  0.00     0.074 A 
ATOM     20  C   UNL     1       5.852   7.135  -0.484  1.00  0.00     0.031 C 
ATOM     21  C   UNL     1       4.022   3.930  -6.243  1.00  0.00     0.029 A 
ATOM     22  C   UNL     1       4.622   5.229  -6.454  1.00  0.00     0.049 A 
ATOM     23  H   UNL     1       5.194   6.601  -4.987  1.00  0.00     0.167 HD
ATOM     24  C   UNL     1       6.959   8.937  -1.781  1.00  0.00     0.031 A 
ATOM     25  C   UNL     1       4.922   5.720  -7.674  1.00  0.00     0.031 A 
ATOM     26  C   UNL     1       7.277   9.620  -3.005  1.00  0.00     0.049 A 
ATOM     27  C   UNL     1       5.620   7.040  -7.726  1.00  0.00     0.074 A 
ATOM     28  C   UNL     1       7.903  10.842  -3.168  1.00  0.00     0.029 A 
ATOM     29  N   UNL     1       6.976   9.151  -4.278  1.00  0.00    -0.354 N 
ATOM     30  N   UNL     1       6.059   7.758  -6.721  1.00  0.00    -0.248 NA
ATOM     31  C   UNL     1       5.867   7.625  -9.049  1.00  0.00     0.031 C 
ATOM     32  C   UNL     1       7.922  11.142  -4.534  1.00  0.00     0.029 A 
ATOM     33  C   UNL     1       7.370  10.077  -5.230  1.00  0.00     0.049 A 
ATOM     34  H   UNL     1       6.545   8.287  -4.475  1.00  0.00     0.167 HD
ATOM     35  C   UNL     1       6.644   8.878  -7.285  1.00  0.00     0.074 A 
ATOM     36  C   UNL     1       6.519   8.735  -8.724  1.00  0.00     0.031 C 
ATOM     37  C   UNL     1       7.226   9.927  -6.659  1.00  0.00     0.031 A 
BRANCH  24  38
ATOM     38  C   UNL     1       7.322   9.552  -0.461  1.00  0.00    -0.014 A 
ATOM     39  C   UNL     1       8.294   8.975   0.377  1.00  0.00     0.010 A 
ATOM     40  C   UNL     1       6.585  10.659  -0.006  1.00  0.00     0.010 A 
ATOM     41  C   UNL     1       8.463   9.448   1.681  1.00  0.00     0.020 A 
ATOM     42  C   UNL     1       6.771  11.150   1.286  1.00  0.00     0.020 A 
ATOM     43  C   UNL     1       7.685  10.520   2.132  1.00  0.00     0.054 A 
BRANCH  43  44
ATOM     44  S   UNL     1       7.863  11.064   3.852  1.00  0.00     0.124 S 
ATOM     45  O   UNL     1       7.190   9.988   4.576  1.00  0.00    -0.237 OA
ATOM     46  O   UNL     1       9.312  11.124   4.022  1.00  0.00    -0.237 OA
ATOM     47  O   UNL     1       7.180  12.355   3.879  1.00  0.00    -0.744 OA
ENDBRANCH  43  44
ENDBRANCH  24  38
BRANCH  25  48
ATOM     48  C   UNL     1       4.559   4.956  -8.911  1.00  0.00    -0.014 A 
ATOM     49  C   UNL     1       5.542   4.422  -9.764  1.00  0.00     0.010 A 
ATOM     50  C   UNL     1       3.204   4.697  -9.208  1.00  0.00     0.010 A 
ATOM     51  C   UNL     1       5.181   3.643 -10.873  1.00  0.00     0.020 A 
ATOM     52  C   UNL     1       2.840   3.893 -10.294  1.00  0.00     0.020 A 
ATOM     53  C   UNL     1       3.832   3.373 -11.125  1.00  0.00     0.054 A 
BRANCH  53  54
ATOM     54  S   UNL     1       3.393   2.284 -12.512  1.00  0.00     0.124 S 
ATOM     55  O   UNL     1       3.693   3.123 -13.667  1.00  0.00    -0.237 OA
ATOM     56  O   UNL     1       4.283   1.143 -12.309  1.00  0.00    -0.237 OA
ATOM     57  O   UNL     1       1.975   2.003 -12.294  1.00  0.00    -0.744 OA
ENDBRANCH  53  54
ENDBRANCH  25  48
BRANCH  37  58
ATOM     58  C   UNL     1       7.779  11.018  -7.527  1.00  0.00    -0.014 A 
ATOM     59  C   UNL     1       6.926  11.931  -8.170  1.00  0.00     0.010 A 
ATOM     60  C   UNL     1       9.172  11.185  -7.618  1.00  0.00     0.010 A 
ATOM     61  C   UNL     1       7.461  12.998  -8.893  1.00  0.00     0.020 A 
ATOM     62  C   UNL     1       9.708  12.264  -8.320  1.00  0.00     0.020 A 
ATOM     63  C   UNL     1       8.848  13.164  -8.954  1.00  0.00     0.054 A 
BRANCH  63  64
ATOM     64  S   UNL     1       9.514  14.615  -9.812  1.00  0.00     0.124 S 
ATOM     65  O   UNL     1       9.299  14.266 -11.213  1.00  0.00    -0.237 OA
ATOM     66  O   UNL     1       8.681  15.700  -9.298  1.00  0.00    -0.237 OA
ATOM     67  O   UNL     1      10.912  14.656  -9.387  1.00  0.00    -0.744 OA
ENDBRANCH  63  64
ENDBRANCH  37  58
ENDBRANCH  11  12
ENDBRANCH   4   6
ENDBRANCH   3   4
ENDBRANCH   2   3
ENDBRANCH   1   2
BRANCH   1  68
ATOM     68  O   UNL     1       3.655  -1.301  -1.680  1.00  0.00    -0.457 OA
BRANCH  68  69
ATOM     69  C   UNL     1       2.295  -1.336  -1.798  1.00  0.00     0.357 C 
ATOM     70  O   UNL     1       1.523  -2.010  -1.151  1.00  0.00    -0.244 OA
BRANCH  69  71
ATOM     71  C   UNL     1       1.925  -0.326  -2.819  1.00  0.00     0.149 A 
ATOM     72  C   UNL     1       2.541  -0.365  -4.062  1.00  0.00     0.051 A 
ATOM     73  N   UNL     1       1.023   0.611  -2.427  1.00  0.00    -0.249 NA
ATOM     74  C   UNL     1       2.221   0.629  -4.966  1.00  0.00     0.012 A 
ATOM     75  C   UNL     1       0.733   1.569  -3.324  1.00  0.00     0.113 A 
ATOM     76  C   UNL     1       1.280   1.603  -4.593  1.00  0.00     0.035 A 
BRANCH  74  77
ATOM     77  S   UNL     1       2.856   0.690  -6.615  1.00  0.00    -0.120 SA
BRANCH  77  78
ATOM     78  C   UNL     1       4.636   0.304  -6.617  1.00  0.00     0.132 C 
BRANCH  78  79
ATOM     79  C   UNL     1       5.582   0.502  -5.454  1.00  0.00     0.062 A 
ATOM     80  C   UNL     1       6.196  -0.551  -4.794  1.00  0.00     0.091 A 
ATOM     81  N   UNL     1       6.165   1.745  -5.158  1.00  0.00    -0.240 NA
ATOM     82  S   UNL     1       7.618  -0.028  -4.000  1.00  0.00    -0.122 S 
ATOM     83  C   UNL     1       7.285   1.597  -4.471  1.00  0.00     0.124 A 
BRANCH  83  84
ATOM     84  C   UNL     1       8.205   2.716  -4.037  1.00  0.00     0.021 A 
ATOM     85  C   UNL     1       7.831   3.877  -3.304  1.00  0.00     0.023 A 
ATOM     86  C   UNL     1       9.569   2.697  -4.253  1.00  0.00     0.076 A 
ATOM     87  C   UNL     1       8.904   4.657  -2.928  1.00  0.00     0.065 A 
ATOM     88  S   UNL     1      10.371   4.041  -3.547  1.00  0.00    -0.152 S 
ENDBRANCH  83  84
ENDBRANCH  78  79
ENDBRANCH  77  78
ENDBRANCH  74  77
ENDBRANCH  69  71
ENDBRANCH  68  69
ENDBRANCH   1  68
TORSDOF 18
