REMARK SMILES CC(C)=C1[C@H]2CC[C@@H]1[C@@H](C(=O)Nc1cc(C)cc(C)c1)[C@@H]2C(=O)OCCOC(=O)c1ccc(-c2c3nc(c(-c4ccc(S(=O)(=O)[O-])cc4)c4ccc([nH]4)c(-c4ccc(S(=O)(=O)[O-])cc4)c4nc(c(-c5ccc(S(=O)(=O)[O-])cc5)c5ccc2[nH]5)C=C4)C=C3)cc1
REMARK SMILES IDX 26 1 25 2 24 3 22 4 23 5 21 6 1 7 2 8 3 9 4 10 5 11 8 12
REMARK SMILES IDX 6 13 7 14 9 15 10 16 11 17 12 18 13 20 14 21 20 22 15 23
REMARK SMILES IDX 18 24 16 25 17 26 19 27 27 28 28 29 29 30 30 31 31 32 89 33
REMARK SMILES IDX 32 34 88 35 33 36 34 37 35 38 82 39 36 40 87 41 81 42 83 43
REMARK SMILES IDX 37 44 86 45 80 46 79 47 38 49 68 50 49 51 67 52 50 53 53 54
REMARK SMILES IDX 66 55 84 56 51 57 52 58 65 60 85 61 54 62 39 63 40 64 48 65
REMARK SMILES IDX 41 66 47 67 42 68 43 69 44 70 45 71 46 72 69 73 70 74 78 75
REMARK SMILES IDX 71 76 77 77 72 78 73 79 74 80 75 81 76 82 55 83 56 84 64 85
REMARK SMILES IDX 57 86 63 87 58 88 59 89 60 90 61 91 62 92
REMARK H PARENT 12 19 83 48 53 59
REMARK Flexibility Score: inf
ROOT
ATOM      1  C   UNL     1       3.187  -4.412   7.490  1.00  0.00     0.275 C 
ENDROOT
BRANCH   1   2
ATOM      2  C   UNL     1       2.044  -4.761   6.531  1.00  0.00     0.274 C 
BRANCH   2   3
ATOM      3  O   UNL     1       2.079  -3.956   5.334  1.00  0.00    -0.462 OA
BRANCH   3   4
ATOM      4  C   UNL     1       1.129  -2.995   5.221  1.00  0.00     0.310 C 
ATOM      5  O   UNL     1       0.242  -2.799   6.044  1.00  0.00    -0.252 OA
BRANCH   4   6
ATOM      6  C   UNL     1       1.222  -2.175   3.945  1.00  0.00     0.119 C 
ATOM      7  C   UNL     1       0.899  -0.866  -0.544  1.00  0.00     0.039 C 
ATOM      8  C   UNL     1       0.138  -1.262   0.693  1.00  0.00    -0.077 C 
ATOM      9  C   UNL     1      -1.272  -0.744   0.746  1.00  0.00     0.039 C 
ATOM     10  C   UNL     1       0.670  -2.030   1.658  1.00  0.00    -0.064 C 
ATOM     11  C   UNL     1       0.102  -2.557   2.952  1.00  0.00     0.030 C 
ATOM     12  C   UNL     1       2.003  -2.720   1.736  1.00  0.00     0.029 C 
ATOM     13  C   UNL     1       0.161  -4.048   2.606  1.00  0.00     0.009 C 
ATOM     14  C   UNL     1       1.494  -4.175   1.842  1.00  0.00     0.009 C 
ATOM     15  C   UNL     1       2.510  -2.244   3.115  1.00  0.00     0.101 C 
BRANCH  15  16
ATOM     16  C   UNL     1       3.457  -1.038   2.947  1.00  0.00     0.228 C 
ATOM     17  O   UNL     1       4.677  -1.282   2.955  1.00  0.00    -0.274 OA
ATOM     18  N   UNL     1       3.146   0.225   2.551  1.00  0.00    -0.326 N 
ATOM     19  H   UNL     1       3.930   0.698   2.189  1.00  0.00     0.169 HD
BRANCH  18  20
ATOM     20  C   UNL     1       1.998   1.026   2.526  1.00  0.00     0.041 A 
ATOM     21  C   UNL     1       1.094   1.109   3.575  1.00  0.00     0.029 A 
ATOM     22  C   UNL     1       1.818   1.878   1.434  1.00  0.00     0.029 A 
ATOM     23  C   UNL     1      -0.073   1.878   3.490  1.00  0.00    -0.049 A 
ATOM     24  C   UNL     1       0.670   2.681   1.327  1.00  0.00    -0.049 A 
ATOM     25  C   UNL     1      -1.108   1.801   4.575  1.00  0.00     0.044 C 
ATOM     26  C   UNL     1      -0.288   2.648   2.348  1.00  0.00     0.007 A 
ATOM     27  C   UNL     1       0.413   3.487   0.090  1.00  0.00     0.044 C 
ENDBRANCH  18  20
ENDBRANCH  15  16
ENDBRANCH   4   6
ENDBRANCH   3   4
ENDBRANCH   2   3
ENDBRANCH   1   2
BRANCH   1  28
ATOM     28  O   UNL     1       3.045  -3.090   8.043  1.00  0.00    -0.458 OA
BRANCH  28  29
ATOM     29  C   UNL     1       3.680  -2.124   7.344  1.00  0.00     0.338 C 
ATOM     30  O   UNL     1       4.347  -2.273   6.327  1.00  0.00    -0.246 OA
BRANCH  29  31
ATOM     31  C   UNL     1       3.333  -0.795   7.861  1.00  0.00     0.060 A 
ATOM     32  C   UNL     1       2.550   0.009   7.037  1.00  0.00     0.016 A 
ATOM     33  C   UNL     1       3.858  -0.287   9.047  1.00  0.00     0.016 A 
ATOM     34  C   UNL     1       2.319   1.341   7.361  1.00  0.00     0.010 A 
ATOM     35  C   UNL     1       3.599   1.049   9.392  1.00  0.00     0.010 A 
ATOM     36  C   UNL     1       2.846   1.880   8.541  1.00  0.00    -0.014 A 
BRANCH  36  37
ATOM     37  C   UNL     1       2.645   3.324   8.834  1.00  0.00     0.031 A 
ATOM     38  C   UNL     1       3.810   4.276   8.788  1.00  0.00     0.074 A 
ATOM     39  C   UNL     1       1.407   3.796   9.084  1.00  0.00     0.049 A 
ATOM     40  N   UNL     1       3.846   5.551   9.084  1.00  0.00    -0.248 NA
ATOM     41  C   UNL     1       5.102   3.723   8.352  1.00  0.00     0.031 C 
ATOM     42  C   UNL     1       0.181   2.995   9.097  1.00  0.00     0.029 A 
ATOM     43  N   UNL     1       0.975   5.069   9.362  1.00  0.00    -0.354 N 
ATOM     44  C   UNL     1       5.168   5.945   8.908  1.00  0.00     0.074 A 
ATOM     45  C   UNL     1       5.903   4.772   8.483  1.00  0.00     0.031 C 
ATOM     46  C   UNL     1      -0.865   3.799   9.343  1.00  0.00     0.029 A 
ATOM     47  C   UNL     1      -0.382   5.158   9.566  1.00  0.00     0.049 A 
ATOM     48  H   UNL     1       1.579   5.845   9.410  1.00  0.00     0.167 HD
ATOM     49  C   UNL     1       5.720   7.169   9.086  1.00  0.00     0.031 A 
ATOM     50  C   UNL     1      -1.149   6.207   9.922  1.00  0.00     0.031 A 
ATOM     51  C   UNL     1       4.987   8.342   9.485  1.00  0.00     0.049 A 
ATOM     52  C   UNL     1      -0.507   7.545  10.159  1.00  0.00     0.074 A 
ATOM     53  C   UNL     1       5.461   9.626   9.693  1.00  0.00     0.029 A 
ATOM     54  N   UNL     1       3.622   8.377   9.729  1.00  0.00    -0.354 N 
ATOM     55  N   UNL     1       0.752   7.887  10.031  1.00  0.00    -0.248 NA
ATOM     56  C   UNL     1      -1.389   8.634  10.600  1.00  0.00     0.031 C 
ATOM     57  C   UNL     1       4.389  10.430  10.098  1.00  0.00     0.029 A 
ATOM     58  C   UNL     1       3.240   9.655  10.101  1.00  0.00     0.049 A 
ATOM     59  H   UNL     1       3.015   7.607   9.650  1.00  0.00     0.167 HD
ATOM     60  C   UNL     1       0.813   9.233  10.371  1.00  0.00     0.074 A 
ATOM     61  C   UNL     1      -0.539   9.648  10.688  1.00  0.00     0.031 C 
ATOM     62  C   UNL     1       1.893  10.051  10.423  1.00  0.00     0.031 A 
BRANCH  49  63
ATOM     63  C   UNL     1       7.208   7.292   8.894  1.00  0.00    -0.014 A 
ATOM     64  C   UNL     1       7.784   7.294   7.611  1.00  0.00     0.010 A 
ATOM     65  C   UNL     1       8.040   7.434  10.020  1.00  0.00     0.010 A 
ATOM     66  C   UNL     1       9.170   7.397   7.461  1.00  0.00     0.020 A 
ATOM     67  C   UNL     1       9.424   7.559   9.872  1.00  0.00     0.020 A 
ATOM     68  C   UNL     1       9.982   7.520   8.593  1.00  0.00     0.054 A 
BRANCH  68  69
ATOM     69  S   UNL     1      11.778   7.662   8.374  1.00  0.00     0.124 S 
ATOM     70  O   UNL     1      12.155   6.281   8.087  1.00  0.00    -0.237 OA
ATOM     71  O   UNL     1      11.895   8.591   7.253  1.00  0.00    -0.237 OA
ATOM     72  O   UNL     1      12.243   8.181   9.658  1.00  0.00    -0.744 OA
ENDBRANCH  68  69
ENDBRANCH  49  63
BRANCH  50  73
ATOM     73  C   UNL     1      -2.612   6.018  10.118  1.00  0.00    -0.014 A 
ATOM     74  C   UNL     1      -3.534   6.556   9.204  1.00  0.00     0.010 A 
ATOM     75  C   UNL     1      -3.087   5.279  11.217  1.00  0.00     0.010 A 
ATOM     76  C   UNL     1      -4.906   6.362   9.389  1.00  0.00     0.020 A 
ATOM     77  C   UNL     1      -4.456   5.062  11.391  1.00  0.00     0.020 A 
ATOM     78  C   UNL     1      -5.358   5.614  10.480  1.00  0.00     0.054 A 
BRANCH  78  79
ATOM     79  S   UNL     1      -7.138   5.311  10.665  1.00  0.00     0.124 S 
ATOM     80  O   UNL     1      -7.602   6.573  11.233  1.00  0.00    -0.237 OA
ATOM     81  O   UNL     1      -7.560   5.041   9.293  1.00  0.00    -0.237 OA
ATOM     82  O   UNL     1      -7.194   4.159  11.563  1.00  0.00    -0.744 OA
ENDBRANCH  78  79
ENDBRANCH  50  73
BRANCH  62  83
ATOM     83  C   UNL     1       1.653  11.480  10.824  1.00  0.00    -0.014 A 
ATOM     84  C   UNL     1       1.406  11.822  12.165  1.00  0.00     0.010 A 
ATOM     85  C   UNL     1       1.709  12.496   9.853  1.00  0.00     0.010 A 
ATOM     86  C   UNL     1       1.187  13.155  12.524  1.00  0.00     0.020 A 
ATOM     87  C   UNL     1       1.511  13.832  10.212  1.00  0.00     0.020 A 
ATOM     88  C   UNL     1       1.236  14.151  11.544  1.00  0.00     0.054 A 
BRANCH  88  89
ATOM     89  S   UNL     1       0.980  15.879  12.036  1.00  0.00     0.124 S 
ATOM     90  O   UNL     1      -0.471  15.942  12.179  1.00  0.00    -0.237 OA
ATOM     91  O   UNL     1       1.739  15.978  13.280  1.00  0.00    -0.237 OA
ATOM     92  O   UNL     1       1.531  16.641  10.916  1.00  0.00    -0.744 OA
ENDBRANCH  88  89
ENDBRANCH  62  83
ENDBRANCH  36  37
ENDBRANCH  29  31
ENDBRANCH  28  29
ENDBRANCH   1  28
TORSDOF 16
