REMARK SMILES O=C(OCCOC(=O)[C@@]1([C@@H]2CCC[C@@H]2O)CCCc2ccccc21)c1ccc(-c2c3nc(c(-c4ccc(S(=O)(=O)[O-])cc4)c4ccc([nH]4)c(-c4ccc(S(=O)(=O)[O-])cc4)c4nc(c(-c5ccc(S(=O)(=O)[O-])cc5)c5ccc2[nH]5)C=C4)C=C3)cc1
REMARK SMILES IDX 4 1 3 2 2 3 1 4 25 5 26 6 84 7 27 8 83 9 28 10 29 11 30 12
REMARK SMILES IDX 77 13 31 14 82 15 76 16 78 17 32 18 81 19 75 20 74 21 33 23
REMARK SMILES IDX 63 24 44 25 62 26 45 27 48 28 61 29 79 30 46 31 47 32 60 34
REMARK SMILES IDX 80 35 49 36 34 37 35 38 43 39 36 40 42 41 37 42 38 43 39 44
REMARK SMILES IDX 40 45 41 46 64 47 65 48 73 49 66 50 72 51 67 52 68 53 69 54
REMARK SMILES IDX 70 55 71 56 50 57 51 58 59 59 52 60 58 61 53 62 54 63 55 64
REMARK SMILES IDX 56 65 57 66 5 67 6 68 7 69 8 70 9 71 16 72 24 73 17 74 19 75
REMARK SMILES IDX 23 76 18 77 20 78 22 79 21 80 10 81 11 82 14 83 12 84 13 85
REMARK SMILES IDX 15 86
REMARK H PARENT 78 22 48 33 15 87
REMARK Flexibility Score: inf
ROOT
ATOM      1  C   UNL     1      -0.636   3.179   2.544  1.00  0.00     0.275 C 
ENDROOT
BRANCH   1   2
ATOM      2  O   UNL     1       0.055   3.992   3.505  1.00  0.00    -0.458 OA
BRANCH   2   3
ATOM      3  C   UNL     1       0.573   3.627   4.702  1.00  0.00     0.338 C 
ATOM      4  O   UNL     1       1.130   4.475   5.397  1.00  0.00    -0.246 OA
BRANCH   3   5
ATOM      5  C   UNL     1       0.607   2.211   5.171  1.00  0.00     0.060 A 
ATOM      6  C   UNL     1      -0.448   1.298   5.083  1.00  0.00     0.016 A 
ATOM      7  C   UNL     1       1.778   1.806   5.823  1.00  0.00     0.016 A 
ATOM      8  C   UNL     1      -0.311  -0.011   5.574  1.00  0.00     0.010 A 
ATOM      9  C   UNL     1       1.936   0.493   6.268  1.00  0.00     0.010 A 
ATOM     10  C   UNL     1       0.880  -0.428   6.175  1.00  0.00    -0.014 A 
BRANCH  10  11
ATOM     11  C   UNL     1       1.001  -1.735   6.875  1.00  0.00     0.031 A 
ATOM     12  C   UNL     1       1.141  -1.720   8.371  1.00  0.00     0.074 A 
ATOM     13  C   UNL     1       0.999  -2.922   6.234  1.00  0.00     0.049 A 
ATOM     14  N   UNL     1       1.175  -2.739   9.187  1.00  0.00    -0.248 NA
ATOM     15  C   UNL     1       1.176  -0.408   9.044  1.00  0.00     0.031 C 
ATOM     16  C   UNL     1       0.706  -3.134   4.824  1.00  0.00     0.029 A 
ATOM     17  N   UNL     1       1.308  -4.185   6.681  1.00  0.00    -0.354 N 
ATOM     18  C   UNL     1       1.104  -2.190  10.456  1.00  0.00     0.074 A 
ATOM     19  C   UNL     1       1.219  -0.759  10.318  1.00  0.00     0.031 C 
ATOM     20  C   UNL     1       1.026  -4.393   4.477  1.00  0.00     0.029 A 
ATOM     21  C   UNL     1       1.473  -5.101   5.663  1.00  0.00     0.049 A 
ATOM     22  H   UNL     1       1.401  -4.414   7.634  1.00  0.00     0.167 HD
ATOM     23  C   UNL     1       0.834  -2.821  11.620  1.00  0.00     0.031 A 
ATOM     24  C   UNL     1       1.909  -6.375   5.686  1.00  0.00     0.031 A 
ATOM     25  C   UNL     1       0.763  -4.247  11.745  1.00  0.00     0.049 A 
ATOM     26  C   UNL     1       1.936  -7.057   7.021  1.00  0.00     0.074 A 
ATOM     27  C   UNL     1       0.451  -5.007  12.854  1.00  0.00     0.029 A 
ATOM     28  N   UNL     1       1.046  -5.132  10.713  1.00  0.00    -0.354 N 
ATOM     29  N   UNL     1       1.710  -6.536   8.203  1.00  0.00    -0.248 NA
ATOM     30  C   UNL     1       2.120  -8.513   7.021  1.00  0.00     0.031 C 
ATOM     31  C   UNL     1       0.613  -6.355  12.510  1.00  0.00     0.029 A 
ATOM     32  C   UNL     1       0.969  -6.433  11.171  1.00  0.00     0.049 A 
ATOM     33  H   UNL     1       1.268  -4.870   9.790  1.00  0.00     0.167 HD
ATOM     34  C   UNL     1       1.588  -7.612   9.068  1.00  0.00     0.074 A 
ATOM     35  C   UNL     1       1.838  -8.807   8.283  1.00  0.00     0.031 C 
ATOM     36  C   UNL     1       1.227  -7.609  10.375  1.00  0.00     0.031 A 
BRANCH  23  37
ATOM     37  C   UNL     1       0.560  -1.932  12.799  1.00  0.00    -0.014 A 
ATOM     38  C   UNL     1      -0.606  -1.137  12.829  1.00  0.00     0.010 A 
ATOM     39  C   UNL     1       1.496  -1.818  13.836  1.00  0.00     0.010 A 
ATOM     40  C   UNL     1      -0.791  -0.190  13.835  1.00  0.00     0.020 A 
ATOM     41  C   UNL     1       1.300  -0.888  14.861  1.00  0.00     0.020 A 
ATOM     42  C   UNL     1       0.173  -0.061  14.838  1.00  0.00     0.054 A 
BRANCH  42  43
ATOM     43  S   UNL     1      -0.062   1.213  16.107  1.00  0.00     0.124 S 
ATOM     44  O   UNL     1       0.216   2.436  15.359  1.00  0.00    -0.237 OA
ATOM     45  O   UNL     1      -1.458   1.020  16.497  1.00  0.00    -0.237 OA
ATOM     46  O   UNL     1       0.920   0.869  17.129  1.00  0.00    -0.744 OA
ENDBRANCH  42  43
ENDBRANCH  23  37
BRANCH  24  47
ATOM     47  C   UNL     1       2.203  -7.117   4.427  1.00  0.00    -0.014 A 
ATOM     48  C   UNL     1       1.278  -8.022   3.881  1.00  0.00     0.010 A 
ATOM     49  C   UNL     1       3.438  -6.934   3.775  1.00  0.00     0.010 A 
ATOM     50  C   UNL     1       1.590  -8.749   2.726  1.00  0.00     0.020 A 
ATOM     51  C   UNL     1       3.751  -7.652   2.613  1.00  0.00     0.020 A 
ATOM     52  C   UNL     1       2.826  -8.563   2.100  1.00  0.00     0.054 A 
BRANCH  52  53
ATOM     53  S   UNL     1       3.194  -9.517   0.598  1.00  0.00     0.124 S 
ATOM     54  O   UNL     1       3.242 -10.884   1.107  1.00  0.00    -0.237 OA
ATOM     55  O   UNL     1       2.053  -9.199  -0.256  1.00  0.00    -0.237 OA
ATOM     56  O   UNL     1       4.473  -8.973   0.149  1.00  0.00    -0.744 OA
ENDBRANCH  52  53
ENDBRANCH  24  47
BRANCH  36  57
ATOM     57  C   UNL     1       1.008  -8.944  11.023  1.00  0.00    -0.014 A 
ATOM     58  C   UNL     1       2.081  -9.796  11.328  1.00  0.00     0.010 A 
ATOM     59  C   UNL     1      -0.301  -9.323  11.374  1.00  0.00     0.010 A 
ATOM     60  C   UNL     1       1.843 -11.023  11.950  1.00  0.00     0.020 A 
ATOM     61  C   UNL     1      -0.538 -10.532  12.026  1.00  0.00     0.020 A 
ATOM     62  C   UNL     1       0.536 -11.381  12.298  1.00  0.00     0.054 A 
BRANCH  62  63
ATOM     63  S   UNL     1       0.262 -12.950  13.160  1.00  0.00     0.124 S 
ATOM     64  O   UNL     1       0.403 -13.919  12.077  1.00  0.00    -0.237 OA
ATOM     65  O   UNL     1       1.331 -12.959  14.156  1.00  0.00    -0.237 OA
ATOM     66  O   UNL     1      -1.087 -12.814  13.705  1.00  0.00    -0.744 OA
ENDBRANCH  62  63
ENDBRANCH  36  57
ENDBRANCH  10  11
ENDBRANCH   3   5
ENDBRANCH   2   3
ENDBRANCH   1   2
BRANCH   1  67
ATOM     67  C   UNL     1       0.265   2.401   1.590  1.00  0.00     0.274 C 
BRANCH  67  68
ATOM     68  O   UNL     1       1.405   1.817   2.232  1.00  0.00    -0.461 OA
BRANCH  68  69
ATOM     69  C   UNL     1       2.573   1.860   1.512  1.00  0.00     0.317 C 
ATOM     70  O   UNL     1       2.748   2.626   0.567  1.00  0.00    -0.251 OA
BRANCH  69  71
ATOM     71  C   UNL     1       3.663   0.863   2.039  1.00  0.00     0.098 C 
ATOM     72  C   UNL     1       4.389   0.341   0.771  1.00  0.00     0.024 C 
ATOM     73  C   UNL     1       4.691   1.612   2.920  1.00  0.00    -0.027 A 
ATOM     74  C   UNL     1       5.644  -0.464   1.054  1.00  0.00     0.006 C 
ATOM     75  C   UNL     1       6.049   1.234   2.935  1.00  0.00    -0.044 A 
ATOM     76  C   UNL     1       4.290   2.645   3.786  1.00  0.00     0.005 A 
ATOM     77  C   UNL     1       6.641   0.286   1.923  1.00  0.00     0.036 C 
ATOM     78  C   UNL     1       6.925   1.804   3.878  1.00  0.00     0.004 A 
ATOM     79  C   UNL     1       5.173   3.218   4.705  1.00  0.00     0.000 A 
ATOM     80  C   UNL     1       6.486   2.775   4.772  1.00  0.00     0.000 A 
BRANCH  71  81
ATOM     81  C   UNL     1       2.977  -0.278   2.882  1.00  0.00     0.040 C 
ATOM     82  C   UNL     1       3.845  -1.279   3.676  1.00  0.00     0.008 C 
ATOM     83  C   UNL     1       1.970  -1.187   2.159  1.00  0.00     0.119 C 
ATOM     84  C   UNL     1       3.694  -2.654   3.031  1.00  0.00     0.003 C 
ATOM     85  C   UNL     1       2.694  -2.497   1.901  1.00  0.00     0.032 C 
BRANCH  83  86
ATOM     86  O   UNL     1       1.419  -0.668   0.965  1.00  0.00    -0.393 OA
ATOM     87  H   UNL     1       2.127  -0.529   0.316  1.00  0.00     0.210 HD
ENDBRANCH  83  86
ENDBRANCH  71  81
ENDBRANCH  69  71
ENDBRANCH  68  69
ENDBRANCH  67  68
ENDBRANCH   1  67
TORSDOF 16
