REMARK SMILES O=C(CC1CCN(C(=O)N(CC2CC2)C2CC2)CC1)OCCOC(=O)c1ccc(-c2c3nc(c(-c4ccc(S(=O)(=O)[O-])cc4)c4ccc([nH]4)c(-c4ccc(S(=O)(=O)[O-])cc4)c4nc(c(-c5ccc(S(=O)(=O)[O-])cc5)c5ccc2[nH]5)C=C4)C=C3)cc1
REMARK SMILES IDX 21 1 20 2 2 3 1 4 3 5 4 6 5 7 19 8 6 9 18 10 7 11 8 12 9 13
REMARK SMILES IDX 10 14 11 15 12 16 13 17 14 18 15 19 16 20 17 21 22 22 23 23
REMARK SMILES IDX 24 24 25 25 26 26 27 27 85 28 28 29 84 30 29 31 30 32 31 33
REMARK SMILES IDX 78 34 32 35 83 36 77 37 79 38 33 39 82 40 76 41 75 42 34 44
REMARK SMILES IDX 64 45 45 46 63 47 46 48 49 49 62 50 80 51 47 52 48 53 61 55
REMARK SMILES IDX 81 56 50 57 35 58 36 59 44 60 37 61 43 62 38 63 39 64 40 65
REMARK SMILES IDX 41 66 42 67 65 68 66 69 74 70 67 71 73 72 68 73 69 74 70 75
REMARK SMILES IDX 71 76 72 77 51 78 52 79 60 80 53 81 59 82 54 83 55 84 56 85
REMARK SMILES IDX 57 86 58 87
REMARK H PARENT 79 43 49 54
REMARK Flexibility Score: inf
ROOT
ATOM      1  C   UNL     1       3.604  -1.466   0.094  1.00  0.00     0.274 C 
ENDROOT
BRANCH   1   2
ATOM      2  O   UNL     1       2.497  -0.568   0.236  1.00  0.00    -0.462 OA
BRANCH   2   3
ATOM      3  C   UNL     1       2.770   0.516   1.010  1.00  0.00     0.306 C 
ATOM      4  O   UNL     1       2.657   0.507   2.227  1.00  0.00    -0.252 OA
BRANCH   3   5
ATOM      5  C   UNL     1       3.161   1.729   0.190  1.00  0.00     0.126 C 
BRANCH   5   6
ATOM      6  C   UNL     1       4.494   2.360   0.636  1.00  0.00     0.003 C 
ATOM      7  C   UNL     1       4.601   3.831   0.167  1.00  0.00     0.026 C 
ATOM      8  C   UNL     1       5.731   1.579   0.134  1.00  0.00     0.026 C 
ATOM      9  C   UNL     1       4.991   3.973  -1.312  1.00  0.00     0.121 C 
ATOM     10  C   UNL     1       5.943   1.771  -1.367  1.00  0.00     0.121 C 
ATOM     11  N   UNL     1       6.197   3.178  -1.601  1.00  0.00    -0.325 N 
ATOM     12  C   UNL     1       7.367   3.874  -1.854  1.00  0.00     0.320 C 
ATOM     13  O   UNL     1       7.298   5.109  -1.886  1.00  0.00    -0.248 OA
BRANCH  12  14
ATOM     14  N   UNL     1       8.596   3.258  -2.065  1.00  0.00    -0.321 N 
BRANCH  14  15
ATOM     15  C   UNL     1       9.003   1.869  -1.797  1.00  0.00     0.125 C 
BRANCH  15  16
ATOM     16  C   UNL     1       9.264   1.097  -3.062  1.00  0.00     0.009 C 
ATOM     17  C   UNL     1       8.829  -0.343  -3.189  1.00  0.00     0.006 C 
ATOM     18  C   UNL     1       8.193   0.710  -4.054  1.00  0.00     0.006 C 
ENDBRANCH  15  16
ENDBRANCH  14  15
BRANCH  14  19
ATOM     19  C   UNL     1       9.761   4.095  -2.399  1.00  0.00     0.087 C 
ATOM     20  C   UNL     1      10.175   4.223  -3.849  1.00  0.00     0.027 C 
ATOM     21  C   UNL     1       9.785   5.440  -3.077  1.00  0.00     0.027 C 
ENDBRANCH  14  19
ENDBRANCH  12  14
ENDBRANCH   5   6
ENDBRANCH   3   5
ENDBRANCH   2   3
ENDBRANCH   1   2
BRANCH   1  22
ATOM     22  C   UNL     1       3.890  -1.784  -1.380  1.00  0.00     0.275 C 
BRANCH  22  23
ATOM     23  O   UNL     1       3.632  -0.657  -2.235  1.00  0.00    -0.458 OA
BRANCH  23  24
ATOM     24  C   UNL     1       2.357  -0.599  -2.710  1.00  0.00     0.338 C 
ATOM     25  O   UNL     1       1.501  -1.461  -2.595  1.00  0.00    -0.246 OA
BRANCH  24  26
ATOM     26  C   UNL     1       2.080   0.758  -3.230  1.00  0.00     0.060 A 
ATOM     27  C   UNL     1       0.901   1.390  -2.811  1.00  0.00     0.016 A 
ATOM     28  C   UNL     1       2.970   1.423  -4.078  1.00  0.00     0.016 A 
ATOM     29  C   UNL     1       0.609   2.687  -3.241  1.00  0.00     0.010 A 
ATOM     30  C   UNL     1       2.671   2.721  -4.512  1.00  0.00     0.010 A 
ATOM     31  C   UNL     1       1.484   3.358  -4.105  1.00  0.00    -0.014 A 
BRANCH  31  32
ATOM     32  C   UNL     1       1.129   4.694  -4.648  1.00  0.00     0.031 A 
ATOM     33  C   UNL     1       0.514   4.795  -6.016  1.00  0.00     0.074 A 
ATOM     34  C   UNL     1       1.365   5.814  -3.938  1.00  0.00     0.049 A 
ATOM     35  N   UNL     1       0.151   5.863  -6.679  1.00  0.00    -0.248 NA
ATOM     36  C   UNL     1       0.271   3.531  -6.729  1.00  0.00     0.031 C 
ATOM     37  C   UNL     1       1.930   5.862  -2.591  1.00  0.00     0.029 A 
ATOM     38  N   UNL     1       1.174   7.134  -4.267  1.00  0.00    -0.354 N 
ATOM     39  C   UNL     1      -0.369   5.404  -7.882  1.00  0.00     0.074 A 
ATOM     40  C   UNL     1      -0.249   3.961  -7.871  1.00  0.00     0.031 C 
ATOM     41  C   UNL     1       2.080   7.147  -2.223  1.00  0.00     0.029 A 
ATOM     42  C   UNL     1       1.629   8.012  -3.311  1.00  0.00     0.049 A 
ATOM     43  H   UNL     1       0.752   7.424  -5.107  1.00  0.00     0.167 HD
ATOM     44  C   UNL     1      -0.906   6.116  -8.900  1.00  0.00     0.031 A 
ATOM     45  C   UNL     1       1.693   9.359  -3.318  1.00  0.00     0.031 A 
ATOM     46  C   UNL     1      -1.018   7.549  -8.926  1.00  0.00     0.049 A 
ATOM     47  C   UNL     1       1.177  10.127  -4.509  1.00  0.00     0.074 A 
ATOM     48  C   UNL     1      -1.607   8.345  -9.894  1.00  0.00     0.029 A 
ATOM     49  N   UNL     1      -0.516   8.402  -7.958  1.00  0.00    -0.354 N 
ATOM     50  N   UNL     1       0.603   9.674  -5.597  1.00  0.00    -0.248 NA
ATOM     51  C   UNL     1       1.311  11.592  -4.466  1.00  0.00     0.031 C 
ATOM     52  C   UNL     1      -1.406   9.683  -9.540  1.00  0.00     0.029 A 
ATOM     53  C   UNL     1      -0.737   9.717  -8.328  1.00  0.00     0.049 A 
ATOM     54  H   UNL     1      -0.067   8.115  -7.130  1.00  0.00     0.167 HD
ATOM     55  C   UNL     1       0.289  10.798  -6.356  1.00  0.00     0.074 A 
ATOM     56  C   UNL     1       0.721  11.952  -5.598  1.00  0.00     0.031 C 
ATOM     57  C   UNL     1      -0.305  10.864  -7.572  1.00  0.00     0.031 A 
BRANCH  44  58
ATOM     58  C   UNL     1      -1.408   5.354 -10.094  1.00  0.00    -0.014 A 
ATOM     59  C   UNL     1      -2.634   4.668 -10.046  1.00  0.00     0.010 A 
ATOM     60  C   UNL     1      -0.686   5.395 -11.300  1.00  0.00     0.010 A 
ATOM     61  C   UNL     1      -3.122   4.019 -11.182  1.00  0.00     0.020 A 
ATOM     62  C   UNL     1      -1.180   4.762 -12.443  1.00  0.00     0.020 A 
ATOM     63  C   UNL     1      -2.391   4.071 -12.374  1.00  0.00     0.054 A 
BRANCH  63  64
ATOM     64  S   UNL     1      -3.073   3.262 -13.847  1.00  0.00     0.124 S 
ATOM     65  O   UNL     1      -2.854   1.850 -13.543  1.00  0.00    -0.237 OA
ATOM     66  O   UNL     1      -4.467   3.697 -13.836  1.00  0.00    -0.237 OA
ATOM     67  O   UNL     1      -2.265   3.796 -14.941  1.00  0.00    -0.744 OA
ENDBRANCH  63  64
ENDBRANCH  44  58
BRANCH  45  68
ATOM     68  C   UNL     1       2.304  10.089  -2.174  1.00  0.00    -0.014 A 
ATOM     69  C   UNL     1       1.512  10.874  -1.318  1.00  0.00     0.010 A 
ATOM     70  C   UNL     1       3.696  10.045  -1.971  1.00  0.00     0.010 A 
ATOM     71  C   UNL     1       2.105  11.632  -0.303  1.00  0.00     0.020 A 
ATOM     72  C   UNL     1       4.289  10.783  -0.943  1.00  0.00     0.020 A 
ATOM     73  C   UNL     1       3.491  11.588  -0.128  1.00  0.00     0.054 A 
BRANCH  73  74
ATOM     74  S   UNL     1       4.240  12.578   1.196  1.00  0.00     0.124 S 
ATOM     75  O   UNL     1       4.221  13.918   0.620  1.00  0.00    -0.237 OA
ATOM     76  O   UNL     1       3.325  12.357   2.314  1.00  0.00    -0.237 OA
ATOM     77  O   UNL     1       5.564  11.984   1.360  1.00  0.00    -0.744 OA
ENDBRANCH  73  74
ENDBRANCH  45  68
BRANCH  57  78
ATOM     78  C   UNL     1      -0.545  12.228  -8.163  1.00  0.00    -0.014 A 
ATOM     79  C   UNL     1       0.515  12.979  -8.701  1.00  0.00     0.010 A 
ATOM     80  C   UNL     1      -1.855  12.734  -8.248  1.00  0.00     0.010 A 
ATOM     81  C   UNL     1       0.272  14.220  -9.297  1.00  0.00     0.020 A 
ATOM     82  C   UNL     1      -2.105  13.963  -8.864  1.00  0.00     0.020 A 
ATOM     83  C   UNL     1      -1.038  14.704  -9.376  1.00  0.00     0.054 A 
BRANCH  83  84
ATOM     84  S   UNL     1      -1.338  16.288 -10.210  1.00  0.00     0.124 S 
ATOM     85  O   UNL     1      -0.887  17.250  -9.208  1.00  0.00    -0.237 OA
ATOM     86  O   UNL     1      -0.502  16.187 -11.404  1.00  0.00    -0.237 OA
ATOM     87  O   UNL     1      -2.777  16.279 -10.462  1.00  0.00    -0.744 OA
ENDBRANCH  83  84
ENDBRANCH  57  78
ENDBRANCH  31  32
ENDBRANCH  24  26
ENDBRANCH  23  24
ENDBRANCH  22  23
ENDBRANCH   1  22
TORSDOF 19
