REMARK SMILES C[C@]1(C(=O)OCCOC(=O)c2ccc(-c3c4nc(c(-c5ccc(S(=O)(=O)[O-])cc5)c5ccc([nH]5)c(-c5ccc(S(=O)(=O)[O-])cc5)c5nc(c(-c6ccc(S(=O)(=O)[O-])cc6)c6ccc3[nH]6)C=C5)C=C4)cc2)CCN(c2ccc([N+](=O)[O-])c(N)n2)C1
REMARK SMILES IDX 7 1 6 2 5 3 3 4 4 5 2 6 1 7 71 8 84 9 72 10 73 11 74 12
REMARK SMILES IDX 75 13 83 14 76 15 81 16 77 17 82 18 78 21 79 22 80 23 8 24
REMARK SMILES IDX 9 25 10 26 11 27 12 28 70 29 13 30 69 31 14 32 15 33 16 34
REMARK SMILES IDX 63 35 17 36 68 37 62 38 64 39 18 40 67 41 61 42 60 43 19 45
REMARK SMILES IDX 49 46 30 47 48 48 31 49 34 50 47 51 65 52 32 53 33 54 46 56
REMARK SMILES IDX 66 57 35 58 20 59 21 60 29 61 22 62 28 63 23 64 24 65 25 66
REMARK SMILES IDX 26 67 27 68 50 69 51 70 59 71 52 72 58 73 53 74 54 75 55 76
REMARK SMILES IDX 56 77 57 78 36 79 37 80 45 81 38 82 44 83 39 84 40 85 41 86
REMARK SMILES IDX 42 87 43 88
REMARK H PARENT 82 19 82 20 64 44 34 55
REMARK Flexibility Score: inf
ROOT
ATOM      1  C   UNL     1       3.096   1.512   0.926  1.00  0.00     0.275 C 
ENDROOT
BRANCH   1   2
ATOM      2  C   UNL     1       2.290   0.432   1.642  1.00  0.00     0.274 C 
BRANCH   2   3
ATOM      3  O   UNL     1       1.997  -0.675   0.768  1.00  0.00    -0.462 OA
BRANCH   3   4
ATOM      4  C   UNL     1       0.770  -0.646   0.175  1.00  0.00     0.313 C 
ATOM      5  O   UNL     1      -0.035   0.268   0.295  1.00  0.00    -0.252 OA
BRANCH   4   6
ATOM      6  C   UNL     1       0.525  -1.885  -0.669  1.00  0.00     0.084 C 
ATOM      7  C   UNL     1       1.311  -1.810  -1.982  1.00  0.00     0.026 C 
ATOM      8  C   UNL     1       0.845  -3.167   0.110  1.00  0.00     0.042 C 
ATOM      9  C   UNL     1      -0.989  -2.019  -0.922  1.00  0.00     0.136 C 
ATOM     10  C   UNL     1      -0.086  -4.221  -0.483  1.00  0.00     0.119 C 
ATOM     11  N   UNL     1      -1.238  -3.459  -0.941  1.00  0.00    -0.355 N 
BRANCH  11  12
ATOM     12  C   UNL     1      -2.517  -3.949  -0.823  1.00  0.00     0.131 A 
ATOM     13  C   UNL     1      -3.579  -3.360  -1.508  1.00  0.00     0.054 A 
ATOM     14  N   UNL     1      -2.728  -5.006  -0.004  1.00  0.00    -0.207 NA
ATOM     15  C   UNL     1      -4.872  -3.849  -1.341  1.00  0.00     0.093 A 
ATOM     16  C   UNL     1      -3.982  -5.464   0.203  1.00  0.00     0.204 A 
ATOM     17  C   UNL     1      -5.067  -4.912  -0.463  1.00  0.00     0.311 A 
BRANCH  16  18
ATOM     18  N   UNL     1      -4.052  -6.545   1.063  1.00  0.00    -0.378 N 
ATOM     19  H   UNL     1      -4.924  -6.948   1.275  1.00  0.00     0.158 HD
ATOM     20  H   UNL     1      -3.230  -6.910   1.462  1.00  0.00     0.158 HD
ENDBRANCH  16  18
BRANCH  17  21
ATOM     21  N   UNL     1      -6.407  -5.414  -0.243  1.00  0.00     0.066 N 
ATOM     22  O   UNL     1      -7.171  -5.451  -1.219  1.00  0.00    -0.258 OA
ATOM     23  O   UNL     1      -6.719  -5.749   0.912  1.00  0.00    -0.258 OA
ENDBRANCH  17  21
ENDBRANCH  11  12
ENDBRANCH   4   6
ENDBRANCH   3   4
ENDBRANCH   2   3
ENDBRANCH   1   2
BRANCH   1  24
ATOM     24  O   UNL     1       2.325   2.085  -0.144  1.00  0.00    -0.458 OA
BRANCH  24  25
ATOM     25  C   UNL     1       2.841   1.919  -1.383  1.00  0.00     0.338 C 
ATOM     26  O   UNL     1       3.890   1.374  -1.680  1.00  0.00    -0.246 OA
BRANCH  25  27
ATOM     27  C   UNL     1       1.941   2.504  -2.389  1.00  0.00     0.060 A 
ATOM     28  C   UNL     1       0.709   1.905  -2.652  1.00  0.00     0.016 A 
ATOM     29  C   UNL     1       2.405   3.546  -3.192  1.00  0.00     0.016 A 
ATOM     30  C   UNL     1      -0.014   2.277  -3.784  1.00  0.00     0.010 A 
ATOM     31  C   UNL     1       1.640   3.970  -4.283  1.00  0.00     0.010 A 
ATOM     32  C   UNL     1       0.452   3.301  -4.622  1.00  0.00    -0.014 A 
BRANCH  32  33
ATOM     33  C   UNL     1      -0.251   3.600  -5.899  1.00  0.00     0.031 A 
ATOM     34  C   UNL     1       0.445   3.356  -7.215  1.00  0.00     0.074 A 
ATOM     35  C   UNL     1      -1.522   4.046  -5.894  1.00  0.00     0.049 A 
ATOM     36  N   UNL     1       0.044   3.646  -8.427  1.00  0.00    -0.248 NA
ATOM     37  C   UNL     1       1.768   2.712  -7.159  1.00  0.00     0.031 C 
ATOM     38  C   UNL     1      -2.332   4.292  -4.699  1.00  0.00     0.029 A 
ATOM     39  N   UNL     1      -2.361   4.353  -6.935  1.00  0.00    -0.354 N 
ATOM     40  C   UNL     1       1.087   3.277  -9.270  1.00  0.00     0.074 A 
ATOM     41  C   UNL     1       2.136   2.735  -8.433  1.00  0.00     0.031 C 
ATOM     42  C   UNL     1      -3.565   4.667  -5.076  1.00  0.00     0.029 A 
ATOM     43  C   UNL     1      -3.616   4.742  -6.533  1.00  0.00     0.049 A 
ATOM     44  H   UNL     1      -2.090   4.300  -7.880  1.00  0.00     0.167 HD
ATOM     45  C   UNL     1       1.171   3.384 -10.618  1.00  0.00     0.031 A 
ATOM     46  C   UNL     1      -4.686   5.130  -7.253  1.00  0.00     0.031 A 
ATOM     47  C   UNL     1       0.116   3.874 -11.462  1.00  0.00     0.049 A 
ATOM     48  C   UNL     1      -4.586   5.204  -8.749  1.00  0.00     0.074 A 
ATOM     49  C   UNL     1       0.113   4.035 -12.838  1.00  0.00     0.029 A 
ATOM     50  N   UNL     1      -1.137   4.258 -11.013  1.00  0.00    -0.354 N 
ATOM     51  N   UNL     1      -3.563   4.923  -9.519  1.00  0.00    -0.248 NA
ATOM     52  C   UNL     1      -5.782   5.661  -9.470  1.00  0.00     0.031 C 
ATOM     53  C   UNL     1      -1.142   4.526 -13.219  1.00  0.00     0.029 A 
ATOM     54  C   UNL     1      -1.925   4.648 -12.082  1.00  0.00     0.049 A 
ATOM     55  H   UNL     1      -1.425   4.255 -10.071  1.00  0.00     0.167 HD
ATOM     56  C   UNL     1      -3.988   5.179 -10.817  1.00  0.00     0.074 A 
ATOM     57  C   UNL     1      -5.370   5.609 -10.730  1.00  0.00     0.031 C 
ATOM     58  C   UNL     1      -3.292   5.082 -11.976  1.00  0.00     0.031 A 
BRANCH  45  59
ATOM     59  C   UNL     1       2.476   2.995 -11.254  1.00  0.00    -0.014 A 
ATOM     60  C   UNL     1       2.813   1.647 -11.462  1.00  0.00     0.010 A 
ATOM     61  C   UNL     1       3.376   4.001 -11.650  1.00  0.00     0.010 A 
ATOM     62  C   UNL     1       4.050   1.309 -12.020  1.00  0.00     0.020 A 
ATOM     63  C   UNL     1       4.605   3.667 -12.224  1.00  0.00     0.020 A 
ATOM     64  C   UNL     1       4.943   2.321 -12.386  1.00  0.00     0.054 A 
BRANCH  64  65
ATOM     65  S   UNL     1       6.546   1.870 -13.108  1.00  0.00     0.124 S 
ATOM     66  O   UNL     1       7.343   1.593 -11.916  1.00  0.00    -0.237 OA
ATOM     67  O   UNL     1       6.220   0.706 -13.929  1.00  0.00    -0.237 OA
ATOM     68  O   UNL     1       6.933   3.064 -13.855  1.00  0.00    -0.744 OA
ENDBRANCH  64  65
ENDBRANCH  45  59
BRANCH  46  69
ATOM     69  C   UNL     1      -5.945   5.495  -6.556  1.00  0.00    -0.014 A 
ATOM     70  C   UNL     1      -7.032   4.604  -6.543  1.00  0.00     0.010 A 
ATOM     71  C   UNL     1      -6.047   6.719  -5.872  1.00  0.00     0.010 A 
ATOM     72  C   UNL     1      -8.203   4.931  -5.854  1.00  0.00     0.020 A 
ATOM     73  C   UNL     1      -7.209   7.040  -5.167  1.00  0.00     0.020 A 
ATOM     74  C   UNL     1      -8.283   6.146  -5.168  1.00  0.00     0.054 A 
BRANCH  74  75
ATOM     75  S   UNL     1      -9.770   6.526  -4.199  1.00  0.00     0.124 S 
ATOM     76  O   UNL     1     -10.636   7.136  -5.203  1.00  0.00    -0.237 OA
ATOM     77  O   UNL     1     -10.188   5.212  -3.717  1.00  0.00    -0.237 OA
ATOM     78  O   UNL     1      -9.272   7.428  -3.163  1.00  0.00    -0.744 OA
ENDBRANCH  74  75
ENDBRANCH  46  69
BRANCH  58  79
ATOM     79  C   UNL     1      -4.021   5.450 -13.236  1.00  0.00    -0.014 A 
ATOM     80  C   UNL     1      -4.198   6.799 -13.591  1.00  0.00     0.010 A 
ATOM     81  C   UNL     1      -4.518   4.442 -14.079  1.00  0.00     0.010 A 
ATOM     82  C   UNL     1      -4.894   7.135 -14.754  1.00  0.00     0.020 A 
ATOM     83  C   UNL     1      -5.203   4.775 -15.251  1.00  0.00     0.020 A 
ATOM     84  C   UNL     1      -5.402   6.121 -15.571  1.00  0.00     0.054 A 
BRANCH  84  85
ATOM     85  S   UNL     1      -6.289   6.569 -17.089  1.00  0.00     0.124 S 
ATOM     86  O   UNL     1      -7.640   6.809 -16.589  1.00  0.00    -0.237 OA
ATOM     87  O   UNL     1      -5.571   7.754 -17.553  1.00  0.00    -0.237 OA
ATOM     88  O   UNL     1      -6.136   5.387 -17.934  1.00  0.00    -0.744 OA
ENDBRANCH  84  85
ENDBRANCH  58  79
ENDBRANCH  32  33
ENDBRANCH  25  27
ENDBRANCH  24  25
ENDBRANCH   1  24
TORSDOF 17
