REMARK SMILES Cc1cc2c(c(C)c1Cl)C=C(C(=O)OCCOC(=O)c1ccc(-c3c4nc(c(-c5ccc(S(=O)(=O)[O-])cc5)c5ccc([nH]5)c(-c5ccc(S(=O)(=O)[O-])cc5)c5nc(c(-c6ccc(S(=O)(=O)[O-])cc6)c6ccc3[nH]6)C=C5)C=C4)cc1)[C@@H](C(F)(F)F)O2
REMARK SMILES IDX 16 1 15 2 14 3 12 4 13 5 11 6 1 7 2 8 3 9 8 10 4 11 6 12
REMARK SMILES IDX 9 13 5 14 85 15 7 16 10 17 80 18 81 19 82 20 83 21 84 22
REMARK SMILES IDX 17 23 18 24 19 25 20 26 21 27 79 28 22 29 78 30 23 31 24 32
REMARK SMILES IDX 25 33 72 34 26 35 77 36 71 37 73 38 27 39 76 40 70 41 69 42
REMARK SMILES IDX 28 44 58 45 39 46 57 47 40 48 43 49 56 50 74 51 41 52 42 53
REMARK SMILES IDX 55 55 75 56 44 57 29 58 30 59 38 60 31 61 37 62 32 63 33 64
REMARK SMILES IDX 34 65 35 66 36 67 59 68 60 69 68 70 61 71 67 72 62 73 63 74
REMARK SMILES IDX 64 75 65 76 66 77 45 78 46 79 54 80 47 81 53 82 48 83 49 84
REMARK SMILES IDX 50 85 51 86 52 87
REMARK H PARENT 73 43 43 54
REMARK Flexibility Score: inf
ROOT
ATOM      1  C   UNL     1      -0.934   2.133  10.127  1.00  0.00     0.275 C 
ENDROOT
BRANCH   1   2
ATOM      2  C   UNL     1      -1.981   1.345   9.341  1.00  0.00     0.275 C 
BRANCH   2   3
ATOM      3  O   UNL     1      -1.447   0.858   8.090  1.00  0.00    -0.459 OA
BRANCH   3   4
ATOM      4  C   UNL     1      -1.847   1.527   6.983  1.00  0.00     0.338 C 
ATOM      5  O   UNL     1      -2.612   2.478   6.945  1.00  0.00    -0.246 OA
BRANCH   4   6
ATOM      6  C   UNL     1      -1.233   0.946   5.774  1.00  0.00     0.087 C 
ATOM      7  C   UNL     1       1.054  -0.549  -0.120  1.00  0.00     0.046 C 
ATOM      8  C   UNL     1       0.643   0.102   1.173  1.00  0.00    -0.028 A 
ATOM      9  C   UNL     1       0.125  -0.697   2.200  1.00  0.00     0.052 A 
ATOM     10  C   UNL     1       0.783   1.486   1.387  1.00  0.00     0.047 A 
ATOM     11  C   UNL     1      -0.285  -0.134   3.408  1.00  0.00     0.128 A 
ATOM     12  C   UNL     1       0.371   2.077   2.603  1.00  0.00    -0.021 A 
ATOM     13  Cl  UNL     1       1.475   2.452   0.118  1.00  0.00    -0.084 Cl
ATOM     14  C   UNL     1      -0.180   1.245   3.615  1.00  0.00     0.022 A 
ATOM     15  O   UNL     1      -0.760  -1.024   4.332  1.00  0.00    -0.475 OA
ATOM     16  C   UNL     1       0.524   3.561   2.842  1.00  0.00     0.047 C 
ATOM     17  C   UNL     1      -0.674   1.775   4.884  1.00  0.00     0.027 C 
ATOM     18  C   UNL     1      -1.390  -0.524   5.539  1.00  0.00     0.316 C 
BRANCH  18  19
ATOM     19  C   UNL     1      -2.872  -0.935   5.532  1.00  0.00     0.430 C 
ATOM     20  F   UNL     1      -3.016  -2.261   5.289  1.00  0.00    -0.167 F 
ATOM     21  F   UNL     1      -3.461  -0.702   6.731  1.00  0.00    -0.167 F 
ATOM     22  F   UNL     1      -3.586  -0.272   4.595  1.00  0.00    -0.167 F 
ENDBRANCH  18  19
ENDBRANCH   4   6
ENDBRANCH   3   4
ENDBRANCH   2   3
ENDBRANCH   1   2
BRANCH   1  23
ATOM     23  O   UNL     1      -0.588   3.339   9.423  1.00  0.00    -0.458 OA
BRANCH  23  24
ATOM     24  C   UNL     1       0.619   3.312   8.813  1.00  0.00     0.338 C 
ATOM     25  O   UNL     1       1.444   2.415   8.850  1.00  0.00    -0.246 OA
BRANCH  24  26
ATOM     26  C   UNL     1       0.804   4.509   7.977  1.00  0.00     0.060 A 
ATOM     27  C   UNL     1      -0.043   4.702   6.894  1.00  0.00     0.016 A 
ATOM     28  C   UNL     1       1.953   5.284   8.106  1.00  0.00     0.016 A 
ATOM     29  C   UNL     1       0.361   5.518   5.840  1.00  0.00     0.010 A 
ATOM     30  C   UNL     1       2.277   6.212   7.108  1.00  0.00     0.010 A 
ATOM     31  C   UNL     1       1.535   6.280   5.913  1.00  0.00    -0.014 A 
BRANCH  31  32
ATOM     32  C   UNL     1       2.043   7.059   4.737  1.00  0.00     0.031 A 
ATOM     33  C   UNL     1       3.494   6.926   4.314  1.00  0.00     0.074 A 
ATOM     34  C   UNL     1       1.240   7.859   4.002  1.00  0.00     0.049 A 
ATOM     35  N   UNL     1       4.216   7.714   3.557  1.00  0.00    -0.248 NA
ATOM     36  C   UNL     1       4.234   5.759   4.827  1.00  0.00     0.031 C 
ATOM     37  C   UNL     1      -0.204   8.027   4.176  1.00  0.00     0.029 A 
ATOM     38  N   UNL     1       1.534   8.684   2.939  1.00  0.00    -0.354 N 
ATOM     39  C   UNL     1       5.506   7.190   3.574  1.00  0.00     0.074 A 
ATOM     40  C   UNL     1       5.469   6.012   4.414  1.00  0.00     0.031 C 
ATOM     41  C   UNL     1      -0.676   8.842   3.222  1.00  0.00     0.029 A 
ATOM     42  C   UNL     1       0.446   9.381   2.467  1.00  0.00     0.049 A 
ATOM     43  H   UNL     1       2.436   8.767   2.554  1.00  0.00     0.167 HD
ATOM     44  C   UNL     1       6.621   7.651   2.954  1.00  0.00     0.031 A 
ATOM     45  C   UNL     1       0.352  10.400   1.590  1.00  0.00     0.031 A 
ATOM     46  C   UNL     1       6.636   8.784   2.062  1.00  0.00     0.049 A 
ATOM     47  C   UNL     1       1.607  10.964   0.988  1.00  0.00     0.074 A 
ATOM     48  C   UNL     1       7.713   9.341   1.394  1.00  0.00     0.029 A 
ATOM     49  N   UNL     1       5.517   9.512   1.688  1.00  0.00    -0.354 N 
ATOM     50  N   UNL     1       2.845  10.554   1.127  1.00  0.00    -0.248 NA
ATOM     51  C   UNL     1       1.452  12.150   0.137  1.00  0.00     0.031 C 
ATOM     52  C   UNL     1       7.253  10.439   0.658  1.00  0.00     0.029 A 
ATOM     53  C   UNL     1       5.880  10.527   0.817  1.00  0.00     0.049 A 
ATOM     54  H   UNL     1       4.599   9.335   1.996  1.00  0.00     0.167 HD
ATOM     55  C   UNL     1       3.618  11.433   0.378  1.00  0.00     0.074 A 
ATOM     56  C   UNL     1       2.703  12.371  -0.241  1.00  0.00     0.031 C 
ATOM     57  C   UNL     1       4.965  11.468   0.225  1.00  0.00     0.031 A 
BRANCH  44  58
ATOM     58  C   UNL     1       7.935   6.971   3.252  1.00  0.00    -0.014 A 
ATOM     59  C   UNL     1       8.239   5.689   2.762  1.00  0.00     0.010 A 
ATOM     60  C   UNL     1       8.915   7.667   3.988  1.00  0.00     0.010 A 
ATOM     61  C   UNL     1       9.483   5.106   3.027  1.00  0.00     0.020 A 
ATOM     62  C   UNL     1      10.170   7.101   4.229  1.00  0.00     0.020 A 
ATOM     63  C   UNL     1      10.442   5.816   3.757  1.00  0.00     0.054 A 
BRANCH  63  64
ATOM     64  S   UNL     1      12.059   5.048   4.054  1.00  0.00     0.124 S 
ATOM     65  O   UNL     1      11.716   3.968   4.976  1.00  0.00    -0.237 OA
ATOM     66  O   UNL     1      12.462   4.627   2.715  1.00  0.00    -0.237 OA
ATOM     67  O   UNL     1      12.857   6.127   4.632  1.00  0.00    -0.744 OA
ENDBRANCH  63  64
ENDBRANCH  44  58
BRANCH  45  68
ATOM     68  C   UNL     1      -0.976  11.015   1.306  1.00  0.00    -0.014 A 
ATOM     69  C   UNL     1      -1.558  10.906   0.032  1.00  0.00     0.010 A 
ATOM     70  C   UNL     1      -1.679  11.694   2.321  1.00  0.00     0.010 A 
ATOM     71  C   UNL     1      -2.817  11.458  -0.220  1.00  0.00     0.020 A 
ATOM     72  C   UNL     1      -2.954  12.213   2.084  1.00  0.00     0.020 A 
ATOM     73  C   UNL     1      -3.512  12.097   0.811  1.00  0.00     0.054 A 
BRANCH  73  74
ATOM     74  S   UNL     1      -5.178  12.735   0.479  1.00  0.00     0.124 S 
ATOM     75  O   UNL     1      -4.900  13.869  -0.396  1.00  0.00    -0.237 OA
ATOM     76  O   UNL     1      -5.830  11.591  -0.153  1.00  0.00    -0.237 OA
ATOM     77  O   UNL     1      -5.685  13.077   1.806  1.00  0.00    -0.744 OA
ENDBRANCH  73  74
ENDBRANCH  45  68
BRANCH  57  78
ATOM     78  C   UNL     1       5.524  12.552  -0.657  1.00  0.00    -0.014 A 
ATOM     79  C   UNL     1       5.502  13.899  -0.252  1.00  0.00     0.010 A 
ATOM     80  C   UNL     1       6.083  12.221  -1.905  1.00  0.00     0.010 A 
ATOM     81  C   UNL     1       5.979  14.900  -1.101  1.00  0.00     0.020 A 
ATOM     82  C   UNL     1       6.591  13.216  -2.743  1.00  0.00     0.020 A 
ATOM     83  C   UNL     1       6.515  14.552  -2.345  1.00  0.00     0.054 A 
BRANCH  83  84
ATOM     84  S   UNL     1       7.123  15.873  -3.429  1.00  0.00     0.124 S 
ATOM     85  O   UNL     1       5.882  16.519  -3.845  1.00  0.00    -0.237 OA
ATOM     86  O   UNL     1       7.970  16.657  -2.533  1.00  0.00    -0.237 OA
ATOM     87  O   UNL     1       7.836  15.156  -4.484  1.00  0.00    -0.744 OA
ENDBRANCH  83  84
ENDBRANCH  57  78
ENDBRANCH  31  32
ENDBRANCH  24  26
ENDBRANCH  23  24
ENDBRANCH   1  23
TORSDOF 15
