REMARK SMILES O=C(C[C@H](C(=O)OCCOC(=O)c1ccc(-c2c3nc(c(-c4ccc(S(=O)(=O)[O-])cc4)c4ccc([nH]4)c(-c4ccc(S(=O)(=O)[O-])cc4)c4nc(c(-c5ccc(S(=O)(=O)[O-])cc5)c5ccc2[nH]5)C=C4)C=C3)cc1)c1ccccc1)Nc1ccc(Cl)cc1Cl
REMARK SMILES IDX 8 1 7 2 5 3 6 4 4 5 3 6 2 7 1 8 79 9 80 11 81 12 86 13 82 14
REMARK SMILES IDX 85 15 87 16 83 17 84 18 73 19 74 20 78 21 75 22 77 23 76 24
REMARK SMILES IDX 9 25 10 26 11 27 12 28 13 29 14 30 72 31 15 32 71 33 16 34
REMARK SMILES IDX 17 35 18 36 65 37 19 38 70 39 64 40 66 41 20 42 69 43 63 44
REMARK SMILES IDX 62 45 21 47 51 48 32 49 50 50 33 51 36 52 49 53 67 54 34 55
REMARK SMILES IDX 35 56 48 58 68 59 37 60 22 61 23 62 31 63 24 64 30 65 25 66
REMARK SMILES IDX 26 67 27 68 28 69 29 70 52 71 53 72 61 73 54 74 60 75 55 76
REMARK SMILES IDX 56 77 57 78 58 79 59 80 38 81 39 82 47 83 40 84 46 85 41 86
REMARK SMILES IDX 42 87 43 88 44 89 45 90
REMARK H PARENT 79 10 66 46 36 57
REMARK Flexibility Score: inf
ROOT
ATOM      1  C   UNL     1       0.900   0.347  -2.110  1.00  0.00     0.274 C 
ENDROOT
BRANCH   1   2
ATOM      2  O   UNL     1       1.984   1.270  -1.882  1.00  0.00    -0.462 OA
BRANCH   2   3
ATOM      3  C   UNL     1       2.681   1.069  -0.728  1.00  0.00     0.314 C 
ATOM      4  O   UNL     1       2.395   0.199   0.083  1.00  0.00    -0.252 OA
BRANCH   3   5
ATOM      5  C   UNL     1       3.723   2.161  -0.475  1.00  0.00     0.138 C 
BRANCH   5   6
ATOM      6  C   UNL     1       4.759   1.822   0.618  1.00  0.00     0.120 C 
BRANCH   6   7
ATOM      7  C   UNL     1       4.236   1.085   1.839  1.00  0.00     0.225 C 
ATOM      8  O   UNL     1       4.627  -0.053   2.078  1.00  0.00    -0.275 OA
ATOM      9  N   UNL     1       3.296   1.799   2.561  1.00  0.00    -0.325 N 
ATOM     10  H   UNL     1       3.067   2.699   2.234  1.00  0.00     0.169 HD
BRANCH   9  11
ATOM     11  C   UNL     1       2.636   1.346   3.729  1.00  0.00     0.060 A 
ATOM     12  C   UNL     1       1.286   1.722   3.834  1.00  0.00     0.029 A 
ATOM     13  C   UNL     1       3.208   0.594   4.773  1.00  0.00     0.066 A 
ATOM     14  C   UNL     1       0.504   1.299   4.911  1.00  0.00     0.023 A 
ATOM     15  C   UNL     1       2.417   0.163   5.847  1.00  0.00     0.043 A 
ATOM     16  Cl  UNL     1       4.912   0.349   4.948  1.00  0.00    -0.082 Cl
ATOM     17  C   UNL     1       1.070   0.509   5.906  1.00  0.00     0.042 A 
ATOM     18  Cl  UNL     1       0.105   0.003   7.237  1.00  0.00    -0.084 Cl
ENDBRANCH   9  11
ENDBRANCH   6   7
ENDBRANCH   5   6
BRANCH   5  19
ATOM     19  C   UNL     1       4.439   2.652  -1.730  1.00  0.00    -0.033 A 
ATOM     20  C   UNL     1       5.327   1.827  -2.439  1.00  0.00     0.004 A 
ATOM     21  C   UNL     1       4.248   3.966  -2.183  1.00  0.00     0.004 A 
ATOM     22  C   UNL     1       6.015   2.304  -3.556  1.00  0.00     0.000 A 
ATOM     23  C   UNL     1       4.937   4.442  -3.302  1.00  0.00     0.000 A 
ATOM     24  C   UNL     1       5.823   3.613  -3.985  1.00  0.00     0.000 A 
ENDBRANCH   5  19
ENDBRANCH   3   5
ENDBRANCH   2   3
ENDBRANCH   1   2
BRANCH   1  25
ATOM     25  C   UNL     1       1.333  -0.813  -3.001  1.00  0.00     0.275 C 
BRANCH  25  26
ATOM     26  O   UNL     1       2.428  -1.521  -2.398  1.00  0.00    -0.458 OA
BRANCH  26  27
ATOM     27  C   UNL     1       3.553  -1.588  -3.144  1.00  0.00     0.338 C 
ATOM     28  O   UNL     1       3.723  -1.150  -4.269  1.00  0.00    -0.246 OA
BRANCH  27  29
ATOM     29  C   UNL     1       4.598  -2.325  -2.417  1.00  0.00     0.060 A 
ATOM     30  C   UNL     1       5.125  -1.831  -1.223  1.00  0.00     0.016 A 
ATOM     31  C   UNL     1       5.144  -3.462  -3.013  1.00  0.00     0.016 A 
ATOM     32  C   UNL     1       6.258  -2.427  -0.664  1.00  0.00     0.010 A 
ATOM     33  C   UNL     1       6.226  -4.102  -2.409  1.00  0.00     0.010 A 
ATOM     34  C   UNL     1       6.819  -3.571  -1.250  1.00  0.00    -0.014 A 
BRANCH  34  35
ATOM     35  C   UNL     1       8.032  -4.224  -0.689  1.00  0.00     0.031 A 
ATOM     36  C   UNL     1       9.281  -4.331  -1.527  1.00  0.00     0.074 A 
ATOM     37  C   UNL     1       8.000  -4.779   0.538  1.00  0.00     0.049 A 
ATOM     38  N   UNL     1      10.350  -5.059  -1.329  1.00  0.00    -0.248 NA
ATOM     39  C   UNL     1       9.326  -3.523  -2.758  1.00  0.00     0.031 C 
ATOM     40  C   UNL     1       6.874  -4.718   1.473  1.00  0.00     0.029 A 
ATOM     41  N   UNL     1       8.941  -5.528   1.202  1.00  0.00    -0.354 N 
ATOM     42  C   UNL     1      11.167  -4.843  -2.433  1.00  0.00     0.074 A 
ATOM     43  C   UNL     1      10.477  -3.909  -3.295  1.00  0.00     0.031 C 
ATOM     44  C   UNL     1       7.188  -5.403   2.585  1.00  0.00     0.029 A 
ATOM     45  C   UNL     1       8.505  -6.007   2.414  1.00  0.00     0.049 A 
ATOM     46  H   UNL     1       9.841  -5.705   0.843  1.00  0.00     0.167 HD
ATOM     47  C   UNL     1      12.379  -5.382  -2.705  1.00  0.00     0.031 A 
ATOM     48  C   UNL     1       9.074  -6.875   3.272  1.00  0.00     0.031 A 
ATOM     49  C   UNL     1      13.085  -6.275  -1.825  1.00  0.00     0.049 A 
ATOM     50  C   UNL     1      10.406  -7.482   2.933  1.00  0.00     0.074 A 
ATOM     51  C   UNL     1      14.337  -6.840  -1.998  1.00  0.00     0.029 A 
ATOM     52  N   UNL     1      12.606  -6.726  -0.606  1.00  0.00    -0.354 N 
ATOM     53  N   UNL     1      11.159  -7.279   1.878  1.00  0.00    -0.248 NA
ATOM     54  C   UNL     1      10.960  -8.448   3.893  1.00  0.00     0.031 C 
ATOM     55  C   UNL     1      14.601  -7.661  -0.896  1.00  0.00     0.029 A 
ATOM     56  C   UNL     1      13.528  -7.576  -0.023  1.00  0.00     0.049 A 
ATOM     57  H   UNL     1      11.738  -6.477  -0.213  1.00  0.00     0.167 HD
ATOM     58  C   UNL     1      12.282  -8.078   2.058  1.00  0.00     0.074 A 
ATOM     59  C   UNL     1      12.118  -8.758   3.326  1.00  0.00     0.031 C 
ATOM     60  C   UNL     1      13.354  -8.234   1.245  1.00  0.00     0.031 A 
BRANCH  47  61
ATOM     61  C   UNL     1      13.017  -5.054  -4.028  1.00  0.00    -0.014 A 
ATOM     62  C   UNL     1      13.655  -3.822  -4.247  1.00  0.00     0.010 A 
ATOM     63  C   UNL     1      13.042  -6.031  -5.040  1.00  0.00     0.010 A 
ATOM     64  C   UNL     1      14.293  -3.565  -5.465  1.00  0.00     0.020 A 
ATOM     65  C   UNL     1      13.694  -5.785  -6.252  1.00  0.00     0.020 A 
ATOM     66  C   UNL     1      14.306  -4.548  -6.461  1.00  0.00     0.054 A 
BRANCH  66  67
ATOM     67  S   UNL     1      15.180  -4.211  -8.015  1.00  0.00     0.124 S 
ATOM     68  O   UNL     1      14.237  -3.335  -8.706  1.00  0.00    -0.237 OA
ATOM     69  O   UNL     1      16.413  -3.572  -7.561  1.00  0.00    -0.237 OA
ATOM     70  O   UNL     1      15.352  -5.534  -8.610  1.00  0.00    -0.744 OA
ENDBRANCH  66  67
ENDBRANCH  47  61
BRANCH  48  71
ATOM     71  C   UNL     1       8.356  -7.276   4.512  1.00  0.00    -0.014 A 
ATOM     72  C   UNL     1       8.805  -6.842   5.771  1.00  0.00     0.010 A 
ATOM     73  C   UNL     1       7.222  -8.106   4.436  1.00  0.00     0.010 A 
ATOM     74  C   UNL     1       8.149  -7.254   6.935  1.00  0.00     0.020 A 
ATOM     75  C   UNL     1       6.550  -8.499   5.595  1.00  0.00     0.020 A 
ATOM     76  C   UNL     1       7.029  -8.085   6.840  1.00  0.00     0.054 A 
BRANCH  76  77
ATOM     77  S   UNL     1       6.170  -8.591   8.356  1.00  0.00     0.124 S 
ATOM     78  O   UNL     1       6.996  -9.705   8.812  1.00  0.00    -0.237 OA
ATOM     79  O   UNL     1       6.226  -7.385   9.178  1.00  0.00    -0.237 OA
ATOM     80  O   UNL     1       4.835  -8.952   7.884  1.00  0.00    -0.744 OA
ENDBRANCH  76  77
ENDBRANCH  48  71
BRANCH  60  81
ATOM     81  C   UNL     1      14.452  -9.145   1.715  1.00  0.00    -0.014 A 
ATOM     82  C   UNL     1      14.321 -10.542   1.628  1.00  0.00     0.010 A 
ATOM     83  C   UNL     1      15.654  -8.593   2.193  1.00  0.00     0.010 A 
ATOM     84  C   UNL     1      15.370 -11.373   2.028  1.00  0.00     0.020 A 
ATOM     85  C   UNL     1      16.711  -9.421   2.576  1.00  0.00     0.020 A 
ATOM     86  C   UNL     1      16.558 -10.807   2.501  1.00  0.00     0.054 A 
BRANCH  86  87
ATOM     87  S   UNL     1      17.931 -11.901   2.961  1.00  0.00     0.124 S 
ATOM     88  O   UNL     1      17.523 -12.359   4.286  1.00  0.00    -0.237 OA
ATOM     89  O   UNL     1      17.904 -12.916   1.910  1.00  0.00    -0.237 OA
ATOM     90  O   UNL     1      19.096 -11.021   2.935  1.00  0.00    -0.744 OA
ENDBRANCH  86  87
ENDBRANCH  60  81
ENDBRANCH  34  35
ENDBRANCH  27  29
ENDBRANCH  26  27
ENDBRANCH  25  26
ENDBRANCH   1  25
TORSDOF 18
