REMARK SMILES C[C@@H](C(=O)OCCOC(=O)c1ccc(-c2c3nc(c(-c4ccc(S(=O)(=O)[O-])cc4)c4ccc([nH]4)c(-c4ccc(S(=O)(=O)[O-])cc4)c4nc(c(-c5ccc(S(=O)(=O)[O-])cc5)c5ccc2[nH]5)C=C4)C=C3)cc1)c1ccc(C[C@H]2CCC[C@H]2O)cc1
REMARK SMILES IDX 6 1 5 2 3 3 4 4 2 5 1 6 71 7 72 8 83 9 73 10 82 11 74 12
REMARK SMILES IDX 75 13 76 14 77 15 80 16 78 17 79 18 81 19 7 21 8 22 9 23
REMARK SMILES IDX 10 24 11 25 12 26 70 27 13 28 69 29 14 30 15 31 16 32 63 33
REMARK SMILES IDX 17 34 68 35 62 36 64 37 18 38 67 39 61 40 60 41 19 43 49 44
REMARK SMILES IDX 30 45 48 46 31 47 34 48 47 49 65 50 32 51 33 52 46 54 66 55
REMARK SMILES IDX 35 56 20 57 21 58 29 59 22 60 28 61 23 62 24 63 25 64 26 65
REMARK SMILES IDX 27 66 50 67 51 68 59 69 52 70 58 71 53 72 54 73 55 74 56 75
REMARK SMILES IDX 57 76 36 77 37 78 45 79 38 80 44 81 39 82 40 83 41 84 42 85
REMARK SMILES IDX 43 86
REMARK H PARENT 81 20 64 42 34 53
REMARK Flexibility Score: inf
ROOT
ATOM      1  C   UNL     1       2.417   0.362   3.862  1.00  0.00     0.274 C 
ENDROOT
BRANCH   1   2
ATOM      2  O   UNL     1       2.126   0.088   2.476  1.00  0.00    -0.462 OA
BRANCH   2   3
ATOM      3  C   UNL     1       1.015  -0.668   2.238  1.00  0.00     0.313 C 
ATOM      4  O   UNL     1       0.292  -1.105   3.120  1.00  0.00    -0.252 OA
BRANCH   3   5
ATOM      5  C   UNL     1       0.864  -0.999   0.741  1.00  0.00     0.126 C 
ATOM      6  C   UNL     1       1.433   0.084  -0.176  1.00  0.00     0.025 C 
BRANCH   5   7
ATOM      7  C   UNL     1      -0.582  -1.361   0.424  1.00  0.00    -0.034 A 
ATOM      8  C   UNL     1      -1.548  -0.414   0.064  1.00  0.00     0.005 A 
ATOM      9  C   UNL     1      -0.993  -2.686   0.617  1.00  0.00     0.005 A 
ATOM     10  C   UNL     1      -2.905  -0.764   0.012  1.00  0.00     0.004 A 
ATOM     11  C   UNL     1      -2.339  -3.032   0.548  1.00  0.00     0.004 A 
ATOM     12  C   UNL     1      -3.322  -2.063   0.335  1.00  0.00    -0.048 A 
BRANCH  12  13
ATOM     13  C   UNL     1      -4.779  -2.446   0.507  1.00  0.00     0.041 C 
BRANCH  13  14
ATOM     14  C   UNL     1      -5.345  -2.522   1.955  1.00  0.00     0.022 C 
ATOM     15  C   UNL     1      -4.576  -3.406   2.971  1.00  0.00     0.007 C 
ATOM     16  C   UNL     1      -5.474  -1.187   2.689  1.00  0.00     0.117 C 
ATOM     17  C   UNL     1      -4.127  -2.489   4.111  1.00  0.00     0.003 C 
ATOM     18  C   UNL     1      -4.185  -1.109   3.500  1.00  0.00     0.032 C 
BRANCH  16  19
ATOM     19  O   UNL     1      -5.752  -0.086   1.859  1.00  0.00    -0.393 OA
ATOM     20  H   UNL     1      -5.042   0.013   1.205  1.00  0.00     0.210 HD
ENDBRANCH  16  19
ENDBRANCH  13  14
ENDBRANCH  12  13
ENDBRANCH   5   7
ENDBRANCH   3   5
ENDBRANCH   2   3
ENDBRANCH   1   2
BRANCH   1  21
ATOM     21  C   UNL     1       2.013   1.789   4.235  1.00  0.00     0.275 C 
BRANCH  21  22
ATOM     22  O   UNL     1       0.580   1.897   4.389  1.00  0.00    -0.458 OA
BRANCH  22  23
ATOM     23  C   UNL     1      -0.032   2.882   3.690  1.00  0.00     0.338 C 
ATOM     24  O   UNL     1       0.501   3.688   2.936  1.00  0.00    -0.246 OA
BRANCH  23  25
ATOM     25  C   UNL     1      -1.496   2.795   3.866  1.00  0.00     0.060 A 
ATOM     26  C   UNL     1      -2.188   1.988   2.979  1.00  0.00     0.016 A 
ATOM     27  C   UNL     1      -2.217   3.571   4.784  1.00  0.00     0.016 A 
ATOM     28  C   UNL     1      -3.584   1.952   3.026  1.00  0.00     0.010 A 
ATOM     29  C   UNL     1      -3.634   3.470   4.862  1.00  0.00     0.010 A 
ATOM     30  C   UNL     1      -4.344   2.628   3.996  1.00  0.00    -0.014 A 
BRANCH  30  31
ATOM     31  C   UNL     1      -5.849   2.466   3.953  1.00  0.00     0.031 A 
ATOM     32  C   UNL     1      -6.624   3.178   2.870  1.00  0.00     0.074 A 
ATOM     33  C   UNL     1      -6.524   1.545   4.687  1.00  0.00     0.049 A 
ATOM     34  N   UNL     1      -7.895   3.088   2.561  1.00  0.00    -0.248 NA
ATOM     35  C   UNL     1      -5.870   4.131   2.043  1.00  0.00     0.031 C 
ATOM     36  C   UNL     1      -5.943   0.693   5.717  1.00  0.00     0.029 A 
ATOM     37  N   UNL     1      -7.824   1.064   4.569  1.00  0.00    -0.354 N 
ATOM     38  C   UNL     1      -8.109   4.024   1.559  1.00  0.00     0.074 A 
ATOM     39  C   UNL     1      -6.821   4.617   1.259  1.00  0.00     0.031 C 
ATOM     40  C   UNL     1      -6.788  -0.325   5.974  1.00  0.00     0.029 A 
ATOM     41  C   UNL     1      -8.027  -0.150   5.211  1.00  0.00     0.049 A 
ATOM     42  H   UNL     1      -8.532   1.539   4.078  1.00  0.00     0.167 HD
ATOM     43  C   UNL     1      -9.279   4.416   0.996  1.00  0.00     0.031 A 
ATOM     44  C   UNL     1      -9.058  -1.034   5.156  1.00  0.00     0.031 A 
ATOM     45  C   UNL     1     -10.572   3.860   1.296  1.00  0.00     0.049 A 
ATOM     46  C   UNL     1     -10.350  -0.619   4.478  1.00  0.00     0.074 A 
ATOM     47  C   UNL     1     -11.821   4.324   0.914  1.00  0.00     0.029 A 
ATOM     48  N   UNL     1     -10.787   2.708   2.031  1.00  0.00    -0.354 N 
ATOM     49  N   UNL     1     -10.583   0.393   3.679  1.00  0.00    -0.248 NA
ATOM     50  C   UNL     1     -11.551  -1.425   4.778  1.00  0.00     0.031 C 
ATOM     51  C   UNL     1     -12.794   3.477   1.458  1.00  0.00     0.029 A 
ATOM     52  C   UNL     1     -12.146   2.453   2.126  1.00  0.00     0.049 A 
ATOM     53  H   UNL     1     -10.078   2.152   2.429  1.00  0.00     0.167 HD
ATOM     54  C   UNL     1     -11.958   0.386   3.447  1.00  0.00     0.074 A 
ATOM     55  C   UNL     1     -12.495  -0.785   4.100  1.00  0.00     0.031 C 
ATOM     56  C   UNL     1     -12.709   1.311   2.800  1.00  0.00     0.031 A 
BRANCH  43  57
ATOM     57  C   UNL     1      -9.219   5.645   0.137  1.00  0.00    -0.014 A 
ATOM     58  C   UNL     1      -8.747   5.621  -1.185  1.00  0.00     0.010 A 
ATOM     59  C   UNL     1      -9.631   6.866   0.704  1.00  0.00     0.010 A 
ATOM     60  C   UNL     1      -8.643   6.812  -1.909  1.00  0.00     0.020 A 
ATOM     61  C   UNL     1      -9.553   8.051  -0.023  1.00  0.00     0.020 A 
ATOM     62  C   UNL     1      -9.037   8.020  -1.319  1.00  0.00     0.054 A 
BRANCH  62  63
ATOM     63  S   UNL     1      -8.868   9.557  -2.265  1.00  0.00     0.124 S 
ATOM     64  O   UNL     1      -7.421   9.762  -2.247  1.00  0.00    -0.237 OA
ATOM     65  O   UNL     1      -9.436   9.199  -3.562  1.00  0.00    -0.237 OA
ATOM     66  O   UNL     1      -9.643  10.527  -1.494  1.00  0.00    -0.744 OA
ENDBRANCH  62  63
ENDBRANCH  43  57
BRANCH  44  67
ATOM     67  C   UNL     1      -8.996  -2.396   5.797  1.00  0.00    -0.014 A 
ATOM     68  C   UNL     1      -9.265  -3.562   5.042  1.00  0.00     0.010 A 
ATOM     69  C   UNL     1      -8.756  -2.550   7.173  1.00  0.00     0.010 A 
ATOM     70  C   UNL     1      -9.306  -4.829   5.646  1.00  0.00     0.020 A 
ATOM     71  C   UNL     1      -8.745  -3.816   7.772  1.00  0.00     0.020 A 
ATOM     72  C   UNL     1      -9.038  -4.948   7.011  1.00  0.00     0.054 A 
BRANCH  72  73
ATOM     73  S   UNL     1      -9.024  -6.591   7.789  1.00  0.00     0.124 S 
ATOM     74  O   UNL     1     -10.439  -6.805   8.074  1.00  0.00    -0.237 OA
ATOM     75  O   UNL     1      -8.454  -7.441   6.746  1.00  0.00    -0.237 OA
ATOM     76  O   UNL     1      -8.170  -6.399   8.959  1.00  0.00    -0.744 OA
ENDBRANCH  72  73
ENDBRANCH  44  67
BRANCH  56  77
ATOM     77  C   UNL     1     -14.211   1.154   2.823  1.00  0.00    -0.014 A 
ATOM     78  C   UNL     1     -14.933   1.369   4.013  1.00  0.00     0.010 A 
ATOM     79  C   UNL     1     -14.921   0.863   1.644  1.00  0.00     0.010 A 
ATOM     80  C   UNL     1     -16.328   1.269   4.031  1.00  0.00     0.020 A 
ATOM     81  C   UNL     1     -16.320   0.781   1.653  1.00  0.00     0.020 A 
ATOM     82  C   UNL     1     -17.014   0.973   2.850  1.00  0.00     0.054 A 
BRANCH  82  83
ATOM     83  S   UNL     1     -18.828   0.885   2.892  1.00  0.00     0.124 S 
ATOM     84  O   UNL     1     -19.058  -0.378   3.587  1.00  0.00    -0.237 OA
ATOM     85  O   UNL     1     -19.192   2.087   3.639  1.00  0.00    -0.237 OA
ATOM     86  O   UNL     1     -19.209   0.898   1.481  1.00  0.00    -0.744 OA
ENDBRANCH  82  83
ENDBRANCH  56  77
ENDBRANCH  30  31
ENDBRANCH  23  25
ENDBRANCH  22  23
ENDBRANCH  21  22
ENDBRANCH   1  21
TORSDOF 18
