REMARK SMILES O=C(Cc1cccn1-c1ccc2c(c1)OCCO2)OCCOC(=O)c1ccc(-c2c3nc(c(-c4ccc(S(=O)(=O)[O-])cc4)c4ccc([nH]4)c(-c4ccc(S(=O)(=O)[O-])cc4)c4nc(c(-c5ccc(S(=O)(=O)[O-])cc5)c5ccc2[nH]5)C=C4)C=C3)cc1
REMARK SMILES IDX 21 1 20 2 19 3 2 4 1 5 3 6 4 7 5 8 8 9 6 10 7 11 9 12 10 13
REMARK SMILES IDX 14 14 11 15 13 16 12 17 15 18 18 19 16 20 17 21 22 22 23 23
REMARK SMILES IDX 24 24 25 25 26 26 84 27 27 28 83 29 28 30 29 31 30 32 77 33
REMARK SMILES IDX 31 34 82 35 76 36 78 37 32 38 81 39 75 40 74 41 33 43 63 44
REMARK SMILES IDX 44 45 62 46 45 47 48 48 61 49 79 50 46 51 47 52 60 54 80 55
REMARK SMILES IDX 49 56 34 57 35 58 43 59 36 60 42 61 37 62 38 63 39 64 40 65
REMARK SMILES IDX 41 66 64 67 65 68 73 69 66 70 72 71 67 72 68 73 69 74 70 75
REMARK SMILES IDX 71 76 50 77 51 78 59 79 52 80 58 81 53 82 54 83 55 84 56 85
REMARK SMILES IDX 57 86
REMARK H PARENT 78 42 48 53
REMARK Flexibility Score: inf
ROOT
ATOM      1  C   UNL     1       4.587   2.039  -0.252  1.00  0.00     0.275 C 
ENDROOT
BRANCH   1   2
ATOM      2  C   UNL     1       4.285   0.924  -1.240  1.00  0.00     0.274 C 
BRANCH   2   3
ATOM      3  O   UNL     1       2.910   0.501  -1.269  1.00  0.00    -0.462 OA
BRANCH   3   4
ATOM      4  C   UNL     1       2.379  -0.567  -0.624  1.00  0.00     0.311 C 
ATOM      5  O   UNL     1       1.258  -0.959  -0.949  1.00  0.00    -0.252 OA
BRANCH   4   6
ATOM      6  C   UNL     1       3.139  -1.233   0.510  1.00  0.00     0.177 C 
BRANCH   6   7
ATOM      7  C   UNL     1       3.902  -2.456   0.104  1.00  0.00     0.034 A 
ATOM      8  C   UNL     1       5.204  -2.509  -0.375  1.00  0.00     0.024 A 
ATOM      9  N   UNL     1       3.523  -3.759   0.407  1.00  0.00    -0.320 N 
ATOM     10  C   UNL     1       5.598  -3.854  -0.455  1.00  0.00     0.020 A 
ATOM     11  C   UNL     1       4.558  -4.599   0.040  1.00  0.00     0.091 A 
BRANCH   9  12
ATOM     12  C   UNL     1       2.379  -4.184   1.126  1.00  0.00     0.049 A 
ATOM     13  C   UNL     1       2.556  -5.036   2.226  1.00  0.00     0.031 A 
ATOM     14  C   UNL     1       1.102  -3.736   0.780  1.00  0.00     0.077 A 
ATOM     15  C   UNL     1       1.455  -5.412   2.997  1.00  0.00     0.052 A 
ATOM     16  C   UNL     1       0.006  -4.123   1.548  1.00  0.00     0.163 A 
ATOM     17  C   UNL     1       0.181  -4.972   2.647  1.00  0.00     0.161 A 
ATOM     18  O   UNL     1      -1.218  -3.644   1.158  1.00  0.00    -0.486 OA
ATOM     19  O   UNL     1      -0.858  -5.413   3.426  1.00  0.00    -0.486 OA
ATOM     20  C   UNL     1      -2.202  -3.821   2.182  1.00  0.00     0.271 C 
ATOM     21  C   UNL     1      -2.112  -5.222   2.765  1.00  0.00     0.271 C 
ENDBRANCH   9  12
ENDBRANCH   6   7
ENDBRANCH   4   6
ENDBRANCH   3   4
ENDBRANCH   2   3
ENDBRANCH   1   2
BRANCH   1  22
ATOM     22  O   UNL     1       4.354   1.621   1.082  1.00  0.00    -0.458 OA
BRANCH  22  23
ATOM     23  C   UNL     1       3.076   1.767   1.507  1.00  0.00     0.338 C 
ATOM     24  O   UNL     1       2.109   2.065   0.846  1.00  0.00    -0.246 OA
BRANCH  23  25
ATOM     25  C   UNL     1       3.062   1.629   2.965  1.00  0.00     0.060 A 
ATOM     26  C   UNL     1       1.822   1.815   3.579  1.00  0.00     0.016 A 
ATOM     27  C   UNL     1       4.277   1.732   3.654  1.00  0.00     0.016 A 
ATOM     28  C   UNL     1       1.811   2.373   4.832  1.00  0.00     0.010 A 
ATOM     29  C   UNL     1       4.270   2.366   4.866  1.00  0.00     0.010 A 
ATOM     30  C   UNL     1       3.037   2.725   5.412  1.00  0.00    -0.014 A 
BRANCH  30  31
ATOM     31  C   UNL     1       3.014   3.354   6.724  1.00  0.00     0.031 A 
ATOM     32  C   UNL     1       3.018   2.231   7.786  1.00  0.00     0.074 A 
ATOM     33  C   UNL     1       2.920   4.726   6.694  1.00  0.00     0.049 A 
ATOM     34  N   UNL     1       2.489   2.222   8.962  1.00  0.00    -0.248 NA
ATOM     35  C   UNL     1       3.594   0.880   7.475  1.00  0.00     0.031 C 
ATOM     36  C   UNL     1       2.969   5.579   5.469  1.00  0.00     0.029 A 
ATOM     37  N   UNL     1       2.763   5.699   7.654  1.00  0.00    -0.354 N 
ATOM     38  C   UNL     1       2.855   1.016   9.599  1.00  0.00     0.074 A 
ATOM     39  C   UNL     1       3.424   0.177   8.597  1.00  0.00     0.031 C 
ATOM     40  C   UNL     1       2.731   6.883   5.758  1.00  0.00     0.029 A 
ATOM     41  C   UNL     1       2.533   7.029   7.186  1.00  0.00     0.049 A 
ATOM     42  H   UNL     1       2.808   5.489   8.615  1.00  0.00     0.167 HD
ATOM     43  C   UNL     1       2.803   0.868  10.953  1.00  0.00     0.031 A 
ATOM     44  C   UNL     1       2.158   8.132   7.917  1.00  0.00     0.031 A 
ATOM     45  C   UNL     1       2.256   2.050  11.531  1.00  0.00     0.049 A 
ATOM     46  C   UNL     1       2.213   7.663   9.310  1.00  0.00     0.074 A 
ATOM     47  C   UNL     1       0.992   2.580  11.481  1.00  0.00     0.029 A 
ATOM     48  N   UNL     1       3.165   3.043  11.821  1.00  0.00    -0.354 N 
ATOM     49  N   UNL     1       3.302   7.397   9.965  1.00  0.00    -0.248 NA
ATOM     50  C   UNL     1       0.951   7.344   9.989  1.00  0.00     0.031 C 
ATOM     51  C   UNL     1       1.250   3.933  11.180  1.00  0.00     0.029 A 
ATOM     52  C   UNL     1       2.606   4.218  11.390  1.00  0.00     0.049 A 
ATOM     53  H   UNL     1       4.042   2.931  12.254  1.00  0.00     0.167 HD
ATOM     54  C   UNL     1       2.855   6.527  10.925  1.00  0.00     0.074 A 
ATOM     55  C   UNL     1       1.439   6.796  11.098  1.00  0.00     0.031 C 
ATOM     56  C   UNL     1       3.476   5.330  11.097  1.00  0.00     0.031 A 
BRANCH  43  57
ATOM     57  C   UNL     1       3.448  -0.110  11.889  1.00  0.00    -0.014 A 
ATOM     58  C   UNL     1       2.997  -0.069  13.233  1.00  0.00     0.010 A 
ATOM     59  C   UNL     1       4.665  -0.754  11.627  1.00  0.00     0.010 A 
ATOM     60  C   UNL     1       3.799  -0.493  14.289  1.00  0.00     0.020 A 
ATOM     61  C   UNL     1       5.460  -1.228  12.687  1.00  0.00     0.020 A 
ATOM     62  C   UNL     1       5.045  -1.042  14.009  1.00  0.00     0.054 A 
BRANCH  62  63
ATOM     63  S   UNL     1       6.126  -1.432  15.411  1.00  0.00     0.124 S 
ATOM     64  O   UNL     1       6.465  -0.105  15.917  1.00  0.00    -0.237 OA
ATOM     65  O   UNL     1       5.248  -2.223  16.271  1.00  0.00    -0.237 OA
ATOM     66  O   UNL     1       7.224  -2.177  14.801  1.00  0.00    -0.744 OA
ENDBRANCH  62  63
ENDBRANCH  43  57
BRANCH  44  67
ATOM     67  C   UNL     1       1.601   9.540   7.743  1.00  0.00    -0.014 A 
ATOM     68  C   UNL     1       1.391  10.233   6.545  1.00  0.00     0.010 A 
ATOM     69  C   UNL     1       1.091  10.190   8.911  1.00  0.00     0.010 A 
ATOM     70  C   UNL     1       0.571  11.399   6.509  1.00  0.00     0.020 A 
ATOM     71  C   UNL     1       0.233  11.293   8.883  1.00  0.00     0.020 A 
ATOM     72  C   UNL     1      -0.057  11.878   7.668  1.00  0.00     0.054 A 
BRANCH  72  73
ATOM     73  S   UNL     1      -1.363  13.145   7.588  1.00  0.00     0.124 S 
ATOM     74  O   UNL     1      -0.599  14.384   7.485  1.00  0.00    -0.237 OA
ATOM     75  O   UNL     1      -2.110  12.760   6.393  1.00  0.00    -0.237 OA
ATOM     76  O   UNL     1      -2.093  12.966   8.844  1.00  0.00    -0.744 OA
ENDBRANCH  72  73
ENDBRANCH  44  67
BRANCH  56  77
ATOM     77  C   UNL     1       4.925   5.235  10.614  1.00  0.00    -0.014 A 
ATOM     78  C   UNL     1       5.878   6.141  11.115  1.00  0.00     0.010 A 
ATOM     79  C   UNL     1       5.374   4.326   9.632  1.00  0.00     0.010 A 
ATOM     80  C   UNL     1       7.210   6.142  10.669  1.00  0.00     0.020 A 
ATOM     81  C   UNL     1       6.708   4.322   9.168  1.00  0.00     0.020 A 
ATOM     82  C   UNL     1       7.623   5.229   9.700  1.00  0.00     0.054 A 
BRANCH  82  83
ATOM     83  S   UNL     1       9.365   5.245   9.172  1.00  0.00     0.124 S 
ATOM     84  O   UNL     1       9.546   6.611   8.687  1.00  0.00    -0.237 OA
ATOM     85  O   UNL     1      10.073   4.925  10.409  1.00  0.00    -0.237 OA
ATOM     86  O   UNL     1       9.429   4.214   8.136  1.00  0.00    -0.744 OA
ENDBRANCH  82  83
ENDBRANCH  56  77
ENDBRANCH  30  31
ENDBRANCH  23  25
ENDBRANCH  22  23
ENDBRANCH   1  22
TORSDOF 16
