REMARK SMILES Cn1c(SCC(=O)Nc2cccc(C(=O)OCCOC(=O)c3ccc(-c4c5nc(c(-c6ccc(S(=O)(=O)[O-])cc6)c6ccc([nH]6)c(-c6ccc(S(=O)(=O)[O-])cc6)c6nc(c(-c7ccc(S(=O)(=O)[O-])cc7)c7ccc4[nH]7)C=C6)C=C5)cc3)c2)nnc1[C@@H]1CCCN1C(=O)c1ccccc1Cl
REMARK SMILES IDX 14 1 15 2 13 3 9 4 10 5 82 6 11 7 12 8 8 9 6 10 7 11 5 13
REMARK SMILES IDX 4 14 3 15 1 16 2 17 85 18 83 19 84 20 86 21 87 22 90 23
REMARK SMILES IDX 88 24 89 25 91 26 92 27 93 28 94 29 98 30 95 31 97 32 99 33
REMARK SMILES IDX 96 34 16 35 17 36 18 37 19 38 20 39 21 40 22 41 23 42 81 43
REMARK SMILES IDX 24 44 80 45 25 46 26 47 27 48 74 49 28 50 79 51 73 52 75 53
REMARK SMILES IDX 29 54 78 55 72 56 71 57 30 59 60 60 41 61 59 62 42 63 45 64
REMARK SMILES IDX 58 65 76 66 43 67 44 68 57 70 77 71 46 72 31 73 32 74 40 75
REMARK SMILES IDX 33 76 39 77 34 78 35 79 36 80 37 81 38 82 61 83 62 84 70 85
REMARK SMILES IDX 63 86 69 87 64 88 65 89 66 90 67 91 68 92 47 93 48 94 56 95
REMARK SMILES IDX 49 96 55 97 50 98 51 99 52 100 53 101 54 102
REMARK H PARENT 8 12 75 58 45 69
REMARK Flexibility Score: inf
ROOT
ATOM      1  C   UNL     1      -1.143   5.255   1.093  1.00  0.00     0.338 C 
ATOM      2  O   UNL     1      -1.353   6.288   0.472  1.00  0.00    -0.246 OA
ENDROOT
BRANCH   1   3
ATOM      3  C   UNL     1      -0.088   5.155   2.136  1.00  0.00     0.062 A 
ATOM      4  C   UNL     1       1.674   3.889   3.142  1.00  0.00     0.042 A 
ATOM      5  C   UNL     1       2.122   5.001   3.847  1.00  0.00     0.026 A 
ATOM      6  C   UNL     1       0.479   3.927   2.439  1.00  0.00     0.041 A 
ATOM      7  C   UNL     1       1.482   6.221   3.652  1.00  0.00     0.003 A 
ATOM      8  C   UNL     1       0.435   6.311   2.732  1.00  0.00     0.016 A 
BRANCH   4   9
ATOM      9  N   UNL     1       2.538   2.805   2.996  1.00  0.00    -0.325 N 
ATOM     10  C   UNL     1       3.068   2.376   1.806  1.00  0.00     0.234 C 
ATOM     11  O   UNL     1       3.995   1.557   1.870  1.00  0.00    -0.274 OA
ATOM     12  H   UNL     1       2.787   2.309   3.809  1.00  0.00     0.169 HD
BRANCH  10  13
ATOM     13  C   UNL     1       2.716   3.004   0.467  1.00  0.00     0.178 C 
BRANCH  13  14
ATOM     14  S   UNL     1       1.195   2.598  -0.370  1.00  0.00    -0.076 SA
BRANCH  14  15
ATOM     15  C   UNL     1       0.535   1.090   0.139  1.00  0.00     0.191 A 
ATOM     16  C   UNL     1       2.557  -0.397   0.380  1.00  0.00     0.154 C 
ATOM     17  N   UNL     1       1.163  -0.123   0.183  1.00  0.00    -0.307 N 
ATOM     18  C   UNL     1       0.163  -1.060   0.032  1.00  0.00     0.156 A 
ATOM     19  N   UNL     1      -0.766   0.896   0.204  1.00  0.00    -0.123 NA
ATOM     20  N   UNL     1      -1.000  -0.451   0.153  1.00  0.00    -0.132 NA
BRANCH  18  21
ATOM     21  C   UNL     1       0.325  -2.504  -0.276  1.00  0.00     0.154 C 
ATOM     22  C   UNL     1       0.980  -3.293   0.864  1.00  0.00     0.035 C 
ATOM     23  N   UNL     1       1.143  -2.813  -1.459  1.00  0.00    -0.328 N 
ATOM     24  C   UNL     1       1.593  -4.497   0.167  1.00  0.00     0.024 C 
ATOM     25  C   UNL     1       1.954  -3.996  -1.223  1.00  0.00     0.120 C 
BRANCH  23  26
ATOM     26  C   UNL     1       1.026  -2.360  -2.770  1.00  0.00     0.255 C 
ATOM     27  O   UNL     1       1.446  -3.000  -3.733  1.00  0.00    -0.269 OA
BRANCH  26  28
ATOM     28  C   UNL     1       0.498  -1.017  -3.058  1.00  0.00     0.058 A 
ATOM     29  C   UNL     1      -0.861  -0.844  -3.339  1.00  0.00     0.015 A 
ATOM     30  C   UNL     1       1.382   0.064  -3.192  1.00  0.00     0.053 A 
ATOM     31  C   UNL     1      -1.343   0.428  -3.667  1.00  0.00     0.001 A 
ATOM     32  C   UNL     1       0.890   1.332  -3.512  1.00  0.00     0.021 A 
ATOM     33  Cl  UNL     1       3.090  -0.098  -2.974  1.00  0.00    -0.083 Cl
ATOM     34  C   UNL     1      -0.474   1.518  -3.729  1.00  0.00     0.002 A 
ENDBRANCH  26  28
ENDBRANCH  23  26
ENDBRANCH  18  21
ENDBRANCH  14  15
ENDBRANCH  13  14
ENDBRANCH  10  13
ENDBRANCH   4   9
ENDBRANCH   1   3
BRANCH   1  35
ATOM     35  O   UNL     1      -1.829   4.095   0.982  1.00  0.00    -0.458 OA
BRANCH  35  36
ATOM     36  C   UNL     1      -2.927   4.073   0.050  1.00  0.00     0.275 C 
BRANCH  36  37
ATOM     37  C   UNL     1      -4.257   3.960   0.795  1.00  0.00     0.275 C 
BRANCH  37  38
ATOM     38  O   UNL     1      -4.454   5.117   1.629  1.00  0.00    -0.458 OA
BRANCH  38  39
ATOM     39  C   UNL     1      -4.149   4.933   2.935  1.00  0.00     0.338 C 
ATOM     40  O   UNL     1      -3.843   3.894   3.493  1.00  0.00    -0.246 OA
BRANCH  39  41
ATOM     41  C   UNL     1      -4.092   6.234   3.614  1.00  0.00     0.060 A 
ATOM     42  C   UNL     1      -2.912   6.958   3.509  1.00  0.00     0.016 A 
ATOM     43  C   UNL     1      -5.091   6.656   4.480  1.00  0.00     0.016 A 
ATOM     44  C   UNL     1      -2.659   8.039   4.336  1.00  0.00     0.010 A 
ATOM     45  C   UNL     1      -4.886   7.818   5.236  1.00  0.00     0.010 A 
ATOM     46  C   UNL     1      -3.651   8.497   5.201  1.00  0.00    -0.014 A 
BRANCH  46  47
ATOM     47  C   UNL     1      -3.364   9.649   6.094  1.00  0.00     0.031 A 
ATOM     48  C   UNL     1      -3.470   9.485   7.585  1.00  0.00     0.074 A 
ATOM     49  C   UNL     1      -2.979  10.832   5.574  1.00  0.00     0.049 A 
ATOM     50  N   UNL     1      -3.421  10.395   8.523  1.00  0.00    -0.248 NA
ATOM     51  C   UNL     1      -3.676   8.116   8.085  1.00  0.00     0.031 C 
ATOM     52  C   UNL     1      -2.771  11.108   4.150  1.00  0.00     0.029 A 
ATOM     53  N   UNL     1      -2.691  12.027   6.186  1.00  0.00    -0.354 N 
ATOM     54  C   UNL     1      -3.654   9.721   9.716  1.00  0.00     0.074 A 
ATOM     55  C   UNL     1      -3.859   8.329   9.380  1.00  0.00     0.031 C 
ATOM     56  C   UNL     1      -2.367  12.377   4.000  1.00  0.00     0.029 A 
ATOM     57  C   UNL     1      -2.385  13.034   5.301  1.00  0.00     0.049 A 
ATOM     58  H   UNL     1      -2.703  12.151   7.162  1.00  0.00     0.167 HD
ATOM     59  C   UNL     1      -3.700  10.221  10.975  1.00  0.00     0.031 A 
ATOM     60  C   UNL     1      -2.198  14.353   5.497  1.00  0.00     0.031 A 
ATOM     61  C   UNL     1      -3.479  11.608  11.293  1.00  0.00     0.049 A 
ATOM     62  C   UNL     1      -2.310  14.900   6.890  1.00  0.00     0.074 A 
ATOM     63  C   UNL     1      -3.490  12.220  12.534  1.00  0.00     0.029 A 
ATOM     64  N   UNL     1      -3.208  12.601  10.361  1.00  0.00    -0.354 N 
ATOM     65  N   UNL     1      -2.565  14.259   8.006  1.00  0.00    -0.248 NA
ATOM     66  C   UNL     1      -2.116  16.345   7.050  1.00  0.00     0.031 C 
ATOM     67  C   UNL     1      -3.288  13.592  12.345  1.00  0.00     0.029 A 
ATOM     68  C   UNL     1      -3.079  13.826  10.994  1.00  0.00     0.049 A 
ATOM     69  H   UNL     1      -3.120  12.455   9.391  1.00  0.00     0.167 HD
ATOM     70  C   UNL     1      -2.555  15.223   9.006  1.00  0.00     0.074 A 
ATOM     71  C   UNL     1      -2.242  16.485   8.363  1.00  0.00     0.031 C 
ATOM     72  C   UNL     1      -2.787  15.077  10.335  1.00  0.00     0.031 A 
BRANCH  59  73
ATOM     73  C   UNL     1      -4.072   9.266  12.082  1.00  0.00    -0.014 A 
ATOM     74  C   UNL     1      -3.228   8.208  12.468  1.00  0.00     0.010 A 
ATOM     75  C   UNL     1      -5.310   9.419  12.735  1.00  0.00     0.010 A 
ATOM     76  C   UNL     1      -3.646   7.282  13.429  1.00  0.00     0.020 A 
ATOM     77  C   UNL     1      -5.716   8.517  13.723  1.00  0.00     0.020 A 
ATOM     78  C   UNL     1      -4.893   7.437  14.042  1.00  0.00     0.054 A 
BRANCH  78  79
ATOM     79  S   UNL     1      -5.424   6.205  15.263  1.00  0.00     0.124 S 
ATOM     80  O   UNL     1      -5.721   5.051  14.416  1.00  0.00    -0.237 OA
ATOM     81  O   UNL     1      -4.246   6.070  16.116  1.00  0.00    -0.237 OA
ATOM     82  O   UNL     1      -6.583   6.824  15.900  1.00  0.00    -0.744 OA
ENDBRANCH  78  79
ENDBRANCH  59  73
BRANCH  60  83
ATOM     83  C   UNL     1      -1.945  15.234   4.324  1.00  0.00    -0.014 A 
ATOM     84  C   UNL     1      -0.682  15.810   4.114  1.00  0.00     0.010 A 
ATOM     85  C   UNL     1      -2.957  15.436   3.364  1.00  0.00     0.010 A 
ATOM     86  C   UNL     1      -0.430  16.559   2.960  1.00  0.00     0.020 A 
ATOM     87  C   UNL     1      -2.700  16.155   2.195  1.00  0.00     0.020 A 
ATOM     88  C   UNL     1      -1.436  16.714   2.001  1.00  0.00     0.054 A 
BRANCH  88  89
ATOM     89  S   UNL     1      -1.050  17.596   0.463  1.00  0.00     0.124 S 
ATOM     90  O   UNL     1      -0.947  18.977   0.921  1.00  0.00    -0.237 OA
ATOM     91  O   UNL     1       0.204  16.970   0.049  1.00  0.00    -0.237 OA
ATOM     92  O   UNL     1      -2.196  17.304  -0.397  1.00  0.00    -0.744 OA
ENDBRANCH  88  89
ENDBRANCH  60  83
BRANCH  72  93
ATOM     93  C   UNL     1      -2.688  16.315  11.187  1.00  0.00    -0.014 A 
ATOM     94  C   UNL     1      -3.656  17.332  11.113  1.00  0.00     0.010 A 
ATOM     95  C   UNL     1      -1.627  16.444  12.102  1.00  0.00     0.010 A 
ATOM     96  C   UNL     1      -3.544  18.473  11.912  1.00  0.00     0.020 A 
ATOM     97  C   UNL     1      -1.530  17.567  12.926  1.00  0.00     0.020 A 
ATOM     98  C   UNL     1      -2.480  18.583  12.814  1.00  0.00     0.054 A 
BRANCH  98  99
ATOM     99  S   UNL     1      -2.375  20.058  13.863  1.00  0.00     0.124 S 
ATOM    100  O   UNL     1      -1.977  21.085  12.903  1.00  0.00    -0.237 OA
ATOM    101  O   UNL     1      -3.735  20.178  14.384  1.00  0.00    -0.237 OA
ATOM    102  O   UNL     1      -1.362  19.707  14.855  1.00  0.00    -0.744 OA
ENDBRANCH  98  99
ENDBRANCH  72  93
ENDBRANCH  46  47
ENDBRANCH  39  41
ENDBRANCH  38  39
ENDBRANCH  37  38
ENDBRANCH  36  37
ENDBRANCH  35  36
ENDBRANCH   1  35
TORSDOF 21
