REMARK SMILES C[C@H]1[NH2+]CC[C@H]1C(=O)N1CCC(C(=O)OCCOC(=O)c2ccc(-c3c4nc(c(-c5ccc(S(=O)(=O)[O-])cc5)c5ccc([nH]5)c(-c5ccc(S(=O)(=O)[O-])cc5)c5nc(c(-c6ccc(S(=O)(=O)[O-])cc6)c6ccc3[nH]6)C=C5)C=C4)cc2)CC1
REMARK SMILES IDX 17 1 16 2 15 3 13 4 14 5 12 6 7 7 8 8 9 9 10 10 82 11 11 12
REMARK SMILES IDX 81 13 6 14 1 15 2 16 3 17 4 18 5 21 18 22 19 23 20 24 21 25
REMARK SMILES IDX 22 26 80 27 23 28 79 29 24 30 25 31 26 32 73 33 27 34 78 35
REMARK SMILES IDX 72 36 74 37 28 38 77 39 71 40 70 41 29 43 59 44 40 45 58 46
REMARK SMILES IDX 41 47 44 48 57 49 75 50 42 51 43 52 56 54 76 55 45 56 30 57
REMARK SMILES IDX 31 58 39 59 32 60 38 61 33 62 34 63 35 64 36 65 37 66 60 67
REMARK SMILES IDX 61 68 69 69 62 70 68 71 63 72 64 73 65 74 66 75 67 76 46 77
REMARK SMILES IDX 47 78 55 79 48 80 54 81 49 82 50 83 51 84 52 85 53 86
REMARK H PARENT 3 19 3 20 74 42 44 53
REMARK Flexibility Score: inf
ROOT
ATOM      1  C   UNL     1       6.235   7.330   2.884  1.00  0.00     0.275 C 
ENDROOT
BRANCH   1   2
ATOM      2  C   UNL     1       6.303   6.292   1.759  1.00  0.00     0.274 C 
BRANCH   2   3
ATOM      3  O   UNL     1       5.045   5.612   1.593  1.00  0.00    -0.462 OA
BRANCH   3   4
ATOM      4  C   UNL     1       4.972   4.362   2.114  1.00  0.00     0.309 C 
ATOM      5  O   UNL     1       5.914   3.771   2.633  1.00  0.00    -0.252 OA
BRANCH   4   6
ATOM      6  C   UNL     1       3.571   3.783   2.092  1.00  0.00     0.103 C 
ATOM      7  C   UNL     1       0.978   2.068  -0.240  1.00  0.00     0.231 C 
ATOM      8  O   UNL     1       1.486   2.651  -1.198  1.00  0.00    -0.274 OA
ATOM      9  N   UNL     1       1.239   2.447   1.067  1.00  0.00    -0.342 N 
ATOM     10  C   UNL     1       1.161   3.864   1.405  1.00  0.00     0.120 C 
ATOM     11  C   UNL     1       2.226   1.699   1.832  1.00  0.00     0.120 C 
ATOM     12  C   UNL     1       2.519   4.562   1.297  1.00  0.00     0.037 C 
ATOM     13  C   UNL     1       3.609   2.317   1.644  1.00  0.00     0.037 C 
BRANCH   7  14
ATOM     14  C   UNL     1      -0.065   0.978  -0.448  1.00  0.00     0.142 C 
ATOM     15  C   UNL     1       1.595  -1.022  -0.273  1.00  0.00     0.076 C 
ATOM     16  C   UNL     1       0.405  -0.374  -0.976  1.00  0.00     0.192 C 
ATOM     17  N   UNL     1      -0.784  -1.240  -0.808  1.00  0.00    -0.343 N 
ATOM     18  C   UNL     1      -1.637  -0.658   0.238  1.00  0.00     0.261 C 
ATOM     19  H   UNL     1      -0.492  -2.178  -0.532  1.00  0.00     0.346 HD
ATOM     20  H   UNL     1      -1.300  -1.304  -1.686  1.00  0.00     0.346 HD
ATOM     21  C   UNL     1      -0.957   0.612   0.722  1.00  0.00     0.081 C 
ENDBRANCH   7  14
ENDBRANCH   4   6
ENDBRANCH   3   4
ENDBRANCH   2   3
ENDBRANCH   1   2
BRANCH   1  22
ATOM     22  O   UNL     1       6.058   6.728   4.182  1.00  0.00    -0.458 OA
BRANCH  22  23
ATOM     23  C   UNL     1       4.770   6.585   4.567  1.00  0.00     0.338 C 
ATOM     24  O   UNL     1       3.772   6.896   3.931  1.00  0.00    -0.246 OA
BRANCH  23  25
ATOM     25  C   UNL     1       4.680   5.886   5.857  1.00  0.00     0.060 A 
ATOM     26  C   UNL     1       4.129   4.606   5.859  1.00  0.00     0.016 A 
ATOM     27  C   UNL     1       4.961   6.533   7.060  1.00  0.00     0.016 A 
ATOM     28  C   UNL     1       3.781   3.991   7.054  1.00  0.00     0.010 A 
ATOM     29  C   UNL     1       4.651   5.894   8.269  1.00  0.00     0.010 A 
ATOM     30  C   UNL     1       4.024   4.634   8.272  1.00  0.00    -0.014 A 
BRANCH  30  31
ATOM     31  C   UNL     1       3.545   3.999   9.525  1.00  0.00     0.031 A 
ATOM     32  C   UNL     1       2.394   4.603  10.284  1.00  0.00     0.074 A 
ATOM     33  C   UNL     1       4.088   2.837   9.939  1.00  0.00     0.049 A 
ATOM     34  N   UNL     1       1.855   4.214  11.412  1.00  0.00    -0.248 NA
ATOM     35  C   UNL     1       1.767   5.799   9.699  1.00  0.00     0.031 C 
ATOM     36  C   UNL     1       5.168   2.118   9.259  1.00  0.00     0.029 A 
ATOM     37  N   UNL     1       3.791   2.047  11.020  1.00  0.00    -0.354 N 
ATOM     38  C   UNL     1       0.853   5.135  11.690  1.00  0.00     0.074 A 
ATOM     39  C   UNL     1       0.861   6.106  10.617  1.00  0.00     0.031 C 
ATOM     40  C   UNL     1       5.422   0.979   9.924  1.00  0.00     0.029 A 
ATOM     41  C   UNL     1       4.563   0.914  11.102  1.00  0.00     0.049 A 
ATOM     42  H   UNL     1       3.090   2.271  11.675  1.00  0.00     0.167 HD
ATOM     43  C   UNL     1       0.003   5.172  12.745  1.00  0.00     0.031 A 
ATOM     44  C   UNL     1       4.591  -0.061  12.031  1.00  0.00     0.031 A 
ATOM     45  C   UNL     1      -0.018   4.197  13.803  1.00  0.00     0.049 A 
ATOM     46  C   UNL     1       3.654   0.013  13.203  1.00  0.00     0.074 A 
ATOM     47  C   UNL     1      -0.830   4.158  14.925  1.00  0.00     0.029 A 
ATOM     48  N   UNL     1       0.801   3.081  13.865  1.00  0.00    -0.354 N 
ATOM     49  N   UNL     1       2.745   0.920  13.474  1.00  0.00    -0.248 NA
ATOM     50  C   UNL     1       3.748  -1.066  14.194  1.00  0.00     0.031 C 
ATOM     51  C   UNL     1      -0.482   3.030  15.678  1.00  0.00     0.029 A 
ATOM     52  C   UNL     1       0.518   2.348  15.005  1.00  0.00     0.049 A 
ATOM     53  H   UNL     1       1.484   2.844  13.196  1.00  0.00     0.167 HD
ATOM     54  C   UNL     1       2.150   0.512  14.662  1.00  0.00     0.074 A 
ATOM     55  C   UNL     1       2.788  -0.731  15.046  1.00  0.00     0.031 C 
ATOM     56  C   UNL     1       1.166   1.115  15.373  1.00  0.00     0.031 A 
BRANCH  43  57
ATOM     57  C   UNL     1      -0.945   6.337  12.825  1.00  0.00    -0.014 A 
ATOM     58  C   UNL     1      -2.079   6.415  11.996  1.00  0.00     0.010 A 
ATOM     59  C   UNL     1      -0.702   7.364  13.755  1.00  0.00     0.010 A 
ATOM     60  C   UNL     1      -2.930   7.521  12.068  1.00  0.00     0.020 A 
ATOM     61  C   UNL     1      -1.563   8.461  13.844  1.00  0.00     0.020 A 
ATOM     62  C   UNL     1      -2.661   8.543  12.986  1.00  0.00     0.054 A 
BRANCH  62  63
ATOM     63  S   UNL     1      -3.780   9.969  13.065  1.00  0.00     0.124 S 
ATOM     64  O   UNL     1      -3.358  10.745  11.901  1.00  0.00    -0.237 OA
ATOM     65  O   UNL     1      -5.100   9.352  12.963  1.00  0.00    -0.237 OA
ATOM     66  O   UNL     1      -3.477  10.573  14.360  1.00  0.00    -0.744 OA
ENDBRANCH  62  63
ENDBRANCH  43  57
BRANCH  44  67
ATOM     67  C   UNL     1       5.561  -1.180  11.897  1.00  0.00    -0.014 A 
ATOM     68  C   UNL     1       5.123  -2.470  11.553  1.00  0.00     0.010 A 
ATOM     69  C   UNL     1       6.934  -0.951  12.096  1.00  0.00     0.010 A 
ATOM     70  C   UNL     1       6.041  -3.515  11.419  1.00  0.00     0.020 A 
ATOM     71  C   UNL     1       7.858  -1.987  11.939  1.00  0.00     0.020 A 
ATOM     72  C   UNL     1       7.404  -3.266  11.612  1.00  0.00     0.054 A 
BRANCH  72  73
ATOM     73  S   UNL     1       8.590  -4.617  11.369  1.00  0.00     0.124 S 
ATOM     74  O   UNL     1       8.481  -5.346  12.628  1.00  0.00    -0.237 OA
ATOM     75  O   UNL     1       8.059  -5.302  10.192  1.00  0.00    -0.237 OA
ATOM     76  O   UNL     1       9.856  -3.920  11.153  1.00  0.00    -0.744 OA
ENDBRANCH  72  73
ENDBRANCH  44  67
BRANCH  56  77
ATOM     77  C   UNL     1       0.702   0.417  16.620  1.00  0.00    -0.014 A 
ATOM     78  C   UNL     1       1.479   0.432  17.792  1.00  0.00     0.010 A 
ATOM     79  C   UNL     1      -0.538  -0.247  16.624  1.00  0.00     0.010 A 
ATOM     80  C   UNL     1       1.042  -0.241  18.936  1.00  0.00     0.020 A 
ATOM     81  C   UNL     1      -0.986  -0.904  17.772  1.00  0.00     0.020 A 
ATOM     82  C   UNL     1      -0.184  -0.913  18.915  1.00  0.00     0.054 A 
BRANCH  82  83
ATOM     83  S   UNL     1      -0.744  -1.769  20.413  1.00  0.00     0.124 S 
ATOM     84  O   UNL     1       0.015  -3.015  20.351  1.00  0.00    -0.237 OA
ATOM     85  O   UNL     1      -0.354  -0.849  21.479  1.00  0.00    -0.237 OA
ATOM     86  O   UNL     1      -2.185  -1.905  20.213  1.00  0.00    -0.744 OA
ENDBRANCH  82  83
ENDBRANCH  56  77
ENDBRANCH  30  31
ENDBRANCH  23  25
ENDBRANCH  22  23
ENDBRANCH   1  22
TORSDOF 15
