REMARK SMILES O=C(NC(=S)Nc1c(Cl)cc(Cl)cc1C(=O)OCCOC(=O)c1ccc(-c2c3nc(c(-c4ccc(S(=O)(=O)[O-])cc4)c4ccc([nH]4)c(-c4ccc(S(=O)(=O)[O-])cc4)c4nc(c(-c5ccc(S(=O)(=O)[O-])cc5)c5ccc2[nH]5)C=C4)C=C3)cc1)c1cccc([N+](=O)[O-])c1
REMARK SMILES IDX 18 1 17 2 15 3 16 4 14 5 7 6 8 7 9 8 10 9 13 10 11 11 12 12
REMARK SMILES IDX 6 13 4 15 5 16 3 17 1 18 2 19 83 21 84 22 91 23 85 24 87 25
REMARK SMILES IDX 86 26 88 27 89 28 90 29 19 30 20 31 21 32 22 33 23 34 24 35
REMARK SMILES IDX 82 36 25 37 81 38 26 39 27 40 28 41 75 42 29 43 80 44 74 45
REMARK SMILES IDX 76 46 30 47 79 48 73 49 72 50 31 52 61 53 42 54 60 55 43 56
REMARK SMILES IDX 46 57 59 58 77 59 44 60 45 61 58 63 78 64 47 65 32 66 33 67
REMARK SMILES IDX 41 68 34 69 40 70 35 71 36 72 37 73 38 74 39 75 62 76 63 77
REMARK SMILES IDX 71 78 64 79 70 80 65 81 66 82 67 83 68 84 69 85 48 86 49 87
REMARK SMILES IDX 57 88 50 89 56 90 51 91 52 92 53 93 54 94 55 95
REMARK H PARENT 6 14 3 20 76 51 46 62
REMARK Flexibility Score: inf
ROOT
ATOM      1  C   UNL     1       7.754   1.251   2.707  1.00  0.00     0.275 C 
ENDROOT
BRANCH   1   2
ATOM      2  O   UNL     1       6.635   0.625   2.045  1.00  0.00    -0.458 OA
BRANCH   2   3
ATOM      3  C   UNL     1       6.432  -0.662   2.394  1.00  0.00     0.340 C 
ATOM      4  O   UNL     1       7.095  -1.361   3.137  1.00  0.00    -0.246 OA
BRANCH   3   5
ATOM      5  C   UNL     1       5.253  -1.184   1.711  1.00  0.00     0.086 A 
ATOM      6  C   UNL     1       5.023  -1.126  -0.281  1.00  0.00     0.074 A 
ATOM      7  C   UNL     1       3.444  -2.050  -1.021  1.00  0.00     0.066 A 
ATOM      8  Cl  UNL     1       3.207  -1.924  -2.747  1.00  0.00    -0.082 Cl
ATOM      9  C   UNL     1       1.985  -2.974  -0.067  1.00  0.00     0.043 A 
ATOM     10  C   UNL     1       3.816  -2.138   2.662  1.00  0.00     0.038 A 
ATOM     11  C   UNL     1       2.207  -2.993   1.929  1.00  0.00     0.043 A 
ATOM     12  Cl  UNL     1       0.917  -3.468   2.975  1.00  0.00    -0.084 Cl
BRANCH   6  13
ATOM     13  N   UNL     1       5.483   0.021  -0.950  1.00  0.00    -0.330 N 
ATOM     14  H   UNL     1       6.455   0.172  -0.998  1.00  0.00     0.169 HD
BRANCH  13  15
ATOM     15  C   UNL     1       4.666   0.935  -1.536  1.00  0.00     0.177 C 
ATOM     16  S   UNL     1       5.324   2.030  -2.615  1.00  0.00    -0.040 S 
BRANCH  15  17
ATOM     17  N   UNL     1       3.315   1.062  -1.205  1.00  0.00    -0.299 N 
ATOM     18  O   UNL     1       1.177   1.141  -0.398  1.00  0.00    -0.269 OA
ATOM     19  C   UNL     1       2.305   0.662  -0.281  1.00  0.00     0.257 C 
ATOM     20  H   UNL     1       2.898   1.659  -1.867  1.00  0.00     0.172 HD
BRANCH  19  21
ATOM     21  C   UNL     1       2.501  -0.256   0.880  1.00  0.00     0.047 A 
ATOM     22  C   UNL     1       3.577  -0.954   0.903  1.00  0.00     0.014 A 
ATOM     23  C   UNL     1       2.686  -1.552   0.854  1.00  0.00     0.099 A 
ATOM     24  C   UNL     1       4.664  -2.677   0.745  1.00  0.00     0.008 A 
ATOM     25  C   UNL     1       3.651  -3.371   0.732  1.00  0.00     0.270 A 
ATOM     26  C   UNL     1       4.788  -3.924   0.595  1.00  0.00     0.085 A 
BRANCH  25  27
ATOM     27  N   UNL     1       2.883  -4.970   0.776  1.00  0.00     0.062 N 
ATOM     28  O   UNL     1       2.946  -5.577   1.858  1.00  0.00    -0.258 OA
ATOM     29  O   UNL     1       2.552  -5.465  -0.317  1.00  0.00    -0.258 OA
ENDBRANCH  25  27
ENDBRANCH  19  21
ENDBRANCH  15  17
ENDBRANCH  13  15
ENDBRANCH   6  13
ENDBRANCH   3   5
ENDBRANCH   2   3
ENDBRANCH   1   2
BRANCH   1  30
ATOM     30  C   UNL     1       7.329   1.890   4.031  1.00  0.00     0.275 C 
BRANCH  30  31
ATOM     31  O   UNL     1       6.871   0.877   4.944  1.00  0.00    -0.458 OA
BRANCH  31  32
ATOM     32  C   UNL     1       5.882   1.251   5.790  1.00  0.00     0.338 C 
ATOM     33  O   UNL     1       5.387   2.363   5.877  1.00  0.00    -0.246 OA
BRANCH  32  34
ATOM     34  C   UNL     1       5.449   0.105   6.623  1.00  0.00     0.060 A 
ATOM     35  C   UNL     1       5.314  -1.180   6.091  1.00  0.00     0.016 A 
ATOM     36  C   UNL     1       5.048   0.351   7.938  1.00  0.00     0.016 A 
ATOM     37  C   UNL     1       4.671  -2.182   6.826  1.00  0.00     0.010 A 
ATOM     38  C   UNL     1       4.477  -0.673   8.700  1.00  0.00     0.010 A 
ATOM     39  C   UNL     1       4.222  -1.933   8.132  1.00  0.00    -0.014 A 
BRANCH  39  40
ATOM     40  C   UNL     1       3.361  -2.916   8.850  1.00  0.00     0.031 A 
ATOM     41  C   UNL     1       1.966  -2.513   9.268  1.00  0.00     0.074 A 
ATOM     42  C   UNL     1       3.766  -4.177   9.096  1.00  0.00     0.049 A 
ATOM     43  N   UNL     1       1.143  -3.118  10.085  1.00  0.00    -0.248 NA
ATOM     44  C   UNL     1       1.440  -1.254   8.711  1.00  0.00     0.031 C 
ATOM     45  C   UNL     1       5.053  -4.757   8.712  1.00  0.00     0.029 A 
ATOM     46  N   UNL     1       3.103  -5.215   9.706  1.00  0.00    -0.354 N 
ATOM     47  C   UNL     1       0.056  -2.264  10.227  1.00  0.00     0.074 A 
ATOM     48  C   UNL     1       0.298  -1.123   9.371  1.00  0.00     0.031 C 
ATOM     49  C   UNL     1       5.051  -6.066   9.018  1.00  0.00     0.029 A 
ATOM     50  C   UNL     1       3.792  -6.402   9.679  1.00  0.00     0.049 A 
ATOM     51  H   UNL     1       2.216  -5.117  10.122  1.00  0.00     0.167 HD
ATOM     52  C   UNL     1      -1.030  -2.402  11.024  1.00  0.00     0.031 A 
ATOM     53  C   UNL     1       3.453  -7.623  10.136  1.00  0.00     0.031 A 
ATOM     54  C   UNL     1      -1.320  -3.571  11.805  1.00  0.00     0.049 A 
ATOM     55  C   UNL     1       2.159  -7.815  10.873  1.00  0.00     0.074 A 
ATOM     56  C   UNL     1      -2.323  -3.773  12.738  1.00  0.00     0.029 A 
ATOM     57  N   UNL     1      -0.638  -4.770  11.686  1.00  0.00    -0.354 N 
ATOM     58  N   UNL     1       1.249  -6.923  11.178  1.00  0.00    -0.248 NA
ATOM     59  C   UNL     1       1.863  -9.173  11.353  1.00  0.00     0.031 C 
ATOM     60  C   UNL     1      -2.265  -5.110  13.159  1.00  0.00     0.029 A 
ATOM     61  C   UNL     1      -1.229  -5.733  12.483  1.00  0.00     0.049 A 
ATOM     62  H   UNL     1       0.153  -4.915  11.117  1.00  0.00     0.167 HD
ATOM     63  C   UNL     1       0.290  -7.603  11.919  1.00  0.00     0.074 A 
ATOM     64  C   UNL     1       0.705  -8.990  11.976  1.00  0.00     0.031 C 
ATOM     65  C   UNL     1      -0.816  -7.110  12.528  1.00  0.00     0.031 A 
BRANCH  52  66
ATOM     66  C   UNL     1      -1.941  -1.216  11.129  1.00  0.00    -0.014 A 
ATOM     67  C   UNL     1      -2.955  -0.983  10.187  1.00  0.00     0.010 A 
ATOM     68  C   UNL     1      -1.753  -0.302  12.181  1.00  0.00     0.010 A 
ATOM     69  C   UNL     1      -3.743   0.170  10.272  1.00  0.00     0.020 A 
ATOM     70  C   UNL     1      -2.544   0.843  12.275  1.00  0.00     0.020 A 
ATOM     71  C   UNL     1      -3.520   1.084  11.306  1.00  0.00     0.054 A 
BRANCH  71  72
ATOM     72  S   UNL     1      -4.524   2.591  11.414  1.00  0.00     0.124 S 
ATOM     73  O   UNL     1      -3.701   3.550  10.680  1.00  0.00    -0.237 OA
ATOM     74  O   UNL     1      -5.774   2.210  10.761  1.00  0.00    -0.237 OA
ATOM     75  O   UNL     1      -4.623   2.824  12.852  1.00  0.00    -0.744 OA
ENDBRANCH  71  72
ENDBRANCH  52  66
BRANCH  53  76
ATOM     76  C   UNL     1       4.364  -8.768   9.900  1.00  0.00    -0.014 A 
ATOM     77  C   UNL     1       4.130  -9.637   8.821  1.00  0.00     0.010 A 
ATOM     78  C   UNL     1       5.487  -8.972  10.717  1.00  0.00     0.010 A 
ATOM     79  C   UNL     1       5.008 -10.691   8.558  1.00  0.00     0.020 A 
ATOM     80  C   UNL     1       6.373 -10.018  10.450  1.00  0.00     0.020 A 
ATOM     81  C   UNL     1       6.127 -10.874   9.373  1.00  0.00     0.054 A 
BRANCH  81  82
ATOM     82  S   UNL     1       7.326 -12.180   8.989  1.00  0.00     0.124 S 
ATOM     83  O   UNL     1       6.921 -13.242   9.903  1.00  0.00    -0.237 OA
ATOM     84  O   UNL     1       7.094 -12.444   7.571  1.00  0.00    -0.237 OA
ATOM     85  O   UNL     1       8.606 -11.541   9.290  1.00  0.00    -0.744 OA
ENDBRANCH  81  82
ENDBRANCH  53  76
BRANCH  65  86
ATOM     86  C   UNL     1      -1.642  -8.073  13.325  1.00  0.00    -0.014 A 
ATOM     87  C   UNL     1      -1.303  -8.355  14.659  1.00  0.00     0.010 A 
ATOM     88  C   UNL     1      -2.774  -8.678  12.755  1.00  0.00     0.010 A 
ATOM     89  C   UNL     1      -2.073  -9.247  15.409  1.00  0.00     0.020 A 
ATOM     90  C   UNL     1      -3.548  -9.569  13.504  1.00  0.00     0.020 A 
ATOM     91  C   UNL     1      -3.185  -9.857  14.823  1.00  0.00     0.054 A 
BRANCH  91  92
ATOM     92  S   UNL     1      -4.198 -10.994  15.810  1.00  0.00     0.124 S 
ATOM     93  O   UNL     1      -3.518 -12.268  15.598  1.00  0.00    -0.237 OA
ATOM     94  O   UNL     1      -4.094 -10.444  17.160  1.00  0.00    -0.237 OA
ATOM     95  O   UNL     1      -5.522 -10.882  15.201  1.00  0.00    -0.744 OA
ENDBRANCH  91  92
ENDBRANCH  65  86
ENDBRANCH  39  40
ENDBRANCH  32  34
ENDBRANCH  31  32
ENDBRANCH  30  31
ENDBRANCH   1  30
TORSDOF 19
