REMARK SMILES CC(C)[C@H](NC(=O)c1cc2cc(Cl)ccc2n1C)C(=O)N[C@@H](C(=O)OCCOC(=O)c1ccc(-c2c3nc(c(-c4ccc(S(=O)(=O)[O-])cc4)c4ccc([nH]4)c(-c4ccc(S(=O)(=O)[O-])cc4)c4nc(c(-c5ccc(S(=O)(=O)[O-])cc5)c5ccc2[nH]5)C=C4)C=C3)cc1)c1ccccc1
REMARK SMILES IDX 26 1 25 2 23 3 24 4 22 5 21 6 19 7 20 8 4 10 2 11 1 12 3 13
REMARK SMILES IDX 5 14 6 15 7 17 8 18 9 19 17 20 10 21 16 22 18 23 11 24 15 25
REMARK SMILES IDX 12 26 14 27 13 28 91 29 92 30 96 31 93 32 95 33 94 34 27 35
REMARK SMILES IDX 28 36 29 37 30 38 31 39 32 40 90 41 33 42 89 43 34 44 35 45
REMARK SMILES IDX 36 46 83 47 37 48 88 49 82 50 84 51 38 52 87 53 81 54 80 55
REMARK SMILES IDX 39 57 69 58 50 59 68 60 51 61 54 62 67 63 85 64 52 65 53 66
REMARK SMILES IDX 66 68 86 69 55 70 40 71 41 72 49 73 42 74 48 75 43 76 44 77
REMARK SMILES IDX 45 78 46 79 47 80 70 81 71 82 79 83 72 84 78 85 73 86 74 87
REMARK SMILES IDX 75 88 76 89 77 90 56 91 57 92 65 93 58 94 64 95 59 96 60 97
REMARK SMILES IDX 61 98 62 99 63 100
REMARK H PARENT 21 9 5 16 84 56 54 67
REMARK Flexibility Score: inf
ROOT
ATOM      1  C   UNL     1       2.464   4.755   2.730  1.00  0.00     0.274 C 
ENDROOT
BRANCH   1   2
ATOM      2  O   UNL     1       1.045   4.477   2.558  1.00  0.00    -0.460 OA
BRANCH   2   3
ATOM      3  C   UNL     1       0.725   3.159   2.359  1.00  0.00     0.333 C 
ATOM      4  O   UNL     1       1.554   2.254   2.356  1.00  0.00    -0.249 OA
BRANCH   3   5
ATOM      5  C   UNL     1      -0.778   2.888   2.223  1.00  0.00     0.223 C 
BRANCH   5   6
ATOM      6  N   UNL     1      -1.310   3.678   1.133  1.00  0.00    -0.337 N 
ATOM      7  C   UNL     1      -1.681   3.217  -0.094  1.00  0.00     0.243 C 
ATOM      8  O   UNL     1      -2.022   4.045  -0.942  1.00  0.00    -0.273 OA
ATOM      9  H   UNL     1      -1.415   4.644   1.295  1.00  0.00     0.164 HD
BRANCH   7  10
ATOM     10  C   UNL     1      -1.683   1.696  -0.413  1.00  0.00     0.174 C 
BRANCH  10  11
ATOM     11  C   UNL     1      -2.779   0.893   0.340  1.00  0.00     0.015 C 
ATOM     12  C   UNL     1      -3.955   1.685   0.928  1.00  0.00     0.010 C 
ATOM     13  C   UNL     1      -3.395  -0.171  -0.576  1.00  0.00     0.010 C 
ENDBRANCH  10  11
BRANCH  10  14
ATOM     14  N   UNL     1      -0.260   1.231  -0.421  1.00  0.00    -0.339 N 
ATOM     15  C   UNL     1       0.489   0.204   0.113  1.00  0.00     0.268 C 
ATOM     16  H   UNL     1       0.302   1.830  -0.964  1.00  0.00     0.164 HD
ATOM     17  O   UNL     1       1.674   0.151  -0.169  1.00  0.00    -0.268 OA
BRANCH  15  18
ATOM     18  C   UNL     1      -0.165  -0.747   0.963  1.00  0.00     0.107 A 
ATOM     19  C   UNL     1      -0.234  -0.781   2.340  1.00  0.00     0.042 A 
ATOM     20  N   UNL     1      -0.825  -1.878   0.548  1.00  0.00    -0.340 N 
ATOM     21  C   UNL     1      -1.315  -1.639   2.691  1.00  0.00     0.002 A 
ATOM     22  C   UNL     1      -1.748  -2.237   1.508  1.00  0.00     0.048 A 
ATOM     23  C   UNL     1      -0.578  -2.525  -0.720  1.00  0.00     0.150 C 
ATOM     24  C   UNL     1      -2.011  -1.907   3.887  1.00  0.00     0.030 A 
ATOM     25  C   UNL     1      -2.898  -3.038   1.467  1.00  0.00     0.028 A 
ATOM     26  C   UNL     1      -3.129  -2.740   3.862  1.00  0.00     0.041 A 
ATOM     27  C   UNL     1      -3.578  -3.285   2.667  1.00  0.00     0.023 A 
ATOM     28  Cl  UNL     1      -3.964  -3.054   5.334  1.00  0.00    -0.084 Cl
ENDBRANCH  15  18
ENDBRANCH  10  14
ENDBRANCH   7  10
ENDBRANCH   5   6
BRANCH   5  29
ATOM     29  C   UNL     1      -1.719   2.897   3.429  1.00  0.00    -0.014 A 
ATOM     30  C   UNL     1      -2.303   1.677   3.830  1.00  0.00     0.006 A 
ATOM     31  C   UNL     1      -2.193   4.048   4.061  1.00  0.00     0.006 A 
ATOM     32  C   UNL     1      -3.337   1.584   4.760  1.00  0.00     0.000 A 
ATOM     33  C   UNL     1      -3.233   3.964   5.009  1.00  0.00     0.000 A 
ATOM     34  C   UNL     1      -3.809   2.739   5.350  1.00  0.00     0.000 A 
ENDBRANCH   5  29
ENDBRANCH   3   5
ENDBRANCH   2   3
ENDBRANCH   1   2
BRANCH   1  35
ATOM     35  C   UNL     1       2.721   5.716   3.905  1.00  0.00     0.275 C 
BRANCH  35  36
ATOM     36  O   UNL     1       2.859   4.951   5.123  1.00  0.00    -0.458 OA
BRANCH  36  37
ATOM     37  C   UNL     1       1.811   4.958   5.985  1.00  0.00     0.338 C 
ATOM     38  O   UNL     1       0.931   5.799   6.064  1.00  0.00    -0.246 OA
BRANCH  37  39
ATOM     39  C   UNL     1       1.661   3.551   6.408  1.00  0.00     0.060 A 
ATOM     40  C   UNL     1       2.071   2.937   7.579  1.00  0.00     0.016 A 
ATOM     41  C   UNL     1       1.017   2.792   5.449  1.00  0.00     0.016 A 
ATOM     42  C   UNL     1       1.853   1.543   7.716  1.00  0.00     0.010 A 
ATOM     43  C   UNL     1       0.724   1.460   5.602  1.00  0.00     0.010 A 
ATOM     44  C   UNL     1       1.189   0.797   6.713  1.00  0.00    -0.014 A 
BRANCH  44  45
ATOM     45  C   UNL     1       0.701  -0.582   6.858  1.00  0.00     0.031 A 
ATOM     46  C   UNL     1      -0.363  -0.697   7.877  1.00  0.00     0.074 A 
ATOM     47  C   UNL     1       0.897  -1.641   6.028  1.00  0.00     0.049 A 
ATOM     48  N   UNL     1      -0.224  -1.245   9.031  1.00  0.00    -0.248 NA
ATOM     49  C   UNL     1      -1.666  -0.049   7.676  1.00  0.00     0.031 C 
ATOM     50  C   UNL     1       1.667  -1.698   4.781  1.00  0.00     0.029 A 
ATOM     51  N   UNL     1       0.342  -2.901   6.080  1.00  0.00    -0.354 N 
ATOM     52  C   UNL     1      -1.473  -1.213   9.625  1.00  0.00     0.074 A 
ATOM     53  C   UNL     1      -2.281  -0.323   8.830  1.00  0.00     0.031 C 
ATOM     54  C   UNL     1       1.388  -2.850   4.112  1.00  0.00     0.029 A 
ATOM     55  C   UNL     1       0.534  -3.695   4.933  1.00  0.00     0.049 A 
ATOM     56  H   UNL     1      -0.156  -3.225   6.865  1.00  0.00     0.167 HD
ATOM     57  C   UNL     1      -1.782  -2.099  10.606  1.00  0.00     0.031 A 
ATOM     58  C   UNL     1       0.029  -4.948   4.720  1.00  0.00     0.031 A 
ATOM     59  C   UNL     1      -0.625  -2.889  10.966  1.00  0.00     0.049 A 
ATOM     60  C   UNL     1      -0.005  -5.555   6.068  1.00  0.00     0.074 A 
ATOM     61  C   UNL     1       0.547  -2.652  11.650  1.00  0.00     0.029 A 
ATOM     62  N   UNL     1      -0.418  -3.992  10.172  1.00  0.00    -0.354 N 
ATOM     63  N   UNL     1       1.080  -5.815   6.739  1.00  0.00    -0.248 NA
ATOM     64  C   UNL     1      -1.252  -5.726   6.807  1.00  0.00     0.031 C 
ATOM     65  C   UNL     1       1.529  -3.504  11.063  1.00  0.00     0.029 A 
ATOM     66  C   UNL     1       0.927  -4.277  10.073  1.00  0.00     0.049 A 
ATOM     67  H   UNL     1      -1.133  -4.508   9.734  1.00  0.00     0.167 HD
ATOM     68  C   UNL     1       0.685  -5.673   8.047  1.00  0.00     0.074 A 
ATOM     69  C   UNL     1      -0.751  -5.907   8.032  1.00  0.00     0.031 C 
ATOM     70  C   UNL     1       1.474  -5.012   8.942  1.00  0.00     0.031 A 
BRANCH  57  71
ATOM     71  C   UNL     1      -3.169  -2.503  11.005  1.00  0.00    -0.014 A 
ATOM     72  C   UNL     1      -4.302  -2.330  10.185  1.00  0.00     0.010 A 
ATOM     73  C   UNL     1      -3.328  -3.275  12.172  1.00  0.00     0.010 A 
ATOM     74  C   UNL     1      -5.546  -2.869  10.530  1.00  0.00     0.020 A 
ATOM     75  C   UNL     1      -4.559  -3.850  12.506  1.00  0.00     0.020 A 
ATOM     76  C   UNL     1      -5.664  -3.634  11.686  1.00  0.00     0.054 A 
BRANCH  76  77
ATOM     77  S   UNL     1      -7.262  -4.399  12.057  1.00  0.00     0.124 S 
ATOM     78  O   UNL     1      -8.075  -3.239  12.413  1.00  0.00    -0.237 OA
ATOM     79  O   UNL     1      -7.603  -5.046  10.794  1.00  0.00    -0.237 OA
ATOM     80  O   UNL     1      -6.959  -5.310  13.159  1.00  0.00    -0.744 OA
ENDBRANCH  76  77
ENDBRANCH  57  71
BRANCH  58  81
ATOM     81  C   UNL     1      -0.405  -5.786   3.553  1.00  0.00    -0.014 A 
ATOM     82  C   UNL     1      -0.565  -5.281   2.260  1.00  0.00     0.010 A 
ATOM     83  C   UNL     1      -1.012  -7.043   3.811  1.00  0.00     0.010 A 
ATOM     84  C   UNL     1      -1.482  -5.869   1.359  1.00  0.00     0.020 A 
ATOM     85  C   UNL     1      -1.957  -7.610   2.943  1.00  0.00     0.020 A 
ATOM     86  C   UNL     1      -2.254  -6.959   1.756  1.00  0.00     0.054 A 
BRANCH  86  87
ATOM     87  S   UNL     1      -3.737  -7.439   0.821  1.00  0.00     0.124 S 
ATOM     88  O   UNL     1      -4.798  -6.792   1.589  1.00  0.00    -0.237 OA
ATOM     89  O   UNL     1      -3.504  -6.866  -0.504  1.00  0.00    -0.237 OA
ATOM     90  O   UNL     1      -3.712  -8.897   0.880  1.00  0.00    -0.744 OA
ENDBRANCH  86  87
ENDBRANCH  58  81
BRANCH  70  91
ATOM     91  C   UNL     1       2.947  -4.830   8.604  1.00  0.00    -0.014 A 
ATOM     92  C   UNL     1       3.907  -5.220   9.550  1.00  0.00     0.010 A 
ATOM     93  C   UNL     1       3.414  -4.199   7.431  1.00  0.00     0.010 A 
ATOM     94  C   UNL     1       5.268  -4.947   9.360  1.00  0.00     0.020 A 
ATOM     95  C   UNL     1       4.777  -3.945   7.214  1.00  0.00     0.020 A 
ATOM     96  C   UNL     1       5.694  -4.299   8.198  1.00  0.00     0.054 A 
BRANCH  96  97
ATOM     97  S   UNL     1       7.457  -3.922   8.009  1.00  0.00     0.124 S 
ATOM     98  O   UNL     1       7.652  -2.855   8.989  1.00  0.00    -0.237 OA
ATOM     99  O   UNL     1       8.097  -5.194   8.339  1.00  0.00    -0.237 OA
ATOM    100  O   UNL     1       7.588  -3.511   6.613  1.00  0.00    -0.744 OA
ENDBRANCH  96  97
ENDBRANCH  70  91
ENDBRANCH  44  45
ENDBRANCH  37  39
ENDBRANCH  36  37
ENDBRANCH  35  36
ENDBRANCH   1  35
TORSDOF 20
