REMARK SMILES Cc1ccc(-c2nc(C)cc(N3CCCC[C@H]3C(=O)OCCOC(=O)c3ccc(-c4c5nc(c(-c6ccc(S(=O)(=O)[O-])cc6)c6ccc([nH]6)c(-c6ccc(S(=O)(=O)[O-])cc6)c6nc(c(-c7ccc(S(=O)(=O)[O-])cc7)c7ccc4[nH]7)C=C6)C=C5)cc3)n2)cc1
REMARK SMILES IDX 22 1 21 2 20 3 18 4 19 5 17 6 12 7 13 8 14 9 16 10 15 11
REMARK SMILES IDX 11 12 6 13 7 14 86 15 8 16 9 17 10 18 5 19 1 20 2 21 3 22
REMARK SMILES IDX 88 23 4 24 87 25 23 26 24 27 25 28 26 29 27 30 85 31 28 32
REMARK SMILES IDX 84 33 29 34 30 35 31 36 78 37 32 38 83 39 77 40 79 41 33 42
REMARK SMILES IDX 82 43 76 44 75 45 34 47 64 48 45 49 63 50 46 51 49 52 62 53
REMARK SMILES IDX 80 54 47 55 48 56 61 58 81 59 50 60 35 61 36 62 44 63 37 64
REMARK SMILES IDX 43 65 38 66 39 67 40 68 41 69 42 70 65 71 66 72 74 73 67 74
REMARK SMILES IDX 73 75 68 76 69 77 70 78 71 79 72 80 51 81 52 82 60 83 53 84
REMARK SMILES IDX 59 85 54 86 55 87 56 88 57 89 58 90
REMARK H PARENT 79 46 49 57
REMARK Flexibility Score: inf
ROOT
ATOM      1  C   UNL     1     -10.499   0.624  -5.356  1.00  0.00     0.275 C 
ENDROOT
BRANCH   1   2
ATOM      2  C   UNL     1     -11.123   1.657  -4.402  1.00  0.00     0.274 C 
BRANCH   2   3
ATOM      3  O   UNL     1     -10.083   2.549  -3.941  1.00  0.00    -0.461 OA
BRANCH   3   4
ATOM      4  C   UNL     1      -9.186   2.011  -2.912  1.00  0.00     0.328 C 
ATOM      5  O   UNL     1      -9.900   1.159  -2.313  1.00  0.00    -0.250 OA
BRANCH   4   6
ATOM      6  C   UNL     1      -7.081   2.617  -2.628  1.00  0.00     0.193 C 
ATOM      7  N   UNL     1      -5.697   1.564  -2.346  1.00  0.00    -0.343 N 
ATOM      8  C   UNL     1      -4.933   1.125  -3.535  1.00  0.00     0.119 C 
ATOM      9  C   UNL     1      -4.380   2.251  -4.388  1.00  0.00     0.022 C 
ATOM     10  C   UNL     1      -6.068   3.852  -3.378  1.00  0.00     0.037 C 
ATOM     11  C   UNL     1      -5.287   3.438  -4.622  1.00  0.00     0.005 C 
BRANCH   7  12
ATOM     12  C   UNL     1      -5.050   1.192  -1.141  1.00  0.00     0.133 A 
ATOM     13  C   UNL     1      -3.077   0.401  -0.178  1.00  0.00     0.161 A 
ATOM     14  N   UNL     1      -3.666  -0.217   0.848  1.00  0.00    -0.233 NA
ATOM     15  N   UNL     1      -3.696   1.119  -1.146  1.00  0.00    -0.211 NA
ATOM     16  C   UNL     1      -4.988  -0.075   0.915  1.00  0.00     0.043 A 
ATOM     17  C   UNL     1      -5.643  -0.836   2.028  1.00  0.00     0.067 C 
ATOM     18  C   UNL     1      -5.700   0.663  -0.029  1.00  0.00     0.070 A 
BRANCH  13  19
ATOM     19  C   UNL     1      -1.621   0.276  -0.203  1.00  0.00     0.019 A 
ATOM     20  C   UNL     1       2.684  -0.056   0.007  1.00  0.00     0.044 C 
ATOM     21  C   UNL     1       1.192   0.059  -0.058  1.00  0.00    -0.051 A 
ATOM     22  C   UNL     1       0.397  -1.092  -0.052  1.00  0.00     0.004 A 
ATOM     23  C   UNL     1       0.575   1.313  -0.135  1.00  0.00     0.004 A 
ATOM     24  C   UNL     1      -0.995  -0.983  -0.114  1.00  0.00     0.012 A 
ATOM     25  C   UNL     1      -0.815   1.418  -0.215  1.00  0.00     0.012 A 
ENDBRANCH  13  19
ENDBRANCH   7  12
ENDBRANCH   4   6
ENDBRANCH   3   4
ENDBRANCH   2   3
ENDBRANCH   1   2
BRANCH   1  26
ATOM     26  O   UNL     1      -9.498  -0.196  -4.708  1.00  0.00    -0.458 OA
BRANCH  26  27
ATOM     27  C   UNL     1      -8.201   0.094  -4.995  1.00  0.00     0.338 C 
ATOM     28  O   UNL     1      -7.652  -0.031  -6.076  1.00  0.00    -0.246 OA
BRANCH  27  29
ATOM     29  C   UNL     1      -7.731   1.060  -3.979  1.00  0.00     0.060 A 
ATOM     30  C   UNL     1      -7.821   0.659  -2.223  1.00  0.00     0.016 A 
ATOM     31  C   UNL     1      -8.018   2.736  -4.519  1.00  0.00     0.016 A 
ATOM     32  C   UNL     1      -8.317   1.947  -1.026  1.00  0.00     0.010 A 
ATOM     33  C   UNL     1      -8.559   3.986  -3.336  1.00  0.00     0.010 A 
ATOM     34  C   UNL     1      -8.771   3.573  -1.618  1.00  0.00    -0.014 A 
BRANCH  34  35
ATOM     35  C   UNL     1      -9.811   4.375  -1.002  1.00  0.00     0.031 A 
ATOM     36  C   UNL     1      -9.560   5.819  -0.869  1.00  0.00     0.074 A 
ATOM     37  C   UNL     1     -11.042   3.812  -0.878  1.00  0.00     0.049 A 
ATOM     38  N   UNL     1     -10.319   6.602  -0.199  1.00  0.00    -0.248 NA
ATOM     39  C   UNL     1      -8.409   6.524  -1.446  1.00  0.00     0.031 C 
ATOM     40  C   UNL     1     -12.336   4.465  -0.703  1.00  0.00     0.029 A 
ATOM     41  N   UNL     1     -11.395   2.470  -0.785  1.00  0.00    -0.354 N 
ATOM     42  C   UNL     1     -10.004   7.890  -0.559  1.00  0.00     0.074 A 
ATOM     43  C   UNL     1      -8.730   7.803  -1.218  1.00  0.00     0.031 C 
ATOM     44  C   UNL     1     -13.213   3.571  -0.201  1.00  0.00     0.029 A 
ATOM     45  C   UNL     1     -12.486   2.340   0.060  1.00  0.00     0.049 A 
ATOM     46  H   UNL     1     -10.941   1.728  -1.246  1.00  0.00     0.167 HD
ATOM     47  C   UNL     1     -10.961   8.839  -0.386  1.00  0.00     0.031 A 
ATOM     48  C   UNL     1     -12.355   1.724   1.273  1.00  0.00     0.031 A 
ATOM     49  C   UNL     1     -12.060   8.294   0.417  1.00  0.00     0.049 A 
ATOM     50  C   UNL     1     -12.412   2.769   2.381  1.00  0.00     0.074 A 
ATOM     51  C   UNL     1     -13.335   7.853   0.110  1.00  0.00     0.029 A 
ATOM     52  N   UNL     1     -11.751   7.754   1.664  1.00  0.00    -0.354 N 
ATOM     53  N   UNL     1     -12.264   4.054   2.171  1.00  0.00    -0.248 NA
ATOM     54  C   UNL     1     -12.726   2.484   3.777  1.00  0.00     0.031 C 
ATOM     55  C   UNL     1     -13.725   6.928   1.130  1.00  0.00     0.029 A 
ATOM     56  C   UNL     1     -12.710   6.845   2.073  1.00  0.00     0.049 A 
ATOM     57  H   UNL     1     -10.951   7.990   2.188  1.00  0.00     0.167 HD
ATOM     58  C   UNL     1     -12.534   4.763   3.308  1.00  0.00     0.074 A 
ATOM     59  C   UNL     1     -12.801   3.726   4.294  1.00  0.00     0.031 C 
ATOM     60  C   UNL     1     -12.547   6.134   3.346  1.00  0.00     0.031 A 
BRANCH  47  61
ATOM     61  C   UNL     1     -11.008  10.163  -1.112  1.00  0.00    -0.014 A 
ATOM     62  C   UNL     1     -12.085  11.036  -0.864  1.00  0.00     0.010 A 
ATOM     63  C   UNL     1     -10.099  10.566  -2.115  1.00  0.00     0.010 A 
ATOM     64  C   UNL     1     -12.247  12.238  -1.571  1.00  0.00     0.020 A 
ATOM     65  C   UNL     1     -10.235  11.777  -2.813  1.00  0.00     0.020 A 
ATOM     66  C   UNL     1     -11.316  12.606  -2.539  1.00  0.00     0.054 A 
BRANCH  66  67
ATOM     67  S   UNL     1     -11.539  14.166  -3.434  1.00  0.00     0.124 S 
ATOM     68  O   UNL     1     -12.796  13.942  -4.143  1.00  0.00    -0.237 OA
ATOM     69  O   UNL     1     -11.589  15.144  -2.351  1.00  0.00    -0.237 OA
ATOM     70  O   UNL     1     -10.355  14.249  -4.288  1.00  0.00    -0.744 OA
ENDBRANCH  66  67
ENDBRANCH  47  61
BRANCH  48  71
ATOM     71  C   UNL     1     -11.595   0.427   1.215  1.00  0.00    -0.014 A 
ATOM     72  C   UNL     1     -12.180  -0.616   0.447  1.00  0.00     0.010 A 
ATOM     73  C   UNL     1     -10.230   0.317   1.503  1.00  0.00     0.010 A 
ATOM     74  C   UNL     1     -11.412  -1.630  -0.151  1.00  0.00     0.020 A 
ATOM     75  C   UNL     1      -9.462  -0.707   0.902  1.00  0.00     0.020 A 
ATOM     76  C   UNL     1     -10.040  -1.648   0.048  1.00  0.00     0.054 A 
BRANCH  76  77
ATOM     77  S   UNL     1      -9.010  -2.802  -0.926  1.00  0.00     0.124 S 
ATOM     78  O   UNL     1      -9.361  -4.096  -0.352  1.00  0.00    -0.237 OA
ATOM     79  O   UNL     1      -9.468  -2.574  -2.293  1.00  0.00    -0.237 OA
ATOM     80  O   UNL     1      -7.646  -2.354  -0.651  1.00  0.00    -0.744 OA
ENDBRANCH  76  77
ENDBRANCH  48  71
BRANCH  60  81
ATOM     81  C   UNL     1     -12.470   6.970   4.611  1.00  0.00    -0.014 A 
ATOM     82  C   UNL     1     -12.172   6.455   5.879  1.00  0.00     0.010 A 
ATOM     83  C   UNL     1     -12.578   8.382   4.517  1.00  0.00     0.010 A 
ATOM     84  C   UNL     1     -12.081   7.285   7.003  1.00  0.00     0.020 A 
ATOM     85  C   UNL     1     -12.406   9.227   5.614  1.00  0.00     0.020 A 
ATOM     86  C   UNL     1     -12.201   8.666   6.863  1.00  0.00     0.054 A 
BRANCH  86  87
ATOM     87  S   UNL     1     -12.069   9.713   8.326  1.00  0.00     0.124 S 
ATOM     88  O   UNL     1     -13.369   9.505   8.957  1.00  0.00    -0.237 OA
ATOM     89  O   UNL     1     -10.928   9.133   9.031  1.00  0.00    -0.237 OA
ATOM     90  O   UNL     1     -11.843  11.048   7.779  1.00  0.00    -0.744 OA
ENDBRANCH  86  87
ENDBRANCH  60  81
ENDBRANCH  34  35
ENDBRANCH  27  29
ENDBRANCH  26  27
ENDBRANCH   1  26
TORSDOF 16
