REMARK SMILES O=C(OCCOC(=O)[C@H](Cc1ccccn1)[C@H]1CCS(=O)(=O)C1)c1ccc(-c2c3nc(c(-c4ccc(S(=O)(=O)[O-])cc4)c4ccc([nH]4)c(-c4ccc(S(=O)(=O)[O-])cc4)c4nc(c(-c5ccc(S(=O)(=O)[O-])cc5)c5ccc2[nH]5)C=C4)C=C3)cc1
REMARK SMILES IDX 4 1 3 2 2 3 1 4 24 5 25 6 83 7 26 8 82 9 27 10 28 11 29 12
REMARK SMILES IDX 76 13 30 14 81 15 75 16 77 17 31 18 80 19 74 20 73 21 32 23
REMARK SMILES IDX 62 24 43 25 61 26 44 27 47 28 60 29 78 30 45 31 46 32 59 34
REMARK SMILES IDX 79 35 48 36 33 37 34 38 42 39 35 40 41 41 36 42 37 43 38 44
REMARK SMILES IDX 39 45 40 46 63 47 64 48 72 49 65 50 71 51 66 52 67 53 68 54
REMARK SMILES IDX 69 55 70 56 49 57 50 58 58 59 51 60 57 61 52 62 53 63 54 64
REMARK SMILES IDX 55 65 56 66 5 67 6 68 7 69 8 70 9 71 10 72 11 73 12 74 16 75
REMARK SMILES IDX 13 76 15 77 14 78 17 79 18 80 23 81 19 82 20 83 21 84 22 85
REMARK H PARENT 77 22 47 33
REMARK Flexibility Score: inf
ROOT
ATOM      1  C   UNL     1       5.090   5.059   4.967  1.00  0.00     0.275 C 
ENDROOT
BRANCH   1   2
ATOM      2  O   UNL     1       4.573   6.356   4.672  1.00  0.00    -0.458 OA
BRANCH   2   3
ATOM      3  C   UNL     1       4.907   7.140   3.628  1.00  0.00     0.338 C 
ATOM      4  O   UNL     1       4.175   8.088   3.348  1.00  0.00    -0.246 OA
BRANCH   3   5
ATOM      5  C   UNL     1       6.039   6.810   2.709  1.00  0.00     0.060 A 
ATOM      6  C   UNL     1       7.226   6.114   2.968  1.00  0.00     0.016 A 
ATOM      7  C   UNL     1       5.819   7.224   1.407  1.00  0.00     0.016 A 
ATOM      8  C   UNL     1       8.098   5.747   1.916  1.00  0.00     0.010 A 
ATOM      9  C   UNL     1       6.607   6.758   0.368  1.00  0.00     0.010 A 
ATOM     10  C   UNL     1       7.781   6.048   0.588  1.00  0.00    -0.014 A 
BRANCH  10  11
ATOM     11  C   UNL     1       8.635   5.754  -0.597  1.00  0.00     0.031 A 
ATOM     12  C   UNL     1       8.984   6.884  -1.558  1.00  0.00     0.074 A 
ATOM     13  C   UNL     1       8.961   4.487  -0.936  1.00  0.00     0.049 A 
ATOM     14  N   UNL     1       9.751   6.861  -2.619  1.00  0.00    -0.248 NA
ATOM     15  C   UNL     1       8.315   8.189  -1.366  1.00  0.00     0.031 C 
ATOM     16  C   UNL     1       8.493   3.264  -0.274  1.00  0.00     0.029 A 
ATOM     17  N   UNL     1       9.759   4.016  -1.952  1.00  0.00    -0.354 N 
ATOM     18  C   UNL     1       9.617   8.121  -3.195  1.00  0.00     0.074 A 
ATOM     19  C   UNL     1       8.550   8.796  -2.513  1.00  0.00     0.031 C 
ATOM     20  C   UNL     1       9.050   2.193  -0.873  1.00  0.00     0.029 A 
ATOM     21  C   UNL     1       9.938   2.650  -1.937  1.00  0.00     0.049 A 
ATOM     22  H   UNL     1      10.165   4.602  -2.631  1.00  0.00     0.167 HD
ATOM     23  C   UNL     1      10.399   8.733  -4.112  1.00  0.00     0.031 A 
ATOM     24  C   UNL     1      10.781   1.878  -2.654  1.00  0.00     0.031 A 
ATOM     25  C   UNL     1      11.508   8.073  -4.726  1.00  0.00     0.049 A 
ATOM     26  C   UNL     1      11.750   2.563  -3.589  1.00  0.00     0.074 A 
ATOM     27  C   UNL     1      12.495   8.593  -5.538  1.00  0.00     0.029 A 
ATOM     28  N   UNL     1      11.770   6.722  -4.570  1.00  0.00    -0.354 N 
ATOM     29  N   UNL     1      11.812   3.830  -3.933  1.00  0.00    -0.248 NA
ATOM     30  C   UNL     1      12.812   1.731  -4.172  1.00  0.00     0.031 C 
ATOM     31  C   UNL     1      13.338   7.538  -5.907  1.00  0.00     0.029 A 
ATOM     32  C   UNL     1      12.901   6.380  -5.276  1.00  0.00     0.049 A 
ATOM     33  H   UNL     1      11.228   6.099  -4.034  1.00  0.00     0.167 HD
ATOM     34  C   UNL     1      12.956   3.957  -4.716  1.00  0.00     0.074 A 
ATOM     35  C   UNL     1      13.552   2.639  -4.795  1.00  0.00     0.031 C 
ATOM     36  C   UNL     1      13.478   5.062  -5.306  1.00  0.00     0.031 A 
BRANCH  23  37
ATOM     37  C   UNL     1      10.131  10.192  -4.392  1.00  0.00    -0.014 A 
ATOM     38  C   UNL     1      10.245  11.152  -3.362  1.00  0.00     0.010 A 
ATOM     39  C   UNL     1       9.747  10.619  -5.673  1.00  0.00     0.010 A 
ATOM     40  C   UNL     1       9.908  12.487  -3.586  1.00  0.00     0.020 A 
ATOM     41  C   UNL     1       9.451  11.966  -5.914  1.00  0.00     0.020 A 
ATOM     42  C   UNL     1       9.512  12.886  -4.863  1.00  0.00     0.054 A 
BRANCH  42  43
ATOM     43  S   UNL     1       9.108  14.634  -5.129  1.00  0.00     0.124 S 
ATOM     44  O   UNL     1       7.825  14.755  -4.440  1.00  0.00    -0.237 OA
ATOM     45  O   UNL     1      10.229  15.320  -4.492  1.00  0.00    -0.237 OA
ATOM     46  O   UNL     1       9.049  14.758  -6.583  1.00  0.00    -0.744 OA
ENDBRANCH  42  43
ENDBRANCH  23  37
BRANCH  24  47
ATOM     47  C   UNL     1      10.896   0.415  -2.374  1.00  0.00    -0.014 A 
ATOM     48  C   UNL     1      11.998  -0.070  -1.643  1.00  0.00     0.010 A 
ATOM     49  C   UNL     1       9.930  -0.501  -2.825  1.00  0.00     0.010 A 
ATOM     50  C   UNL     1      12.152  -1.438  -1.398  1.00  0.00     0.020 A 
ATOM     51  C   UNL     1      10.069  -1.872  -2.562  1.00  0.00     0.020 A 
ATOM     52  C   UNL     1      11.185  -2.333  -1.860  1.00  0.00     0.054 A 
BRANCH  52  53
ATOM     53  S   UNL     1      11.395  -4.100  -1.494  1.00  0.00     0.124 S 
ATOM     54  O   UNL     1      12.529  -4.455  -2.342  1.00  0.00    -0.237 OA
ATOM     55  O   UNL     1      11.658  -4.092  -0.057  1.00  0.00    -0.237 OA
ATOM     56  O   UNL     1      10.114  -4.685  -1.883  1.00  0.00    -0.744 OA
ENDBRANCH  52  53
ENDBRANCH  24  47
BRANCH  36  57
ATOM     57  C   UNL     1      14.788   4.918  -6.024  1.00  0.00    -0.014 A 
ATOM     58  C   UNL     1      14.879   4.240  -7.250  1.00  0.00     0.010 A 
ATOM     59  C   UNL     1      15.927   5.555  -5.497  1.00  0.00     0.010 A 
ATOM     60  C   UNL     1      16.100   4.170  -7.921  1.00  0.00     0.020 A 
ATOM     61  C   UNL     1      17.141   5.516  -6.182  1.00  0.00     0.020 A 
ATOM     62  C   UNL     1      17.222   4.809  -7.383  1.00  0.00     0.054 A 
BRANCH  62  63
ATOM     63  S   UNL     1      18.784   4.742  -8.298  1.00  0.00     0.124 S 
ATOM     64  O   UNL     1      19.210   3.365  -8.067  1.00  0.00    -0.237 OA
ATOM     65  O   UNL     1      18.368   5.052  -9.664  1.00  0.00    -0.237 OA
ATOM     66  O   UNL     1      19.606   5.765  -7.655  1.00  0.00    -0.744 OA
ENDBRANCH  62  63
ENDBRANCH  36  57
ENDBRANCH  10  11
ENDBRANCH   3   5
ENDBRANCH   2   3
ENDBRANCH   1   2
BRANCH   1  67
ATOM     67  C   UNL     1       4.658   3.921   4.030  1.00  0.00     0.274 C 
BRANCH  67  68
ATOM     68  O   UNL     1       4.599   4.197   2.606  1.00  0.00    -0.462 OA
BRANCH  68  69
ATOM     69  C   UNL     1       3.350   4.103   2.058  1.00  0.00     0.309 C 
ATOM     70  O   UNL     1       2.336   4.036   2.748  1.00  0.00    -0.252 OA
BRANCH  69  71
ATOM     71  C   UNL     1       3.312   3.864   0.527  1.00  0.00     0.109 C 
BRANCH  71  72
ATOM     72  C   UNL     1       4.266   4.665  -0.373  1.00  0.00     0.071 C 
BRANCH  72  73
ATOM     73  C   UNL     1       3.864   5.899  -1.170  1.00  0.00     0.041 A 
ATOM     74  C   UNL     1       3.375   7.076  -0.614  1.00  0.00     0.024 A 
ATOM     75  N   UNL     1       4.181   5.849  -2.489  1.00  0.00    -0.261 NA
ATOM     76  C   UNL     1       3.297   8.235  -1.397  1.00  0.00     0.003 A 
ATOM     77  C   UNL     1       4.068   6.973  -3.239  1.00  0.00     0.111 A 
ATOM     78  C   UNL     1       3.659   8.189  -2.734  1.00  0.00     0.020 A 
ENDBRANCH  72  73
ENDBRANCH  71  72
BRANCH  71  79
ATOM     79  C   UNL     1       1.848   3.778   0.020  1.00  0.00     0.020 C 
ATOM     80  C   UNL     1       0.983   4.982   0.448  1.00  0.00     0.021 C 
ATOM     81  C   UNL     1       1.693   3.502  -1.481  1.00  0.00     0.141 C 
ATOM     82  C   UNL     1       0.127   5.502  -0.688  1.00  0.00     0.137 C 
ATOM     83  S   UNL     1       0.212   4.329  -2.007  1.00  0.00     0.150 S 
ATOM     84  O   UNL     1      -0.900   3.407  -1.858  1.00  0.00    -0.229 OA
ATOM     85  O   UNL     1       0.455   5.038  -3.243  1.00  0.00    -0.229 OA
ENDBRANCH  71  79
ENDBRANCH  69  71
ENDBRANCH  68  69
ENDBRANCH  67  68
ENDBRANCH   1  67
TORSDOF 17
