REMARK SMILES O=C(OCCOC(=O)[C@@H]1CCn2c(C(=O)c3ccccc3)ccc21)c1ccc(-c2c3nc(c(-c4ccc(S(=O)(=O)[O-])cc4)c4ccc([nH]4)c(-c4ccc(S(=O)(=O)[O-])cc4)c4nc(c(-c5ccc(S(=O)(=O)[O-])cc5)c5ccc2[nH]5)C=C4)C=C3)cc1
REMARK SMILES IDX 4 1 3 2 2 3 1 4 25 5 26 6 84 7 27 8 83 9 28 10 29 11 30 12
REMARK SMILES IDX 77 13 31 14 82 15 76 16 78 17 32 18 81 19 75 20 74 21 33 23
REMARK SMILES IDX 63 24 44 25 62 26 45 27 48 28 61 29 79 30 46 31 47 32 60 34
REMARK SMILES IDX 80 35 49 36 34 37 35 38 43 39 36 40 42 41 37 42 38 43 39 44
REMARK SMILES IDX 40 45 41 46 64 47 65 48 73 49 66 50 72 51 67 52 68 53 69 54
REMARK SMILES IDX 70 55 71 56 50 57 51 58 59 59 52 60 58 61 53 62 54 63 55 64
REMARK SMILES IDX 56 65 57 66 5 67 6 68 7 69 8 70 9 71 10 72 24 73 11 74 12 75
REMARK SMILES IDX 23 76 13 77 22 78 14 79 15 80 16 81 17 82 21 83 18 84 20 85
REMARK SMILES IDX 19 86
REMARK H PARENT 78 22 48 33
REMARK Flexibility Score: inf
ROOT
ATOM      1  C   UNL     1       4.370   0.985   1.172  1.00  0.00     0.275 C 
ENDROOT
BRANCH   1   2
ATOM      2  O   UNL     1       3.205   1.212   0.354  1.00  0.00    -0.458 OA
BRANCH   2   3
ATOM      3  C   UNL     1       2.886   0.795  -0.894  1.00  0.00     0.338 C 
ATOM      4  O   UNL     1       1.898   1.307  -1.423  1.00  0.00    -0.246 OA
BRANCH   3   5
ATOM      5  C   UNL     1       3.567  -0.316  -1.651  1.00  0.00     0.060 A 
ATOM      6  C   UNL     1       4.777  -0.935  -1.330  1.00  0.00     0.016 A 
ATOM      7  C   UNL     1       2.865  -0.824  -2.769  1.00  0.00     0.016 A 
ATOM      8  C   UNL     1       5.247  -2.039  -2.055  1.00  0.00     0.010 A 
ATOM      9  C   UNL     1       3.334  -1.923  -3.504  1.00  0.00     0.010 A 
ATOM     10  C   UNL     1       4.531  -2.543  -3.144  1.00  0.00    -0.014 A 
BRANCH  10  11
ATOM     11  C   UNL     1       5.096  -3.667  -3.926  1.00  0.00     0.031 A 
ATOM     12  C   UNL     1       5.989  -3.368  -5.087  1.00  0.00     0.074 A 
ATOM     13  C   UNL     1       4.859  -4.944  -3.571  1.00  0.00     0.049 A 
ATOM     14  N   UNL     1       6.639  -4.201  -5.852  1.00  0.00    -0.248 NA
ATOM     15  C   UNL     1       6.160  -1.950  -5.442  1.00  0.00     0.031 C 
ATOM     16  C   UNL     1       3.994  -5.344  -2.470  1.00  0.00     0.029 A 
ATOM     17  N   UNL     1       5.335  -6.133  -4.066  1.00  0.00    -0.354 N 
ATOM     18  C   UNL     1       7.263  -3.417  -6.809  1.00  0.00     0.074 A 
ATOM     19  C   UNL     1       6.937  -2.038  -6.512  1.00  0.00     0.031 C 
ATOM     20  C   UNL     1       4.050  -6.678  -2.332  1.00  0.00     0.029 A 
ATOM     21  C   UNL     1       4.915  -7.236  -3.355  1.00  0.00     0.049 A 
ATOM     22  H   UNL     1       5.923  -6.193  -4.854  1.00  0.00     0.167 HD
ATOM     23  C   UNL     1       8.008  -3.822  -7.862  1.00  0.00     0.031 A 
ATOM     24  C   UNL     1       5.183  -8.549  -3.499  1.00  0.00     0.031 A 
ATOM     25  C   UNL     1       8.299  -5.198  -8.163  1.00  0.00     0.049 A 
ATOM     26  C   UNL     1       6.064  -8.963  -4.640  1.00  0.00     0.074 A 
ATOM     27  C   UNL     1       9.040  -5.706  -9.214  1.00  0.00     0.029 A 
ATOM     28  N   UNL     1       7.850  -6.284  -7.426  1.00  0.00    -0.354 N 
ATOM     29  N   UNL     1       6.674  -8.201  -5.516  1.00  0.00    -0.248 NA
ATOM     30  C   UNL     1       6.268 -10.404  -4.839  1.00  0.00     0.031 C 
ATOM     31  C   UNL     1       8.990  -7.102  -9.147  1.00  0.00     0.029 A 
ATOM     32  C   UNL     1       8.266  -7.462  -8.022  1.00  0.00     0.049 A 
ATOM     33  H   UNL     1       7.314  -6.225  -6.602  1.00  0.00     0.167 HD
ATOM     34  C   UNL     1       7.295  -9.071  -6.399  1.00  0.00     0.074 A 
ATOM     35  C   UNL     1       7.049 -10.414  -5.911  1.00  0.00     0.031 C 
ATOM     36  C   UNL     1       7.975  -8.786  -7.535  1.00  0.00     0.031 A 
BRANCH  23  37
ATOM     37  C   UNL     1       8.481  -2.763  -8.813  1.00  0.00    -0.014 A 
ATOM     38  C   UNL     1       9.545  -1.905  -8.489  1.00  0.00     0.010 A 
ATOM     39  C   UNL     1       7.858  -2.649 -10.069  1.00  0.00     0.010 A 
ATOM     40  C   UNL     1       9.967  -0.937  -9.404  1.00  0.00     0.020 A 
ATOM     41  C   UNL     1       8.291  -1.698 -10.993  1.00  0.00     0.020 A 
ATOM     42  C   UNL     1       9.338  -0.841 -10.650  1.00  0.00     0.054 A 
BRANCH  42  43
ATOM     43  S   UNL     1       9.938   0.393 -11.835  1.00  0.00     0.124 S 
ATOM     44  O   UNL     1       9.454   1.638 -11.245  1.00  0.00    -0.237 OA
ATOM     45  O   UNL     1      11.386   0.199 -11.792  1.00  0.00    -0.237 OA
ATOM     46  O   UNL     1       9.298   0.008 -13.091  1.00  0.00    -0.744 OA
ENDBRANCH  42  43
ENDBRANCH  23  37
BRANCH  24  47
ATOM     47  C   UNL     1       4.575  -9.571  -2.593  1.00  0.00    -0.014 A 
ATOM     48  C   UNL     1       5.370 -10.310  -1.698  1.00  0.00     0.010 A 
ATOM     49  C   UNL     1       3.193  -9.836  -2.644  1.00  0.00     0.010 A 
ATOM     50  C   UNL     1       4.803 -11.309  -0.895  1.00  0.00     0.020 A 
ATOM     51  C   UNL     1       2.618 -10.813  -1.823  1.00  0.00     0.020 A 
ATOM     52  C   UNL     1       3.430 -11.559  -0.967  1.00  0.00     0.054 A 
BRANCH  52  53
ATOM     53  S   UNL     1       2.694 -12.859   0.069  1.00  0.00     0.124 S 
ATOM     54  O   UNL     1       2.874 -14.043  -0.767  1.00  0.00    -0.237 OA
ATOM     55  O   UNL     1       3.504 -12.825   1.284  1.00  0.00    -0.237 OA
ATOM     56  O   UNL     1       1.308 -12.423   0.235  1.00  0.00    -0.744 OA
ENDBRANCH  52  53
ENDBRANCH  24  47
BRANCH  36  57
ATOM     57  C   UNL     1       8.444  -9.952  -8.354  1.00  0.00    -0.014 A 
ATOM     58  C   UNL     1       7.525 -10.700  -9.111  1.00  0.00     0.010 A 
ATOM     59  C   UNL     1       9.812 -10.265  -8.418  1.00  0.00     0.010 A 
ATOM     60  C   UNL     1       7.966 -11.757  -9.909  1.00  0.00     0.020 A 
ATOM     61  C   UNL     1      10.259 -11.306  -9.234  1.00  0.00     0.020 A 
ATOM     62  C   UNL     1       9.331 -12.050  -9.968  1.00  0.00     0.054 A 
BRANCH  62  63
ATOM     63  S   UNL     1       9.885 -13.385 -11.062  1.00  0.00     0.124 S 
ATOM     64  O   UNL     1       9.454 -14.575 -10.332  1.00  0.00    -0.237 OA
ATOM     65  O   UNL     1       9.159 -13.108 -12.299  1.00  0.00    -0.237 OA
ATOM     66  O   UNL     1      11.332 -13.191 -11.139  1.00  0.00    -0.744 OA
ENDBRANCH  62  63
ENDBRANCH  36  57
ENDBRANCH  10  11
ENDBRANCH   3   5
ENDBRANCH   2   3
ENDBRANCH   1   2
BRANCH   1  67
ATOM     67  C   UNL     1       4.195  -0.192   2.133  1.00  0.00     0.274 C 
BRANCH  67  68
ATOM     68  O   UNL     1       3.769  -1.368   1.435  1.00  0.00    -0.462 OA
BRANCH  68  69
ATOM     69  C   UNL     1       2.437  -1.670   1.507  1.00  0.00     0.315 C 
ATOM     70  O   UNL     1       1.625  -1.075   2.203  1.00  0.00    -0.251 OA
BRANCH  69  71
ATOM     71  C   UNL     1       2.090  -2.749   0.503  1.00  0.00     0.148 C 
ATOM     72  C   UNL     1       0.596  -3.141   0.492  1.00  0.00     0.043 C 
ATOM     73  C   UNL     1       2.747  -4.048   0.780  1.00  0.00     0.033 A 
ATOM     74  C   UNL     1       0.578  -4.629   0.117  1.00  0.00     0.124 C 
ATOM     75  N   UNL     1       1.885  -5.087   0.557  1.00  0.00    -0.341 N 
ATOM     76  C   UNL     1       3.969  -4.556   1.120  1.00  0.00     0.025 A 
ATOM     77  C   UNL     1       2.492  -6.287   0.751  1.00  0.00     0.090 A 
ATOM     78  C   UNL     1       3.801  -5.965   1.126  1.00  0.00     0.032 A 
BRANCH  77  79
ATOM     79  C   UNL     1       1.975  -7.642   0.632  1.00  0.00     0.209 C 
ATOM     80  O   UNL     1       2.586  -8.597   1.105  1.00  0.00    -0.287 OA
BRANCH  79  81
ATOM     81  C   UNL     1       0.682  -7.930  -0.033  1.00  0.00     0.024 A 
ATOM     82  C   UNL     1      -0.227  -8.749   0.643  1.00  0.00     0.012 A 
ATOM     83  C   UNL     1       0.370  -7.453  -1.312  1.00  0.00     0.012 A 
ATOM     84  C   UNL     1      -1.471  -9.027   0.078  1.00  0.00     0.001 A 
ATOM     85  C   UNL     1      -0.880  -7.728  -1.872  1.00  0.00     0.001 A 
ATOM     86  C   UNL     1      -1.804  -8.502  -1.170  1.00  0.00     0.000 A 
ENDBRANCH  79  81
ENDBRANCH  77  79
ENDBRANCH  69  71
ENDBRANCH  68  69
ENDBRANCH  67  68
ENDBRANCH   1  67
TORSDOF 16
