REMARK SMILES CS(=O)(=O)c1ccc(C2=NN(c3ccc(C(=O)OCCOC(=O)c4ccc(-c5c6nc(c(-c7ccc(S(=O)(=O)[O-])cc7)c7ccc([nH]7)c(-c7ccc(S(=O)(=O)[O-])cc7)c7nc(c(-c8ccc(S(=O)(=O)[O-])cc8)c8ccc5[nH]8)C=C7)C=C6)cc4)cc3)[C@H](c3cccs3)C2)cc1
REMARK SMILES IDX 19 1 18 2 16 3 17 4 15 5 12 6 13 7 85 8 14 9 84 10 11 11
REMARK SMILES IDX 9 12 10 13 92 14 86 15 8 16 5 17 6 18 94 19 7 20 93 21 2 22
REMARK SMILES IDX 1 23 3 24 4 25 87 26 88 27 91 28 89 29 90 30 20 31 21 32
REMARK SMILES IDX 22 33 23 34 24 35 25 36 83 37 26 38 82 39 27 40 28 41 29 42
REMARK SMILES IDX 76 43 30 44 81 45 75 46 77 47 31 48 80 49 74 50 73 51 32 53
REMARK SMILES IDX 62 54 43 55 61 56 44 57 47 58 60 59 78 60 45 61 46 62 59 64
REMARK SMILES IDX 79 65 48 66 33 67 34 68 42 69 35 70 41 71 36 72 37 73 38 74
REMARK SMILES IDX 39 75 40 76 63 77 64 78 72 79 65 80 71 81 66 82 67 83 68 84
REMARK SMILES IDX 69 85 70 86 49 87 50 88 58 89 51 90 57 91 52 92 53 93 54 94
REMARK SMILES IDX 55 95 56 96
REMARK H PARENT 77 52 47 63
REMARK Flexibility Score: inf
ROOT
ATOM      1  C   UNL     1       0.609  -7.962 -14.196  1.00  0.00     0.275 C 
ENDROOT
BRANCH   1   2
ATOM      2  O   UNL     1       1.012  -7.508 -12.889  1.00  0.00    -0.458 OA
BRANCH   2   3
ATOM      3  C   UNL     1       1.185  -6.168 -12.766  1.00  0.00     0.338 C 
ATOM      4  O   UNL     1       1.084  -5.340 -13.656  1.00  0.00    -0.246 OA
BRANCH   3   5
ATOM      5  C   UNL     1       1.464  -5.796 -11.357  1.00  0.00     0.060 A 
ATOM      6  C   UNL     1       2.091  -4.946  -8.755  1.00  0.00     0.060 A 
ATOM      7  C   UNL     1       1.462  -4.074  -9.647  1.00  0.00     0.029 A 
ATOM      8  C   UNL     1       2.353  -6.261  -9.162  1.00  0.00     0.029 A 
ATOM      9  C   UNL     1       1.180  -4.486 -10.949  1.00  0.00     0.018 A 
ATOM     10  C   UNL     1       2.035  -6.694 -10.452  1.00  0.00     0.018 A 
BRANCH   6  11
ATOM     11  N   UNL     1       2.597  -4.486  -7.541  1.00  0.00    -0.257 N 
ATOM     12  C   UNL     1       2.412  -3.285  -5.797  1.00  0.00     0.071 C 
ATOM     13  N   UNL     1       1.768  -4.144  -6.526  1.00  0.00    -0.176 NA
ATOM     14  C   UNL     1       3.743  -2.833  -6.338  1.00  0.00     0.091 C 
ATOM     15  C   UNL     1       3.862  -3.744  -7.560  1.00  0.00     0.154 C 
BRANCH  12  16
ATOM     16  C   UNL     1       1.902  -2.791  -4.505  1.00  0.00    -0.002 A 
ATOM     17  C   UNL     1       0.994  -1.972  -1.998  1.00  0.00     0.067 A 
ATOM     18  C   UNL     1       0.762  -3.283  -2.429  1.00  0.00     0.021 A 
ATOM     19  C   UNL     1       1.662  -1.062  -2.822  1.00  0.00     0.021 A 
ATOM     20  C   UNL     1       1.207  -3.688  -3.687  1.00  0.00     0.011 A 
ATOM     21  C   UNL     1       2.126  -1.478  -4.077  1.00  0.00     0.011 A 
BRANCH  17  22
ATOM     22  S   UNL     1       0.431  -1.554  -0.364  1.00  0.00     0.175 S 
ATOM     23  C   UNL     1       0.972   0.092  -0.014  1.00  0.00     0.163 C 
ATOM     24  O   UNL     1       1.143  -2.435   0.545  1.00  0.00    -0.224 OA
ATOM     25  O   UNL     1      -1.017  -1.538  -0.413  1.00  0.00    -0.224 OA
ENDBRANCH  17  22
ENDBRANCH  12  16
BRANCH  15  26
ATOM     26  C   UNL     1       5.071  -4.655  -7.625  1.00  0.00     0.030 A 
ATOM     27  C   UNL     1       5.695  -5.096  -8.781  1.00  0.00     0.017 A 
ATOM     28  S   UNL     1       5.734  -5.419  -6.241  1.00  0.00    -0.147 S 
ATOM     29  C   UNL     1       6.693  -6.077  -8.528  1.00  0.00     0.012 A 
ATOM     30  C   UNL     1       6.825  -6.337  -7.184  1.00  0.00     0.065 A 
ENDBRANCH  15  26
ENDBRANCH   6  11
ENDBRANCH   3   5
ENDBRANCH   2   3
ENDBRANCH   1   2
BRANCH   1  31
ATOM     31  C   UNL     1      -0.898  -8.209 -14.235  1.00  0.00     0.275 C 
BRANCH  31  32
ATOM     32  O   UNL     1      -1.595  -6.969 -14.021  1.00  0.00    -0.458 OA
BRANCH  32  33
ATOM     33  C   UNL     1      -2.508  -6.968 -13.022  1.00  0.00     0.338 C 
ATOM     34  O   UNL     1      -2.861  -7.913 -12.339  1.00  0.00    -0.246 OA
BRANCH  33  35
ATOM     35  C   UNL     1      -3.053  -5.608 -12.866  1.00  0.00     0.060 A 
ATOM     36  C   UNL     1      -2.207  -4.567 -12.490  1.00  0.00     0.016 A 
ATOM     37  C   UNL     1      -4.422  -5.386 -12.992  1.00  0.00     0.016 A 
ATOM     38  C   UNL     1      -2.731  -3.313 -12.177  1.00  0.00     0.010 A 
ATOM     39  C   UNL     1      -4.937  -4.106 -12.755  1.00  0.00     0.010 A 
ATOM     40  C   UNL     1      -4.103  -3.062 -12.313  1.00  0.00    -0.014 A 
BRANCH  40  41
ATOM     41  C   UNL     1      -4.669  -1.731 -11.950  1.00  0.00     0.031 A 
ATOM     42  C   UNL     1      -5.711  -1.621 -10.865  1.00  0.00     0.074 A 
ATOM     43  C   UNL     1      -4.254  -0.613 -12.579  1.00  0.00     0.049 A 
ATOM     44  N   UNL     1      -6.430  -0.586 -10.511  1.00  0.00    -0.248 NA
ATOM     45  C   UNL     1      -5.991  -2.839 -10.089  1.00  0.00     0.031 C 
ATOM     46  C   UNL     1      -3.228  -0.556 -13.623  1.00  0.00     0.029 A 
ATOM     47  N   UNL     1      -4.642   0.697 -12.427  1.00  0.00    -0.354 N 
ATOM     48  C   UNL     1      -7.294  -1.044  -9.522  1.00  0.00     0.074 A 
ATOM     49  C   UNL     1      -7.005  -2.449  -9.329  1.00  0.00     0.031 C 
ATOM     50  C   UNL     1      -3.042   0.722 -13.988  1.00  0.00     0.029 A 
ATOM     51  C   UNL     1      -3.987   1.567 -13.266  1.00  0.00     0.049 A 
ATOM     52  H   UNL     1      -5.325   0.984 -11.778  1.00  0.00     0.167 HD
ATOM     53  C   UNL     1      -8.247  -0.361  -8.842  1.00  0.00     0.031 A 
ATOM     54  C   UNL     1      -4.147   2.890 -13.465  1.00  0.00     0.031 A 
ATOM     55  C   UNL     1      -8.502   1.047  -8.995  1.00  0.00     0.049 A 
ATOM     56  C   UNL     1      -5.204   3.631 -12.698  1.00  0.00     0.074 A 
ATOM     57  C   UNL     1      -9.426   1.833  -8.327  1.00  0.00     0.029 A 
ATOM     58  N   UNL     1      -7.824   1.885  -9.868  1.00  0.00    -0.354 N 
ATOM     59  N   UNL     1      -6.039   3.172 -11.797  1.00  0.00    -0.248 NA
ATOM     60  C   UNL     1      -5.352   5.064 -12.987  1.00  0.00     0.031 C 
ATOM     61  C   UNL     1      -9.332   3.139  -8.823  1.00  0.00     0.029 A 
ATOM     62  C   UNL     1      -8.319   3.175  -9.768  1.00  0.00     0.049 A 
ATOM     63  H   UNL     1      -7.098   1.603 -10.471  1.00  0.00     0.167 HD
ATOM     64  C   UNL     1      -6.814   4.259 -11.412  1.00  0.00     0.074 A 
ATOM     65  C   UNL     1      -6.331   5.404 -12.158  1.00  0.00     0.031 C 
ATOM     66  C   UNL     1      -7.840   4.302 -10.527  1.00  0.00     0.031 A 
BRANCH  53  67
ATOM     67  C   UNL     1      -9.125  -1.148  -7.905  1.00  0.00    -0.014 A 
ATOM     68  C   UNL     1      -8.651  -1.628  -6.672  1.00  0.00     0.010 A 
ATOM     69  C   UNL     1     -10.462  -1.398  -8.269  1.00  0.00     0.010 A 
ATOM     70  C   UNL     1      -9.483  -2.388  -5.843  1.00  0.00     0.020 A 
ATOM     71  C   UNL     1     -11.304  -2.135  -7.432  1.00  0.00     0.020 A 
ATOM     72  C   UNL     1     -10.802  -2.645  -6.233  1.00  0.00     0.054 A 
BRANCH  72  73
ATOM     73  S   UNL     1     -11.865  -3.634  -5.146  1.00  0.00     0.124 S 
ATOM     74  O   UNL     1     -11.391  -4.989  -5.414  1.00  0.00    -0.237 OA
ATOM     75  O   UNL     1     -11.551  -3.109  -3.819  1.00  0.00    -0.237 OA
ATOM     76  O   UNL     1     -13.215  -3.341  -5.622  1.00  0.00    -0.744 OA
ENDBRANCH  72  73
ENDBRANCH  53  67
BRANCH  54  77
ATOM     77  C   UNL     1      -3.299   3.584 -14.472  1.00  0.00    -0.014 A 
ATOM     78  C   UNL     1      -2.265   4.444 -14.066  1.00  0.00     0.010 A 
ATOM     79  C   UNL     1      -3.486   3.336 -15.845  1.00  0.00     0.010 A 
ATOM     80  C   UNL     1      -1.425   5.035 -15.014  1.00  0.00     0.020 A 
ATOM     81  C   UNL     1      -2.632   3.905 -16.793  1.00  0.00     0.020 A 
ATOM     82  C   UNL     1      -1.607   4.754 -16.371  1.00  0.00     0.054 A 
BRANCH  82  83
ATOM     83  S   UNL     1      -0.439   5.441 -17.578  1.00  0.00     0.124 S 
ATOM     84  O   UNL     1      -0.916   6.814 -17.714  1.00  0.00    -0.237 OA
ATOM     85  O   UNL     1       0.847   5.282 -16.903  1.00  0.00    -0.237 OA
ATOM     86  O   UNL     1      -0.624   4.591 -18.752  1.00  0.00    -0.744 OA
ENDBRANCH  82  83
ENDBRANCH  54  77
BRANCH  66  87
ATOM     87  C   UNL     1      -8.504   5.634 -10.309  1.00  0.00    -0.014 A 
ATOM     88  C   UNL     1      -9.387   6.166 -11.265  1.00  0.00     0.010 A 
ATOM     89  C   UNL     1      -8.271   6.343  -9.118  1.00  0.00     0.010 A 
ATOM     90  C   UNL     1     -10.001   7.402 -11.048  1.00  0.00     0.020 A 
ATOM     91  C   UNL     1      -8.900   7.570  -8.887  1.00  0.00     0.020 A 
ATOM     92  C   UNL     1      -9.750   8.099  -9.862  1.00  0.00     0.054 A 
BRANCH  92  93
ATOM     93  S   UNL     1     -10.580   9.688  -9.585  1.00  0.00     0.124 S 
ATOM     94  O   UNL     1      -9.797  10.589 -10.426  1.00  0.00    -0.237 OA
ATOM     95  O   UNL     1     -11.943   9.426 -10.043  1.00  0.00    -0.237 OA
ATOM     96  O   UNL     1     -10.445   9.902  -8.146  1.00  0.00    -0.744 OA
ENDBRANCH  92  93
ENDBRANCH  66  87
ENDBRANCH  40  41
ENDBRANCH  33  35
ENDBRANCH  32  33
ENDBRANCH  31  32
ENDBRANCH   1  31
TORSDOF 18
