REMARK SMILES Cc1ccccc1C(=O)Nc1cc(C(=O)OCCOC(=O)c2ccc(-c3c4nc(c(-c5ccc(S(=O)(=O)[O-])cc5)c5ccc([nH]5)c(-c5ccc(S(=O)(=O)[O-])cc5)c5nc(c(-c6ccc(S(=O)(=O)[O-])cc6)c6ccc3[nH]6)C=C5)C=C4)cc2)ccc1N1CC[NH+](CC(=O)Nc2ccc(F)cc2)CC1
REMARK SMILES IDX 17 1 16 2 14 3 15 4 13 5 11 6 12 7 84 8 83 9 82 10 10 11
REMARK SMILES IDX 8 12 9 13 7 15 1 16 2 17 3 18 4 19 6 20 5 21 85 22 86 23
REMARK SMILES IDX 101 24 87 25 100 26 88 27 89 29 90 30 91 31 92 32 93 34
REMARK SMILES IDX 94 35 99 36 95 37 98 38 96 39 97 40 18 41 19 42 20 43 21 44
REMARK SMILES IDX 22 45 23 46 81 47 24 48 80 49 25 50 26 51 27 52 74 53 28 54
REMARK SMILES IDX 79 55 73 56 75 57 29 58 78 59 72 60 71 61 30 63 60 64 41 65
REMARK SMILES IDX 59 66 42 67 45 68 58 69 76 70 43 71 44 72 57 74 77 75 46 76
REMARK SMILES IDX 31 77 32 78 40 79 33 80 39 81 34 82 35 83 36 84 37 85 38 86
REMARK SMILES IDX 61 87 62 88 70 89 63 90 69 91 64 92 65 93 66 94 67 95 68 96
REMARK SMILES IDX 47 97 48 98 56 99 49 100 55 101 50 102 51 103 52 104 53 105
REMARK SMILES IDX 54 106
REMARK H PARENT 10 14 88 28 92 33 75 62 45 73
REMARK Flexibility Score: inf
ROOT
ATOM      1  C   UNL     1       1.613  -2.389  -5.005  1.00  0.00     0.275 C 
ENDROOT
BRANCH   1   2
ATOM      2  O   UNL     1       1.806  -1.602  -3.841  1.00  0.00    -0.458 OA
BRANCH   2   3
ATOM      3  C   UNL     1       1.826  -2.325  -2.690  1.00  0.00     0.338 C 
ATOM      4  O   UNL     1       1.161  -3.318  -2.475  1.00  0.00    -0.246 OA
BRANCH   3   5
ATOM      5  C   UNL     1       2.855  -1.580  -1.819  1.00  0.00     0.062 A 
ATOM      6  C   UNL     1       2.951   1.321  -0.836  1.00  0.00     0.065 A 
ATOM      7  C   UNL     1       2.156   0.080  -1.755  1.00  0.00     0.044 A 
ATOM      8  C   UNL     1       4.500   1.068   0.038  1.00  0.00     0.061 A 
ATOM      9  C   UNL     1       5.318  -0.486   0.097  1.00  0.00     0.029 A 
ATOM     10  C   UNL     1       4.587  -1.883  -0.786  1.00  0.00     0.018 A 
BRANCH   6  11
ATOM     11  N   UNL     1       2.362   2.621  -0.782  1.00  0.00    -0.320 N 
ATOM     12  C   UNL     1       1.033   3.060  -0.784  1.00  0.00     0.255 C 
ATOM     13  O   UNL     1       0.804   4.271  -0.755  1.00  0.00    -0.269 OA
ATOM     14  H   UNL     1       3.020   3.351  -0.734  1.00  0.00     0.170 HD
BRANCH  12  15
ATOM     15  C   UNL     1      -0.130   2.126  -0.736  1.00  0.00     0.043 A 
ATOM     16  C   UNL     1       0.682   0.859   1.254  1.00  0.00     0.045 C 
ATOM     17  C   UNL     1      -0.042   0.939  -0.046  1.00  0.00    -0.038 A 
ATOM     18  C   UNL     1      -0.813  -0.125  -0.502  1.00  0.00     0.004 A 
ATOM     19  C   UNL     1      -1.981   0.087  -1.205  1.00  0.00     0.000 A 
ATOM     20  C   UNL     1      -1.349   2.400  -1.367  1.00  0.00     0.014 A 
ATOM     21  C   UNL     1      -2.313   1.390  -1.526  1.00  0.00     0.001 A 
ENDBRANCH  12  15
ENDBRANCH   6  11
BRANCH   8  22
ATOM     22  N   UNL     1       5.068   2.194   0.677  1.00  0.00    -0.359 N 
ATOM     23  C   UNL     1       6.490   2.335   1.090  1.00  0.00     0.178 C 
ATOM     24  C   UNL     1       4.167   2.835   1.617  1.00  0.00     0.178 C 
ATOM     25  C   UNL     1       6.805   3.804   1.621  1.00  0.00     0.284 C 
ATOM     26  C   UNL     1       4.499   4.336   1.633  1.00  0.00     0.284 C 
ATOM     27  N   UNL     1       5.752   4.572   2.321  1.00  0.00    -0.324 N 
ATOM     28  H   UNL     1       6.102   5.528   2.257  1.00  0.00     0.348 HD
BRANCH  27  29
ATOM     29  C   UNL     1       5.602   4.551   3.794  1.00  0.00     0.364 C 
BRANCH  29  30
ATOM     30  C   UNL     1       5.190   3.265   4.519  1.00  0.00     0.279 C 
ATOM     31  O   UNL     1       6.098   2.494   4.880  1.00  0.00    -0.268 OA
ATOM     32  N   UNL     1       3.938   2.893   4.937  1.00  0.00    -0.321 N 
ATOM     33  H   UNL     1       4.035   2.200   5.629  1.00  0.00     0.170 HD
BRANCH  32  34
ATOM     34  C   UNL     1       2.550   3.139   4.741  1.00  0.00     0.041 A 
ATOM     35  C   UNL     1       1.684   2.483   5.636  1.00  0.00     0.029 A 
ATOM     36  C   UNL     1       1.924   3.843   3.716  1.00  0.00     0.029 A 
ATOM     37  C   UNL     1       0.283   2.546   5.513  1.00  0.00     0.041 A 
ATOM     38  C   UNL     1       0.527   3.878   3.548  1.00  0.00     0.041 A 
ATOM     39  C   UNL     1      -0.285   3.242   4.462  1.00  0.00     0.123 A 
ATOM     40  F   UNL     1      -1.615   3.296   4.323  1.00  0.00    -0.207 F 
ENDBRANCH  32  34
ENDBRANCH  29  30
ENDBRANCH  27  29
ENDBRANCH   8  22
ENDBRANCH   3   5
ENDBRANCH   2   3
ENDBRANCH   1   2
BRANCH   1  41
ATOM     41  C   UNL     1       2.937  -2.453  -5.787  1.00  0.00     0.275 C 
BRANCH  41  42
ATOM     42  O   UNL     1       4.109  -2.479  -4.944  1.00  0.00    -0.458 OA
BRANCH  42  43
ATOM     43  C   UNL     1       4.597  -1.316  -4.402  1.00  0.00     0.338 C 
ATOM     44  O   UNL     1       4.617  -0.226  -4.941  1.00  0.00    -0.246 OA
BRANCH  43  45
ATOM     45  C   UNL     1       4.737  -1.571  -2.930  1.00  0.00     0.060 A 
ATOM     46  C   UNL     1       4.249  -0.305  -1.746  1.00  0.00     0.016 A 
ATOM     47  C   UNL     1       4.356  -3.204  -2.567  1.00  0.00     0.016 A 
ATOM     48  C   UNL     1       3.177  -0.864  -0.099  1.00  0.00     0.010 A 
ATOM     49  C   UNL     1       3.417  -3.682  -1.196  1.00  0.00     0.010 A 
ATOM     50  C   UNL     1       2.722  -2.633   0.063  1.00  0.00    -0.014 A 
BRANCH  50  51
ATOM     51  C   UNL     1       1.460  -3.362   0.702  1.00  0.00     0.031 A 
ATOM     52  C   UNL     1       0.209  -2.748   1.315  1.00  0.00     0.074 A 
ATOM     53  C   UNL     1       1.319  -4.716   0.529  1.00  0.00     0.049 A 
ATOM     54  N   UNL     1      -1.019  -2.936   0.887  1.00  0.00    -0.248 NA
ATOM     55  C   UNL     1       0.241  -1.884   2.500  1.00  0.00     0.031 C 
ATOM     56  C   UNL     1       0.197  -5.622   0.793  1.00  0.00     0.029 A 
ATOM     57  N   UNL     1       2.286  -5.660   0.159  1.00  0.00    -0.354 N 
ATOM     58  C   UNL     1      -1.921  -2.205   1.676  1.00  0.00     0.074 A 
ATOM     59  C   UNL     1      -1.042  -1.499   2.614  1.00  0.00     0.031 C 
ATOM     60  C   UNL     1       0.675  -6.869   1.015  1.00  0.00     0.029 A 
ATOM     61  C   UNL     1       2.128  -6.795   0.938  1.00  0.00     0.049 A 
ATOM     62  H   UNL     1       2.967  -5.538  -0.541  1.00  0.00     0.167 HD
ATOM     63  C   UNL     1      -3.038  -2.790   2.209  1.00  0.00     0.031 A 
ATOM     64  C   UNL     1       3.080  -7.024   1.886  1.00  0.00     0.031 A 
ATOM     65  C   UNL     1      -2.754  -4.112   2.706  1.00  0.00     0.049 A 
ATOM     66  C   UNL     1       2.419  -6.807   3.217  1.00  0.00     0.074 A 
ATOM     67  C   UNL     1      -2.998  -5.392   2.260  1.00  0.00     0.029 A 
ATOM     68  N   UNL     1      -1.874  -4.212   3.768  1.00  0.00    -0.354 N 
ATOM     69  N   UNL     1       1.409  -5.992   3.383  1.00  0.00    -0.248 NA
ATOM     70  C   UNL     1       2.700  -7.610   4.400  1.00  0.00     0.031 C 
ATOM     71  C   UNL     1      -2.121  -6.254   2.985  1.00  0.00     0.029 A 
ATOM     72  C   UNL     1      -1.385  -5.490   3.882  1.00  0.00     0.049 A 
ATOM     73  H   UNL     1      -1.631  -3.466   4.363  1.00  0.00     0.167 HD
ATOM     74  C   UNL     1       0.799  -6.287   4.561  1.00  0.00     0.074 A 
ATOM     75  C   UNL     1       1.682  -7.250   5.200  1.00  0.00     0.031 C 
ATOM     76  C   UNL     1      -0.421  -5.802   4.925  1.00  0.00     0.031 A 
BRANCH  63  77
ATOM     77  C   UNL     1      -4.412  -2.143   2.163  1.00  0.00    -0.014 A 
ATOM     78  C   UNL     1      -5.554  -2.900   2.514  1.00  0.00     0.010 A 
ATOM     79  C   UNL     1      -4.653  -0.816   1.740  1.00  0.00     0.010 A 
ATOM     80  C   UNL     1      -6.862  -2.388   2.412  1.00  0.00     0.020 A 
ATOM     81  C   UNL     1      -5.965  -0.288   1.642  1.00  0.00     0.020 A 
ATOM     82  C   UNL     1      -7.064  -1.086   1.962  1.00  0.00     0.054 A 
BRANCH  82  83
ATOM     83  S   UNL     1      -8.774  -0.483   1.772  1.00  0.00     0.124 S 
ATOM     84  O   UNL     1      -9.325  -1.405   0.780  1.00  0.00    -0.237 OA
ATOM     85  O   UNL     1      -9.317  -0.622   3.121  1.00  0.00    -0.237 OA
ATOM     86  O   UNL     1      -8.613   0.893   1.309  1.00  0.00    -0.744 OA
ENDBRANCH  82  83
ENDBRANCH  63  77
BRANCH  64  87
ATOM     87  C   UNL     1       4.467  -6.639   1.409  1.00  0.00    -0.014 A 
ATOM     88  C   UNL     1       4.940  -7.297   0.239  1.00  0.00     0.010 A 
ATOM     89  C   UNL     1       5.125  -5.453   1.782  1.00  0.00     0.010 A 
ATOM     90  C   UNL     1       5.916  -6.728  -0.597  1.00  0.00     0.020 A 
ATOM     91  C   UNL     1       6.141  -4.897   0.962  1.00  0.00     0.020 A 
ATOM     92  C   UNL     1       6.502  -5.517  -0.242  1.00  0.00     0.054 A 
BRANCH  92  93
ATOM     93  S   UNL     1       7.590  -4.690  -1.461  1.00  0.00     0.124 S 
ATOM     94  O   UNL     1       8.848  -5.409  -1.294  1.00  0.00    -0.237 OA
ATOM     95  O   UNL     1       6.903  -4.930  -2.729  1.00  0.00    -0.237 OA
ATOM     96  O   UNL     1       7.606  -3.296  -1.025  1.00  0.00    -0.744 OA
ENDBRANCH  92  93
ENDBRANCH  64  87
BRANCH  76  97
ATOM     97  C   UNL     1      -0.808  -5.642   6.363  1.00  0.00    -0.014 A 
ATOM     98  C   UNL     1       0.148  -5.644   7.390  1.00  0.00     0.010 A 
ATOM     99  C   UNL     1      -2.138  -5.316   6.708  1.00  0.00     0.010 A 
ATOM    100  C   UNL     1      -0.222  -5.476   8.718  1.00  0.00     0.020 A 
ATOM    101  C   UNL     1      -2.506  -5.067   8.029  1.00  0.00     0.020 A 
ATOM    102  C   UNL     1      -1.550  -5.201   9.030  1.00  0.00     0.054 A 
BRANCH 102 103
ATOM    103  S   UNL     1      -1.994  -5.005  10.764  1.00  0.00     0.124 S 
ATOM    104  O   UNL     1      -2.040  -6.395  11.212  1.00  0.00    -0.237 OA
ATOM    105  O   UNL     1      -0.884  -4.212  11.289  1.00  0.00    -0.237 OA
ATOM    106  O   UNL     1      -3.280  -4.315  10.715  1.00  0.00    -0.744 OA
ENDBRANCH 102 103
ENDBRANCH  76  97
ENDBRANCH  50  51
ENDBRANCH  43  45
ENDBRANCH  42  43
ENDBRANCH  41  42
ENDBRANCH   1  41
TORSDOF 20
