REMARK SMILES O=C(OCCOC(=O)C1CC[NH+]([C@@H]2CC(=O)N(c3ccc(Oc4ccccc4)cc3)C2=O)CC1)c1ccc(-c2c3nc(c(-c4ccc(S(=O)(=O)[O-])cc4)c4ccc([nH]4)c(-c4ccc(S(=O)(=O)[O-])cc4)c4nc(c(-c5ccc(S(=O)(=O)[O-])cc5)c5ccc2[nH]5)C=C4)C=C3)cc1
REMARK SMILES IDX 5 1 4 2 3 3 2 4 1 5 35 6 36 7 94 8 37 9 93 10 38 11 39 12
REMARK SMILES IDX 40 13 87 14 41 15 92 16 86 17 88 18 42 19 91 20 85 21 84 22
REMARK SMILES IDX 43 24 73 25 54 26 72 27 55 28 58 29 71 30 89 31 56 32 57 33
REMARK SMILES IDX 70 35 90 36 59 37 44 38 45 39 53 40 46 41 52 42 47 43 48 44
REMARK SMILES IDX 49 45 50 46 51 47 74 48 75 49 83 50 76 51 82 52 77 53 78 54
REMARK SMILES IDX 79 55 80 56 81 57 60 58 61 59 69 60 62 61 68 62 63 63 64 64
REMARK SMILES IDX 65 65 66 66 67 67 6 68 7 69 8 70 9 71 10 72 34 73 11 74
REMARK SMILES IDX 33 75 12 76 13 78 14 79 31 80 15 81 17 82 32 83 16 84 18 85
REMARK SMILES IDX 19 86 30 87 20 88 29 89 21 90 22 91 23 92 24 93 28 94 25 95
REMARK SMILES IDX 27 96 26 97
REMARK H PARENT 88 23 58 34 12 77
REMARK Flexibility Score: inf
ROOT
ATOM      1  C   UNL     1       3.753   2.075   1.340  1.00  0.00     0.274 C 
ENDROOT
BRANCH   1   2
ATOM      2  C   UNL     1       4.694   2.196   0.131  1.00  0.00     0.275 C 
BRANCH   2   3
ATOM      3  O   UNL     1       4.484   1.396  -1.039  1.00  0.00    -0.458 OA
BRANCH   3   4
ATOM      4  C   UNL     1       4.003   0.140  -0.994  1.00  0.00     0.338 C 
ATOM      5  O   UNL     1       2.976  -0.150  -1.595  1.00  0.00    -0.246 OA
BRANCH   4   6
ATOM      6  C   UNL     1       4.812  -0.909  -0.295  1.00  0.00     0.060 A 
ATOM      7  C   UNL     1       5.898  -0.680   0.548  1.00  0.00     0.016 A 
ATOM      8  C   UNL     1       4.353  -2.220  -0.419  1.00  0.00     0.016 A 
ATOM      9  C   UNL     1       6.410  -1.712   1.344  1.00  0.00     0.010 A 
ATOM     10  C   UNL     1       4.801  -3.228   0.422  1.00  0.00     0.010 A 
ATOM     11  C   UNL     1       5.829  -2.985   1.327  1.00  0.00    -0.014 A 
BRANCH  11  12
ATOM     12  C   UNL     1       6.309  -4.063   2.220  1.00  0.00     0.031 A 
ATOM     13  C   UNL     1       6.815  -5.348   1.621  1.00  0.00     0.074 A 
ATOM     14  C   UNL     1       6.260  -3.895   3.559  1.00  0.00     0.049 A 
ATOM     15  N   UNL     1       7.377  -6.365   2.219  1.00  0.00    -0.248 NA
ATOM     16  C   UNL     1       6.619  -5.549   0.172  1.00  0.00     0.031 C 
ATOM     17  C   UNL     1       5.642  -2.760   4.259  1.00  0.00     0.029 A 
ATOM     18  N   UNL     1       6.755  -4.669   4.576  1.00  0.00    -0.354 N 
ATOM     19  C   UNL     1       7.610  -7.298   1.216  1.00  0.00     0.074 A 
ATOM     20  C   UNL     1       6.981  -6.810   0.016  1.00  0.00     0.031 C 
ATOM     21  C   UNL     1       5.852  -2.885   5.581  1.00  0.00     0.029 A 
ATOM     22  C   UNL     1       6.623  -4.098   5.822  1.00  0.00     0.049 A 
ATOM     23  H   UNL     1       7.168  -5.551   4.429  1.00  0.00     0.167 HD
ATOM     24  C   UNL     1       8.379  -8.409   1.254  1.00  0.00     0.031 A 
ATOM     25  C   UNL     1       7.119  -4.492   7.012  1.00  0.00     0.031 A 
ATOM     26  C   UNL     1       9.055  -8.845   2.438  1.00  0.00     0.049 A 
ATOM     27  C   UNL     1       8.015  -5.705   7.032  1.00  0.00     0.074 A 
ATOM     28  C   UNL     1       9.923  -9.906   2.602  1.00  0.00     0.029 A 
ATOM     29  N   UNL     1       8.947  -8.210   3.667  1.00  0.00    -0.354 N 
ATOM     30  N   UNL     1       8.354  -6.495   6.038  1.00  0.00    -0.248 NA
ATOM     31  C   UNL     1       8.635  -6.051   8.317  1.00  0.00     0.031 C 
ATOM     32  C   UNL     1      10.324  -9.925   3.942  1.00  0.00     0.029 A 
ATOM     33  C   UNL     1       9.734  -8.854   4.599  1.00  0.00     0.049 A 
ATOM     34  H   UNL     1       8.391  -7.418   3.847  1.00  0.00     0.167 HD
ATOM     35  C   UNL     1       9.254  -7.410   6.572  1.00  0.00     0.074 A 
ATOM     36  C   UNL     1       9.423  -7.058   7.968  1.00  0.00     0.031 C 
ATOM     37  C   UNL     1       9.883  -8.453   5.974  1.00  0.00     0.031 A 
BRANCH  24  38
ATOM     38  C   UNL     1       8.586  -9.136  -0.046  1.00  0.00    -0.014 A 
ATOM     39  C   UNL     1       9.311  -8.523  -1.089  1.00  0.00     0.010 A 
ATOM     40  C   UNL     1       8.036 -10.411  -0.254  1.00  0.00     0.010 A 
ATOM     41  C   UNL     1       9.428  -9.141  -2.333  1.00  0.00     0.020 A 
ATOM     42  C   UNL     1       8.181 -11.050  -1.492  1.00  0.00     0.020 A 
ATOM     43  C   UNL     1       8.858 -10.400  -2.528  1.00  0.00     0.054 A 
BRANCH  43  44
ATOM     44  S   UNL     1       9.038 -11.183  -4.154  1.00  0.00     0.124 S 
ATOM     45  O   UNL     1       8.120 -10.393  -4.971  1.00  0.00    -0.237 OA
ATOM     46  O   UNL     1      10.457 -10.994  -4.444  1.00  0.00    -0.237 OA
ATOM     47  O   UNL     1       8.631 -12.566  -3.919  1.00  0.00    -0.744 OA
ENDBRANCH  43  44
ENDBRANCH  24  38
BRANCH  25  48
ATOM     48  C   UNL     1       6.866  -3.703   8.253  1.00  0.00    -0.014 A 
ATOM     49  C   UNL     1       7.908  -2.993   8.880  1.00  0.00     0.010 A 
ATOM     50  C   UNL     1       5.588  -3.686   8.841  1.00  0.00     0.010 A 
ATOM     51  C   UNL     1       7.693  -2.331  10.095  1.00  0.00     0.020 A 
ATOM     52  C   UNL     1       5.362  -3.002  10.042  1.00  0.00     0.020 A 
ATOM     53  C   UNL     1       6.421  -2.348  10.673  1.00  0.00     0.054 A 
BRANCH  53  54
ATOM     54  S   UNL     1       6.167  -1.490  12.254  1.00  0.00     0.124 S 
ATOM     55  O   UNL     1       6.848  -2.376  13.192  1.00  0.00    -0.237 OA
ATOM     56  O   UNL     1       6.810  -0.200  12.020  1.00  0.00    -0.237 OA
ATOM     57  O   UNL     1       4.712  -1.439  12.383  1.00  0.00    -0.744 OA
ENDBRANCH  53  54
ENDBRANCH  25  48
BRANCH  37  58
ATOM     58  C   UNL     1      10.826  -9.257   6.819  1.00  0.00    -0.014 A 
ATOM     59  C   UNL     1      10.342 -10.129   7.808  1.00  0.00     0.010 A 
ATOM     60  C   UNL     1      12.209  -9.187   6.571  1.00  0.00     0.010 A 
ATOM     61  C   UNL     1      11.230 -10.895   8.562  1.00  0.00     0.020 A 
ATOM     62  C   UNL     1      13.097  -9.976   7.301  1.00  0.00     0.020 A 
ATOM     63  C   UNL     1      12.602 -10.813   8.303  1.00  0.00     0.054 A 
BRANCH  63  64
ATOM     64  S   UNL     1      13.732 -11.855   9.263  1.00  0.00     0.124 S 
ATOM     65  O   UNL     1      13.771 -11.155  10.544  1.00  0.00    -0.237 OA
ATOM     66  O   UNL     1      13.048 -13.146   9.272  1.00  0.00    -0.237 OA
ATOM     67  O   UNL     1      14.973 -11.819   8.493  1.00  0.00    -0.744 OA
ENDBRANCH  63  64
ENDBRANCH  37  58
ENDBRANCH  11  12
ENDBRANCH   4   6
ENDBRANCH   3   4
ENDBRANCH   2   3
ENDBRANCH   1   2
BRANCH   1  68
ATOM     68  O   UNL     1       3.303   0.757   1.711  1.00  0.00    -0.462 OA
BRANCH  68  69
ATOM     69  C   UNL     1       1.944   0.596   1.701  1.00  0.00     0.309 C 
ATOM     70  O   UNL     1       1.170   1.439   1.255  1.00  0.00    -0.252 OA
BRANCH  69  71
ATOM     71  C   UNL     1       1.456  -0.625   2.492  1.00  0.00     0.110 C 
ATOM     72  C   UNL     1       2.211  -1.945   2.309  1.00  0.00     0.077 C 
ATOM     73  C   UNL     1      -0.017  -0.865   2.167  1.00  0.00     0.077 C 
ATOM     74  C   UNL     1       1.478  -2.977   1.423  1.00  0.00     0.263 C 
ATOM     75  C   UNL     1      -0.199  -1.376   0.727  1.00  0.00     0.263 C 
ATOM     76  N   UNL     1       0.844  -2.317   0.281  1.00  0.00    -0.324 N 
ATOM     77  H   UNL     1       1.541  -1.732  -0.180  1.00  0.00     0.348 HD
BRANCH  76  78
ATOM     78  C   UNL     1       0.463  -3.262  -0.810  1.00  0.00     0.284 C 
ATOM     79  C   UNL     1       1.147  -2.962  -2.139  1.00  0.00     0.176 C 
ATOM     80  C   UNL     1      -0.996  -3.202  -1.214  1.00  0.00     0.292 C 
ATOM     81  C   UNL     1       0.107  -2.309  -2.982  1.00  0.00     0.240 C 
ATOM     82  N   UNL     1      -1.106  -2.446  -2.360  1.00  0.00    -0.245 N 
ATOM     83  O   UNL     1      -1.890  -3.767  -0.592  1.00  0.00    -0.267 OA
ATOM     84  O   UNL     1       0.371  -1.792  -4.062  1.00  0.00    -0.274 OA
BRANCH  82  85
ATOM     85  C   UNL     1      -2.328  -1.925  -2.850  1.00  0.00     0.052 A 
ATOM     86  C   UNL     1      -3.386  -1.659  -1.968  1.00  0.00     0.031 A 
ATOM     87  C   UNL     1      -2.502  -1.619  -4.204  1.00  0.00     0.031 A 
ATOM     88  C   UNL     1      -4.594  -1.137  -2.432  1.00  0.00     0.049 A 
ATOM     89  C   UNL     1      -3.712  -1.103  -4.671  1.00  0.00     0.049 A 
ATOM     90  C   UNL     1      -4.771  -0.890  -3.790  1.00  0.00     0.127 A 
BRANCH  90  91
ATOM     91  O   UNL     1      -6.009  -0.408  -4.153  1.00  0.00    -0.457 OA
BRANCH  91  92
ATOM     92  C   UNL     1      -6.380  -0.544  -5.468  1.00  0.00     0.127 A 
ATOM     93  C   UNL     1      -6.670   0.620  -6.175  1.00  0.00     0.047 A 
ATOM     94  C   UNL     1      -6.492  -1.796  -6.078  1.00  0.00     0.047 A 
ATOM     95  C   UNL     1      -7.023   0.538  -7.520  1.00  0.00     0.004 A 
ATOM     96  C   UNL     1      -6.836  -1.874  -7.426  1.00  0.00     0.004 A 
ATOM     97  C   UNL     1      -7.096  -0.707  -8.147  1.00  0.00     0.000 A 
ENDBRANCH  91  92
ENDBRANCH  90  91
ENDBRANCH  82  85
ENDBRANCH  76  78
ENDBRANCH  69  71
ENDBRANCH  68  69
ENDBRANCH   1  68
TORSDOF 18
