REMARK SMILES CCc1cccc(CC)c1N1/C(=[NH+]/C(=O)CCCC(=O)OCCOC(=O)c2ccc(-c3c4nc(c(-c5ccc(S(=O)(=O)[O-])cc5)c5ccc([nH]5)c(-c5ccc(S(=O)(=O)[O-])cc5)c5nc(c(-c6ccc(S(=O)(=O)[O-])cc6)c6ccc3[nH]6)C=C5)C=C4)cc2)S[C@@H]2CS(=O)(=O)C[C@@H]21
REMARK SMILES IDX 22 1 21 2 19 3 20 4 18 5 17 6 16 7 14 8 11 9 12 10 94 11
REMARK SMILES IDX 13 12 87 13 88 14 93 15 89 17 90 18 15 19 91 20 92 21 10 22
REMARK SMILES IDX 3 23 4 24 5 25 7 26 6 27 2 28 1 29 8 30 9 31 23 32 24 33
REMARK SMILES IDX 25 34 26 35 27 36 28 37 86 38 29 39 85 40 30 41 31 42 32 43
REMARK SMILES IDX 79 44 33 45 84 46 78 47 80 48 34 49 83 50 77 51 76 52 35 54
REMARK SMILES IDX 65 55 46 56 64 57 47 58 50 59 63 60 81 61 48 62 49 63 62 65
REMARK SMILES IDX 82 66 51 67 36 68 37 69 45 70 38 71 44 72 39 73 40 74 41 75
REMARK SMILES IDX 42 76 43 77 66 78 67 79 75 80 68 81 74 82 69 83 70 84 71 85
REMARK SMILES IDX 72 86 73 87 52 88 53 89 61 90 54 91 60 92 55 93 56 94 57 95
REMARK SMILES IDX 58 96 59 97
REMARK H PARENT 13 16 80 53 50 64
REMARK Flexibility Score: inf
ROOT
ATOM      1  C   UNL     1       4.299  -2.566   1.708  1.00  0.00     0.274 C 
ENDROOT
BRANCH   1   2
ATOM      2  O   UNL     1       4.034  -1.162   1.568  1.00  0.00    -0.462 OA
BRANCH   2   3
ATOM      3  C   UNL     1       2.768  -0.840   1.205  1.00  0.00     0.305 C 
ATOM      4  O   UNL     1       1.926  -1.664   0.869  1.00  0.00    -0.252 OA
BRANCH   3   5
ATOM      5  C   UNL     1       2.457   0.637   1.381  1.00  0.00     0.123 C 
BRANCH   5   6
ATOM      6  C   UNL     1       3.611   1.554   1.755  1.00  0.00     0.024 C 
BRANCH   6   7
ATOM      7  C   UNL     1       4.763   1.556   0.756  1.00  0.00     0.128 C 
BRANCH   7   8
ATOM      8  C   UNL     1       4.289   1.902  -0.640  1.00  0.00     0.307 C 
ATOM      9  N   UNL     1       2.746   0.157  -3.466  1.00  0.00    -0.216 N 
ATOM     10  C   UNL     1       3.581   0.896  -2.617  1.00  0.00     0.319 C 
ATOM     11  C   UNL     1       2.703   0.616  -4.875  1.00  0.00     0.212 C 
ATOM     12  N   UNL     1       3.664   0.873  -1.328  1.00  0.00    -0.204 N 
ATOM     13  S   UNL     1       4.546   2.006  -3.637  1.00  0.00    -0.029 SA
ATOM     14  C   UNL     1       3.233   2.059  -4.863  1.00  0.00     0.120 C 
ATOM     15  C   UNL     1       1.328   0.653  -5.534  1.00  0.00     0.188 C 
ATOM     16  H   UNL     1       3.280   0.116  -0.828  1.00  0.00     0.316 HD
ATOM     17  C   UNL     1       2.086   2.957  -4.425  1.00  0.00     0.156 C 
ATOM     18  S   UNL     1       0.734   2.326  -5.382  1.00  0.00     0.155 S 
ATOM     19  O   UNL     1       4.319   3.081  -0.993  1.00  0.00    -0.247 OA
ATOM     20  O   UNL     1      -0.469   2.352  -4.587  1.00  0.00    -0.229 OA
ATOM     21  O   UNL     1       0.810   2.943  -6.694  1.00  0.00    -0.229 OA
BRANCH   9  22
ATOM     22  C   UNL     1       2.140  -1.089  -3.170  1.00  0.00     0.134 A 
ATOM     23  C   UNL     1       0.854  -1.144  -2.556  1.00  0.00    -0.001 A 
ATOM     24  C   UNL     1       0.205  -2.387  -2.395  1.00  0.00     0.008 A 
ATOM     25  C   UNL     1       0.785  -3.567  -2.830  1.00  0.00     0.001 A 
ATOM     26  C   UNL     1       2.725  -2.312  -3.619  1.00  0.00    -0.001 A 
ATOM     27  C   UNL     1       2.025  -3.526  -3.449  1.00  0.00     0.008 A 
BRANCH  23  28
ATOM     28  C   UNL     1       0.057   0.087  -2.165  1.00  0.00     0.036 C 
ATOM     29  C   UNL     1      -0.454   0.066  -0.732  1.00  0.00     0.009 C 
ENDBRANCH  23  28
BRANCH  26  30
ATOM     30  C   UNL     1       4.037  -2.378  -4.379  1.00  0.00     0.036 C 
ATOM     31  C   UNL     1       5.021  -3.431  -3.880  1.00  0.00     0.009 C 
ENDBRANCH  26  30
ENDBRANCH   9  22
ENDBRANCH   7   8
ENDBRANCH   6   7
ENDBRANCH   5   6
ENDBRANCH   3   5
ENDBRANCH   2   3
ENDBRANCH   1   2
BRANCH   1  32
ATOM     32  C   UNL     1       4.124  -2.978   3.171  1.00  0.00     0.275 C 
BRANCH  32  33
ATOM     33  O   UNL     1       2.740  -2.948   3.575  1.00  0.00    -0.458 OA
BRANCH  33  34
ATOM     34  C   UNL     1       2.319  -1.776   4.107  1.00  0.00     0.338 C 
ATOM     35  O   UNL     1       2.987  -0.776   4.315  1.00  0.00    -0.246 OA
BRANCH  34  36
ATOM     36  C   UNL     1       0.872  -1.817   4.352  1.00  0.00     0.060 A 
ATOM     37  C   UNL     1       0.007  -1.164   3.470  1.00  0.00     0.016 A 
ATOM     38  C   UNL     1       0.387  -2.370   5.534  1.00  0.00     0.016 A 
ATOM     39  C   UNL     1      -1.331  -0.995   3.795  1.00  0.00     0.010 A 
ATOM     40  C   UNL     1      -0.973  -2.259   5.829  1.00  0.00     0.010 A 
ATOM     41  C   UNL     1      -1.835  -1.546   4.976  1.00  0.00    -0.014 A 
BRANCH  41  42
ATOM     42  C   UNL     1      -3.262  -1.358   5.326  1.00  0.00     0.031 A 
ATOM     43  C   UNL     1      -3.636  -0.566   6.544  1.00  0.00     0.074 A 
ATOM     44  C   UNL     1      -4.214  -1.911   4.551  1.00  0.00     0.049 A 
ATOM     45  N   UNL     1      -4.811  -0.400   7.092  1.00  0.00    -0.248 NA
ATOM     46  C   UNL     1      -2.539   0.117   7.247  1.00  0.00     0.031 C 
ATOM     47  C   UNL     1      -3.970  -2.662   3.318  1.00  0.00     0.029 A 
ATOM     48  N   UNL     1      -5.577  -1.938   4.695  1.00  0.00    -0.354 N 
ATOM     49  C   UNL     1      -4.592   0.372   8.227  1.00  0.00     0.074 A 
ATOM     50  C   UNL     1      -3.168   0.621   8.299  1.00  0.00     0.031 C 
ATOM     51  C   UNL     1      -5.143  -3.076   2.818  1.00  0.00     0.029 A 
ATOM     52  C   UNL     1      -6.211  -2.684   3.731  1.00  0.00     0.049 A 
ATOM     53  H   UNL     1      -6.054  -1.469   5.417  1.00  0.00     0.167 HD
ATOM     54  C   UNL     1      -5.498   0.825   9.128  1.00  0.00     0.031 A 
ATOM     55  C   UNL     1      -7.500  -3.055   3.618  1.00  0.00     0.031 A 
ATOM     56  C   UNL     1      -6.910   0.556   9.043  1.00  0.00     0.049 A 
ATOM     57  C   UNL     1      -8.480  -2.596   4.658  1.00  0.00     0.074 A 
ATOM     58  C   UNL     1      -7.921   0.982   9.887  1.00  0.00     0.029 A 
ATOM     59  N   UNL     1      -7.512  -0.221   8.061  1.00  0.00    -0.354 N 
ATOM     60  N   UNL     1      -8.264  -1.862   5.724  1.00  0.00    -0.248 NA
ATOM     61  C   UNL     1      -9.877  -3.010   4.479  1.00  0.00     0.031 C 
ATOM     62  C   UNL     1      -9.121   0.405   9.456  1.00  0.00     0.029 A 
ATOM     63  C   UNL     1      -8.874  -0.316   8.298  1.00  0.00     0.049 A 
ATOM     64  H   UNL     1      -7.040  -0.641   7.307  1.00  0.00     0.167 HD
ATOM     65  C   UNL     1      -9.502  -1.707   6.335  1.00  0.00     0.074 A 
ATOM     66  C   UNL     1     -10.463  -2.413   5.509  1.00  0.00     0.031 C 
ATOM     67  C   UNL     1      -9.815  -1.038   7.474  1.00  0.00     0.031 A 
BRANCH  54  68
ATOM     68  C   UNL     1      -4.968   1.593  10.314  1.00  0.00    -0.014 A 
ATOM     69  C   UNL     1      -4.370   2.859  10.172  1.00  0.00     0.010 A 
ATOM     70  C   UNL     1      -5.055   1.023  11.598  1.00  0.00     0.010 A 
ATOM     71  C   UNL     1      -3.805   3.504  11.277  1.00  0.00     0.020 A 
ATOM     72  C   UNL     1      -4.525   1.682  12.711  1.00  0.00     0.020 A 
ATOM     73  C   UNL     1      -3.877   2.905  12.538  1.00  0.00     0.054 A 
BRANCH  73  74
ATOM     74  S   UNL     1      -3.107   3.747  13.948  1.00  0.00     0.124 S 
ATOM     75  O   UNL     1      -1.685   3.566  13.668  1.00  0.00    -0.237 OA
ATOM     76  O   UNL     1      -3.603   5.114  13.815  1.00  0.00    -0.237 OA
ATOM     77  O   UNL     1      -3.611   3.015  15.108  1.00  0.00    -0.744 OA
ENDBRANCH  73  74
ENDBRANCH  54  68
BRANCH  55  78
ATOM     78  C   UNL     1      -7.903  -3.935   2.488  1.00  0.00    -0.014 A 
ATOM     79  C   UNL     1      -8.668  -3.433   1.423  1.00  0.00     0.010 A 
ATOM     80  C   UNL     1      -7.446  -5.266   2.435  1.00  0.00     0.010 A 
ATOM     81  C   UNL     1      -8.958  -4.241   0.320  1.00  0.00     0.020 A 
ATOM     82  C   UNL     1      -7.708  -6.067   1.321  1.00  0.00     0.020 A 
ATOM     83  C   UNL     1      -8.464  -5.549   0.269  1.00  0.00     0.054 A 
BRANCH  83  84
ATOM     84  S   UNL     1      -8.763  -6.540  -1.221  1.00  0.00     0.124 S 
ATOM     85  O   UNL     1     -10.192  -6.816  -1.122  1.00  0.00    -0.237 OA
ATOM     86  O   UNL     1      -8.366  -5.626  -2.290  1.00  0.00    -0.237 OA
ATOM     87  O   UNL     1      -7.888  -7.697  -1.045  1.00  0.00    -0.744 OA
ENDBRANCH  83  84
ENDBRANCH  55  78
BRANCH  67  88
ATOM     88  C   UNL     1     -11.265  -1.012   7.882  1.00  0.00    -0.014 A 
ATOM     89  C   UNL     1     -11.912  -2.162   8.368  1.00  0.00     0.010 A 
ATOM     90  C   UNL     1     -11.976   0.202   7.827  1.00  0.00     0.010 A 
ATOM     91  C   UNL     1     -13.252  -2.105   8.761  1.00  0.00     0.020 A 
ATOM     92  C   UNL     1     -13.305   0.270   8.250  1.00  0.00     0.020 A 
ATOM     93  C   UNL     1     -13.940  -0.888   8.702  1.00  0.00     0.054 A 
BRANCH  93  94
ATOM     94  S   UNL     1     -15.664  -0.832   9.261  1.00  0.00     0.124 S 
ATOM     95  O   UNL     1     -16.353  -1.557   8.197  1.00  0.00    -0.237 OA
ATOM     96  O   UNL     1     -15.603  -1.516  10.551  1.00  0.00    -0.237 OA
ATOM     97  O   UNL     1     -15.959   0.597   9.333  1.00  0.00    -0.744 OA
ENDBRANCH  93  94
ENDBRANCH  67  88
ENDBRANCH  41  42
ENDBRANCH  34  36
ENDBRANCH  33  34
ENDBRANCH  32  33
ENDBRANCH   1  32
TORSDOF 20
