REMARK SMILES C[C@@H](C(=O)OCCOC(=O)c1ccc(-c2c3nc(c(-c4ccc(S(=O)(=O)[O-])cc4)c4ccc([nH]4)c(-c4ccc(S(=O)(=O)[O-])cc4)c4nc(c(-c5ccc(S(=O)(=O)[O-])cc5)c5ccc2[nH]5)C=C4)C=C3)cc1)[C@H]1CCOC2(CCCCC2)C1
REMARK SMILES IDX 7 1 6 2 5 3 3 4 4 5 2 6 1 7 71 8 72 9 81 10 73 11 75 12
REMARK SMILES IDX 74 13 76 14 80 15 77 16 79 17 78 18 8 19 9 20 10 21 11 22
REMARK SMILES IDX 12 23 70 24 13 25 69 26 14 27 15 28 16 29 63 30 17 31 68 32
REMARK SMILES IDX 62 33 64 34 18 35 67 36 61 37 60 38 19 40 49 41 30 42 48 43
REMARK SMILES IDX 31 44 34 45 47 46 65 47 32 48 33 49 46 51 66 52 35 53 20 54
REMARK SMILES IDX 21 55 29 56 22 57 28 58 23 59 24 60 25 61 26 62 27 63 50 64
REMARK SMILES IDX 51 65 59 66 52 67 58 68 53 69 54 70 55 71 56 72 57 73 36 74
REMARK SMILES IDX 37 75 45 76 38 77 44 78 39 79 40 80 41 81 42 82 43 83
REMARK H PARENT 64 39 34 50
REMARK Flexibility Score: inf
ROOT
ATOM      1  C   UNL     1      -0.600  -0.360  -3.825  1.00  0.00     0.275 C 
ENDROOT
BRANCH   1   2
ATOM      2  C   UNL     1      -1.828   0.458  -3.441  1.00  0.00     0.274 C 
BRANCH   2   3
ATOM      3  O   UNL     1      -1.496   1.325  -2.336  1.00  0.00    -0.462 OA
BRANCH   3   4
ATOM      4  C   UNL     1      -2.287   1.266  -1.231  1.00  0.00     0.309 C 
ATOM      5  O   UNL     1      -3.215   0.479  -1.091  1.00  0.00    -0.252 OA
BRANCH   4   6
ATOM      6  C   UNL     1      -1.953   2.360  -0.208  1.00  0.00     0.099 C 
ATOM      7  C   UNL     1      -0.873   3.325  -0.731  1.00  0.00     0.020 C 
BRANCH   6   8
ATOM      8  C   UNL     1      -1.551   1.863   1.213  1.00  0.00     0.008 C 
ATOM      9  C   UNL     1      -1.955   2.906   2.279  1.00  0.00     0.033 C 
ATOM     10  C   UNL     1      -2.134   0.514   1.657  1.00  0.00     0.040 C 
ATOM     11  C   UNL     1      -1.655   2.458   3.707  1.00  0.00     0.161 C 
ATOM     12  C   UNL     1      -1.669   0.129   3.083  1.00  0.00     0.069 C 
ATOM     13  O   UNL     1      -2.127   1.146   3.987  1.00  0.00    -0.375 OA
ATOM     14  C   UNL     1      -0.131  -0.041   3.170  1.00  0.00     0.035 C 
ATOM     15  C   UNL     1      -2.371  -1.188   3.493  1.00  0.00     0.035 C 
ATOM     16  C   UNL     1       0.331  -0.568   4.524  1.00  0.00     0.003 C 
ATOM     17  C   UNL     1      -1.854  -1.786   4.804  1.00  0.00     0.003 C 
ATOM     18  C   UNL     1      -0.336  -1.893   4.847  1.00  0.00     0.000 C 
ENDBRANCH   6   8
ENDBRANCH   4   6
ENDBRANCH   3   4
ENDBRANCH   2   3
ENDBRANCH   1   2
BRANCH   1  19
ATOM     19  O   UNL     1      -0.376  -1.325  -2.787  1.00  0.00    -0.458 OA
BRANCH  19  20
ATOM     20  C   UNL     1       0.913  -1.581  -2.460  1.00  0.00     0.338 C 
ATOM     21  O   UNL     1       1.909  -1.155  -3.015  1.00  0.00    -0.246 OA
BRANCH  20  22
ATOM     22  C   UNL     1       0.929  -2.476  -1.281  1.00  0.00     0.060 A 
ATOM     23  C   UNL     1       0.005  -2.280  -0.259  1.00  0.00     0.016 A 
ATOM     24  C   UNL     1       1.912  -3.460  -1.145  1.00  0.00     0.016 A 
ATOM     25  C   UNL     1       0.113  -3.011   0.921  1.00  0.00     0.010 A 
ATOM     26  C   UNL     1       1.978  -4.233   0.028  1.00  0.00     0.010 A 
ATOM     27  C   UNL     1       1.109  -3.982   1.101  1.00  0.00    -0.014 A 
BRANCH  27  28
ATOM     28  C   UNL     1       1.300  -4.582   2.461  1.00  0.00     0.031 A 
ATOM     29  C   UNL     1       2.569  -4.294   3.234  1.00  0.00     0.074 A 
ATOM     30  C   UNL     1       0.285  -5.196   3.109  1.00  0.00     0.049 A 
ATOM     31  N   UNL     1       2.929  -4.719   4.420  1.00  0.00    -0.248 NA
ATOM     32  C   UNL     1       3.551  -3.396   2.603  1.00  0.00     0.031 C 
ATOM     33  C   UNL     1      -1.066  -5.386   2.581  1.00  0.00     0.029 A 
ATOM     34  N   UNL     1       0.198  -5.662   4.403  1.00  0.00    -0.354 N 
ATOM     35  C   UNL     1       4.207  -4.214   4.636  1.00  0.00     0.074 A 
ATOM     36  C   UNL     1       4.543  -3.411   3.481  1.00  0.00     0.031 C 
ATOM     37  C   UNL     1      -1.875  -5.775   3.579  1.00  0.00     0.029 A 
ATOM     38  C   UNL     1      -1.085  -5.983   4.790  1.00  0.00     0.049 A 
ATOM     39  H   UNL     1       0.979  -5.757   4.995  1.00  0.00     0.167 HD
ATOM     40  C   UNL     1       5.041  -4.426   5.681  1.00  0.00     0.031 A 
ATOM     41  C   UNL     1      -1.573  -6.399   5.979  1.00  0.00     0.031 A 
ATOM     42  C   UNL     1       4.707  -5.183   6.856  1.00  0.00     0.049 A 
ATOM     43  C   UNL     1      -0.618  -6.684   7.109  1.00  0.00     0.074 A 
ATOM     44  C   UNL     1       5.529  -5.554   7.907  1.00  0.00     0.029 A 
ATOM     45  N   UNL     1       3.442  -5.657   7.154  1.00  0.00    -0.354 N 
ATOM     46  N   UNL     1       0.652  -6.379   7.218  1.00  0.00    -0.248 NA
ATOM     47  C   UNL     1      -1.158  -7.431   8.257  1.00  0.00     0.031 C 
ATOM     48  C   UNL     1       4.769  -6.295   8.819  1.00  0.00     0.029 A 
ATOM     49  C   UNL     1       3.464  -6.339   8.359  1.00  0.00     0.049 A 
ATOM     50  H   UNL     1       2.643  -5.529   6.592  1.00  0.00     0.167 HD
ATOM     51  C   UNL     1       1.067  -6.924   8.430  1.00  0.00     0.074 A 
ATOM     52  C   UNL     1      -0.097  -7.522   9.047  1.00  0.00     0.031 C 
ATOM     53  C   UNL     1       2.313  -6.956   8.964  1.00  0.00     0.031 A 
BRANCH  40  54
ATOM     54  C   UNL     1       6.456  -3.938   5.539  1.00  0.00    -0.014 A 
ATOM     55  C   UNL     1       6.817  -2.600   5.764  1.00  0.00     0.010 A 
ATOM     56  C   UNL     1       7.450  -4.875   5.199  1.00  0.00     0.010 A 
ATOM     57  C   UNL     1       8.151  -2.203   5.623  1.00  0.00     0.020 A 
ATOM     58  C   UNL     1       8.784  -4.487   5.078  1.00  0.00     0.020 A 
ATOM     59  C   UNL     1       9.125  -3.148   5.276  1.00  0.00     0.054 A 
BRANCH  59  60
ATOM     60  S   UNL     1      10.851  -2.615   5.113  1.00  0.00     0.124 S 
ATOM     61  O   UNL     1      10.823  -1.892   3.844  1.00  0.00    -0.237 OA
ATOM     62  O   UNL     1      11.046  -1.789   6.302  1.00  0.00    -0.237 OA
ATOM     63  O   UNL     1      11.601  -3.868   5.099  1.00  0.00    -0.744 OA
ENDBRANCH  59  60
ENDBRANCH  40  54
BRANCH  41  64
ATOM     64  C   UNL     1      -3.034  -6.632   6.174  1.00  0.00    -0.014 A 
ATOM     65  C   UNL     1      -3.748  -5.888   7.132  1.00  0.00     0.010 A 
ATOM     66  C   UNL     1      -3.712  -7.627   5.446  1.00  0.00     0.010 A 
ATOM     67  C   UNL     1      -5.103  -6.143   7.368  1.00  0.00     0.020 A 
ATOM     68  C   UNL     1      -5.075  -7.859   5.653  1.00  0.00     0.020 A 
ATOM     69  C   UNL     1      -5.758  -7.128   6.626  1.00  0.00     0.054 A 
BRANCH  69  70
ATOM     70  S   UNL     1      -7.526  -7.429   6.902  1.00  0.00     0.124 S 
ATOM     71  O   UNL     1      -7.501  -8.366   8.021  1.00  0.00    -0.237 OA
ATOM     72  O   UNL     1      -8.042  -6.096   7.203  1.00  0.00    -0.237 OA
ATOM     73  O   UNL     1      -7.973  -7.986   5.627  1.00  0.00    -0.744 OA
ENDBRANCH  69  70
ENDBRANCH  41  64
BRANCH  53  74
ATOM     74  C   UNL     1       2.505  -7.706  10.256  1.00  0.00    -0.014 A 
ATOM     75  C   UNL     1       2.460  -9.112  10.274  1.00  0.00     0.010 A 
ATOM     76  C   UNL     1       2.798  -7.016  11.445  1.00  0.00     0.010 A 
ATOM     77  C   UNL     1       2.680  -9.814  11.462  1.00  0.00     0.020 A 
ATOM     78  C   UNL     1       3.041  -7.716  12.632  1.00  0.00     0.020 A 
ATOM     79  C   UNL     1       2.969  -9.111  12.635  1.00  0.00     0.054 A 
BRANCH  79  80
ATOM     80  S   UNL     1       3.301 -10.049  14.153  1.00  0.00     0.124 S 
ATOM     81  O   UNL     1       1.962 -10.486  14.540  1.00  0.00    -0.237 OA
ATOM     82  O   UNL     1       4.197 -11.106  13.690  1.00  0.00    -0.237 OA
ATOM     83  O   UNL     1       3.916  -9.065  15.041  1.00  0.00    -0.744 OA
ENDBRANCH  79  80
ENDBRANCH  53  74
ENDBRANCH  27  28
ENDBRANCH  20  22
ENDBRANCH  19  20
ENDBRANCH   1  19
TORSDOF 15
