REMARK SMILES O=C(C[C@H]1C[C@H]2CC[C@@H](C1)N2C(=O)NCCC1CC1)OCCOC(=O)c1ccc(-c2c3nc(c(-c4ccc(S(=O)(=O)[O-])cc4)c4ccc([nH]4)c(-c4ccc(S(=O)(=O)[O-])cc4)c4nc(c(-c5ccc(S(=O)(=O)[O-])cc5)c5ccc2[nH]5)C=C4)C=C3)cc1
REMARK SMILES IDX 21 1 20 2 2 3 1 4 3 5 4 6 5 7 10 8 6 9 9 10 7 11 11 12 8 13
REMARK SMILES IDX 12 14 13 15 14 16 15 18 16 19 17 20 18 21 19 22 22 23 23 24
REMARK SMILES IDX 24 25 25 26 26 27 27 28 85 29 28 30 84 31 29 32 30 33 31 34
REMARK SMILES IDX 78 35 32 36 83 37 77 38 79 39 33 40 82 41 76 42 75 43 34 45
REMARK SMILES IDX 64 46 45 47 63 48 46 49 49 50 62 51 80 52 47 53 48 54 61 56
REMARK SMILES IDX 81 57 50 58 35 59 36 60 44 61 37 62 43 63 38 64 39 65 40 66
REMARK SMILES IDX 41 67 42 68 65 69 66 70 74 71 67 72 73 73 68 74 69 75 70 76
REMARK SMILES IDX 71 77 72 78 51 79 52 80 60 81 53 82 59 83 54 84 55 85 56 86
REMARK SMILES IDX 57 87 58 88
REMARK H PARENT 14 17 79 44 49 55
REMARK Flexibility Score: inf
ROOT
ATOM      1  C   UNL     1       3.689  -1.843  -0.150  1.00  0.00     0.274 C 
ENDROOT
BRANCH   1   2
ATOM      2  O   UNL     1       2.459  -1.072  -0.170  1.00  0.00    -0.462 OA
BRANCH   2   3
ATOM      3  C   UNL     1       2.158   0.238  -0.326  1.00  0.00     0.306 C 
ATOM      4  O   UNL     1       0.993   0.598  -0.150  1.00  0.00    -0.252 OA
BRANCH   3   5
ATOM      5  C   UNL     1       3.188   1.256  -0.752  1.00  0.00     0.126 C 
BRANCH   5   6
ATOM      6  C   UNL     1       3.984   2.061   0.291  1.00  0.00     0.004 C 
ATOM      7  C   UNL     1       3.344   3.272   1.036  1.00  0.00     0.029 C 
ATOM      8  C   UNL     1       4.718   1.147   1.255  1.00  0.00     0.029 C 
ATOM      9  C   UNL     1       3.065   3.055   2.558  1.00  0.00     0.087 C 
ATOM     10  C   UNL     1       4.020   0.962   2.616  1.00  0.00     0.087 C 
ATOM     11  C   UNL     1       1.867   2.117   2.679  1.00  0.00     0.027 C 
ATOM     12  N   UNL     1       4.154   2.276   3.170  1.00  0.00    -0.319 N 
ATOM     13  C   UNL     1       2.511   0.734   2.740  1.00  0.00     0.027 C 
BRANCH  12  14
ATOM     14  C   UNL     1       5.195   2.796   3.871  1.00  0.00     0.317 C 
ATOM     15  O   UNL     1       5.171   3.950   4.302  1.00  0.00    -0.249 OA
ATOM     16  N   UNL     1       6.321   2.073   4.122  1.00  0.00    -0.338 N 
ATOM     17  H   UNL     1       6.963   2.578   4.673  1.00  0.00     0.165 HD
BRANCH  16  18
ATOM     18  C   UNL     1       6.828   0.740   3.787  1.00  0.00     0.118 C 
BRANCH  18  19
ATOM     19  C   UNL     1       8.243   0.736   3.216  1.00  0.00     0.025 C 
BRANCH  19  20
ATOM     20  C   UNL     1       9.303   0.900   4.259  1.00  0.00    -0.009 C 
ATOM     21  C   UNL     1      10.719   0.522   3.906  1.00  0.00     0.004 C 
ATOM     22  C   UNL     1      10.354   1.964   4.105  1.00  0.00     0.004 C 
ENDBRANCH  19  20
ENDBRANCH  18  19
ENDBRANCH  16  18
ENDBRANCH  12  14
ENDBRANCH   5   6
ENDBRANCH   3   5
ENDBRANCH   2   3
ENDBRANCH   1   2
BRANCH   1  23
ATOM     23  C   UNL     1       4.248  -2.305  -1.494  1.00  0.00     0.275 C 
BRANCH  23  24
ATOM     24  O   UNL     1       3.897  -1.428  -2.554  1.00  0.00    -0.458 OA
BRANCH  24  25
ATOM     25  C   UNL     1       2.640  -1.628  -3.024  1.00  0.00     0.338 C 
ATOM     26  O   UNL     1       1.877  -2.531  -2.728  1.00  0.00    -0.246 OA
BRANCH  25  27
ATOM     27  C   UNL     1       2.281  -0.431  -3.793  1.00  0.00     0.060 A 
ATOM     28  C   UNL     1       1.067   0.206  -3.513  1.00  0.00     0.016 A 
ATOM     29  C   UNL     1       3.171   0.088  -4.736  1.00  0.00     0.016 A 
ATOM     30  C   UNL     1       0.730   1.372  -4.192  1.00  0.00     0.010 A 
ATOM     31  C   UNL     1       2.824   1.239  -5.430  1.00  0.00     0.010 A 
ATOM     32  C   UNL     1       1.594   1.869  -5.176  1.00  0.00    -0.014 A 
BRANCH  32  33
ATOM     33  C   UNL     1       1.154   2.929  -6.100  1.00  0.00     0.031 A 
ATOM     34  C   UNL     1       0.509   2.505  -7.386  1.00  0.00     0.074 A 
ATOM     35  C   UNL     1       1.420   4.221  -5.841  1.00  0.00     0.049 A 
ATOM     36  N   UNL     1       0.193   3.226  -8.426  1.00  0.00    -0.248 NA
ATOM     37  C   UNL     1       0.196   1.070  -7.525  1.00  0.00     0.031 C 
ATOM     38  C   UNL     1       2.028   4.734  -4.614  1.00  0.00     0.029 A 
ATOM     39  N   UNL     1       1.242   5.333  -6.622  1.00  0.00    -0.354 N 
ATOM     40  C   UNL     1      -0.339   2.335  -9.349  1.00  0.00     0.074 A 
ATOM     41  C   UNL     1      -0.298   1.019  -8.753  1.00  0.00     0.031 C 
ATOM     42  C   UNL     1       2.210   6.061  -4.742  1.00  0.00     0.029 A 
ATOM     43  C   UNL     1       1.765   6.478  -6.070  1.00  0.00     0.049 A 
ATOM     44  H   UNL     1       0.786   5.314  -7.494  1.00  0.00     0.167 HD
ATOM     45  C   UNL     1      -0.810   2.595 -10.588  1.00  0.00     0.031 A 
ATOM     46  C   UNL     1       1.904   7.709  -6.601  1.00  0.00     0.031 A 
ATOM     47  C   UNL     1      -0.830   3.904 -11.176  1.00  0.00     0.049 A 
ATOM     48  C   UNL     1       1.429   7.955  -8.011  1.00  0.00     0.074 A 
ATOM     49  C   UNL     1      -1.334   4.284 -12.405  1.00  0.00     0.029 A 
ATOM     50  N   UNL     1      -0.303   5.041 -10.584  1.00  0.00    -0.354 N 
ATOM     51  N   UNL     1       0.854   7.121  -8.846  1.00  0.00    -0.248 NA
ATOM     52  C   UNL     1       1.627   9.307  -8.554  1.00  0.00     0.031 C 
ATOM     53  C   UNL     1      -1.055   5.641 -12.585  1.00  0.00     0.029 A 
ATOM     54  C   UNL     1      -0.428   6.117 -11.443  1.00  0.00     0.049 A 
ATOM     55  H   UNL     1       0.100   5.077  -9.687  1.00  0.00     0.167 HD
ATOM     56  C   UNL     1       0.604   7.854 -10.003  1.00  0.00     0.074 A 
ATOM     57  C   UNL     1       1.073   9.201  -9.755  1.00  0.00     0.031 C 
ATOM     58  C   UNL     1       0.042   7.450 -11.168  1.00  0.00     0.031 A 
BRANCH  45  59
ATOM     59  C   UNL     1      -1.305   1.437 -11.406  1.00  0.00    -0.014 A 
ATOM     60  C   UNL     1      -2.540   0.826 -11.130  1.00  0.00     0.010 A 
ATOM     61  C   UNL     1      -0.550   0.999 -12.509  1.00  0.00     0.010 A 
ATOM     62  C   UNL     1      -3.007  -0.213 -11.938  1.00  0.00     0.020 A 
ATOM     63  C   UNL     1      -1.023  -0.025 -13.332  1.00  0.00     0.020 A 
ATOM     64  C   UNL     1      -2.247  -0.629 -13.037  1.00  0.00     0.054 A 
BRANCH  64  65
ATOM     65  S   UNL     1      -2.909  -1.935 -14.106  1.00  0.00     0.124 S 
ATOM     66  O   UNL     1      -2.755  -3.120 -13.265  1.00  0.00    -0.237 OA
ATOM     67  O   UNL     1      -4.284  -1.499 -14.330  1.00  0.00    -0.237 OA
ATOM     68  O   UNL     1      -2.045  -1.891 -15.283  1.00  0.00    -0.744 OA
ENDBRANCH  64  65
ENDBRANCH  45  59
BRANCH  46  69
ATOM     69  C   UNL     1       2.574   8.792  -5.831  1.00  0.00    -0.014 A 
ATOM     70  C   UNL     1       1.852   9.915  -5.392  1.00  0.00     0.010 A 
ATOM     71  C   UNL     1       3.956   8.726  -5.572  1.00  0.00     0.010 A 
ATOM     72  C   UNL     1       2.505  10.970  -4.745  1.00  0.00     0.020 A 
ATOM     73  C   UNL     1       4.607   9.764  -4.901  1.00  0.00     0.020 A 
ATOM     74  C   UNL     1       3.880  10.890  -4.510  1.00  0.00     0.054 A 
BRANCH  74  75
ATOM     75  S   UNL     1       4.709  12.266  -3.666  1.00  0.00     0.124 S 
ATOM     76  O   UNL     1       4.781  13.269  -4.724  1.00  0.00    -0.237 OA
ATOM     77  O   UNL     1       3.790  12.566  -2.571  1.00  0.00    -0.237 OA
ATOM     78  O   UNL     1       5.989  11.693  -3.257  1.00  0.00    -0.744 OA
ENDBRANCH  74  75
ENDBRANCH  46  69
BRANCH  58  79
ATOM     79  C   UNL     1      -0.121   8.474 -12.258  1.00  0.00    -0.014 A 
ATOM     80  C   UNL     1       0.983   8.911 -13.009  1.00  0.00     0.010 A 
ATOM     81  C   UNL     1      -1.409   8.929 -12.596  1.00  0.00     0.010 A 
ATOM     82  C   UNL     1       0.804   9.799 -14.073  1.00  0.00     0.020 A 
ATOM     83  C   UNL     1      -1.595   9.795 -13.676  1.00  0.00     0.020 A 
ATOM     84  C   UNL     1      -0.485  10.231 -14.403  1.00  0.00     0.054 A 
BRANCH  84  85
ATOM     85  S   UNL     1      -0.699  11.323 -15.835  1.00  0.00     0.124 S 
ATOM     86  O   UNL     1      -0.198  12.596 -15.324  1.00  0.00    -0.237 OA
ATOM     87  O   UNL     1       0.131  10.684 -16.853  1.00  0.00    -0.237 OA
ATOM     88  O   UNL     1      -2.136  11.279 -16.093  1.00  0.00    -0.744 OA
ENDBRANCH  84  85
ENDBRANCH  58  79
ENDBRANCH  32  33
ENDBRANCH  25  27
ENDBRANCH  24  25
ENDBRANCH  23  24
ENDBRANCH   1  23
TORSDOF 19
