REMARK SMILES Cc1cccc(CNC(=O)N[C@@H](CC2=c3ccccc3=NC2)C(=O)OCCOC(=O)c2ccc(-c3c4nc(c(-c5ccc(S(=O)(=O)[O-])cc5)c5ccc([nH]5)c(-c5ccc(S(=O)(=O)[O-])cc5)c5nc(c(-c6ccc(S(=O)(=O)[O-])cc6)c6ccc3[nH]6)C=C5)C=C4)cc2)c1
REMARK SMILES IDX 26 1 25 2 23 3 24 4 12 5 11 6 8 7 9 8 10 10 7 12 6 13 1 14
REMARK SMILES IDX 2 15 3 16 91 17 4 18 5 19 13 20 14 21 15 22 22 23 16 24
REMARK SMILES IDX 20 25 21 26 17 27 19 28 18 29 27 30 28 31 29 32 30 33 31 34
REMARK SMILES IDX 32 35 90 36 33 37 89 38 34 39 35 40 36 41 83 42 37 43 88 44
REMARK SMILES IDX 82 45 84 46 38 47 87 48 81 49 80 50 39 52 69 53 50 54 68 55
REMARK SMILES IDX 51 56 54 57 67 58 85 59 52 60 53 61 66 63 86 64 55 65 40 66
REMARK SMILES IDX 41 67 49 68 42 69 48 70 43 71 44 72 45 73 46 74 47 75 70 76
REMARK SMILES IDX 71 77 79 78 72 79 78 80 73 81 74 82 75 83 76 84 77 85 56 86
REMARK SMILES IDX 57 87 65 88 58 89 64 90 59 91 60 92 61 93 62 94 63 95
REMARK H PARENT 8 9 11 11 84 51 54 62
REMARK Flexibility Score: inf
ROOT
ATOM      1  C   UNL     1      -5.286  -1.257   3.835  1.00  0.00     0.274 C 
ENDROOT
BRANCH   1   2
ATOM      2  O   UNL     1      -5.390   0.179   3.709  1.00  0.00    -0.461 OA
BRANCH   2   3
ATOM      3  C   UNL     1      -4.308   0.850   2.998  1.00  0.00     0.329 C 
ATOM      4  O   UNL     1      -3.292   0.154   3.270  1.00  0.00    -0.250 OA
BRANCH   3   5
ATOM      5  C   UNL     1      -4.587   2.546   1.622  1.00  0.00     0.198 C 
BRANCH   5   6
ATOM      6  N   UNL     1      -4.740   2.559  -0.052  1.00  0.00    -0.324 N 
ATOM      7  N   UNL     1      -2.770   3.013  -1.347  1.00  0.00    -0.334 N 
ATOM      8  C   UNL     1      -4.074   2.845  -1.167  1.00  0.00     0.315 C 
ATOM      9  H   UNL     1      -2.592   3.314  -2.267  1.00  0.00     0.165 HD
ATOM     10  O   UNL     1      -4.772   2.973  -2.183  1.00  0.00    -0.249 OA
ATOM     11  H   UNL     1      -5.641   2.245  -0.292  1.00  0.00     0.166 HD
BRANCH   7  12
ATOM     12  C   UNL     1      -1.520   2.892  -0.612  1.00  0.00     0.153 C 
BRANCH  12  13
ATOM     13  C   UNL     1      -0.710   1.643  -0.932  1.00  0.00    -0.028 A 
ATOM     14  C   UNL     1       2.710   0.171   0.012  1.00  0.00     0.044 C 
ATOM     15  C   UNL     1       1.347   0.337  -0.594  1.00  0.00    -0.051 A 
ATOM     16  C   UNL     1       0.739  -0.764  -1.203  1.00  0.00     0.003 A 
ATOM     17  C   UNL     1       0.616   1.532  -0.458  1.00  0.00     0.009 A 
ATOM     18  C   UNL     1      -0.555  -0.663  -1.705  1.00  0.00     0.001 A 
ATOM     19  C   UNL     1      -1.270   0.531  -1.580  1.00  0.00     0.005 A 
ENDBRANCH  12  13
ENDBRANCH   7  12
ENDBRANCH   5   6
BRANCH   5  20
ATOM     20  C   UNL     1      -5.540   4.086   1.729  1.00  0.00     0.070 C 
BRANCH  20  21
ATOM     21  C   UNL     1      -7.042   4.330   1.890  1.00  0.00    -0.037 C 
ATOM     22  C   UNL     1      -8.150   3.601   1.724  1.00  0.00     0.001 A 
ATOM     23  C   UNL     1      -7.447   5.637   2.540  1.00  0.00     0.174 C 
ATOM     24  C   UNL     1      -8.541   2.387   1.084  1.00  0.00     0.010 A 
ATOM     25  C   UNL     1      -9.008   4.178   2.787  1.00  0.00     0.065 A 
ATOM     26  N   UNL     1      -8.718   5.360   3.231  1.00  0.00    -0.280 NA
ATOM     27  C   UNL     1      -9.511   1.635   1.634  1.00  0.00     0.001 A 
ATOM     28  C   UNL     1     -10.021   3.272   3.379  1.00  0.00     0.028 A 
ATOM     29  C   UNL     1     -10.176   2.045   2.856  1.00  0.00     0.002 A 
ENDBRANCH  20  21
ENDBRANCH   5  20
ENDBRANCH   3   5
ENDBRANCH   2   3
ENDBRANCH   1   2
BRANCH   1  30
ATOM     30  C   UNL     1      -5.857  -1.900   2.565  1.00  0.00     0.275 C 
BRANCH  30  31
ATOM     31  O   UNL     1      -4.995  -1.824   1.398  1.00  0.00    -0.458 OA
BRANCH  31  32
ATOM     32  C   UNL     1      -5.137  -0.829   0.487  1.00  0.00     0.338 C 
ATOM     33  O   UNL     1      -5.565  -0.960  -0.648  1.00  0.00    -0.246 OA
BRANCH  32  34
ATOM     34  C   UNL     1      -4.815   0.489   1.039  1.00  0.00     0.060 A 
ATOM     35  C   UNL     1      -3.122   1.044   1.305  1.00  0.00     0.016 A 
ATOM     36  C   UNL     1      -6.130   1.219   1.993  1.00  0.00     0.016 A 
ATOM     37  C   UNL     1      -2.718   2.181   2.674  1.00  0.00     0.010 A 
ATOM     38  C   UNL     1      -5.739   2.328   3.365  1.00  0.00     0.010 A 
ATOM     39  C   UNL     1      -4.038   2.773   3.722  1.00  0.00    -0.014 A 
BRANCH  39  40
ATOM     40  C   UNL     1      -3.963   3.029   5.170  1.00  0.00     0.031 A 
ATOM     41  C   UNL     1      -4.695   4.200   5.696  1.00  0.00     0.074 A 
ATOM     42  C   UNL     1      -3.738   1.957   5.969  1.00  0.00     0.049 A 
ATOM     43  N   UNL     1      -5.541   4.144   6.667  1.00  0.00    -0.248 NA
ATOM     44  C   UNL     1      -4.579   5.530   5.088  1.00  0.00     0.031 C 
ATOM     45  C   UNL     1      -4.151   1.749   7.355  1.00  0.00     0.029 A 
ATOM     46  N   UNL     1      -2.987   0.822   5.720  1.00  0.00    -0.354 N 
ATOM     47  C   UNL     1      -5.983   5.417   6.902  1.00  0.00     0.074 A 
ATOM     48  C   UNL     1      -5.444   6.235   5.828  1.00  0.00     0.031 C 
ATOM     49  C   UNL     1      -3.404   0.769   7.893  1.00  0.00     0.029 A 
ATOM     50  C   UNL     1      -2.411   0.383   6.906  1.00  0.00     0.049 A 
ATOM     51  H   UNL     1      -2.878   0.392   4.841  1.00  0.00     0.167 HD
ATOM     52  C   UNL     1      -6.141   5.879   8.169  1.00  0.00     0.031 A 
ATOM     53  C   UNL     1      -1.061   0.495   7.071  1.00  0.00     0.031 A 
ATOM     54  C   UNL     1      -5.281   5.184   9.108  1.00  0.00     0.049 A 
ATOM     55  C   UNL     1      -0.720   1.671   7.963  1.00  0.00     0.074 A 
ATOM     56  C   UNL     1      -5.425   4.088   9.936  1.00  0.00     0.029 A 
ATOM     57  N   UNL     1      -3.916   5.450   9.038  1.00  0.00    -0.354 N 
ATOM     58  N   UNL     1      -1.583   2.599   8.294  1.00  0.00    -0.248 NA
ATOM     59  C   UNL     1       0.573   1.880   8.603  1.00  0.00     0.031 C 
ATOM     60  C   UNL     1      -4.115   3.622  10.261  1.00  0.00     0.029 A 
ATOM     61  C   UNL     1      -3.182   4.465   9.673  1.00  0.00     0.049 A 
ATOM     62  H   UNL     1      -3.525   6.237   8.595  1.00  0.00     0.167 HD
ATOM     63  C   UNL     1      -1.028   3.473   9.179  1.00  0.00     0.074 A 
ATOM     64  C   UNL     1       0.331   2.981   9.340  1.00  0.00     0.031 C 
ATOM     65  C   UNL     1      -1.719   4.529   9.707  1.00  0.00     0.031 A 
BRANCH  52  66
ATOM     66  C   UNL     1      -7.370   6.694   8.467  1.00  0.00    -0.014 A 
ATOM     67  C   UNL     1      -7.824   6.821   9.792  1.00  0.00     0.010 A 
ATOM     68  C   UNL     1      -8.180   7.261   7.455  1.00  0.00     0.010 A 
ATOM     69  C   UNL     1      -9.040   7.459  10.092  1.00  0.00     0.020 A 
ATOM     70  C   UNL     1      -9.387   7.915   7.745  1.00  0.00     0.020 A 
ATOM     71  C   UNL     1      -9.817   7.997   9.065  1.00  0.00     0.054 A 
BRANCH  71  72
ATOM     72  S   UNL     1     -11.404   8.775   9.474  1.00  0.00     0.124 S 
ATOM     73  O   UNL     1     -12.177   7.652   9.999  1.00  0.00    -0.237 OA
ATOM     74  O   UNL     1     -11.018   9.786  10.456  1.00  0.00    -0.237 OA
ATOM     75  O   UNL     1     -11.875   9.306   8.196  1.00  0.00    -0.744 OA
ENDBRANCH  71  72
ENDBRANCH  52  66
BRANCH  53  76
ATOM     76  C   UNL     1      -0.287  -0.157   5.966  1.00  0.00    -0.014 A 
ATOM     77  C   UNL     1      -0.341  -1.568   5.990  1.00  0.00     0.010 A 
ATOM     78  C   UNL     1      -0.054   0.471   4.724  1.00  0.00     0.010 A 
ATOM     79  C   UNL     1      -0.407  -2.310   4.808  1.00  0.00     0.020 A 
ATOM     80  C   UNL     1      -0.120  -0.279   3.525  1.00  0.00     0.020 A 
ATOM     81  C   UNL     1      -0.369  -1.656   3.579  1.00  0.00     0.054 A 
BRANCH  81  82
ATOM     82  S   UNL     1      -0.919  -2.605   2.115  1.00  0.00     0.124 S 
ATOM     83  O   UNL     1       0.314  -3.266   1.698  1.00  0.00    -0.237 OA
ATOM     84  O   UNL     1      -1.947  -3.489   2.665  1.00  0.00    -0.237 OA
ATOM     85  O   UNL     1      -1.419  -1.587   1.204  1.00  0.00    -0.744 OA
ENDBRANCH  81  82
ENDBRANCH  53  76
BRANCH  65  86
ATOM     86  C   UNL     1      -1.050   5.700  10.386  1.00  0.00    -0.014 A 
ATOM     87  C   UNL     1       0.297   6.035  10.174  1.00  0.00     0.010 A 
ATOM     88  C   UNL     1      -1.814   6.592  11.174  1.00  0.00     0.010 A 
ATOM     89  C   UNL     1       0.887   7.131  10.808  1.00  0.00     0.020 A 
ATOM     90  C   UNL     1      -1.251   7.730  11.760  1.00  0.00     0.020 A 
ATOM     91  C   UNL     1       0.111   7.966  11.608  1.00  0.00     0.054 A 
BRANCH  91  92
ATOM     92  S   UNL     1       0.895   9.382  12.414  1.00  0.00     0.124 S 
ATOM     93  O   UNL     1       1.449   8.769  13.617  1.00  0.00    -0.237 OA
ATOM     94  O   UNL     1       1.877   9.816  11.423  1.00  0.00    -0.237 OA
ATOM     95  O   UNL     1      -0.213  10.309  12.630  1.00  0.00    -0.744 OA
ENDBRANCH  91  92
ENDBRANCH  65  86
ENDBRANCH  39  40
ENDBRANCH  32  34
ENDBRANCH  31  32
ENDBRANCH  30  31
ENDBRANCH   1  30
TORSDOF 19
