REMARK SMILES CC(C)C[C@H](CNC(=O)[C@H]1CCCCC[C@H]1[NH3+])CC(=O)OCCOC(=O)c1ccc(-c2c3nc(c(-c4ccc(S(=O)(=O)[O-])cc4)c4ccc([nH]4)c(-c4ccc(S(=O)(=O)[O-])cc4)c4nc(c(-c5ccc(S(=O)(=O)[O-])cc5)c5ccc2[nH]5)C=C4)C=C3)cc1
REMARK SMILES IDX 19 1 20 2 18 3 5 4 4 5 2 6 1 7 3 8 6 9 7 10 8 11 9 13 10 14
REMARK SMILES IDX 11 15 12 16 13 17 14 18 16 20 15 21 17 23 21 27 22 28 23 29
REMARK SMILES IDX 24 30 25 31 26 32 27 33 28 34 86 35 29 36 85 37 30 38 31 39
REMARK SMILES IDX 32 40 79 41 33 42 84 43 78 44 80 45 34 46 83 47 77 48 76 49
REMARK SMILES IDX 35 51 65 52 46 53 64 54 47 55 50 56 63 57 81 58 48 59 49 60
REMARK SMILES IDX 62 62 82 63 51 64 36 65 37 66 45 67 38 68 44 69 39 70 40 71
REMARK SMILES IDX 41 72 42 73 43 74 66 75 67 76 75 77 68 78 74 79 69 80 70 81
REMARK SMILES IDX 71 82 72 83 73 84 52 85 53 86 61 87 54 88 60 89 55 90 56 91
REMARK SMILES IDX 57 92 58 93 59 94
REMARK H PARENT 7 12 17 24 17 25 17 26 80 50 50 61
REMARK Flexibility Score: 90.00
ROOT
ATOM      1  C   UNL     1      -2.470   3.607   0.125  1.00  0.00     0.306 C 
ATOM      2  O   UNL     1      -1.841   4.624  -0.143  1.00  0.00    -0.252 OA
ENDROOT
BRANCH   1   3
ATOM      3  C   UNL     1      -2.909   2.628  -0.946  1.00  0.00     0.128 C 
BRANCH   3   4
ATOM      4  C   UNL     1      -3.261   1.176  -0.506  1.00  0.00     0.019 C 
BRANCH   4   5
ATOM      5  C   UNL     1      -3.012   0.230  -1.730  1.00  0.00     0.009 C 
BRANCH   5   6
ATOM      6  C   UNL     1      -3.533  -1.227  -1.881  1.00  0.00    -0.017 C 
ATOM      7  C   UNL     1      -5.002  -1.544  -1.601  1.00  0.00     0.007 C 
ATOM      8  C   UNL     1      -3.256  -1.662  -3.337  1.00  0.00     0.007 C 
ENDBRANCH   5   6
ENDBRANCH   4   5
BRANCH   4   9
ATOM      9  C   UNL     1      -4.623   1.092   0.218  1.00  0.00     0.120 C 
BRANCH   9  10
ATOM     10  N   UNL     1      -5.331   2.350   0.371  1.00  0.00    -0.355 N 
ATOM     11  C   UNL     1      -6.433   2.865  -0.244  1.00  0.00     0.229 C 
ATOM     12  H   UNL     1      -4.939   2.947   1.050  1.00  0.00     0.163 HD
ATOM     13  O   UNL     1      -6.746   4.011   0.087  1.00  0.00    -0.275 OA
BRANCH  11  14
ATOM     14  C   UNL     1      -7.265   2.025  -1.232  1.00  0.00     0.136 C 
BRANCH  14  15
ATOM     15  C   UNL     1      -8.778   2.249  -1.012  1.00  0.00     0.020 C 
BRANCH  15  16
ATOM     16  C   UNL     1      -9.340   3.628  -1.362  1.00  0.00     0.001 C 
BRANCH  16  17
ATOM     17  C   UNL     1      -9.692   3.874  -2.824  1.00  0.00     0.000 C 
BRANCH  17  18
ATOM     18  C   UNL     1      -8.700   3.410  -3.878  1.00  0.00     0.006 CG0
ATOM     19  G   UNL     1      -7.240   3.419  -3.449  1.00  0.00     0.000 G0
ENDBRANCH  17  18
ENDBRANCH  16  17
ENDBRANCH  15  16
ENDBRANCH  14  15
BRANCH  14  20
ATOM     20  C   UNL     1      -6.868   2.126  -2.721  1.00  0.00     0.193 C 
BRANCH  20  21
ATOM     21  C   UNL     1      -7.240   3.419  -3.449  1.00  0.00     0.066 CG0
ATOM     22  G   UNL     1      -8.700   3.410  -3.878  1.00  0.00     0.000 G0
ENDBRANCH  20  21
BRANCH  20  23
ATOM     23  N   UNL     1      -5.450   1.899  -2.948  1.00  0.00    -0.354 N 
ATOM     24  H   UNL     1      -4.914   2.664  -2.537  1.00  0.00     0.344 HD
ATOM     25  H   UNL     1      -5.269   1.857  -3.950  1.00  0.00     0.344 HD
ATOM     26  H   UNL     1      -5.173   1.019  -2.514  1.00  0.00     0.344 HD
ENDBRANCH  20  23
ENDBRANCH  14  20
ENDBRANCH  11  14
ENDBRANCH   9  10
ENDBRANCH   4   9
ENDBRANCH   3   4
ENDBRANCH   1   3
BRANCH   1  27
ATOM     27  O   UNL     1      -2.863   3.253   1.375  1.00  0.00    -0.462 OA
BRANCH  27  28
ATOM     28  C   UNL     1      -2.435   4.118   2.446  1.00  0.00     0.274 C 
BRANCH  28  29
ATOM     29  C   UNL     1      -1.270   3.491   3.213  1.00  0.00     0.275 C 
BRANCH  29  30
ATOM     30  O   UNL     1      -0.080   3.458   2.406  1.00  0.00    -0.458 OA
BRANCH  30  31
ATOM     31  C   UNL     1       0.134   2.309   1.727  1.00  0.00     0.338 C 
ATOM     32  O   UNL     1      -0.520   1.276   1.787  1.00  0.00    -0.246 OA
BRANCH  31  33
ATOM     33  C   UNL     1       1.216   2.524   0.761  1.00  0.00     0.060 A 
ATOM     34  C   UNL     1       0.880   2.681  -0.584  1.00  0.00     0.016 A 
ATOM     35  C   UNL     1       2.550   2.531   1.164  1.00  0.00     0.016 A 
ATOM     36  C   UNL     1       1.869   2.858  -1.542  1.00  0.00     0.010 A 
ATOM     37  C   UNL     1       3.547   2.715   0.202  1.00  0.00     0.010 A 
ATOM     38  C   UNL     1       3.211   2.878  -1.155  1.00  0.00    -0.014 A 
BRANCH  38  39
ATOM     39  C   UNL     1       4.264   3.038  -2.180  1.00  0.00     0.031 A 
ATOM     40  C   UNL     1       5.119   1.863  -2.551  1.00  0.00     0.074 A 
ATOM     41  C   UNL     1       4.438   4.231  -2.778  1.00  0.00     0.049 A 
ATOM     42  N   UNL     1       6.170   1.821  -3.327  1.00  0.00    -0.248 NA
ATOM     43  C   UNL     1       4.742   0.565  -1.970  1.00  0.00     0.031 C 
ATOM     44  C   UNL     1       3.620   5.424  -2.543  1.00  0.00     0.029 A 
ATOM     45  N   UNL     1       5.365   4.638  -3.703  1.00  0.00    -0.354 N 
ATOM     46  C   UNL     1       6.602   0.501  -3.303  1.00  0.00     0.074 A 
ATOM     47  C   UNL     1       5.702  -0.225  -2.432  1.00  0.00     0.031 C 
ATOM     48  C   UNL     1       4.085   6.429  -3.302  1.00  0.00     0.029 A 
ATOM     49  C   UNL     1       5.263   5.969  -4.030  1.00  0.00     0.049 A 
ATOM     50  H   UNL     1       6.038   4.036  -4.094  1.00  0.00     0.167 HD
ATOM     51  C   UNL     1       7.659  -0.049  -3.945  1.00  0.00     0.031 A 
ATOM     52  C   UNL     1       6.055   6.740  -4.800  1.00  0.00     0.031 A 
ATOM     53  C   UNL     1       8.544   0.686  -4.808  1.00  0.00     0.049 A 
ATOM     54  C   UNL     1       7.261   6.121  -5.449  1.00  0.00     0.074 A 
ATOM     55  C   UNL     1       9.645   0.225  -5.508  1.00  0.00     0.029 A 
ATOM     56  N   UNL     1       8.430   2.041  -5.089  1.00  0.00    -0.354 N 
ATOM     57  N   UNL     1       7.674   4.876  -5.400  1.00  0.00    -0.248 NA
ATOM     58  C   UNL     1       8.112   7.010  -6.250  1.00  0.00     0.031 C 
ATOM     59  C   UNL     1      10.223   1.311  -6.176  1.00  0.00     0.029 A 
ATOM     60  C   UNL     1       9.452   2.437  -5.933  1.00  0.00     0.049 A 
ATOM     61  H   UNL     1       7.725   2.632  -4.738  1.00  0.00     0.167 HD
ATOM     62  C   UNL     1       8.827   4.829  -6.175  1.00  0.00     0.074 A 
ATOM     63  C   UNL     1       9.034   6.166  -6.696  1.00  0.00     0.031 C 
ATOM     64  C   UNL     1       9.642   3.776  -6.433  1.00  0.00     0.031 A 
BRANCH  51  65
ATOM     65  C   UNL     1       7.939  -1.505  -3.694  1.00  0.00    -0.014 A 
ATOM     66  C   UNL     1       7.124  -2.514  -4.238  1.00  0.00     0.010 A 
ATOM     67  C   UNL     1       9.051  -1.870  -2.913  1.00  0.00     0.010 A 
ATOM     68  C   UNL     1       7.393  -3.859  -3.972  1.00  0.00     0.020 A 
ATOM     69  C   UNL     1       9.337  -3.215  -2.664  1.00  0.00     0.020 A 
ATOM     70  C   UNL     1       8.495  -4.201  -3.181  1.00  0.00     0.054 A 
BRANCH  70  71
ATOM     71  S   UNL     1       8.828  -5.955  -2.858  1.00  0.00     0.124 S 
ATOM     72  O   UNL     1       7.790  -6.283  -1.884  1.00  0.00    -0.237 OA
ATOM     73  O   UNL     1       8.665  -6.562  -4.177  1.00  0.00    -0.237 OA
ATOM     74  O   UNL     1      10.193  -5.959  -2.339  1.00  0.00    -0.744 OA
ENDBRANCH  70  71
ENDBRANCH  51  65
BRANCH  52  75
ATOM     75  C   UNL     1       5.753   8.188  -4.957  1.00  0.00    -0.014 A 
ATOM     76  C   UNL     1       5.291   8.696  -6.183  1.00  0.00     0.010 A 
ATOM     77  C   UNL     1       5.907   9.066  -3.868  1.00  0.00     0.010 A 
ATOM     78  C   UNL     1       4.998  10.057  -6.320  1.00  0.00     0.020 A 
ATOM     79  C   UNL     1       5.591  10.421  -3.993  1.00  0.00     0.020 A 
ATOM     80  C   UNL     1       5.148  10.911  -5.223  1.00  0.00     0.054 A 
BRANCH  80  81
ATOM     81  S   UNL     1       4.707  12.662  -5.405  1.00  0.00     0.124 S 
ATOM     82  O   UNL     1       5.845  13.184  -6.156  1.00  0.00    -0.237 OA
ATOM     83  O   UNL     1       3.443  12.597  -6.135  1.00  0.00    -0.237 OA
ATOM     84  O   UNL     1       4.597  13.131  -4.026  1.00  0.00    -0.744 OA
ENDBRANCH  80  81
ENDBRANCH  52  75
BRANCH  64  85
ATOM     85  C   UNL     1      10.818   4.025  -7.336  1.00  0.00    -0.014 A 
ATOM     86  C   UNL     1      11.947   4.727  -6.880  1.00  0.00     0.010 A 
ATOM     87  C   UNL     1      10.811   3.506  -8.643  1.00  0.00     0.010 A 
ATOM     88  C   UNL     1      13.039   4.931  -7.727  1.00  0.00     0.020 A 
ATOM     89  C   UNL     1      11.911   3.687  -9.485  1.00  0.00     0.020 A 
ATOM     90  C   UNL     1      13.013   4.411  -9.025  1.00  0.00     0.054 A 
BRANCH  90  91
ATOM     91  S   UNL     1      14.459   4.651 -10.093  1.00  0.00     0.124 S 
ATOM     92  O   UNL     1      14.315   6.049 -10.489  1.00  0.00    -0.237 OA
ATOM     93  O   UNL     1      15.575   4.363  -9.194  1.00  0.00    -0.237 OA
ATOM     94  O   UNL     1      14.264   3.676 -11.164  1.00  0.00    -0.744 OA
ENDBRANCH  90  91
ENDBRANCH  64  85
ENDBRANCH  38  39
ENDBRANCH  31  33
ENDBRANCH  30  31
ENDBRANCH  29  30
ENDBRANCH  28  29
ENDBRANCH  27  28
ENDBRANCH   1  27
TORSDOF 21
