REMARK SMILES O=C(OCCOC(=O)c1ccccc1[C@@H]1SCC(=O)N1NC(=S)Nc1ccccc1)c1ccc(-c2c3nc(c(-c4ccc(S(=O)(=O)[O-])cc4)c4ccc([nH]4)c(-c4ccc(S(=O)(=O)[O-])cc4)c4nc(c(-c5ccc(S(=O)(=O)[O-])cc5)c5ccc2[nH]5)C=C4)C=C3)cc1
REMARK SMILES IDX 5 1 4 2 3 3 2 4 1 5 31 6 32 7 90 8 33 9 89 10 34 11 35 12
REMARK SMILES IDX 36 13 83 14 37 15 88 16 82 17 84 18 38 19 87 20 81 21 80 22
REMARK SMILES IDX 39 24 69 25 50 26 68 27 51 28 54 29 67 30 85 31 52 32 53 33
REMARK SMILES IDX 66 35 86 36 55 37 40 38 41 39 49 40 42 41 48 42 43 43 44 44
REMARK SMILES IDX 45 45 46 46 47 47 70 48 71 49 79 50 72 51 78 52 73 53 74 54
REMARK SMILES IDX 75 55 76 56 77 57 56 58 57 59 65 60 58 61 64 62 59 63 60 64
REMARK SMILES IDX 61 65 62 66 63 67 6 68 7 69 8 70 9 71 10 72 14 73 11 74
REMARK SMILES IDX 13 75 12 76 15 77 16 78 20 79 17 80 18 81 19 82 21 83 22 85
REMARK SMILES IDX 23 86 24 87 25 89 26 90 30 91 27 92 29 93 28 94
REMARK H PARENT 84 23 54 34 21 84 24 88
REMARK Flexibility Score: inf
ROOT
ATOM      1  C   UNL     1       3.367   1.640   0.495  1.00  0.00     0.275 C 
ENDROOT
BRANCH   1   2
ATOM      2  C   UNL     1       3.648   1.146  -0.915  1.00  0.00     0.275 C 
BRANCH   2   3
ATOM      3  O   UNL     1       2.552   0.365  -1.455  1.00  0.00    -0.458 OA
BRANCH   3   4
ATOM      4  C   UNL     1       2.062  -0.863  -1.155  1.00  0.00     0.338 C 
ATOM      5  O   UNL     1       0.893  -1.097  -1.468  1.00  0.00    -0.246 OA
BRANCH   4   6
ATOM      6  C   UNL     1       2.830  -1.988  -0.512  1.00  0.00     0.060 A 
ATOM      7  C   UNL     1       4.183  -1.976  -0.214  1.00  0.00     0.016 A 
ATOM      8  C   UNL     1       2.128  -3.181  -0.212  1.00  0.00     0.016 A 
ATOM      9  C   UNL     1       4.791  -3.083   0.395  1.00  0.00     0.010 A 
ATOM     10  C   UNL     1       2.737  -4.284   0.431  1.00  0.00     0.010 A 
ATOM     11  C   UNL     1       4.087  -4.235   0.768  1.00  0.00    -0.014 A 
BRANCH  11  12
ATOM     12  C   UNL     1       4.850  -5.348   1.422  1.00  0.00     0.031 A 
ATOM     13  C   UNL     1       5.691  -6.236   0.573  1.00  0.00     0.074 A 
ATOM     14  C   UNL     1       4.998  -5.432   2.762  1.00  0.00     0.049 A 
ATOM     15  N   UNL     1       6.604  -7.086   0.951  1.00  0.00    -0.248 NA
ATOM     16  C   UNL     1       5.487  -6.142  -0.877  1.00  0.00     0.031 C 
ATOM     17  C   UNL     1       4.282  -4.581   3.680  1.00  0.00     0.029 A 
ATOM     18  N   UNL     1       5.831  -6.152   3.592  1.00  0.00    -0.354 N 
ATOM     19  C   UNL     1       7.117  -7.612  -0.219  1.00  0.00     0.074 A 
ATOM     20  C   UNL     1       6.392  -7.003  -1.317  1.00  0.00     0.031 C 
ATOM     21  C   UNL     1       4.776  -4.709   4.921  1.00  0.00     0.029 A 
ATOM     22  C   UNL     1       5.806  -5.735   4.913  1.00  0.00     0.049 A 
ATOM     23  H   UNL     1       6.393  -6.895   3.274  1.00  0.00     0.167 HD
ATOM     24  C   UNL     1       8.094  -8.534  -0.359  1.00  0.00     0.031 A 
ATOM     25  C   UNL     1       6.521  -6.114   5.997  1.00  0.00     0.031 A 
ATOM     26  C   UNL     1       8.759  -9.194   0.730  1.00  0.00     0.049 A 
ATOM     27  C   UNL     1       7.513  -7.231   5.814  1.00  0.00     0.074 A 
ATOM     28  C   UNL     1       9.640 -10.259   0.674  1.00  0.00     0.029 A 
ATOM     29  N   UNL     1       8.617  -8.862   2.069  1.00  0.00    -0.354 N 
ATOM     30  N   UNL     1       7.933  -7.771   4.696  1.00  0.00    -0.248 NA
ATOM     31  C   UNL     1       8.094  -7.823   7.028  1.00  0.00     0.031 C 
ATOM     32  C   UNL     1       9.979 -10.614   1.984  1.00  0.00     0.029 A 
ATOM     33  C   UNL     1       9.362  -9.729   2.853  1.00  0.00     0.049 A 
ATOM     34  H   UNL     1       8.068  -8.120   2.413  1.00  0.00     0.167 HD
ATOM     35  C   UNL     1       8.813  -8.776   5.072  1.00  0.00     0.074 A 
ATOM     36  C   UNL     1       8.916  -8.727   6.516  1.00  0.00     0.031 C 
ATOM     37  C   UNL     1       9.450  -9.681   4.290  1.00  0.00     0.031 A 
BRANCH  24  38
ATOM     38  C   UNL     1       8.403  -8.949  -1.762  1.00  0.00    -0.014 A 
ATOM     39  C   UNL     1       9.164  -8.128  -2.612  1.00  0.00     0.010 A 
ATOM     40  C   UNL     1       7.889 -10.166  -2.241  1.00  0.00     0.010 A 
ATOM     41  C   UNL     1       9.388  -8.513  -3.934  1.00  0.00     0.020 A 
ATOM     42  C   UNL     1       8.130 -10.563  -3.554  1.00  0.00     0.020 A 
ATOM     43  C   UNL     1       8.868  -9.728  -4.396  1.00  0.00     0.054 A 
BRANCH  43  44
ATOM     44  S   UNL     1       9.189 -10.213  -6.111  1.00  0.00     0.124 S 
ATOM     45  O   UNL     1       8.363  -9.263  -6.852  1.00  0.00    -0.237 OA
ATOM     46  O   UNL     1      10.632 -10.019  -6.231  1.00  0.00    -0.237 OA
ATOM     47  O   UNL     1       8.742 -11.602  -6.168  1.00  0.00    -0.744 OA
ENDBRANCH  43  44
ENDBRANCH  24  38
BRANCH  25  48
ATOM     48  C   UNL     1       6.295  -5.528   7.363  1.00  0.00    -0.014 A 
ATOM     49  C   UNL     1       7.353  -4.971   8.111  1.00  0.00     0.010 A 
ATOM     50  C   UNL     1       5.029  -5.616   7.974  1.00  0.00     0.010 A 
ATOM     51  C   UNL     1       7.161  -4.563   9.441  1.00  0.00     0.020 A 
ATOM     52  C   UNL     1       4.821  -5.167   9.284  1.00  0.00     0.020 A 
ATOM     53  C   UNL     1       5.895  -4.671  10.020  1.00  0.00     0.054 A 
BRANCH  53  54
ATOM     54  S   UNL     1       5.657  -4.159  11.748  1.00  0.00     0.124 S 
ATOM     55  O   UNL     1       6.277  -5.260  12.477  1.00  0.00    -0.237 OA
ATOM     56  O   UNL     1       6.366  -2.883  11.800  1.00  0.00    -0.237 OA
ATOM     57  O   UNL     1       4.205  -4.062  11.873  1.00  0.00    -0.744 OA
ENDBRANCH  53  54
ENDBRANCH  25  48
BRANCH  37  58
ATOM     58  C   UNL     1      10.307 -10.702   4.987  1.00  0.00    -0.014 A 
ATOM     59  C   UNL     1       9.728 -11.720   5.767  1.00  0.00     0.010 A 
ATOM     60  C   UNL     1      11.703 -10.667   4.829  1.00  0.00     0.010 A 
ATOM     61  C   UNL     1      10.534 -12.663   6.408  1.00  0.00     0.020 A 
ATOM     62  C   UNL     1      12.510 -11.627   5.444  1.00  0.00     0.020 A 
ATOM     63  C   UNL     1      11.921 -12.610   6.243  1.00  0.00     0.054 A 
BRANCH  63  64
ATOM     64  S   UNL     1      12.944 -13.867   7.056  1.00  0.00     0.124 S 
ATOM     65  O   UNL     1      12.889 -13.445   8.453  1.00  0.00    -0.237 OA
ATOM     66  O   UNL     1      12.236 -15.106   6.746  1.00  0.00    -0.237 OA
ATOM     67  O   UNL     1      14.247 -13.723   6.412  1.00  0.00    -0.744 OA
ENDBRANCH  63  64
ENDBRANCH  37  58
ENDBRANCH  11  12
ENDBRANCH   4   6
ENDBRANCH   3   4
ENDBRANCH   2   3
ENDBRANCH   1   2
BRANCH   1  68
ATOM     68  O   UNL     1       3.231   0.498   1.349  1.00  0.00    -0.458 OA
BRANCH  68  69
ATOM     69  C   UNL     1       2.220   0.541   2.227  1.00  0.00     0.338 C 
ATOM     70  O   UNL     1       1.450   1.465   2.421  1.00  0.00    -0.246 OA
BRANCH  69  71
ATOM     71  C   UNL     1       2.033  -0.799   2.801  1.00  0.00     0.066 A 
ATOM     72  C   UNL     1       0.817  -1.395   2.390  1.00  0.00     0.016 A 
ATOM     73  C   UNL     1       2.844  -1.379   3.796  1.00  0.00     0.001 A 
ATOM     74  C   UNL     1       0.345  -2.548   3.000  1.00  0.00     0.001 A 
ATOM     75  C   UNL     1       2.210  -2.411   4.530  1.00  0.00     0.008 A 
ATOM     76  C   UNL     1       1.017  -3.024   4.111  1.00  0.00     0.000 A 
BRANCH  73  77
ATOM     77  C   UNL     1       4.283  -0.997   4.207  1.00  0.00     0.197 C 
ATOM     78  S   UNL     1       4.296   0.615   5.023  1.00  0.00    -0.120 SA
ATOM     79  N   UNL     1       5.310  -0.940   3.149  1.00  0.00    -0.236 N 
ATOM     80  C   UNL     1       5.301   1.379   3.739  1.00  0.00     0.174 C 
ATOM     81  C   UNL     1       5.591   0.334   2.678  1.00  0.00     0.252 C 
ATOM     82  O   UNL     1       5.985   0.619   1.550  1.00  0.00    -0.272 OA
BRANCH  79  83
ATOM     83  N   UNL     1       6.298  -2.023   3.100  1.00  0.00    -0.270 N 
ATOM     84  H   UNL     1       6.080  -2.800   3.664  1.00  0.00     0.191 HD
BRANCH  83  85
ATOM     85  C   UNL     1       7.480  -2.140   2.400  1.00  0.00     0.189 C 
ATOM     86  S   UNL     1       8.197  -3.638   2.183  1.00  0.00    -0.039 S 
BRANCH  85  87
ATOM     87  N   UNL     1       8.092  -1.079   1.833  1.00  0.00    -0.331 N 
ATOM     88  H   UNL     1       8.204  -1.085   0.855  1.00  0.00     0.169 HD
BRANCH  87  89
ATOM     89  C   UNL     1       8.581   0.030   2.537  1.00  0.00     0.040 A 
ATOM     90  C   UNL     1       8.825   1.209   1.831  1.00  0.00     0.026 A 
ATOM     91  C   UNL     1       8.732  -0.012   3.923  1.00  0.00     0.026 A 
ATOM     92  C   UNL     1       9.060   2.386   2.537  1.00  0.00     0.002 A 
ATOM     93  C   UNL     1       9.020   1.153   4.620  1.00  0.00     0.002 A 
ATOM     94  C   UNL     1       9.142   2.359   3.931  1.00  0.00     0.000 A 
ENDBRANCH  87  89
ENDBRANCH  85  87
ENDBRANCH  83  85
ENDBRANCH  79  83
ENDBRANCH  73  77
ENDBRANCH  69  71
ENDBRANCH  68  69
ENDBRANCH   1  68
TORSDOF 19
