REMARK SMILES O=C(OCCOC(=O)c1cccnc1Nc1cccc(C(F)(F)F)c1)c1ccc(-c2c3nc(c(-c4ccc(S(=O)(=O)[O-])cc4)c4ccc([nH]4)c(-c4ccc(S(=O)(=O)[O-])cc4)c4nc(c(-c5ccc(S(=O)(=O)[O-])cc5)c5ccc2[nH]5)C=C4)C=C3)cc1
REMARK SMILES IDX 4 1 3 2 2 3 1 4 26 5 27 6 85 7 28 8 84 9 29 10 30 11 31 12
REMARK SMILES IDX 78 13 32 14 83 15 77 16 79 17 33 18 82 19 76 20 75 21 34 23
REMARK SMILES IDX 64 24 45 25 63 26 46 27 49 28 62 29 80 30 47 31 48 32 61 34
REMARK SMILES IDX 81 35 50 36 35 37 36 38 44 39 37 40 43 41 38 42 39 43 40 44
REMARK SMILES IDX 41 45 42 46 65 47 66 48 74 49 67 50 73 51 68 52 69 53 70 54
REMARK SMILES IDX 71 55 72 56 51 57 52 58 60 59 53 60 59 61 54 62 55 63 56 64
REMARK SMILES IDX 57 65 58 66 5 67 6 68 7 69 8 70 9 71 10 72 14 73 11 74 13 75
REMARK SMILES IDX 12 76 15 77 16 79 17 80 25 81 18 82 20 83 19 84 21 85 22 86
REMARK SMILES IDX 23 87 24 88
REMARK H PARENT 79 22 49 33 15 78
REMARK Flexibility Score: inf
ROOT
ATOM      1  C   UNL     1       4.291   1.649  -0.611  1.00  0.00     0.275 C 
ENDROOT
BRANCH   1   2
ATOM      2  O   UNL     1       3.317   0.746  -1.163  1.00  0.00    -0.458 OA
BRANCH   2   3
ATOM      3  C   UNL     1       3.109  -0.573  -0.953  1.00  0.00     0.338 C 
ATOM      4  O   UNL     1       2.150  -1.107  -1.511  1.00  0.00    -0.246 OA
BRANCH   3   5
ATOM      5  C   UNL     1       3.880  -1.401   0.026  1.00  0.00     0.060 A 
ATOM      6  C   UNL     1       5.167  -1.131   0.485  1.00  0.00     0.016 A 
ATOM      7  C   UNL     1       3.227  -2.540   0.536  1.00  0.00     0.016 A 
ATOM      8  C   UNL     1       5.749  -1.917   1.478  1.00  0.00     0.010 A 
ATOM      9  C   UNL     1       3.789  -3.317   1.549  1.00  0.00     0.010 A 
ATOM     10  C   UNL     1       5.064  -3.009   2.017  1.00  0.00    -0.014 A 
BRANCH  10  11
ATOM     11  C   UNL     1       5.781  -3.887   2.960  1.00  0.00     0.031 A 
ATOM     12  C   UNL     1       6.347  -5.172   2.439  1.00  0.00     0.074 A 
ATOM     13  C   UNL     1       6.033  -3.460   4.211  1.00  0.00     0.049 A 
ATOM     14  N   UNL     1       7.180  -5.991   3.021  1.00  0.00    -0.248 NA
ATOM     15  C   UNL     1       5.965  -5.566   1.072  1.00  0.00     0.031 C 
ATOM     16  C   UNL     1       5.576  -2.188   4.771  1.00  0.00     0.029 A 
ATOM     17  N   UNL     1       6.754  -4.026   5.228  1.00  0.00    -0.354 N 
ATOM     18  C   UNL     1       7.463  -6.964   2.072  1.00  0.00     0.074 A 
ATOM     19  C   UNL     1       6.658  -6.682   0.907  1.00  0.00     0.031 C 
ATOM     20  C   UNL     1       6.006  -2.078   6.038  1.00  0.00     0.029 A 
ATOM     21  C   UNL     1       6.782  -3.265   6.373  1.00  0.00     0.049 A 
ATOM     22  H   UNL     1       7.209  -4.895   5.146  1.00  0.00     0.167 HD
ATOM     23  C   UNL     1       8.350  -7.980   2.156  1.00  0.00     0.031 A 
ATOM     24  C   UNL     1       7.383  -3.499   7.555  1.00  0.00     0.031 A 
ATOM     25  C   UNL     1       9.105  -8.271   3.343  1.00  0.00     0.049 A 
ATOM     26  C   UNL     1       8.263  -4.714   7.665  1.00  0.00     0.074 A 
ATOM     27  C   UNL     1       9.997  -9.302   3.567  1.00  0.00     0.029 A 
ATOM     28  N   UNL     1       9.040  -7.529   4.515  1.00  0.00    -0.354 N 
ATOM     29  N   UNL     1       8.549  -5.606   6.744  1.00  0.00    -0.248 NA
ATOM     30  C   UNL     1       8.932  -4.935   8.952  1.00  0.00     0.031 C 
ATOM     31  C   UNL     1      10.430  -9.216   4.895  1.00  0.00     0.029 A 
ATOM     32  C   UNL     1       9.858  -8.093   5.476  1.00  0.00     0.049 A 
ATOM     33  H   UNL     1       8.493  -6.721   4.642  1.00  0.00     0.167 HD
ATOM     34  C   UNL     1       9.457  -6.478   7.331  1.00  0.00     0.074 A 
ATOM     35  C   UNL     1       9.688  -5.988   8.677  1.00  0.00     0.031 C 
ATOM     36  C   UNL     1      10.050  -7.582   6.810  1.00  0.00     0.031 A 
BRANCH  23  37
ATOM     37  C   UNL     1       8.524  -8.840   0.936  1.00  0.00    -0.014 A 
ATOM     38  C   UNL     1       9.176  -8.341  -0.208  1.00  0.00     0.010 A 
ATOM     39  C   UNL     1       8.035 -10.157   0.927  1.00  0.00     0.010 A 
ATOM     40  C   UNL     1       9.310  -9.136  -1.349  1.00  0.00     0.020 A 
ATOM     41  C   UNL     1       8.189 -10.963  -0.204  1.00  0.00     0.020 A 
ATOM     42  C   UNL     1       8.816 -10.443  -1.339  1.00  0.00     0.054 A 
BRANCH  42  43
ATOM     43  S   UNL     1       9.034 -11.463  -2.823  1.00  0.00     0.124 S 
ATOM     44  O   UNL     1       8.110 -10.831  -3.762  1.00  0.00    -0.237 OA
ATOM     45  O   UNL     1      10.452 -11.288  -3.124  1.00  0.00    -0.237 OA
ATOM     46  O   UNL     1       8.653 -12.803  -2.383  1.00  0.00    -0.744 OA
ENDBRANCH  42  43
ENDBRANCH  23  37
BRANCH  24  47
ATOM     47  C   UNL     1       7.169  -2.581   8.709  1.00  0.00    -0.014 A 
ATOM     48  C   UNL     1       8.217  -1.817   9.250  1.00  0.00     0.010 A 
ATOM     49  C   UNL     1       5.891  -2.491   9.295  1.00  0.00     0.010 A 
ATOM     50  C   UNL     1       8.002  -1.015  10.377  1.00  0.00     0.020 A 
ATOM     51  C   UNL     1       5.665  -1.669  10.403  1.00  0.00     0.020 A 
ATOM     52  C   UNL     1       6.728  -0.951  10.950  1.00  0.00     0.054 A 
BRANCH  52  53
ATOM     53  S   UNL     1       6.471   0.097  12.409  1.00  0.00     0.124 S 
ATOM     54  O   UNL     1       7.176  -0.649  13.446  1.00  0.00    -0.237 OA
ATOM     55  O   UNL     1       7.088   1.357  12.002  1.00  0.00    -0.237 OA
ATOM     56  O   UNL     1       5.017   0.140  12.545  1.00  0.00    -0.744 OA
ENDBRANCH  52  53
ENDBRANCH  24  47
BRANCH  36  57
ATOM     57  C   UNL     1      11.014  -8.313   7.701  1.00  0.00    -0.014 A 
ATOM     58  C   UNL     1      10.564  -9.038   8.819  1.00  0.00     0.010 A 
ATOM     59  C   UNL     1      12.387  -8.299   7.395  1.00  0.00     0.010 A 
ATOM     60  C   UNL     1      11.477  -9.694   9.645  1.00  0.00     0.020 A 
ATOM     61  C   UNL     1      13.299  -8.984   8.198  1.00  0.00     0.020 A 
ATOM     62  C   UNL     1      12.839  -9.660   9.330  1.00  0.00     0.054 A 
BRANCH  62  63
ATOM     63  S   UNL     1      14.002 -10.537  10.407  1.00  0.00     0.124 S 
ATOM     64  O   UNL     1      14.046  -9.665  11.577  1.00  0.00    -0.237 OA
ATOM     65  O   UNL     1      13.344 -11.826  10.607  1.00  0.00    -0.237 OA
ATOM     66  O   UNL     1      15.232 -10.587   9.620  1.00  0.00    -0.744 OA
ENDBRANCH  62  63
ENDBRANCH  36  57
ENDBRANCH  10  11
ENDBRANCH   3   5
ENDBRANCH   2   3
ENDBRANCH   1   2
BRANCH   1  67
ATOM     67  C   UNL     1       4.000   2.156   0.805  1.00  0.00     0.275 C 
BRANCH  67  68
ATOM     68  O   UNL     1       3.555   1.148   1.724  1.00  0.00    -0.458 OA
BRANCH  68  69
ATOM     69  C   UNL     1       2.205   1.000   1.817  1.00  0.00     0.342 C 
ATOM     70  O   UNL     1       1.375   1.601   1.157  1.00  0.00    -0.246 OA
BRANCH  69  71
ATOM     71  C   UNL     1       1.890  -0.067   2.783  1.00  0.00     0.102 A 
ATOM     72  C   UNL     1       2.536  -0.079   4.028  1.00  0.00     0.021 A 
ATOM     73  C   UNL     1       0.960  -1.071   2.480  1.00  0.00     0.144 A 
ATOM     74  C   UNL     1       2.258  -1.094   4.935  1.00  0.00     0.021 A 
ATOM     75  N   UNL     1       0.690  -2.052   3.382  1.00  0.00    -0.238 NA
ATOM     76  C   UNL     1       1.344  -2.058   4.564  1.00  0.00     0.113 A 
BRANCH  73  77
ATOM     77  N   UNL     1       0.297  -1.122   1.238  1.00  0.00    -0.340 N 
ATOM     78  H   UNL     1       0.633  -0.517   0.538  1.00  0.00     0.168 HD
BRANCH  77  79
ATOM     79  C   UNL     1      -0.789  -1.939   0.887  1.00  0.00     0.040 A 
ATOM     80  C   UNL     1      -0.708  -2.785  -0.226  1.00  0.00     0.026 A 
ATOM     81  C   UNL     1      -1.944  -1.976   1.673  1.00  0.00     0.039 A 
ATOM     82  C   UNL     1      -1.754  -3.651  -0.546  1.00  0.00     0.003 A 
ATOM     83  C   UNL     1      -3.031  -2.793   1.328  1.00  0.00     0.058 A 
ATOM     84  C   UNL     1      -2.916  -3.646   0.221  1.00  0.00     0.013 A 
BRANCH  83  85
ATOM     85  C   UNL     1      -4.319  -2.723   2.100  1.00  0.00     0.416 C 
ATOM     86  F   UNL     1      -5.353  -2.277   1.328  1.00  0.00    -0.166 F 
ATOM     87  F   UNL     1      -4.718  -3.934   2.580  1.00  0.00    -0.166 F 
ATOM     88  F   UNL     1      -4.283  -1.887   3.175  1.00  0.00    -0.166 F 
ENDBRANCH  83  85
ENDBRANCH  77  79
ENDBRANCH  73  77
ENDBRANCH  69  71
ENDBRANCH  68  69
ENDBRANCH  67  68
ENDBRANCH   1  67
TORSDOF 17
