REMARK SMILES C=CCN(CC(=O)OCCOC(=O)c1ccc(-c2c3nc(c(-c4ccc(S(=O)(=O)[O-])cc4)c4ccc([nH]4)c(-c4ccc(S(=O)(=O)[O-])cc4)c4nc(c(-c5ccc(S(=O)(=O)[O-])cc5)c5ccc2[nH]5)C=C4)C=C3)cc1)C(=O)C[NH3+]
REMARK SMILES IDX 9 1 8 2 6 3 7 4 5 5 4 6 3 7 2 8 1 9 74 10 75 11 76 12 77 13
REMARK SMILES IDX 10 17 11 18 12 19 13 20 14 21 15 22 73 23 16 24 72 25 17 26
REMARK SMILES IDX 18 27 19 28 66 29 20 30 71 31 65 32 67 33 21 34 70 35 64 36
REMARK SMILES IDX 63 37 22 39 52 40 33 41 51 42 34 43 37 44 50 45 68 46 35 47
REMARK SMILES IDX 36 48 49 50 69 51 38 52 23 53 24 54 32 55 25 56 31 57 26 58
REMARK SMILES IDX 27 59 28 60 29 61 30 62 53 63 54 64 62 65 55 66 61 67 56 68
REMARK SMILES IDX 57 69 58 70 59 71 60 72 39 73 40 74 48 75 41 76 47 77 42 78
REMARK SMILES IDX 43 79 44 80 45 81 46 82
REMARK H PARENT 77 14 77 15 77 16 67 38 37 49
REMARK Flexibility Score: inf
ROOT
ATOM      1  C   UNL     1      -5.529  -2.163   0.489  1.00  0.00     0.274 C 
ENDROOT
BRANCH   1   2
ATOM      2  O   UNL     1      -4.105  -1.938   0.543  1.00  0.00    -0.461 OA
BRANCH   2   3
ATOM      3  C   UNL     1      -3.517  -2.207   1.742  1.00  0.00     0.325 C 
ATOM      4  O   UNL     1      -4.128  -2.513   2.762  1.00  0.00    -0.250 OA
BRANCH   3   5
ATOM      5  C   UNL     1      -1.991  -2.223   1.677  1.00  0.00     0.242 C 
BRANCH   5   6
ATOM      6  N   UNL     1      -1.379  -1.604   0.496  1.00  0.00    -0.323 N 
BRANCH   6   7
ATOM      7  C   UNL     1      -1.210  -0.163   0.537  1.00  0.00     0.147 C 
BRANCH   7   8
ATOM      8  C   UNL     1       0.179   0.114   1.040  1.00  0.00    -0.014 C 
ATOM      9  C   UNL     1       1.181   0.555   0.266  1.00  0.00     0.006 C 
ENDBRANCH   7   8
ENDBRANCH   6   7
BRANCH   6  10
ATOM     10  C   UNL     1      -0.919  -2.280  -0.630  1.00  0.00     0.278 C 
ATOM     11  O   UNL     1      -0.566  -1.677  -1.650  1.00  0.00    -0.268 OA
BRANCH  10  12
ATOM     12  C   UNL     1      -0.834  -3.810  -0.602  1.00  0.00     0.360 C 
BRANCH  12  13
ATOM     13  N   UNL     1       0.036  -4.284   0.486  1.00  0.00    -0.350 N 
ATOM     14  H   UNL     1       0.981  -3.924   0.347  1.00  0.00     0.344 HD
ATOM     15  H   UNL     1       0.057  -5.303   0.486  1.00  0.00     0.344 HD
ATOM     16  H   UNL     1      -0.326  -3.951   1.380  1.00  0.00     0.344 HD
ENDBRANCH  12  13
ENDBRANCH  10  12
ENDBRANCH   6  10
ENDBRANCH   5   6
ENDBRANCH   3   5
ENDBRANCH   2   3
ENDBRANCH   1   2
BRANCH   1  17
ATOM     17  C   UNL     1      -5.824  -3.506  -0.178  1.00  0.00     0.275 C 
BRANCH  17  18
ATOM     18  O   UNL     1      -5.104  -4.549   0.502  1.00  0.00    -0.458 OA
BRANCH  18  19
ATOM     19  C   UNL     1      -4.458  -5.434  -0.291  1.00  0.00     0.338 C 
ATOM     20  O   UNL     1      -4.505  -5.485  -1.513  1.00  0.00    -0.246 OA
BRANCH  19  21
ATOM     21  C   UNL     1      -3.627  -6.355   0.517  1.00  0.00     0.060 A 
ATOM     22  C   UNL     1      -3.015  -5.937   1.701  1.00  0.00     0.016 A 
ATOM     23  C   UNL     1      -3.375  -7.639   0.028  1.00  0.00     0.016 A 
ATOM     24  C   UNL     1      -2.104  -6.771   2.352  1.00  0.00     0.010 A 
ATOM     25  C   UNL     1      -2.539  -8.509   0.737  1.00  0.00     0.010 A 
ATOM     26  C   UNL     1      -1.875  -8.079   1.897  1.00  0.00    -0.014 A 
BRANCH  26  27
ATOM     27  C   UNL     1      -0.978  -9.002   2.650  1.00  0.00     0.031 A 
ATOM     28  C   UNL     1       0.229  -9.625   1.993  1.00  0.00     0.074 A 
ATOM     29  C   UNL     1      -1.259  -9.305   3.934  1.00  0.00     0.049 A 
ATOM     30  N   UNL     1       1.039 -10.543   2.459  1.00  0.00    -0.248 NA
ATOM     31  C   UNL     1       0.561  -9.171   0.633  1.00  0.00     0.031 C 
ATOM     32  C   UNL     1      -2.389  -8.778   4.704  1.00  0.00     0.029 A 
ATOM     33  N   UNL     1      -0.611 -10.127   4.824  1.00  0.00    -0.354 N 
ATOM     34  C   UNL     1       1.945 -10.810   1.439  1.00  0.00     0.074 A 
ATOM     35  C   UNL     1       1.585  -9.958   0.326  1.00  0.00     0.031 C 
ATOM     36  C   UNL     1      -2.328  -9.250   5.958  1.00  0.00     0.029 A 
ATOM     37  C   UNL     1      -1.204 -10.172   6.064  1.00  0.00     0.049 A 
ATOM     38  H   UNL     1       0.201 -10.635   4.596  1.00  0.00     0.167 HD
ATOM     39  C   UNL     1       2.979 -11.688   1.427  1.00  0.00     0.031 A 
ATOM     40  C   UNL     1      -0.904 -10.893   7.160  1.00  0.00     0.031 A 
ATOM     41  C   UNL     1       3.361 -12.518   2.540  1.00  0.00     0.049 A 
ATOM     42  C   UNL     1       0.243 -11.857   7.121  1.00  0.00     0.074 A 
ATOM     43  C   UNL     1       4.410 -13.418   2.622  1.00  0.00     0.029 A 
ATOM     44  N   UNL     1       2.718 -12.545   3.768  1.00  0.00    -0.354 N 
ATOM     45  N   UNL     1       1.064 -12.116   6.132  1.00  0.00    -0.248 NA
ATOM     46  C   UNL     1       0.493 -12.636   8.341  1.00  0.00     0.031 C 
ATOM     47  C   UNL     1       4.381 -14.015   3.889  1.00  0.00     0.029 A 
ATOM     48  C   UNL     1       3.339 -13.456   4.608  1.00  0.00     0.049 A 
ATOM     49  H   UNL     1       1.935 -11.998   4.007  1.00  0.00     0.167 HD
ATOM     50  C   UNL     1       1.926 -13.096   6.609  1.00  0.00     0.074 A 
ATOM     51  C   UNL     1       1.546 -13.358   7.983  1.00  0.00     0.031 C 
ATOM     52  C   UNL     1       2.935 -13.728   5.962  1.00  0.00     0.031 A 
BRANCH  39  53
ATOM     53  C   UNL     1       3.763 -11.823   0.148  1.00  0.00    -0.014 A 
ATOM     54  C   UNL     1       4.697 -10.848  -0.242  1.00  0.00     0.010 A 
ATOM     55  C   UNL     1       3.602 -12.975  -0.643  1.00  0.00     0.010 A 
ATOM     56  C   UNL     1       5.436 -11.009  -1.418  1.00  0.00     0.020 A 
ATOM     57  C   UNL     1       4.354 -13.150  -1.809  1.00  0.00     0.020 A 
ATOM     58  C   UNL     1       5.256 -12.158  -2.197  1.00  0.00     0.054 A 
BRANCH  58  59
ATOM     59  S   UNL     1       6.250 -12.362  -3.701  1.00  0.00     0.124 S 
ATOM     60  O   UNL     1       5.565 -11.472  -4.635  1.00  0.00    -0.237 OA
ATOM     61  O   UNL     1       7.577 -11.923  -3.275  1.00  0.00    -0.237 OA
ATOM     62  O   UNL     1       6.136 -13.787  -3.999  1.00  0.00    -0.744 OA
ENDBRANCH  58  59
ENDBRANCH  39  53
BRANCH  40  63
ATOM     63  C   UNL     1      -1.739 -10.748   8.382  1.00  0.00    -0.014 A 
ATOM     64  C   UNL     1      -1.246 -10.056   9.501  1.00  0.00     0.010 A 
ATOM     65  C   UNL     1      -3.048 -11.262   8.412  1.00  0.00     0.010 A 
ATOM     66  C   UNL     1      -2.050  -9.878  10.630  1.00  0.00     0.020 A 
ATOM     67  C   UNL     1      -3.862 -11.064   9.528  1.00  0.00     0.020 A 
ATOM     68  C   UNL     1      -3.355 -10.379  10.634  1.00  0.00     0.054 A 
BRANCH  68  69
ATOM     69  S   UNL     1      -4.421 -10.060  12.068  1.00  0.00     0.124 S 
ATOM     70  O   UNL     1      -4.012 -11.114  12.990  1.00  0.00    -0.237 OA
ATOM     71  O   UNL     1      -4.046  -8.701  12.453  1.00  0.00    -0.237 OA
ATOM     72  O   UNL     1      -5.770 -10.191  11.520  1.00  0.00    -0.744 OA
ENDBRANCH  68  69
ENDBRANCH  40  63
BRANCH  52  73
ATOM     73  C   UNL     1       3.692 -14.765   6.744  1.00  0.00    -0.014 A 
ATOM     74  C   UNL     1       3.125 -16.026   7.004  1.00  0.00     0.010 A 
ATOM     75  C   UNL     1       4.978 -14.475   7.231  1.00  0.00     0.010 A 
ATOM     76  C   UNL     1       3.812 -16.962   7.780  1.00  0.00     0.020 A 
ATOM     77  C   UNL     1       5.676 -15.416   7.992  1.00  0.00     0.020 A 
ATOM     78  C   UNL     1       5.079 -16.646   8.280  1.00  0.00     0.054 A 
BRANCH  78  79
ATOM     79  S   UNL     1       5.955 -17.870   9.292  1.00  0.00     0.124 S 
ATOM     80  O   UNL     1       5.323 -17.692  10.596  1.00  0.00    -0.237 OA
ATOM     81  O   UNL     1       5.655 -19.129   8.614  1.00  0.00    -0.237 OA
ATOM     82  O   UNL     1       7.351 -17.445   9.212  1.00  0.00    -0.744 OA
ENDBRANCH  78  79
ENDBRANCH  52  73
ENDBRANCH  26  27
ENDBRANCH  19  21
ENDBRANCH  18  19
ENDBRANCH  17  18
ENDBRANCH   1  17
TORSDOF 20
