REMARK SMILES C[NH2+][C@]1(C(=O)OCCOC(=O)c2ccc(-c3c4nc(c(-c5ccc(S(=O)(=O)[O-])cc5)c5ccc([nH]5)c(-c5ccc(S(=O)(=O)[O-])cc5)c5nc(c(-c6ccc(S(=O)(=O)[O-])cc6)c6ccc3[nH]6)C=C5)C=C4)cc2)CCC[C@@H]1CCn1cc(C)cn1
REMARK SMILES IDX 7 1 6 2 4 3 5 4 3 5 72 6 75 7 73 8 74 9 2 10 1 11 76 14
REMARK SMILES IDX 77 15 78 16 79 17 83 18 80 19 82 20 81 21 8 22 9 23 10 24
REMARK SMILES IDX 11 25 12 26 13 27 71 28 14 29 70 30 15 31 16 32 17 33 64 34
REMARK SMILES IDX 18 35 69 36 63 37 65 38 19 39 68 40 62 41 61 42 20 44 50 45
REMARK SMILES IDX 31 46 49 47 32 48 35 49 48 50 66 51 33 52 34 53 47 55 67 56
REMARK SMILES IDX 36 57 21 58 22 59 30 60 23 61 29 62 24 63 25 64 26 65 27 66
REMARK SMILES IDX 28 67 51 68 52 69 60 70 53 71 59 72 54 73 55 74 56 75 57 76
REMARK SMILES IDX 58 77 37 78 38 79 46 80 39 81 45 82 40 83 41 84 42 85 43 86
REMARK SMILES IDX 44 87
REMARK H PARENT 2 12 2 13 65 43 35 54
REMARK Flexibility Score: inf
ROOT
ATOM      1  C   UNL     1       2.278   2.075  -1.163  1.00  0.00     0.274 C 
ENDROOT
BRANCH   1   2
ATOM      2  O   UNL     1       0.856   2.295  -1.072  1.00  0.00    -0.457 OA
BRANCH   2   3
ATOM      3  C   UNL     1       0.155   1.244  -0.562  1.00  0.00     0.368 C 
ATOM      4  O   UNL     1       0.682   0.231  -0.111  1.00  0.00    -0.245 OA
BRANCH   3   5
ATOM      5  C   UNL     1      -1.378   1.449  -0.593  1.00  0.00     0.197 C 
ATOM      6  C   UNL     1      -1.852   2.551  -1.558  1.00  0.00     0.081 C 
ATOM      7  C   UNL     1      -1.999   0.208  -1.303  1.00  0.00     0.064 C 
ATOM      8  C   UNL     1      -3.305   2.198  -1.865  1.00  0.00     0.008 C 
ATOM      9  C   UNL     1      -3.400   0.676  -1.731  1.00  0.00     0.011 C 
BRANCH   5  10
ATOM     10  N   UNL     1      -1.952   1.575   0.771  1.00  0.00    -0.334 N 
ATOM     11  C   UNL     1      -1.725   2.857   1.421  1.00  0.00     0.331 C 
ATOM     12  H   UNL     1      -2.960   1.429   0.705  1.00  0.00     0.347 HD
ATOM     13  H   UNL     1      -1.477   0.878   1.345  1.00  0.00     0.347 HD
ENDBRANCH   5  10
BRANCH   7  14
ATOM     14  C   UNL     1      -2.023  -1.111  -0.497  1.00  0.00     0.034 C 
BRANCH  14  15
ATOM     15  C   UNL     1      -1.898  -2.361  -1.376  1.00  0.00     0.144 C 
BRANCH  15  16
ATOM     16  N   UNL     1      -0.613  -2.467  -2.047  1.00  0.00    -0.272 N 
ATOM     17  C   UNL     1       0.569  -2.879  -1.498  1.00  0.00     0.112 A 
ATOM     18  N   UNL     1      -0.501  -2.130  -3.349  1.00  0.00    -0.181 NA
ATOM     19  C   UNL     1       1.521  -2.777  -2.490  1.00  0.00    -0.013 A 
ATOM     20  C   UNL     1       0.796  -2.310  -3.608  1.00  0.00     0.138 A 
ATOM     21  C   UNL     1       2.967  -3.077  -2.410  1.00  0.00     0.048 C 
ENDBRANCH  15  16
ENDBRANCH  14  15
ENDBRANCH   7  14
ENDBRANCH   3   5
ENDBRANCH   2   3
ENDBRANCH   1   2
BRANCH   1  22
ATOM     22  C   UNL     1       3.014   2.608   0.064  1.00  0.00     0.275 C 
BRANCH  22  23
ATOM     23  O   UNL     1       2.525   1.970   1.255  1.00  0.00    -0.458 OA
BRANCH  23  24
ATOM     24  C   UNL     1       2.240   2.789   2.291  1.00  0.00     0.338 C 
ATOM     25  O   UNL     1       2.436   3.997   2.341  1.00  0.00    -0.246 OA
BRANCH  24  26
ATOM     26  C   UNL     1       1.635   2.031   3.406  1.00  0.00     0.060 A 
ATOM     27  C   UNL     1       0.685   1.036   3.174  1.00  0.00     0.016 A 
ATOM     28  C   UNL     1       1.941   2.396   4.717  1.00  0.00     0.016 A 
ATOM     29  C   UNL     1      -0.026   0.474   4.235  1.00  0.00     0.010 A 
ATOM     30  C   UNL     1       1.302   1.760   5.785  1.00  0.00     0.010 A 
ATOM     31  C   UNL     1       0.284   0.816   5.558  1.00  0.00    -0.014 A 
BRANCH  31  32
ATOM     32  C   UNL     1      -0.464   0.228   6.705  1.00  0.00     0.031 A 
ATOM     33  C   UNL     1      -1.166   1.131   7.689  1.00  0.00     0.074 A 
ATOM     34  C   UNL     1      -0.510  -1.107   6.890  1.00  0.00     0.049 A 
ATOM     35  N   UNL     1      -1.657   0.846   8.868  1.00  0.00    -0.248 NA
ATOM     36  C   UNL     1      -1.318   2.543   7.302  1.00  0.00     0.031 C 
ATOM     37  C   UNL     1       0.075  -2.113   6.001  1.00  0.00     0.029 A 
ATOM     38  N   UNL     1      -1.079  -1.849   7.896  1.00  0.00    -0.354 N 
ATOM     39  C   UNL     1      -2.106   2.053   9.394  1.00  0.00     0.074 A 
ATOM     40  C   UNL     1      -1.842   3.071   8.400  1.00  0.00     0.031 C 
ATOM     41  C   UNL     1      -0.197  -3.337   6.479  1.00  0.00     0.029 A 
ATOM     42  C   UNL     1      -0.893  -3.204   7.754  1.00  0.00     0.049 A 
ATOM     43  H   UNL     1      -1.572  -1.449   8.649  1.00  0.00     0.167 HD
ATOM     44  C   UNL     1      -2.674   2.292  10.601  1.00  0.00     0.031 A 
ATOM     45  C   UNL     1      -1.202  -4.228   8.573  1.00  0.00     0.031 A 
ATOM     46  C   UNL     1      -2.985   1.272  11.567  1.00  0.00     0.049 A 
ATOM     47  C   UNL     1      -1.829  -3.942   9.907  1.00  0.00     0.074 A 
ATOM     48  C   UNL     1      -3.561   1.416  12.818  1.00  0.00     0.029 A 
ATOM     49  N   UNL     1      -2.769  -0.084  11.380  1.00  0.00    -0.354 N 
ATOM     50  N   UNL     1      -2.165  -2.786  10.426  1.00  0.00    -0.248 NA
ATOM     51  C   UNL     1      -2.096  -5.097  10.775  1.00  0.00     0.031 C 
ATOM     52  C   UNL     1      -3.672   0.146  13.397  1.00  0.00     0.029 A 
ATOM     53  C   UNL     1      -3.199  -0.789  12.492  1.00  0.00     0.049 A 
ATOM     54  H   UNL     1      -2.370  -0.487  10.576  1.00  0.00     0.167 HD
ATOM     55  C   UNL     1      -2.681  -3.074  11.683  1.00  0.00     0.074 A 
ATOM     56  C   UNL     1      -2.636  -4.514  11.836  1.00  0.00     0.031 C 
ATOM     57  C   UNL     1      -3.141  -2.220  12.630  1.00  0.00     0.031 A 
BRANCH  44  58
ATOM     58  C   UNL     1      -2.952   3.726  10.964  1.00  0.00    -0.014 A 
ATOM     59  C   UNL     1      -4.032   4.430  10.406  1.00  0.00     0.010 A 
ATOM     60  C   UNL     1      -2.128   4.368  11.907  1.00  0.00     0.010 A 
ATOM     61  C   UNL     1      -4.260   5.765  10.755  1.00  0.00     0.020 A 
ATOM     62  C   UNL     1      -2.365   5.694  12.275  1.00  0.00     0.020 A 
ATOM     63  C   UNL     1      -3.419   6.391  11.682  1.00  0.00     0.054 A 
BRANCH  63  64
ATOM     64  S   UNL     1      -3.739   8.120  12.132  1.00  0.00     0.124 S 
ATOM     65  O   UNL     1      -3.180   8.835  10.987  1.00  0.00    -0.237 OA
ATOM     66  O   UNL     1      -5.194   8.162  12.248  1.00  0.00    -0.237 OA
ATOM     67  O   UNL     1      -3.012   8.289  13.388  1.00  0.00    -0.744 OA
ENDBRANCH  63  64
ENDBRANCH  44  58
BRANCH  45  68
ATOM     68  C   UNL     1      -0.867  -5.619   8.169  1.00  0.00    -0.014 A 
ATOM     69  C   UNL     1      -1.880  -6.510   7.775  1.00  0.00     0.010 A 
ATOM     70  C   UNL     1       0.474  -6.047   8.138  1.00  0.00     0.010 A 
ATOM     71  C   UNL     1      -1.558  -7.803   7.352  1.00  0.00     0.020 A 
ATOM     72  C   UNL     1       0.800  -7.330   7.692  1.00  0.00     0.020 A 
ATOM     73  C   UNL     1      -0.219  -8.203   7.309  1.00  0.00     0.054 A 
BRANCH  73  74
ATOM     74  S   UNL     1       0.191  -9.852   6.672  1.00  0.00     0.124 S 
ATOM     75  O   UNL     1      -0.047 -10.695   7.839  1.00  0.00    -0.237 OA
ATOM     76  O   UNL     1      -0.754 -10.014   5.569  1.00  0.00    -0.237 OA
ATOM     77  O   UNL     1       1.588  -9.718   6.266  1.00  0.00    -0.744 OA
ENDBRANCH  73  74
ENDBRANCH  45  68
BRANCH  57  78
ATOM     78  C   UNL     1      -3.650  -2.826  13.907  1.00  0.00    -0.014 A 
ATOM     79  C   UNL     1      -2.758  -3.289  14.890  1.00  0.00     0.010 A 
ATOM     80  C   UNL     1      -5.034  -2.898  14.142  1.00  0.00     0.010 A 
ATOM     81  C   UNL     1      -3.244  -3.841  16.078  1.00  0.00     0.020 A 
ATOM     82  C   UNL     1      -5.523  -3.434  15.335  1.00  0.00     0.020 A 
ATOM     83  C   UNL     1      -4.624  -3.916  16.290  1.00  0.00     0.054 A 
BRANCH  83  84
ATOM     84  S   UNL     1      -5.237  -4.605  17.853  1.00  0.00     0.124 S 
ATOM     85  O   UNL     1      -5.105  -6.041  17.622  1.00  0.00    -0.237 OA
ATOM     86  O   UNL     1      -4.319  -4.040  18.839  1.00  0.00    -0.237 OA
ATOM     87  O   UNL     1      -6.609  -4.109  17.933  1.00  0.00    -0.744 OA
ENDBRANCH  83  84
ENDBRANCH  57  78
ENDBRANCH  31  32
ENDBRANCH  24  26
ENDBRANCH  23  24
ENDBRANCH  22  23
ENDBRANCH   1  22
TORSDOF 18
