REMARK SMILES CC(C)(C)OC(=O)N1C[C@H](Oc2ccncc2)C[C@H]1C(=O)OCCOC(=O)c1ccc(-c2c3nc(c(-c4ccc(S(=O)(=O)[O-])cc4)c4ccc([nH]4)c(-c4ccc(S(=O)(=O)[O-])cc4)c4nc(c(-c5ccc(S(=O)(=O)[O-])cc5)c5ccc2[nH]5)C=C4)C=C3)cc1
REMARK SMILES IDX 23 1 22 2 20 3 21 4 19 5 8 6 9 7 10 8 18 9 6 10 7 11 5 12
REMARK SMILES IDX 2 13 1 14 3 15 4 16 11 17 12 18 13 19 17 20 14 21 16 22
REMARK SMILES IDX 15 23 24 24 25 25 26 26 27 27 28 28 29 29 87 30 30 31 86 32
REMARK SMILES IDX 31 33 32 34 33 35 80 36 34 37 85 38 79 39 81 40 35 41 84 42
REMARK SMILES IDX 78 43 77 44 36 46 66 47 47 48 65 49 48 50 51 51 64 52 82 53
REMARK SMILES IDX 49 54 50 55 63 57 83 58 52 59 37 60 38 61 46 62 39 63 45 64
REMARK SMILES IDX 40 65 41 66 42 67 43 68 44 69 67 70 68 71 76 72 69 73 75 74
REMARK SMILES IDX 70 75 71 76 72 77 73 78 74 79 53 80 54 81 62 82 55 83 61 84
REMARK SMILES IDX 56 85 57 86 58 87 59 88 60 89
REMARK H PARENT 81 45 51 56
REMARK Flexibility Score: inf
ROOT
ATOM      1  C   UNL     1      -0.291   8.103  -0.465  1.00  0.00     0.274 C 
ENDROOT
BRANCH   1   2
ATOM      2  O   UNL     1      -0.208   6.909   0.331  1.00  0.00    -0.461 OA
BRANCH   2   3
ATOM      3  C   UNL     1       0.938   6.679   1.023  1.00  0.00     0.329 C 
ATOM      4  O   UNL     1       1.955   7.357   0.948  1.00  0.00    -0.250 OA
BRANCH   3   5
ATOM      5  C   UNL     1       0.797   5.406   1.871  1.00  0.00     0.202 C 
ATOM      6  N   UNL     1       1.423   4.271   1.214  1.00  0.00    -0.291 N 
ATOM      7  C   UNL     1       2.679   3.914   1.840  1.00  0.00     0.169 C 
ATOM      8  C   UNL     1       2.523   4.373   3.285  1.00  0.00     0.195 C 
ATOM      9  C   UNL     1       1.534   5.543   3.221  1.00  0.00     0.084 C 
BRANCH   6  10
ATOM     10  C   UNL     1       0.764   3.587   0.226  1.00  0.00     0.411 C 
ATOM     11  O   UNL     1      -0.199   4.027  -0.372  1.00  0.00    -0.224 OA
BRANCH  10  12
ATOM     12  O   UNL     1       1.288   2.348   0.049  1.00  0.00    -0.444 OA
BRANCH  12  13
ATOM     13  C   UNL     1       0.686   1.407  -0.874  1.00  0.00     0.106 C 
ATOM     14  C   UNL     1       1.289   0.051  -0.477  1.00  0.00     0.056 C 
ATOM     15  C   UNL     1       1.117   1.763  -2.296  1.00  0.00     0.056 C 
ATOM     16  C   UNL     1      -0.842   1.300  -0.756  1.00  0.00     0.056 C 
ENDBRANCH  12  13
ENDBRANCH  10  12
ENDBRANCH   6  10
BRANCH   8  17
ATOM     17  O   UNL     1       2.188   3.337   4.230  1.00  0.00    -0.488 OA
BRANCH  17  18
ATOM     18  C   UNL     1       0.969   2.736   4.113  1.00  0.00     0.122 A 
ATOM     19  C   UNL     1       0.788   1.660   3.257  1.00  0.00     0.066 A 
ATOM     20  C   UNL     1      -0.051   3.099   4.983  1.00  0.00     0.066 A 
ATOM     21  C   UNL     1      -0.450   1.042   3.242  1.00  0.00     0.115 A 
ATOM     22  C   UNL     1      -1.253   2.416   4.898  1.00  0.00     0.115 A 
ATOM     23  N   UNL     1      -1.480   1.402   4.035  1.00  0.00    -0.264 NA
ENDBRANCH  17  18
ENDBRANCH   8  17
ENDBRANCH   3   5
ENDBRANCH   2   3
ENDBRANCH   1   2
BRANCH   1  24
ATOM     24  C   UNL     1      -1.630   8.785  -0.180  1.00  0.00     0.275 C 
BRANCH  24  25
ATOM     25  O   UNL     1      -1.676   9.243   1.187  1.00  0.00    -0.458 OA
BRANCH  25  26
ATOM     26  C   UNL     1      -2.192   8.354   2.070  1.00  0.00     0.338 C 
ATOM     27  O   UNL     1      -2.702   7.274   1.830  1.00  0.00    -0.246 OA
BRANCH  26  28
ATOM     28  C   UNL     1      -1.858   8.785   3.435  1.00  0.00     0.060 A 
ATOM     29  C   UNL     1      -0.980   7.978   4.159  1.00  0.00     0.016 A 
ATOM     30  C   UNL     1      -2.424   9.915   4.018  1.00  0.00     0.016 A 
ATOM     31  C   UNL     1      -0.639   8.298   5.468  1.00  0.00     0.010 A 
ATOM     32  C   UNL     1      -2.091  10.236   5.339  1.00  0.00     0.010 A 
ATOM     33  C   UNL     1      -1.197   9.430   6.071  1.00  0.00    -0.014 A 
BRANCH  33  34
ATOM     34  C   UNL     1      -0.866   9.755   7.478  1.00  0.00     0.031 A 
ATOM     35  C   UNL     1      -1.879   9.526   8.559  1.00  0.00     0.074 A 
ATOM     36  C   UNL     1       0.346  10.254   7.783  1.00  0.00     0.049 A 
ATOM     37  N   UNL     1      -1.825   9.855   9.822  1.00  0.00    -0.248 NA
ATOM     38  C   UNL     1      -3.114   8.832   8.163  1.00  0.00     0.031 C 
ATOM     39  C   UNL     1       1.437  10.462   6.830  1.00  0.00     0.029 A 
ATOM     40  N   UNL     1       0.856  10.691   8.979  1.00  0.00    -0.354 N 
ATOM     41  C   UNL     1      -3.031   9.438  10.372  1.00  0.00     0.074 A 
ATOM     42  C   UNL     1      -3.796   8.834   9.300  1.00  0.00     0.031 C 
ATOM     43  C   UNL     1       2.483  11.002   7.476  1.00  0.00     0.029 A 
ATOM     44  C   UNL     1       2.114  11.232   8.871  1.00  0.00     0.049 A 
ATOM     45  H   UNL     1       0.369  10.622   9.832  1.00  0.00     0.167 HD
ATOM     46  C   UNL     1      -3.463   9.558  11.650  1.00  0.00     0.031 A 
ATOM     47  C   UNL     1       2.866  11.890   9.774  1.00  0.00     0.031 A 
ATOM     48  C   UNL     1      -2.703  10.175  12.705  1.00  0.00     0.049 A 
ATOM     49  C   UNL     1       2.332  12.101  11.162  1.00  0.00     0.074 A 
ATOM     50  C   UNL     1      -3.043  10.329  14.037  1.00  0.00     0.029 A 
ATOM     51  N   UNL     1      -1.454  10.759  12.542  1.00  0.00    -0.354 N 
ATOM     52  N   UNL     1       1.193  11.696  11.674  1.00  0.00    -0.248 NA
ATOM     53  C   UNL     1       3.173  12.868  12.091  1.00  0.00     0.031 C 
ATOM     54  C   UNL     1      -2.028  11.060  14.665  1.00  0.00     0.029 A 
ATOM     55  C   UNL     1      -1.030  11.315  13.737  1.00  0.00     0.049 A 
ATOM     56  H   UNL     1      -0.945  10.776  11.699  1.00  0.00     0.167 HD
ATOM     57  C   UNL     1       1.178  12.162  12.983  1.00  0.00     0.074 A 
ATOM     58  C   UNL     1       2.432  12.859  13.192  1.00  0.00     0.031 C 
ATOM     59  C   UNL     1       0.210  12.029  13.923  1.00  0.00     0.031 A 
BRANCH  46  60
ATOM     60  C   UNL     1      -4.857   9.074  11.949  1.00  0.00    -0.014 A 
ATOM     61  C   UNL     1      -5.171   7.704  11.979  1.00  0.00     0.010 A 
ATOM     62  C   UNL     1      -5.876  10.015  12.184  1.00  0.00     0.010 A 
ATOM     63  C   UNL     1      -6.490   7.286  12.174  1.00  0.00     0.020 A 
ATOM     64  C   UNL     1      -7.192   9.601  12.405  1.00  0.00     0.020 A 
ATOM     65  C   UNL     1      -7.495   8.239  12.370  1.00  0.00     0.054 A 
BRANCH  65  66
ATOM     66  S   UNL     1      -9.206   7.676  12.583  1.00  0.00     0.124 S 
ATOM     67  O   UNL     1      -9.574   7.315  11.215  1.00  0.00    -0.237 OA
ATOM     68  O   UNL     1      -9.066   6.557  13.511  1.00  0.00    -0.237 OA
ATOM     69  O   UNL     1      -9.892   8.847  13.123  1.00  0.00    -0.744 OA
ENDBRANCH  65  66
ENDBRANCH  46  60
BRANCH  47  70
ATOM     70  C   UNL     1       4.176  12.455   9.351  1.00  0.00    -0.014 A 
ATOM     71  C   UNL     1       5.382  11.870   9.768  1.00  0.00     0.010 A 
ATOM     72  C   UNL     1       4.213  13.544   8.459  1.00  0.00     0.010 A 
ATOM     73  C   UNL     1       6.603  12.351   9.286  1.00  0.00     0.020 A 
ATOM     74  C   UNL     1       5.429  14.012   7.956  1.00  0.00     0.020 A 
ATOM     75  C   UNL     1       6.618  13.411   8.373  1.00  0.00     0.054 A 
BRANCH  75  76
ATOM     76  S   UNL     1       8.205  13.943   7.671  1.00  0.00     0.124 S 
ATOM     77  O   UNL     1       8.798  14.678   8.783  1.00  0.00    -0.237 OA
ATOM     78  O   UNL     1       8.844  12.672   7.338  1.00  0.00    -0.237 OA
ATOM     79  O   UNL     1       7.815  14.753   6.519  1.00  0.00    -0.744 OA
ENDBRANCH  75  76
ENDBRANCH  47  70
BRANCH  59  80
ATOM     80  C   UNL     1       0.457  12.662  15.266  1.00  0.00    -0.014 A 
ATOM     81  C   UNL     1       0.349  14.053  15.435  1.00  0.00     0.010 A 
ATOM     82  C   UNL     1       0.726  11.852  16.385  1.00  0.00     0.010 A 
ATOM     83  C   UNL     1       0.517  14.627  16.699  1.00  0.00     0.020 A 
ATOM     84  C   UNL     1       0.873  12.420  17.654  1.00  0.00     0.020 A 
ATOM     85  C   UNL     1       0.775  13.805  17.801  1.00  0.00     0.054 A 
BRANCH  85  86
ATOM     86  S   UNL     1       0.922  14.567  19.441  1.00  0.00     0.124 S 
ATOM     87  O   UNL     1       2.235  15.200  19.366  1.00  0.00    -0.237 OA
ATOM     88  O   UNL     1      -0.217  15.482  19.473  1.00  0.00    -0.237 OA
ATOM     89  O   UNL     1       0.828  13.434  20.359  1.00  0.00    -0.744 OA
ENDBRANCH  85  86
ENDBRANCH  59  80
ENDBRANCH  33  34
ENDBRANCH  26  28
ENDBRANCH  25  26
ENDBRANCH  24  25
ENDBRANCH   1  24
TORSDOF 19
