REMARK SMILES O=Cc1c(OCc2ccc(C(=O)OCCOC(=O)c3ccc(-c4c5nc(c(-c6ccc(S(=O)(=O)[O-])cc6)c6ccc([nH]6)c(-c6ccc(S(=O)(=O)[O-])cc6)c6nc(c(-c7ccc(S(=O)(=O)[O-])cc7)c7ccc4[nH]7)C=C6)C=C5)cc3)cc2)ccc2ccccc12
REMARK SMILES IDX 14 1 13 2 11 3 12 4 10 5 7 6 8 7 80 8 9 9 79 10 6 11 5 12
REMARK SMILES IDX 4 13 3 14 88 15 81 16 83 17 87 18 82 19 84 20 86 21 85 22
REMARK SMILES IDX 2 23 1 24 15 25 16 26 17 27 18 28 19 29 20 30 78 31 21 32
REMARK SMILES IDX 77 33 22 34 23 35 24 36 71 37 25 38 76 39 70 40 72 41 26 42
REMARK SMILES IDX 75 43 69 44 68 45 27 47 57 48 38 49 56 50 39 51 42 52 55 53
REMARK SMILES IDX 73 54 40 55 41 56 54 58 74 59 43 60 28 61 29 62 37 63 30 64
REMARK SMILES IDX 36 65 31 66 32 67 33 68 34 69 35 70 58 71 59 72 67 73 60 74
REMARK SMILES IDX 66 75 61 76 62 77 63 78 64 79 65 80 44 81 45 82 53 83 46 84
REMARK SMILES IDX 52 85 47 86 48 87 49 88 50 89 51 90
REMARK H PARENT 72 46 42 57
REMARK Flexibility Score: inf
ROOT
ATOM      1  C   UNL     1       7.092  -5.452  -6.281  1.00  0.00     0.275 C 
ENDROOT
BRANCH   1   2
ATOM      2  O   UNL     1       6.049  -4.840  -5.495  1.00  0.00    -0.458 OA
BRANCH   2   3
ATOM      3  C   UNL     1       4.812  -5.378  -5.651  1.00  0.00     0.338 C 
ATOM      4  O   UNL     1       4.509  -6.293  -6.399  1.00  0.00    -0.246 OA
BRANCH   3   5
ATOM      5  C   UNL     1       3.850  -4.761  -4.707  1.00  0.00     0.060 A 
ATOM      6  C   UNL     1       1.995  -3.704  -2.876  1.00  0.00    -0.011 A 
ATOM      7  C   UNL     1       1.869  -5.022  -3.330  1.00  0.00     0.008 A 
ATOM      8  C   UNL     1       3.031  -2.906  -3.390  1.00  0.00     0.008 A 
ATOM      9  C   UNL     1       2.779  -5.540  -4.252  1.00  0.00     0.016 A 
ATOM     10  C   UNL     1       3.969  -3.436  -4.282  1.00  0.00     0.016 A 
BRANCH   6  11
ATOM     11  C   UNL     1       0.991  -3.175  -1.869  1.00  0.00     0.265 C 
BRANCH  11  12
ATOM     12  O   UNL     1       1.458  -2.071  -1.093  1.00  0.00    -0.488 OA
BRANCH  12  13
ATOM     13  C   UNL     1       2.430  -2.262  -0.147  1.00  0.00     0.130 A 
ATOM     14  C   UNL     1       2.962  -1.106   0.455  1.00  0.00     0.064 A 
ATOM     15  C   UNL     1       4.083  -1.164   1.331  1.00  0.00    -0.004 A 
ATOM     16  C   UNL     1       2.972  -3.501   0.186  1.00  0.00     0.048 A 
ATOM     17  C   UNL     1       4.644  -2.434   1.603  1.00  0.00    -0.017 A 
ATOM     18  C   UNL     1       4.678  -0.039   1.958  1.00  0.00     0.009 A 
ATOM     19  C   UNL     1       4.070  -3.583   1.044  1.00  0.00     0.012 A 
ATOM     20  C   UNL     1       5.771  -2.545   2.432  1.00  0.00     0.009 A 
ATOM     21  C   UNL     1       5.799  -0.166   2.781  1.00  0.00     0.001 A 
ATOM     22  C   UNL     1       6.350  -1.418   3.011  1.00  0.00     0.001 A 
BRANCH  14  23
ATOM     23  C   UNL     1       2.383   0.214   0.113  1.00  0.00     0.264 C 
ATOM     24  O   UNL     1       1.181   0.447   0.103  1.00  0.00    -0.298 OA
ENDBRANCH  14  23
ENDBRANCH  12  13
ENDBRANCH  11  12
ENDBRANCH   6  11
ENDBRANCH   3   5
ENDBRANCH   2   3
ENDBRANCH   1   2
BRANCH   1  25
ATOM     25  C   UNL     1       7.857  -6.488  -5.459  1.00  0.00     0.275 C 
BRANCH  25  26
ATOM     26  O   UNL     1       6.973  -7.558  -5.081  1.00  0.00    -0.458 OA
BRANCH  26  27
ATOM     27  C   UNL     1       7.100  -7.997  -3.808  1.00  0.00     0.338 C 
ATOM     28  O   UNL     1       7.913  -7.627  -2.979  1.00  0.00    -0.246 OA
BRANCH  27  29
ATOM     29  C   UNL     1       6.091  -9.039  -3.533  1.00  0.00     0.060 A 
ATOM     30  C   UNL     1       4.737  -8.783  -3.748  1.00  0.00     0.016 A 
ATOM     31  C   UNL     1       6.488 -10.233  -2.933  1.00  0.00     0.016 A 
ATOM     32  C   UNL     1       3.772  -9.678  -3.281  1.00  0.00     0.010 A 
ATOM     33  C   UNL     1       5.522 -11.165  -2.539  1.00  0.00     0.010 A 
ATOM     34  C   UNL     1       4.149 -10.878  -2.659  1.00  0.00    -0.014 A 
BRANCH  34  35
ATOM     35  C   UNL     1       3.132 -11.784  -2.046  1.00  0.00     0.031 A 
ATOM     36  C   UNL     1       3.203 -12.101  -0.570  1.00  0.00     0.074 A 
ATOM     37  C   UNL     1       2.134 -12.319  -2.778  1.00  0.00     0.049 A 
ATOM     38  N   UNL     1       2.545 -12.999   0.119  1.00  0.00    -0.248 NA
ATOM     39  C   UNL     1       4.153 -11.313   0.233  1.00  0.00     0.031 C 
ATOM     40  C   UNL     1       1.894 -12.077  -4.201  1.00  0.00     0.029 A 
ATOM     41  N   UNL     1       1.121 -13.175  -2.414  1.00  0.00    -0.354 N 
ATOM     42  C   UNL     1       3.055 -12.938   1.412  1.00  0.00     0.074 A 
ATOM     43  C   UNL     1       4.071 -11.907   1.415  1.00  0.00     0.031 C 
ATOM     44  C   UNL     1       0.781 -12.729  -4.577  1.00  0.00     0.029 A 
ATOM     45  C   UNL     1       0.272 -13.498  -3.446  1.00  0.00     0.049 A 
ATOM     46  H   UNL     1       1.014 -13.524  -1.499  1.00  0.00     0.167 HD
ATOM     47  C   UNL     1       2.718 -13.676   2.498  1.00  0.00     0.031 A 
ATOM     48  C   UNL     1      -0.779 -14.341  -3.493  1.00  0.00     0.031 A 
ATOM     49  C   UNL     1       1.667 -14.657   2.520  1.00  0.00     0.049 A 
ATOM     50  C   UNL     1      -1.157 -15.130  -2.271  1.00  0.00     0.074 A 
ATOM     51  C   UNL     1       1.258 -15.460   3.572  1.00  0.00     0.029 A 
ATOM     52  N   UNL     1       0.833 -14.945   1.452  1.00  0.00    -0.354 N 
ATOM     53  N   UNL     1      -0.601 -15.124  -1.083  1.00  0.00    -0.248 NA
ATOM     54  C   UNL     1      -2.296 -16.050  -2.400  1.00  0.00     0.031 C 
ATOM     55  C   UNL     1       0.185 -16.245   3.134  1.00  0.00     0.029 A 
ATOM     56  C   UNL     1      -0.094 -15.905   1.821  1.00  0.00     0.049 A 
ATOM     57  H   UNL     1       0.892 -14.529   0.561  1.00  0.00     0.167 HD
ATOM     58  C   UNL     1      -1.326 -16.035  -0.323  1.00  0.00     0.074 A 
ATOM     59  C   UNL     1      -2.373 -16.557  -1.177  1.00  0.00     0.031 C 
ATOM     60  C   UNL     1      -1.134 -16.412   0.965  1.00  0.00     0.031 A 
BRANCH  47  61
ATOM     61  C   UNL     1       3.533 -13.478   3.747  1.00  0.00    -0.014 A 
ATOM     62  C   UNL     1       3.370 -12.343   4.561  1.00  0.00     0.010 A 
ATOM     63  C   UNL     1       4.468 -14.462   4.121  1.00  0.00     0.010 A 
ATOM     64  C   UNL     1       4.160 -12.175   5.702  1.00  0.00     0.020 A 
ATOM     65  C   UNL     1       5.242 -14.308   5.274  1.00  0.00     0.020 A 
ATOM     66  C   UNL     1       5.098 -13.154   6.046  1.00  0.00     0.054 A 
BRANCH  66  67
ATOM     67  S   UNL     1       6.111 -12.918   7.532  1.00  0.00     0.124 S 
ATOM     68  O   UNL     1       7.128 -11.985   7.056  1.00  0.00    -0.237 OA
ATOM     69  O   UNL     1       5.157 -12.369   8.493  1.00  0.00    -0.237 OA
ATOM     70  O   UNL     1       6.592 -14.263   7.838  1.00  0.00    -0.744 OA
ENDBRANCH  66  67
ENDBRANCH  47  61
BRANCH  48  71
ATOM     71  C   UNL     1      -1.535 -14.505  -4.764  1.00  0.00    -0.014 A 
ATOM     72  C   UNL     1      -2.826 -13.965  -4.900  1.00  0.00     0.010 A 
ATOM     73  C   UNL     1      -0.956 -15.181  -5.853  1.00  0.00     0.010 A 
ATOM     74  C   UNL     1      -3.525 -14.100  -6.103  1.00  0.00     0.020 A 
ATOM     75  C   UNL     1      -1.642 -15.296  -7.064  1.00  0.00     0.020 A 
ATOM     76  C   UNL     1      -2.926 -14.761  -7.179  1.00  0.00     0.054 A 
BRANCH  76  77
ATOM     77  S   UNL     1      -3.811 -14.857  -8.761  1.00  0.00     0.124 S 
ATOM     78  O   UNL     1      -4.710 -15.984  -8.537  1.00  0.00    -0.237 OA
ATOM     79  O   UNL     1      -4.449 -13.546  -8.853  1.00  0.00    -0.237 OA
ATOM     80  O   UNL     1      -2.742 -15.088  -9.731  1.00  0.00    -0.744 OA
ENDBRANCH  76  77
ENDBRANCH  48  71
BRANCH  60  81
ATOM     81  C   UNL     1      -2.097 -17.412   1.540  1.00  0.00    -0.014 A 
ATOM     82  C   UNL     1      -2.002 -18.777   1.220  1.00  0.00     0.010 A 
ATOM     83  C   UNL     1      -3.089 -16.982   2.440  1.00  0.00     0.010 A 
ATOM     84  C   UNL     1      -2.905 -19.694   1.767  1.00  0.00     0.020 A 
ATOM     85  C   UNL     1      -3.982 -17.898   3.002  1.00  0.00     0.020 A 
ATOM     86  C   UNL     1      -3.894 -19.247   2.649  1.00  0.00     0.054 A 
BRANCH  86  87
ATOM     87  S   UNL     1      -5.040 -20.454   3.371  1.00  0.00     0.124 S 
ATOM     88  O   UNL     1      -5.993 -20.655   2.283  1.00  0.00    -0.237 OA
ATOM     89  O   UNL     1      -4.172 -21.592   3.664  1.00  0.00    -0.237 OA
ATOM     90  O   UNL     1      -5.569 -19.765   4.546  1.00  0.00    -0.744 OA
ENDBRANCH  86  87
ENDBRANCH  60  81
ENDBRANCH  34  35
ENDBRANCH  27  29
ENDBRANCH  26  27
ENDBRANCH  25  26
ENDBRANCH   1  25
TORSDOF 18
