REMARK SMILES Cc1c(CC(=O)OCCOC(=O)c2ccc(-c3c4nc(c(-c5ccc(S(=O)(=O)[O-])cc5)c5ccc([nH]5)c(-c5ccc(S(=O)(=O)[O-])cc5)c5nc(c(-c6ccc(S(=O)(=O)[O-])cc6)c6ccc3[nH]6)C=C5)C=C4)cc2)cc(-c2ccc(S(C)(=O)=O)cc2)n1-c1ccccc1
REMARK SMILES IDX 8 1 7 2 5 3 6 4 4 5 3 6 1 7 2 8 85 9 73 10 74 11 86 12 87 13
REMARK SMILES IDX 91 14 88 15 90 16 89 17 75 18 76 19 84 20 77 21 83 22 78 23
REMARK SMILES IDX 79 24 80 25 81 26 82 27 9 28 10 29 11 30 12 31 13 32 14 33
REMARK SMILES IDX 72 34 15 35 71 36 16 37 17 38 18 39 65 40 19 41 70 42 64 43
REMARK SMILES IDX 66 44 20 45 69 46 63 47 62 48 21 50 51 51 32 52 50 53 33 54
REMARK SMILES IDX 36 55 49 56 67 57 34 58 35 59 48 61 68 62 37 63 22 64 23 65
REMARK SMILES IDX 31 66 24 67 30 68 25 69 26 70 27 71 28 72 29 73 52 74 53 75
REMARK SMILES IDX 61 76 54 77 60 78 55 79 56 80 57 81 58 82 59 83 38 84 39 85
REMARK SMILES IDX 47 86 40 87 46 88 41 89 42 90 43 91 44 92 45 93
REMARK H PARENT 66 49 36 60
REMARK Flexibility Score: inf
ROOT
ATOM      1  C   UNL     1       4.055  -2.013   0.577  1.00  0.00     0.274 C 
ENDROOT
BRANCH   1   2
ATOM      2  O   UNL     1       2.790  -1.787  -0.102  1.00  0.00    -0.462 OA
BRANCH   2   3
ATOM      3  C   UNL     1       2.204  -2.871  -0.684  1.00  0.00     0.310 C 
ATOM      4  O   UNL     1       2.702  -3.996  -0.675  1.00  0.00    -0.252 OA
BRANCH   3   5
ATOM      5  C   UNL     1       0.816  -2.614  -1.262  1.00  0.00     0.160 C 
BRANCH   5   6
ATOM      6  C   UNL     1       0.545  -1.283  -1.915  1.00  0.00    -0.015 A 
ATOM      7  C   UNL     1       0.707   0.299   0.140  1.00  0.00     0.065 C 
ATOM      8  C   UNL     1       0.522  -0.036  -1.308  1.00  0.00     0.024 A 
ATOM      9  N   UNL     1       0.200   0.924  -2.261  1.00  0.00    -0.314 N 
ATOM     10  C   UNL     1       0.096  -1.072  -3.254  1.00  0.00     0.033 A 
ATOM     11  C   UNL     1      -0.141   0.282  -3.451  1.00  0.00     0.053 A 
BRANCH   9  12
ATOM     12  C   UNL     1       0.200   2.324  -2.035  1.00  0.00     0.046 A 
ATOM     13  C   UNL     1      -0.948   3.079  -2.294  1.00  0.00     0.026 A 
ATOM     14  C   UNL     1       1.356   2.930  -1.529  1.00  0.00     0.026 A 
ATOM     15  C   UNL     1      -0.941   4.446  -2.021  1.00  0.00     0.002 A 
ATOM     16  C   UNL     1       1.360   4.301  -1.282  1.00  0.00     0.002 A 
ATOM     17  C   UNL     1       0.211   5.055  -1.520  1.00  0.00     0.000 A 
ENDBRANCH   9  12
BRANCH  11  18
ATOM     18  C   UNL     1      -0.551   0.969  -4.686  1.00  0.00    -0.001 A 
ATOM     19  C   UNL     1       0.324   1.858  -5.329  1.00  0.00     0.011 A 
ATOM     20  C   UNL     1      -1.823   0.754  -5.234  1.00  0.00     0.011 A 
ATOM     21  C   UNL     1      -0.066   2.534  -6.490  1.00  0.00     0.021 A 
ATOM     22  C   UNL     1      -2.224   1.432  -6.393  1.00  0.00     0.021 A 
ATOM     23  C   UNL     1      -1.345   2.324  -7.011  1.00  0.00     0.067 A 
BRANCH  23  24
ATOM     24  S   UNL     1      -1.809   3.168  -8.505  1.00  0.00     0.175 S 
ATOM     25  C   UNL     1      -1.846   4.883  -8.056  1.00  0.00     0.163 C 
ATOM     26  O   UNL     1      -0.753   2.967  -9.460  1.00  0.00    -0.224 OA
ATOM     27  O   UNL     1      -3.184   2.778  -8.824  1.00  0.00    -0.224 OA
ENDBRANCH  23  24
ENDBRANCH  11  18
ENDBRANCH   5   6
ENDBRANCH   3   5
ENDBRANCH   2   3
ENDBRANCH   1   2
BRANCH   1  28
ATOM     28  C   UNL     1       4.520  -0.726   1.301  1.00  0.00     0.275 C 
BRANCH  28  29
ATOM     29  O   UNL     1       4.767  -0.806   2.740  1.00  0.00    -0.458 OA
BRANCH  29  30
ATOM     30  C   UNL     1       3.676  -0.747   3.555  1.00  0.00     0.338 C 
ATOM     31  O   UNL     1       2.530  -0.920   3.169  1.00  0.00    -0.246 OA
BRANCH  30  32
ATOM     32  C   UNL     1       4.032  -0.537   5.013  1.00  0.00     0.060 A 
ATOM     33  C   UNL     1       3.580  -1.470   5.942  1.00  0.00     0.016 A 
ATOM     34  C   UNL     1       4.624   0.633   5.526  1.00  0.00     0.016 A 
ATOM     35  C   UNL     1       3.726  -1.243   7.337  1.00  0.00     0.010 A 
ATOM     36  C   UNL     1       4.713   0.886   6.947  1.00  0.00     0.010 A 
ATOM     37  C   UNL     1       4.249  -0.040   7.898  1.00  0.00    -0.014 A 
BRANCH  37  38
ATOM     38  C   UNL     1       3.779   0.309   9.336  1.00  0.00     0.031 A 
ATOM     39  C   UNL     1       2.288   0.219   9.309  1.00  0.00     0.074 A 
ATOM     40  C   UNL     1       4.316   0.655  10.557  1.00  0.00     0.049 A 
ATOM     41  N   UNL     1       1.539   0.941   8.524  1.00  0.00    -0.248 NA
ATOM     42  C   UNL     1       1.619  -0.924   9.937  1.00  0.00     0.031 C 
ATOM     43  C   UNL     1       5.726   0.874  10.897  1.00  0.00     0.029 A 
ATOM     44  N   UNL     1       3.704   0.869  11.815  1.00  0.00    -0.354 N 
ATOM     45  C   UNL     1       0.252   0.504   8.747  1.00  0.00     0.074 A 
ATOM     46  C   UNL     1       0.390  -0.763   9.448  1.00  0.00     0.031 C 
ATOM     47  C   UNL     1       5.883   1.059  12.238  1.00  0.00     0.029 A 
ATOM     48  C   UNL     1       4.590   1.039  12.916  1.00  0.00     0.049 A 
ATOM     49  H   UNL     1       2.726   0.898  11.922  1.00  0.00     0.167 HD
ATOM     50  C   UNL     1      -0.745   1.413   8.933  1.00  0.00     0.031 A 
ATOM     51  C   UNL     1       4.325   1.194  14.261  1.00  0.00     0.031 A 
ATOM     52  C   UNL     1      -1.153   1.497  10.311  1.00  0.00     0.049 A 
ATOM     53  C   UNL     1       2.909   1.573  14.419  1.00  0.00     0.074 A 
ATOM     54  C   UNL     1      -1.572   0.590  11.261  1.00  0.00     0.029 A 
ATOM     55  N   UNL     1      -0.747   2.630  10.989  1.00  0.00    -0.354 N 
ATOM     56  N   UNL     1       2.475   2.764  14.149  1.00  0.00    -0.248 NA
ATOM     57  C   UNL     1       1.919   0.663  14.991  1.00  0.00     0.031 C 
ATOM     58  C   UNL     1      -1.030   1.045  12.490  1.00  0.00     0.029 A 
ATOM     59  C   UNL     1      -0.460   2.299  12.299  1.00  0.00     0.049 A 
ATOM     60  H   UNL     1      -0.673   3.531  10.600  1.00  0.00     0.167 HD
ATOM     61  C   UNL     1       1.121   2.611  14.071  1.00  0.00     0.074 A 
ATOM     62  C   UNL     1       0.827   1.412  14.829  1.00  0.00     0.031 C 
ATOM     63  C   UNL     1       0.471   3.151  13.010  1.00  0.00     0.031 A 
BRANCH  50  64
ATOM     64  C   UNL     1      -0.826   2.599   8.023  1.00  0.00    -0.014 A 
ATOM     65  C   UNL     1      -2.030   2.822   7.337  1.00  0.00     0.010 A 
ATOM     66  C   UNL     1       0.230   3.514   7.854  1.00  0.00     0.010 A 
ATOM     67  C   UNL     1      -2.159   3.910   6.468  1.00  0.00     0.020 A 
ATOM     68  C   UNL     1       0.109   4.601   6.983  1.00  0.00     0.020 A 
ATOM     69  C   UNL     1      -1.085   4.786   6.287  1.00  0.00     0.054 A 
BRANCH  69  70
ATOM     70  S   UNL     1      -1.265   6.133   5.088  1.00  0.00     0.124 S 
ATOM     71  O   UNL     1      -1.747   5.430   3.899  1.00  0.00    -0.237 OA
ATOM     72  O   UNL     1      -2.248   6.996   5.735  1.00  0.00    -0.237 OA
ATOM     73  O   UNL     1       0.083   6.681   4.963  1.00  0.00    -0.744 OA
ENDBRANCH  69  70
ENDBRANCH  50  64
BRANCH  51  74
ATOM     74  C   UNL     1       5.040   1.203  15.608  1.00  0.00    -0.014 A 
ATOM     75  C   UNL     1       4.501   1.999  16.669  1.00  0.00     0.010 A 
ATOM     76  C   UNL     1       5.955   0.213  15.994  1.00  0.00     0.010 A 
ATOM     77  C   UNL     1       4.741   1.734  18.030  1.00  0.00     0.020 A 
ATOM     78  C   UNL     1       6.230  -0.039  17.366  1.00  0.00     0.020 A 
ATOM     79  C   UNL     1       5.585   0.689  18.375  1.00  0.00     0.054 A 
BRANCH  79  80
ATOM     80  S   UNL     1       5.712   0.214  20.135  1.00  0.00     0.124 S 
ATOM     81  O   UNL     1       6.351   1.378  20.739  1.00  0.00    -0.237 OA
ATOM     82  O   UNL     1       4.315  -0.001  20.507  1.00  0.00    -0.237 OA
ATOM     83  O   UNL     1       6.529  -0.998  20.105  1.00  0.00    -0.744 OA
ENDBRANCH  79  80
ENDBRANCH  51  74
BRANCH  63  84
ATOM     84  C   UNL     1       0.971   4.497  12.494  1.00  0.00    -0.014 A 
ATOM     85  C   UNL     1       2.331   4.841  12.313  1.00  0.00     0.010 A 
ATOM     86  C   UNL     1       0.020   5.502  12.242  1.00  0.00     0.010 A 
ATOM     87  C   UNL     1       2.730   6.152  12.019  1.00  0.00     0.020 A 
ATOM     88  C   UNL     1       0.408   6.806  11.899  1.00  0.00     0.020 A 
ATOM     89  C   UNL     1       1.762   7.135  11.835  1.00  0.00     0.054 A 
BRANCH  89  90
ATOM     90  S   UNL     1       2.299   8.845  11.551  1.00  0.00     0.124 S 
ATOM     91  O   UNL     1       2.866   9.210  12.848  1.00  0.00    -0.237 OA
ATOM     92  O   UNL     1       3.268   8.706  10.467  1.00  0.00    -0.237 OA
ATOM     93  O   UNL     1       1.064   9.544  11.205  1.00  0.00    -0.744 OA
ENDBRANCH  89  90
ENDBRANCH  63  84
ENDBRANCH  37  38
ENDBRANCH  30  32
ENDBRANCH  29  30
ENDBRANCH  28  29
ENDBRANCH   1  28
TORSDOF 18
