REMARK SMILES NC(=O)CC[C@H](NC(=O)N[C@H]1CCOC1)C(=O)OCCOC(=O)c1ccc(-c2c3nc(c(-c4ccc(S(=O)(=O)[O-])cc4)c4ccc([nH]4)c(-c4ccc(S(=O)(=O)[O-])cc4)c4nc(c(-c5ccc(S(=O)(=O)[O-])cc5)c5ccc2[nH]5)C=C4)C=C3)cc1
REMARK SMILES IDX 19 1 18 2 16 3 17 4 6 5 5 6 4 7 2 8 1 9 3 12 7 13 8 14 9 16
REMARK SMILES IDX 10 17 11 19 12 20 15 21 13 22 14 23 20 24 21 25 22 26 23 27
REMARK SMILES IDX 24 28 25 29 83 30 26 31 82 32 27 33 28 34 29 35 76 36 30 37
REMARK SMILES IDX 81 38 75 39 77 40 31 41 80 42 74 43 73 44 32 46 62 47 43 48
REMARK SMILES IDX 61 49 44 50 47 51 60 52 78 53 45 54 46 55 59 57 79 58 48 59
REMARK SMILES IDX 33 60 34 61 42 62 35 63 41 64 36 65 37 66 38 67 39 68 40 69
REMARK SMILES IDX 63 70 64 71 72 72 65 73 71 74 66 75 67 76 68 77 69 78 70 79
REMARK SMILES IDX 49 80 50 81 58 82 51 83 57 84 52 85 53 86 54 87 55 88 56 89
REMARK H PARENT 1 10 1 11 7 15 10 18 77 45 47 56
REMARK Flexibility Score: inf
ROOT
ATOM      1  C   UNL     1       3.516   1.394  -1.513  1.00  0.00     0.274 C 
ENDROOT
BRANCH   1   2
ATOM      2  O   UNL     1       4.072   0.182  -2.057  1.00  0.00    -0.461 OA
BRANCH   2   3
ATOM      3  C   UNL     1       5.414   0.115  -2.296  1.00  0.00     0.328 C 
ATOM      4  O   UNL     1       6.235   0.913  -1.867  1.00  0.00    -0.250 OA
BRANCH   3   5
ATOM      5  C   UNL     1       5.780  -1.154  -3.095  1.00  0.00     0.194 C 
BRANCH   5   6
ATOM      6  C   UNL     1       7.218  -1.385  -3.639  1.00  0.00     0.047 C 
BRANCH   6   7
ATOM      7  C   UNL     1       7.892  -0.536  -4.721  1.00  0.00     0.102 C 
BRANCH   7   8
ATOM      8  C   UNL     1       8.567   0.782  -4.385  1.00  0.00     0.217 C 
ATOM      9  N   UNL     1       8.560   1.233  -3.112  1.00  0.00    -0.370 N 
ATOM     10  H   UNL     1       8.996   2.087  -2.890  1.00  0.00     0.159 HD
ATOM     11  H   UNL     1       8.118   0.708  -2.406  1.00  0.00     0.159 HD
ATOM     12  O   UNL     1       9.147   1.427  -5.256  1.00  0.00    -0.275 OA
ENDBRANCH   7   8
ENDBRANCH   6   7
ENDBRANCH   5   6
BRANCH   5  13
ATOM     13  N   UNL     1       4.689  -1.754  -3.878  1.00  0.00    -0.325 N 
ATOM     14  C   UNL     1       3.638  -1.210  -4.516  1.00  0.00     0.315 C 
ATOM     15  H   UNL     1       4.738  -2.735  -3.948  1.00  0.00     0.166 HD
ATOM     16  O   UNL     1       2.636  -1.902  -4.693  1.00  0.00    -0.249 OA
ATOM     17  N   UNL     1       3.612   0.074  -4.916  1.00  0.00    -0.333 N 
ATOM     18  H   UNL     1       2.723   0.496  -4.922  1.00  0.00     0.165 HD
BRANCH  17  19
ATOM     19  C   UNL     1       4.702   0.922  -5.340  1.00  0.00     0.112 C 
ATOM     20  C   UNL     1       4.596   1.312  -6.798  1.00  0.00     0.056 C 
ATOM     21  C   UNL     1       4.849   2.273  -4.643  1.00  0.00     0.185 C 
ATOM     22  C   UNL     1       5.514   2.509  -6.841  1.00  0.00     0.162 C 
ATOM     23  O   UNL     1       5.191   3.239  -5.651  1.00  0.00    -0.379 OA
ENDBRANCH  17  19
ENDBRANCH   5  13
ENDBRANCH   3   5
ENDBRANCH   2   3
ENDBRANCH   1   2
BRANCH   1  24
ATOM     24  C   UNL     1       3.131   1.260  -0.041  1.00  0.00     0.275 C 
BRANCH  24  25
ATOM     25  O   UNL     1       4.309   1.234   0.774  1.00  0.00    -0.458 OA
BRANCH  25  26
ATOM     26  C   UNL     1       4.861   0.008   0.908  1.00  0.00     0.338 C 
ATOM     27  O   UNL     1       4.368  -1.063   0.580  1.00  0.00    -0.246 OA
BRANCH  26  28
ATOM     28  C   UNL     1       6.273   0.159   1.284  1.00  0.00     0.060 A 
ATOM     29  C   UNL     1       7.196  -0.651   0.611  1.00  0.00     0.016 A 
ATOM     30  C   UNL     1       6.692   1.069   2.259  1.00  0.00     0.016 A 
ATOM     31  C   UNL     1       8.543  -0.570   0.916  1.00  0.00     0.010 A 
ATOM     32  C   UNL     1       8.044   1.127   2.590  1.00  0.00     0.010 A 
ATOM     33  C   UNL     1       8.962   0.285   1.939  1.00  0.00    -0.014 A 
BRANCH  33  34
ATOM     34  C   UNL     1      10.329   0.120   2.462  1.00  0.00     0.031 A 
ATOM     35  C   UNL     1      10.519  -0.772   3.654  1.00  0.00     0.074 A 
ATOM     36  C   UNL     1      11.371   0.685   1.831  1.00  0.00     0.049 A 
ATOM     37  N   UNL     1      11.616  -1.077   4.291  1.00  0.00    -0.248 NA
ATOM     38  C   UNL     1       9.306  -1.414   4.194  1.00  0.00     0.031 C 
ATOM     39  C   UNL     1      11.286   1.498   0.617  1.00  0.00     0.029 A 
ATOM     40  N   UNL     1      12.707   0.648   2.122  1.00  0.00    -0.354 N 
ATOM     41  C   UNL     1      11.227  -1.936   5.312  1.00  0.00     0.074 A 
ATOM     42  C   UNL     1       9.793  -2.088   5.224  1.00  0.00     0.031 C 
ATOM     43  C   UNL     1      12.524   1.888   0.268  1.00  0.00     0.029 A 
ATOM     44  C   UNL     1      13.477   1.385   1.255  1.00  0.00     0.049 A 
ATOM     45  H   UNL     1      13.081   0.143   2.879  1.00  0.00     0.167 HD
ATOM     46  C   UNL     1      12.003  -2.543   6.239  1.00  0.00     0.031 A 
ATOM     47  C   UNL     1      14.799   1.639   1.280  1.00  0.00     0.031 A 
ATOM     48  C   UNL     1      13.426  -2.357   6.322  1.00  0.00     0.049 A 
ATOM     49  C   UNL     1      15.627   1.025   2.378  1.00  0.00     0.074 A 
ATOM     50  C   UNL     1      14.315  -2.903   7.229  1.00  0.00     0.029 A 
ATOM     51  N   UNL     1      14.166  -1.554   5.466  1.00  0.00    -0.354 N 
ATOM     52  N   UNL     1      15.250   0.221   3.346  1.00  0.00    -0.248 NA
ATOM     53  C   UNL     1      17.059   1.347   2.383  1.00  0.00     0.031 C 
ATOM     54  C   UNL     1      15.584  -2.381   6.958  1.00  0.00     0.029 A 
ATOM     55  C   UNL     1      15.498  -1.567   5.839  1.00  0.00     0.049 A 
ATOM     56  H   UNL     1      13.798  -1.049   4.705  1.00  0.00     0.167 HD
ATOM     57  C   UNL     1      16.404  -0.079   4.062  1.00  0.00     0.074 A 
ATOM     58  C   UNL     1      17.493   0.613   3.399  1.00  0.00     0.031 C 
ATOM     59  C   UNL     1      16.556  -0.856   5.165  1.00  0.00     0.031 A 
BRANCH  46  60
ATOM     60  C   UNL     1      11.314  -3.406   7.261  1.00  0.00    -0.014 A 
ATOM     61  C   UNL     1      10.740  -4.643   6.913  1.00  0.00     0.010 A 
ATOM     62  C   UNL     1      11.247  -2.974   8.598  1.00  0.00     0.010 A 
ATOM     63  C   UNL     1      10.080  -5.413   7.876  1.00  0.00     0.020 A 
ATOM     64  C   UNL     1      10.614  -3.754   9.569  1.00  0.00     0.020 A 
ATOM     65  C   UNL     1      10.021  -4.962   9.198  1.00  0.00     0.054 A 
BRANCH  65  66
ATOM     66  S   UNL     1       9.178  -5.991  10.431  1.00  0.00     0.124 S 
ATOM     67  O   UNL     1       7.777  -5.835  10.047  1.00  0.00    -0.237 OA
ATOM     68  O   UNL     1       9.752  -7.312  10.190  1.00  0.00    -0.237 OA
ATOM     69  O   UNL     1       9.546  -5.378  11.705  1.00  0.00    -0.744 OA
ENDBRANCH  65  66
ENDBRANCH  46  60
BRANCH  47  70
ATOM     70  C   UNL     1      15.407   2.535   0.258  1.00  0.00    -0.014 A 
ATOM     71  C   UNL     1      16.315   2.038  -0.692  1.00  0.00     0.010 A 
ATOM     72  C   UNL     1      15.075   3.903   0.233  1.00  0.00     0.010 A 
ATOM     73  C   UNL     1      16.895   2.894  -1.634  1.00  0.00     0.020 A 
ATOM     74  C   UNL     1      15.629   4.756  -0.725  1.00  0.00     0.020 A 
ATOM     75  C   UNL     1      16.546   4.248  -1.645  1.00  0.00     0.054 A 
BRANCH  75  76
ATOM     76  S   UNL     1      17.282   5.332  -2.900  1.00  0.00     0.124 S 
ATOM     77  O   UNL     1      18.659   5.449  -2.430  1.00  0.00    -0.237 OA
ATOM     78  O   UNL     1      17.096   4.564  -4.128  1.00  0.00    -0.237 OA
ATOM     79  O   UNL     1      16.484   6.553  -2.808  1.00  0.00    -0.744 OA
ENDBRANCH  75  76
ENDBRANCH  47  70
BRANCH  59  80
ATOM     80  C   UNL     1      17.955  -1.018   5.698  1.00  0.00    -0.014 A 
ATOM     81  C   UNL     1      18.627   0.046   6.325  1.00  0.00     0.010 A 
ATOM     82  C   UNL     1      18.592  -2.269   5.596  1.00  0.00     0.010 A 
ATOM     83  C   UNL     1      19.932  -0.125   6.794  1.00  0.00     0.020 A 
ATOM     84  C   UNL     1      19.883  -2.452   6.096  1.00  0.00     0.020 A 
ATOM     85  C   UNL     1      20.552  -1.372   6.672  1.00  0.00     0.054 A 
BRANCH  85  86
ATOM     86  S   UNL     1      22.241  -1.572   7.302  1.00  0.00     0.124 S 
ATOM     87  O   UNL     1      23.024  -0.851   6.303  1.00  0.00    -0.237 OA
ATOM     88  O   UNL     1      22.168  -0.943   8.619  1.00  0.00    -0.237 OA
ATOM     89  O   UNL     1      22.435  -3.020   7.320  1.00  0.00    -0.744 OA
ENDBRANCH  85  86
ENDBRANCH  59  80
ENDBRANCH  33  34
ENDBRANCH  26  28
ENDBRANCH  25  26
ENDBRANCH  24  25
ENDBRANCH   1  24
TORSDOF 19
