REMARK SMILES O=C(OCCOC(=O)c1ccc(-c2c3nc(c(-c4ccc(S(=O)(=O)[O-])cc4)c4ccc([nH]4)c(-c4ccc(S(=O)(=O)[O-])cc4)c4nc(c(-c5ccc(S(=O)(=O)[O-])cc5)c5ccc2[nH]5)C=C4)C=C3)cc1)c1ccc(/C=C/c2ccc3cccc(O)c3n2)cc1
REMARK SMILES IDX 4 1 3 2 2 3 1 4 69 5 70 6 87 7 71 8 86 9 72 10 73 11 74 12
REMARK SMILES IDX 75 13 76 14 85 15 77 16 84 17 78 18 82 19 79 20 81 21 80 22
REMARK SMILES IDX 83 23 5 25 6 26 7 27 8 28 9 29 10 30 68 31 11 32 67 33 12 34
REMARK SMILES IDX 13 35 14 36 61 37 15 38 66 39 60 40 62 41 16 42 65 43 59 44
REMARK SMILES IDX 58 45 17 47 47 48 28 49 46 50 29 51 32 52 45 53 63 54 30 55
REMARK SMILES IDX 31 56 44 58 64 59 33 60 18 61 19 62 27 63 20 64 26 65 21 66
REMARK SMILES IDX 22 67 23 68 24 69 25 70 48 71 49 72 57 73 50 74 56 75 51 76
REMARK SMILES IDX 52 77 53 78 54 79 55 80 34 81 35 82 43 83 36 84 42 85 37 86
REMARK SMILES IDX 38 87 39 88 40 89 41 90
REMARK H PARENT 83 24 62 46 32 57
REMARK Flexibility Score: inf
ROOT
ATOM      1  C   UNL     1       4.420  -1.401  -0.060  1.00  0.00     0.275 C 
ENDROOT
BRANCH   1   2
ATOM      2  O   UNL     1       3.364  -0.753   0.665  1.00  0.00    -0.458 OA
BRANCH   2   3
ATOM      3  C   UNL     1       3.246   0.546   1.022  1.00  0.00     0.338 C 
ATOM      4  O   UNL     1       2.477   0.818   1.944  1.00  0.00    -0.246 OA
BRANCH   3   5
ATOM      5  C   UNL     1       3.877   1.689   0.275  1.00  0.00     0.060 A 
ATOM      6  C   UNL     1       4.901   1.626  -0.676  1.00  0.00     0.016 A 
ATOM      7  C   UNL     1       3.327   2.953   0.530  1.00  0.00     0.016 A 
ATOM      8  C   UNL     1       5.248   2.735  -1.462  1.00  0.00     0.009 A 
ATOM      9  C   UNL     1       3.712   4.068  -0.214  1.00  0.00     0.009 A 
ATOM     10  C   UNL     1       4.607   3.952  -1.278  1.00  0.00    -0.026 A 
BRANCH  10  11
ATOM     11  C   UNL     1       4.896   5.150  -2.061  1.00  0.00     0.010 C 
ATOM     12  C   UNL     1       5.661   5.291  -3.162  1.00  0.00     0.029 C 
BRANCH  12  13
ATOM     13  C   UNL     1       6.197   6.661  -3.296  1.00  0.00     0.064 A 
ATOM     14  C   UNL     1       7.259   6.873  -2.420  1.00  0.00     0.029 A 
ATOM     15  N   UNL     1       5.314   7.625  -3.650  1.00  0.00    -0.245 NA
ATOM     16  C   UNL     1       7.194   7.991  -1.607  1.00  0.00     0.013 A 
ATOM     17  C   UNL     1       5.329   8.768  -2.922  1.00  0.00     0.113 A 
ATOM     18  C   UNL     1       6.181   8.930  -1.810  1.00  0.00     0.004 A 
ATOM     19  C   UNL     1       4.456   9.818  -3.204  1.00  0.00     0.141 A 
ATOM     20  C   UNL     1       6.005   9.999  -0.921  1.00  0.00     0.010 A 
ATOM     21  C   UNL     1       4.337  10.932  -2.377  1.00  0.00     0.048 A 
ATOM     22  C   UNL     1       5.078  10.996  -1.203  1.00  0.00     0.005 A 
BRANCH  19  23
ATOM     23  O   UNL     1       3.671   9.778  -4.328  1.00  0.00    -0.506 OA
ATOM     24  H   UNL     1       3.085  10.485  -4.516  1.00  0.00     0.293 HD
ENDBRANCH  19  23
ENDBRANCH  12  13
ENDBRANCH  10  11
ENDBRANCH   3   5
ENDBRANCH   2   3
ENDBRANCH   1   2
BRANCH   1  25
ATOM     25  C   UNL     1       4.060  -1.644  -1.531  1.00  0.00     0.275 C 
BRANCH  25  26
ATOM     26  O   UNL     1       3.624  -0.447  -2.204  1.00  0.00    -0.458 OA
BRANCH  26  27
ATOM     27  C   UNL     1       2.278  -0.273  -2.287  1.00  0.00     0.338 C 
ATOM     28  O   UNL     1       1.432  -1.095  -1.967  1.00  0.00    -0.246 OA
BRANCH  27  29
ATOM     29  C   UNL     1       1.941   1.119  -2.693  1.00  0.00     0.060 A 
ATOM     30  C   UNL     1       0.795   1.701  -2.137  1.00  0.00     0.016 A 
ATOM     31  C   UNL     1       2.723   1.865  -3.579  1.00  0.00     0.016 A 
ATOM     32  C   UNL     1       0.435   3.017  -2.456  1.00  0.00     0.010 A 
ATOM     33  C   UNL     1       2.373   3.195  -3.876  1.00  0.00     0.010 A 
ATOM     34  C   UNL     1       1.223   3.790  -3.320  1.00  0.00    -0.014 A 
BRANCH  34  35
ATOM     35  C   UNL     1       0.834   5.190  -3.682  1.00  0.00     0.031 A 
ATOM     36  C   UNL     1       0.381   5.500  -5.085  1.00  0.00     0.074 A 
ATOM     37  C   UNL     1       0.832   6.188  -2.770  1.00  0.00     0.049 A 
ATOM     38  N   UNL     1       0.014   6.648  -5.597  1.00  0.00    -0.248 NA
ATOM     39  C   UNL     1       0.276   4.367  -6.018  1.00  0.00     0.031 C 
ATOM     40  C   UNL     1       1.072   6.018  -1.341  1.00  0.00     0.029 A 
ATOM     41  N   UNL     1       0.615   7.543  -2.899  1.00  0.00    -0.354 N 
ATOM     42  C   UNL     1      -0.412   6.368  -6.889  1.00  0.00     0.074 A 
ATOM     43  C   UNL     1      -0.187   4.957  -7.112  1.00  0.00     0.031 C 
ATOM     44  C   UNL     1       1.044   7.216  -0.735  1.00  0.00     0.029 A 
ATOM     45  C   UNL     1       0.813   8.256  -1.732  1.00  0.00     0.049 A 
ATOM     46  H   UNL     1       0.344   7.965  -3.746  1.00  0.00     0.167 HD
ATOM     47  C   UNL     1      -0.987   7.199  -7.791  1.00  0.00     0.031 A 
ATOM     48  C   UNL     1       0.832   9.588  -1.496  1.00  0.00     0.031 A 
ATOM     49  C   UNL     1      -1.215   8.603  -7.579  1.00  0.00     0.049 A 
ATOM     50  C   UNL     1       0.512  10.520  -2.650  1.00  0.00     0.074 A 
ATOM     51  C   UNL     1      -1.837   9.507  -8.423  1.00  0.00     0.029 A 
ATOM     52  N   UNL     1      -0.814   9.312  -6.460  1.00  0.00    -0.354 N 
ATOM     53  N   UNL     1       0.005  10.228  -3.826  1.00  0.00    -0.248 NA
ATOM     54  C   UNL     1       0.742  11.960  -2.449  1.00  0.00     0.031 C 
ATOM     55  C   UNL     1      -1.749  10.777  -7.845  1.00  0.00     0.029 A 
ATOM     56  C   UNL     1      -1.121  10.653  -6.616  1.00  0.00     0.049 A 
ATOM     57  H   UNL     1      -0.375   8.921  -5.670  1.00  0.00     0.167 HD
ATOM     58  C   UNL     1      -0.226  11.449  -4.456  1.00  0.00     0.074 A 
ATOM     59  C   UNL     1       0.208  12.482  -3.545  1.00  0.00     0.031 C 
ATOM     60  C   UNL     1      -0.771  11.686  -5.675  1.00  0.00     0.031 A 
BRANCH  47  61
ATOM     61  C   UNL     1      -1.429   6.608  -9.101  1.00  0.00    -0.014 A 
ATOM     62  C   UNL     1      -2.585   5.810  -9.173  1.00  0.00     0.010 A 
ATOM     63  C   UNL     1      -0.735   6.922 -10.282  1.00  0.00     0.010 A 
ATOM     64  C   UNL     1      -3.027   5.319 -10.403  1.00  0.00     0.020 A 
ATOM     65  C   UNL     1      -1.186   6.449 -11.517  1.00  0.00     0.020 A 
ATOM     66  C   UNL     1      -2.325   5.642 -11.568  1.00  0.00     0.054 A 
BRANCH  66  67
ATOM     67  S   UNL     1      -2.949   5.028 -13.156  1.00  0.00     0.124 S 
ATOM     68  O   UNL     1      -2.637   3.603 -13.071  1.00  0.00    -0.237 OA
ATOM     69  O   UNL     1      -4.369   5.364 -13.095  1.00  0.00    -0.237 OA
ATOM     70  O   UNL     1      -2.177   5.774 -14.146  1.00  0.00    -0.744 OA
ENDBRANCH  66  67
ENDBRANCH  47  61
BRANCH  48  71
ATOM     71  C   UNL     1       1.230  10.145  -0.153  1.00  0.00    -0.014 A 
ATOM     72  C   UNL     1       0.491  11.162   0.482  1.00  0.00     0.010 A 
ATOM     73  C   UNL     1       2.444   9.752   0.446  1.00  0.00     0.010 A 
ATOM     74  C   UNL     1       1.008  11.845   1.594  1.00  0.00     0.020 A 
ATOM     75  C   UNL     1       2.937  10.385   1.591  1.00  0.00     0.020 A 
ATOM     76  C   UNL     1       2.236  11.458   2.134  1.00  0.00     0.054 A 
BRANCH  76  77
ATOM     77  S   UNL     1       2.998  12.450   3.450  1.00  0.00     0.124 S 
ATOM     78  O   UNL     1       2.707  13.818   3.029  1.00  0.00    -0.237 OA
ATOM     79  O   UNL     1       2.288  11.985   4.636  1.00  0.00    -0.237 OA
ATOM     80  O   UNL     1       4.410  12.075   3.376  1.00  0.00    -0.744 OA
ENDBRANCH  76  77
ENDBRANCH  48  71
BRANCH  60  81
ATOM     81  C   UNL     1      -1.079  13.113  -6.051  1.00  0.00    -0.014 A 
ATOM     82  C   UNL     1      -0.071  14.028  -6.397  1.00  0.00     0.010 A 
ATOM     83  C   UNL     1      -2.425  13.524  -6.122  1.00  0.00     0.010 A 
ATOM     84  C   UNL     1      -0.401  15.332  -6.783  1.00  0.00     0.020 A 
ATOM     85  C   UNL     1      -2.761  14.816  -6.536  1.00  0.00     0.020 A 
ATOM     86  C   UNL     1      -1.744  15.717  -6.852  1.00  0.00     0.054 A 
BRANCH  86  87
ATOM     87  S   UNL     1      -2.151  17.396  -7.409  1.00  0.00     0.124 S 
ATOM     88  O   UNL     1      -1.795  18.200  -6.244  1.00  0.00    -0.237 OA
ATOM     89  O   UNL     1      -1.290  17.567  -8.577  1.00  0.00    -0.237 OA
ATOM     90  O   UNL     1      -3.581  17.328  -7.704  1.00  0.00    -0.744 OA
ENDBRANCH  86  87
ENDBRANCH  60  81
ENDBRANCH  34  35
ENDBRANCH  27  29
ENDBRANCH  26  27
ENDBRANCH  25  26
ENDBRANCH   1  25
TORSDOF 17
