REMARK SMILES COc1cc(OC)cc(-c2ccc([C@@H](C)C(=O)OCCOC(=O)c3ccc(-c4c5nc(c(-c6ccc(S(=O)(=O)[O-])cc6)c6ccc([nH]6)c(-c6ccc(S(=O)(=O)[O-])cc6)c6nc(c(-c7ccc(S(=O)(=O)[O-])cc7)c7ccc4[nH]7)C=C6)C=C5)cc3)cc2F)c1
REMARK SMILES IDX 19 1 18 2 16 3 17 4 14 5 15 6 13 7 10 8 11 9 85 10 12 11
REMARK SMILES IDX 84 12 86 13 9 14 3 15 4 16 87 17 5 18 8 19 2 20 1 21 6 22
REMARK SMILES IDX 7 23 20 24 21 25 22 26 23 27 24 28 25 29 83 30 26 31 82 32
REMARK SMILES IDX 27 33 28 34 29 35 76 36 30 37 81 38 75 39 77 40 31 41 80 42
REMARK SMILES IDX 74 43 73 44 32 46 62 47 43 48 61 49 44 50 47 51 60 52 78 53
REMARK SMILES IDX 45 54 46 55 59 57 79 58 48 59 33 60 34 61 42 62 35 63 41 64
REMARK SMILES IDX 36 65 37 66 38 67 39 68 40 69 63 70 64 71 72 72 65 73 71 74
REMARK SMILES IDX 66 75 67 76 68 77 69 78 70 79 49 80 50 81 58 82 51 83 57 84
REMARK SMILES IDX 52 85 53 86 54 87 55 88 56 89
REMARK H PARENT 77 45 47 56
REMARK Flexibility Score: inf
ROOT
ATOM      1  C   UNL     1       8.593  -5.407  -2.979  1.00  0.00     0.274 C 
ENDROOT
BRANCH   1   2
ATOM      2  O   UNL     1       7.964  -5.688  -1.714  1.00  0.00    -0.462 OA
BRANCH   2   3
ATOM      3  C   UNL     1       8.772  -5.716  -0.622  1.00  0.00     0.313 C 
ATOM      4  O   UNL     1       9.994  -5.614  -0.667  1.00  0.00    -0.252 OA
BRANCH   3   5
ATOM      5  C   UNL     1       8.027  -5.955   0.686  1.00  0.00     0.126 C 
ATOM      6  C   UNL     1       8.079  -7.440   1.046  1.00  0.00     0.025 C 
BRANCH   5   7
ATOM      7  C   UNL     1       6.617  -5.388   0.762  1.00  0.00    -0.031 A 
ATOM      8  C   UNL     1       3.982  -4.333   0.990  1.00  0.00     0.018 A 
ATOM      9  C   UNL     1       4.263  -5.413   0.137  1.00  0.00     0.012 A 
ATOM     10  C   UNL     1       5.051  -3.775   1.698  1.00  0.00     0.131 A 
ATOM     11  C   UNL     1       5.556  -5.935   0.027  1.00  0.00     0.005 A 
ATOM     12  C   UNL     1       6.343  -4.293   1.597  1.00  0.00     0.044 A 
ATOM     13  F   UNL     1       4.844  -2.749   2.537  1.00  0.00    -0.206 F 
BRANCH   8  14
ATOM     14  C   UNL     1       2.597  -3.879   1.187  1.00  0.00    -0.008 A 
ATOM     15  C   UNL     1       0.872  -2.164   1.134  1.00  0.00     0.123 A 
ATOM     16  C   UNL     1      -0.054  -3.091   1.623  1.00  0.00     0.092 A 
ATOM     17  C   UNL     1       2.197  -2.556   0.930  1.00  0.00     0.055 A 
ATOM     18  C   UNL     1       0.320  -4.406   1.893  1.00  0.00     0.123 A 
ATOM     19  C   UNL     1       1.638  -4.794   1.665  1.00  0.00     0.055 A 
BRANCH  15  20
ATOM     20  O   UNL     1       0.358  -0.915   0.919  1.00  0.00    -0.497 OA
ATOM     21  C   UNL     1       1.147  -0.022   0.142  1.00  0.00     0.278 C 
ENDBRANCH  15  20
BRANCH  18  22
ATOM     22  O   UNL     1      -0.678  -5.215   2.363  1.00  0.00    -0.497 OA
ATOM     23  C   UNL     1      -0.285  -6.501   2.828  1.00  0.00     0.278 C 
ENDBRANCH  18  22
ENDBRANCH   8  14
ENDBRANCH   5   7
ENDBRANCH   3   5
ENDBRANCH   2   3
ENDBRANCH   1   2
BRANCH   1  24
ATOM     24  C   UNL     1       8.398  -3.945  -3.389  1.00  0.00     0.275 C 
BRANCH  24  25
ATOM     25  O   UNL     1       9.159  -3.057  -2.550  1.00  0.00    -0.458 OA
BRANCH  25  26
ATOM     26  C   UNL     1       8.474  -2.546  -1.501  1.00  0.00     0.338 C 
ATOM     27  O   UNL     1       7.297  -2.720  -1.236  1.00  0.00    -0.246 OA
BRANCH  26  28
ATOM     28  C   UNL     1       9.386  -1.814  -0.609  1.00  0.00     0.060 A 
ATOM     29  C   UNL     1       9.537  -2.285   0.697  1.00  0.00     0.016 A 
ATOM     30  C   UNL     1       9.986  -0.619  -1.006  1.00  0.00     0.016 A 
ATOM     31  C   UNL     1      10.249  -1.541   1.631  1.00  0.00     0.010 A 
ATOM     32  C   UNL     1      10.712   0.125  -0.069  1.00  0.00     0.010 A 
ATOM     33  C   UNL     1      10.819  -0.317   1.262  1.00  0.00    -0.014 A 
BRANCH  33  34
ATOM     34  C   UNL     1      11.435   0.536   2.306  1.00  0.00     0.031 A 
ATOM     35  C   UNL     1      10.688   1.738   2.816  1.00  0.00     0.074 A 
ATOM     36  C   UNL     1      12.628   0.205   2.834  1.00  0.00     0.049 A 
ATOM     37  N   UNL     1      11.054   2.619   3.711  1.00  0.00    -0.248 NA
ATOM     38  C   UNL     1       9.355   1.979   2.242  1.00  0.00     0.031 C 
ATOM     39  C   UNL     1      13.426  -0.962   2.456  1.00  0.00     0.029 A 
ATOM     40  N   UNL     1      13.370   0.818   3.811  1.00  0.00    -0.354 N 
ATOM     41  C   UNL     1      10.007   3.530   3.794  1.00  0.00     0.074 A 
ATOM     42  C   UNL     1       9.000   3.104   2.846  1.00  0.00     0.031 C 
ATOM     43  C   UNL     1      14.543  -0.986   3.202  1.00  0.00     0.029 A 
ATOM     44  C   UNL     1      14.555   0.178   4.084  1.00  0.00     0.049 A 
ATOM     45  H   UNL     1      13.081   1.637   4.274  1.00  0.00     0.167 HD
ATOM     46  C   UNL     1       9.894   4.623   4.588  1.00  0.00     0.031 A 
ATOM     47  C   UNL     1      15.544   0.501   4.939  1.00  0.00     0.031 A 
ATOM     48  C   UNL     1      10.894   5.043   5.533  1.00  0.00     0.049 A 
ATOM     49  C   UNL     1      15.404   1.730   5.795  1.00  0.00     0.074 A 
ATOM     50  C   UNL     1      10.879   6.143   6.373  1.00  0.00     0.029 A 
ATOM     51  N   UNL     1      12.086   4.376   5.769  1.00  0.00    -0.354 N 
ATOM     52  N   UNL     1      14.417   2.593   5.845  1.00  0.00    -0.248 NA
ATOM     53  C   UNL     1      16.509   2.021   6.720  1.00  0.00     0.031 C 
ATOM     54  C   UNL     1      12.077   6.156   7.098  1.00  0.00     0.029 A 
ATOM     55  C   UNL     1      12.816   5.041   6.740  1.00  0.00     0.049 A 
ATOM     56  H   UNL     1      12.371   3.550   5.314  1.00  0.00     0.167 HD
ATOM     57  C   UNL     1      14.771   3.516   6.822  1.00  0.00     0.074 A 
ATOM     58  C   UNL     1      16.056   3.098   7.347  1.00  0.00     0.031 C 
ATOM     59  C   UNL     1      14.092   4.609   7.250  1.00  0.00     0.031 A 
BRANCH  46  60
ATOM     60  C   UNL     1       8.654   5.460   4.431  1.00  0.00    -0.014 A 
ATOM     61  C   UNL     1       7.412   5.024   4.927  1.00  0.00     0.010 A 
ATOM     62  C   UNL     1       8.735   6.707   3.785  1.00  0.00     0.010 A 
ATOM     63  C   UNL     1       6.265   5.801   4.742  1.00  0.00     0.020 A 
ATOM     64  C   UNL     1       7.595   7.497   3.618  1.00  0.00     0.020 A 
ATOM     65  C   UNL     1       6.363   7.029   4.080  1.00  0.00     0.054 A 
BRANCH  65  66
ATOM     66  S   UNL     1       4.863   8.024   3.850  1.00  0.00     0.124 S 
ATOM     67  O   UNL     1       4.210   7.330   2.743  1.00  0.00    -0.237 OA
ATOM     68  O   UNL     1       4.196   7.909   5.144  1.00  0.00    -0.237 OA
ATOM     69  O   UNL     1       5.376   9.355   3.534  1.00  0.00    -0.744 OA
ENDBRANCH  65  66
ENDBRANCH  46  60
BRANCH  47  70
ATOM     70  C   UNL     1      16.757  -0.354   5.025  1.00  0.00    -0.014 A 
ATOM     71  C   UNL     1      16.984  -1.167   6.148  1.00  0.00     0.010 A 
ATOM     72  C   UNL     1      17.690  -0.364   3.971  1.00  0.00     0.010 A 
ATOM     73  C   UNL     1      18.130  -1.965   6.224  1.00  0.00     0.020 A 
ATOM     74  C   UNL     1      18.824  -1.178   4.033  1.00  0.00     0.020 A 
ATOM     75  C   UNL     1      19.043  -1.965   5.165  1.00  0.00     0.054 A 
BRANCH  75  76
ATOM     76  S   UNL     1      20.496  -3.048   5.254  1.00  0.00     0.124 S 
ATOM     77  O   UNL     1      21.379  -2.298   6.141  1.00  0.00    -0.237 OA
ATOM     78  O   UNL     1      19.941  -4.281   5.808  1.00  0.00    -0.237 OA
ATOM     79  O   UNL     1      20.934  -3.143   3.864  1.00  0.00    -0.744 OA
ENDBRANCH  75  76
ENDBRANCH  47  70
BRANCH  59  80
ATOM     80  C   UNL     1      14.710   5.404   8.368  1.00  0.00    -0.014 A 
ATOM     81  C   UNL     1      15.822   6.235   8.146  1.00  0.00     0.010 A 
ATOM     82  C   UNL     1      14.153   5.329   9.658  1.00  0.00     0.010 A 
ATOM     83  C   UNL     1      16.394   6.944   9.206  1.00  0.00     0.020 A 
ATOM     84  C   UNL     1      14.709   6.054  10.714  1.00  0.00     0.020 A 
ATOM     85  C   UNL     1      15.839   6.842  10.486  1.00  0.00     0.054 A 
BRANCH  85  86
ATOM     86  S   UNL     1      16.587   7.779  11.847  1.00  0.00     0.124 S 
ATOM     87  O   UNL     1      17.736   6.947  12.192  1.00  0.00    -0.237 OA
ATOM     88  O   UNL     1      16.905   9.062  11.223  1.00  0.00    -0.237 OA
ATOM     89  O   UNL     1      15.528   7.830  12.852  1.00  0.00    -0.744 OA
ENDBRANCH  85  86
ENDBRANCH  59  80
ENDBRANCH  33  34
ENDBRANCH  26  28
ENDBRANCH  25  26
ENDBRANCH  24  25
ENDBRANCH   1  24
TORSDOF 18
