REMARK SMILES CC(C)(C)OC(=O)N1C[C@@H](C(=O)OCCOC(=O)c2ccc(-c3c4nc(c(-c5ccc(S(=O)(=O)[O-])cc5)c5ccc([nH]5)c(-c5ccc(S(=O)(=O)[O-])cc5)c5nc(c(-c6ccc(S(=O)(=O)[O-])cc6)c6ccc3[nH]6)C=C5)C=C4)cc2)[C@@]2(C1)C(=O)Nc1ccccc12
REMARK SMILES IDX 14 1 13 2 11 3 12 4 10 5 8 6 9 7 80 8 79 9 81 10 89 11 82 12
REMARK SMILES IDX 83 13 84 14 88 15 85 17 87 18 86 19 6 20 7 21 5 22 2 23 1 24
REMARK SMILES IDX 3 25 4 26 15 27 16 28 17 29 18 30 19 31 20 32 78 33 21 34
REMARK SMILES IDX 77 35 22 36 23 37 24 38 71 39 25 40 76 41 70 42 72 43 26 44
REMARK SMILES IDX 75 45 69 46 68 47 27 49 57 50 38 51 56 52 39 53 42 54 55 55
REMARK SMILES IDX 73 56 40 57 41 58 54 60 74 61 43 62 28 63 29 64 37 65 30 66
REMARK SMILES IDX 36 67 31 68 32 69 33 70 34 71 35 72 58 73 59 74 67 75 60 76
REMARK SMILES IDX 66 77 61 78 62 79 63 80 64 81 65 82 44 83 45 84 53 85 46 86
REMARK SMILES IDX 52 87 47 88 48 89 49 90 50 91 51 92
REMARK H PARENT 83 16 72 48 42 59
REMARK Flexibility Score: inf
ROOT
ATOM      1  C   UNL     1       0.861   9.166   0.506  1.00  0.00     0.274 C 
ENDROOT
BRANCH   1   2
ATOM      2  O   UNL     1       1.371   8.046  -0.254  1.00  0.00    -0.462 OA
BRANCH   2   3
ATOM      3  C   UNL     1       0.608   7.682  -1.304  1.00  0.00     0.312 C 
ATOM      4  O   UNL     1      -0.499   8.168  -1.531  1.00  0.00    -0.252 OA
BRANCH   3   5
ATOM      5  C   UNL     1       1.182   6.633  -2.226  1.00  0.00     0.140 C 
ATOM      6  N   UNL     1       0.891   4.382  -1.540  1.00  0.00    -0.306 N 
ATOM      7  C   UNL     1       0.195   5.475  -2.183  1.00  0.00     0.140 C 
ATOM      8  C   UNL     1       2.260   4.749  -1.166  1.00  0.00     0.146 C 
ATOM      9  C   UNL     1       2.560   5.949  -2.069  1.00  0.00     0.109 C 
ATOM     10  C   UNL     1       2.914   5.417  -3.507  1.00  0.00     0.237 C 
ATOM     11  C   UNL     1       3.748   6.856  -1.835  1.00  0.00    -0.006 A 
ATOM     12  O   UNL     1       2.369   4.520  -4.129  1.00  0.00    -0.274 OA
ATOM     13  N   UNL     1       3.936   6.195  -4.009  1.00  0.00    -0.325 N 
ATOM     14  C   UNL     1       4.437   7.039  -3.041  1.00  0.00     0.045 A 
ATOM     15  C   UNL     1       4.193   7.534  -0.713  1.00  0.00     0.007 A 
ATOM     16  H   UNL     1       4.265   6.152  -4.936  1.00  0.00     0.169 HD
ATOM     17  C   UNL     1       5.484   7.922  -3.209  1.00  0.00     0.026 A 
ATOM     18  C   UNL     1       5.250   8.450  -0.854  1.00  0.00     0.000 A 
ATOM     19  C   UNL     1       5.877   8.657  -2.095  1.00  0.00     0.002 A 
BRANCH   6  20
ATOM     20  C   UNL     1       0.351   3.127  -1.679  1.00  0.00     0.410 C 
ATOM     21  O   UNL     1      -0.663   2.932  -2.343  1.00  0.00    -0.224 OA
BRANCH  20  22
ATOM     22  O   UNL     1       1.012   2.163  -0.992  1.00  0.00    -0.444 OA
BRANCH  22  23
ATOM     23  C   UNL     1       0.533   0.791  -1.095  1.00  0.00     0.106 C 
ATOM     24  C   UNL     1       1.222   0.036   0.050  1.00  0.00     0.056 C 
ATOM     25  C   UNL     1       0.980   0.197  -2.435  1.00  0.00     0.056 C 
ATOM     26  C   UNL     1      -0.987   0.637  -0.894  1.00  0.00     0.056 C 
ENDBRANCH  22  23
ENDBRANCH  20  22
ENDBRANCH   6  20
ENDBRANCH   3   5
ENDBRANCH   2   3
ENDBRANCH   1   2
BRANCH   1  27
ATOM     27  C   UNL     1       1.383  10.508  -0.021  1.00  0.00     0.275 C 
BRANCH  27  28
ATOM     28  O   UNL     1       0.906  10.792  -1.351  1.00  0.00    -0.458 OA
BRANCH  28  29
ATOM     29  C   UNL     1       1.776  10.461  -2.330  1.00  0.00     0.338 C 
ATOM     30  O   UNL     1       2.888   9.988  -2.189  1.00  0.00    -0.246 OA
BRANCH  29  31
ATOM     31  C   UNL     1       1.241  10.704  -3.669  1.00  0.00     0.060 A 
ATOM     32  C   UNL     1       0.576   9.674  -4.335  1.00  0.00     0.016 A 
ATOM     33  C   UNL     1       1.619  11.862  -4.343  1.00  0.00     0.016 A 
ATOM     34  C   UNL     1       0.336   9.770  -5.698  1.00  0.00     0.010 A 
ATOM     35  C   UNL     1       1.298  11.996  -5.692  1.00  0.00     0.010 A 
ATOM     36  C   UNL     1       0.665  10.947  -6.379  1.00  0.00    -0.014 A 
BRANCH  36  37
ATOM     37  C   UNL     1       0.263  11.122  -7.790  1.00  0.00     0.031 A 
ATOM     38  C   UNL     1       1.296  11.279  -8.865  1.00  0.00     0.074 A 
ATOM     39  C   UNL     1      -1.053  11.200  -8.068  1.00  0.00     0.049 A 
ATOM     40  N   UNL     1       1.132  11.626 -10.114  1.00  0.00    -0.248 NA
ATOM     41  C   UNL     1       2.695  11.022  -8.487  1.00  0.00     0.031 C 
ATOM     42  C   UNL     1      -2.134  11.025  -7.092  1.00  0.00     0.029 A 
ATOM     43  N   UNL     1      -1.706  11.464  -9.241  1.00  0.00    -0.354 N 
ATOM     44  C   UNL     1       2.407  11.664 -10.666  1.00  0.00     0.074 A 
ATOM     45  C   UNL     1       3.335  11.312  -9.613  1.00  0.00     0.031 C 
ATOM     46  C   UNL     1      -3.313  11.182  -7.708  1.00  0.00     0.029 A 
ATOM     47  C   UNL     1      -3.070  11.549  -9.095  1.00  0.00     0.049 A 
ATOM     48  H   UNL     1      -1.245  11.581 -10.104  1.00  0.00     0.167 HD
ATOM     49  C   UNL     1       2.758  11.974 -11.937  1.00  0.00     0.031 A 
ATOM     50  C   UNL     1      -4.019  11.934  -9.967  1.00  0.00     0.031 A 
ATOM     51  C   UNL     1       1.809  12.329 -12.961  1.00  0.00     0.049 A 
ATOM     52  C   UNL     1      -3.595  12.344 -11.346  1.00  0.00     0.074 A 
ATOM     53  C   UNL     1       2.048  12.644 -14.287  1.00  0.00     0.029 A 
ATOM     54  N   UNL     1       0.436  12.422 -12.770  1.00  0.00    -0.354 N 
ATOM     55  N   UNL     1      -2.388  12.371 -11.859  1.00  0.00    -0.248 NA
ATOM     56  C   UNL     1      -4.655  12.781 -12.261  1.00  0.00     0.031 C 
ATOM     57  C   UNL     1       0.828  12.985 -14.880  1.00  0.00     0.029 A 
ATOM     58  C   UNL     1      -0.180  12.821 -13.943  1.00  0.00     0.049 A 
ATOM     59  H   UNL     1      -0.030  12.232 -11.923  1.00  0.00     0.167 HD
ATOM     60  C   UNL     1      -2.543  12.812 -13.166  1.00  0.00     0.074 A 
ATOM     61  C   UNL     1      -3.964  13.022 -13.368  1.00  0.00     0.031 C 
ATOM     62  C   UNL     1      -1.598  13.025 -14.113  1.00  0.00     0.031 A 
BRANCH  49  63
ATOM     63  C   UNL     1       4.226  11.989 -12.279  1.00  0.00    -0.014 A 
ATOM     64  C   UNL     1       4.974  10.801 -12.361  1.00  0.00     0.010 A 
ATOM     65  C   UNL     1       4.859  13.213 -12.567  1.00  0.00     0.010 A 
ATOM     66  C   UNL     1       6.334  10.840 -12.685  1.00  0.00     0.020 A 
ATOM     67  C   UNL     1       6.212  13.255 -12.918  1.00  0.00     0.020 A 
ATOM     68  C   UNL     1       6.946  12.068 -12.958  1.00  0.00     0.054 A 
BRANCH  68  69
ATOM     69  S   UNL     1       8.708  12.087 -13.389  1.00  0.00     0.124 S 
ATOM     70  O   UNL     1       9.335  11.775 -12.107  1.00  0.00    -0.237 OA
ATOM     71  O   UNL     1       8.801  11.040 -14.403  1.00  0.00    -0.237 OA
ATOM     72  O   UNL     1       8.933  13.445 -13.877  1.00  0.00    -0.744 OA
ENDBRANCH  68  69
ENDBRANCH  49  63
BRANCH  50  73
ATOM     73  C   UNL     1      -5.441  11.986  -9.534  1.00  0.00    -0.014 A 
ATOM     74  C   UNL     1      -6.375  11.070 -10.044  1.00  0.00     0.010 A 
ATOM     75  C   UNL     1      -5.858  12.928  -8.573  1.00  0.00     0.010 A 
ATOM     76  C   UNL     1      -7.704  11.103  -9.611  1.00  0.00     0.020 A 
ATOM     77  C   UNL     1      -7.177  12.943  -8.115  1.00  0.00     0.020 A 
ATOM     78  C   UNL     1      -8.096  12.037  -8.647  1.00  0.00     0.054 A 
BRANCH  78  79
ATOM     79  S   UNL     1      -9.815  12.027  -8.067  1.00  0.00     0.124 S 
ATOM     80  O   UNL     1     -10.524  12.584  -9.214  1.00  0.00    -0.237 OA
ATOM     81  O   UNL     1     -10.050  10.609  -7.804  1.00  0.00    -0.237 OA
ATOM     82  O   UNL     1      -9.780  12.876  -6.879  1.00  0.00    -0.744 OA
ENDBRANCH  78  79
ENDBRANCH  50  73
BRANCH  62  83
ATOM     83  C   UNL     1      -2.075  13.486 -15.462  1.00  0.00    -0.014 A 
ATOM     84  C   UNL     1      -2.526  14.803 -15.661  1.00  0.00     0.010 A 
ATOM     85  C   UNL     1      -2.006  12.607 -16.558  1.00  0.00     0.010 A 
ATOM     86  C   UNL     1      -2.917  15.227 -16.933  1.00  0.00     0.020 A 
ATOM     87  C   UNL     1      -2.369  13.037 -17.836  1.00  0.00     0.020 A 
ATOM     88  C   UNL     1      -2.830  14.343 -18.013  1.00  0.00     0.054 A 
BRANCH  88  89
ATOM     89  S   UNL     1      -3.276  14.943 -19.665  1.00  0.00     0.124 S 
ATOM     90  O   UNL     1      -4.730  15.038 -19.572  1.00  0.00    -0.237 OA
ATOM     91  O   UNL     1      -2.565  16.217 -19.744  1.00  0.00    -0.237 OA
ATOM     92  O   UNL     1      -2.775  13.900 -20.559  1.00  0.00    -0.744 OA
ENDBRANCH  88  89
ENDBRANCH  62  83
ENDBRANCH  36  37
ENDBRANCH  29  31
ENDBRANCH  28  29
ENDBRANCH  27  28
ENDBRANCH   1  27
TORSDOF 17
