REMARK SMILES C[C@@H](C(=O)OCCOC(=O)c1ccc(-c2c3nc(c(-c4ccc(S(=O)(=O)[O-])cc4)c4ccc([nH]4)c(-c4ccc(S(=O)(=O)[O-])cc4)c4nc(c(-c5ccc(S(=O)(=O)[O-])cc5)c5ccc2[nH]5)C=C4)C=C3)cc1)c1ccc(-c2cccc(OC(=O)NCCCc3ccccc3)c2)c(F)c1
REMARK SMILES IDX 3 1 4 2 2 3 1 4 71 5 72 6 96 7 73 8 94 9 74 10 95 11 75 12
REMARK SMILES IDX 76 13 93 14 77 15 79 16 78 17 80 18 81 19 82 20 83 21 84 23
REMARK SMILES IDX 85 24 86 25 87 26 88 27 92 28 89 29 91 30 90 31 5 32 6 33
REMARK SMILES IDX 7 34 8 35 9 36 10 37 11 38 12 39 70 40 13 41 69 42 14 43
REMARK SMILES IDX 15 44 16 45 63 46 17 47 68 48 62 49 64 50 18 51 67 52 61 53
REMARK SMILES IDX 60 54 19 56 49 57 30 58 48 59 31 60 34 61 47 62 65 63 32 64
REMARK SMILES IDX 33 65 46 67 66 68 35 69 20 70 21 71 29 72 22 73 28 74 23 75
REMARK SMILES IDX 24 76 25 77 26 78 27 79 50 80 51 81 59 82 52 83 58 84 53 85
REMARK SMILES IDX 54 86 55 87 56 88 57 89 36 90 37 91 45 92 38 93 44 94 39 95
REMARK SMILES IDX 40 96 41 97 42 98 43 99
REMARK H PARENT 83 22 64 55 34 66
REMARK Flexibility Score: inf
ROOT
ATOM      1  C   UNL     1       1.063  -0.129   2.373  1.00  0.00     0.313 C 
ATOM      2  O   UNL     1       0.564  -0.416   3.455  1.00  0.00    -0.252 OA
ENDROOT
BRANCH   1   3
ATOM      3  C   UNL     1       0.625  -0.758   1.039  1.00  0.00     0.126 C 
ATOM      4  C   UNL     1       1.286  -0.113  -0.182  1.00  0.00     0.025 C 
BRANCH   3   5
ATOM      5  C   UNL     1      -0.897  -0.863   0.907  1.00  0.00    -0.031 A 
ATOM      6  C   UNL     1      -1.691   0.140   0.340  1.00  0.00     0.005 A 
ATOM      7  C   UNL     1      -1.563  -1.987   1.410  1.00  0.00     0.044 A 
ATOM      8  C   UNL     1      -3.102   0.049   0.351  1.00  0.00     0.012 A 
ATOM      9  C   UNL     1      -2.966  -2.073   1.405  1.00  0.00     0.131 A 
ATOM     10  C   UNL     1      -3.789  -1.036   0.938  1.00  0.00     0.018 A 
ATOM     11  F   UNL     1      -3.498  -3.210   1.879  1.00  0.00    -0.206 F 
BRANCH  10  12
ATOM     12  C   UNL     1      -5.279  -1.021   1.140  1.00  0.00    -0.012 A 
ATOM     13  C   UNL     1      -6.130  -0.245   0.327  1.00  0.00     0.009 A 
ATOM     14  C   UNL     1      -5.902  -1.727   2.205  1.00  0.00     0.056 A 
ATOM     15  C   UNL     1      -7.508  -0.154   0.573  1.00  0.00     0.004 A 
ATOM     16  C   UNL     1      -7.285  -1.656   2.437  1.00  0.00     0.133 A 
ATOM     17  C   UNL     1      -8.087  -0.860   1.625  1.00  0.00     0.047 A 
BRANCH  16  18
ATOM     18  O   UNL     1      -7.986  -2.407   3.433  1.00  0.00    -0.410 OA
BRANCH  18  19
ATOM     19  C   UNL     1      -7.410  -2.982   4.573  1.00  0.00     0.412 C 
ATOM     20  O   UNL     1      -6.241  -2.860   4.904  1.00  0.00    -0.224 OA
ATOM     21  N   UNL     1      -8.283  -3.743   5.329  1.00  0.00    -0.321 N 
ATOM     22  H   UNL     1      -7.898  -4.217   6.101  1.00  0.00     0.167 HD
BRANCH  21  23
ATOM     23  C   UNL     1      -9.705  -3.917   5.104  1.00  0.00     0.120 C 
BRANCH  23  24
ATOM     24  C   UNL     1     -10.448  -4.993   5.923  1.00  0.00     0.026 C 
BRANCH  24  25
ATOM     25  C   UNL     1     -10.070  -5.309   7.382  1.00  0.00     0.037 C 
BRANCH  25  26
ATOM     26  C   UNL     1     -10.745  -4.661   8.579  1.00  0.00    -0.048 A 
ATOM     27  C   UNL     1     -11.394  -3.423   8.566  1.00  0.00     0.004 A 
ATOM     28  C   UNL     1     -10.540  -5.280   9.831  1.00  0.00     0.004 A 
ATOM     29  C   UNL     1     -11.715  -2.776   9.772  1.00  0.00     0.000 A 
ATOM     30  C   UNL     1     -10.889  -4.652  11.028  1.00  0.00     0.000 A 
ATOM     31  C   UNL     1     -11.448  -3.381  11.000  1.00  0.00     0.000 A 
ENDBRANCH  25  26
ENDBRANCH  24  25
ENDBRANCH  23  24
ENDBRANCH  21  23
ENDBRANCH  18  19
ENDBRANCH  16  18
ENDBRANCH  10  12
ENDBRANCH   3   5
ENDBRANCH   1   3
BRANCH   1  32
ATOM     32  O   UNL     1       2.121   0.722   2.233  1.00  0.00    -0.462 OA
BRANCH  32  33
ATOM     33  C   UNL     1       2.612   1.368   3.428  1.00  0.00     0.274 C 
BRANCH  33  34
ATOM     34  C   UNL     1       2.225   2.845   3.446  1.00  0.00     0.275 C 
BRANCH  34  35
ATOM     35  O   UNL     1       0.807   2.985   3.631  1.00  0.00    -0.458 OA
BRANCH  35  36
ATOM     36  C   UNL     1       0.104   3.196   2.496  1.00  0.00     0.338 C 
ATOM     37  O   UNL     1       0.541   3.341   1.366  1.00  0.00    -0.246 OA
BRANCH  36  38
ATOM     38  C   UNL     1      -1.333   3.164   2.783  1.00  0.00     0.060 A 
ATOM     39  C   UNL     1      -1.927   1.943   3.069  1.00  0.00     0.016 A 
ATOM     40  C   UNL     1      -2.117   4.296   2.563  1.00  0.00     0.016 A 
ATOM     41  C   UNL     1      -3.309   1.827   2.990  1.00  0.00     0.010 A 
ATOM     42  C   UNL     1      -3.513   4.188   2.602  1.00  0.00     0.010 A 
ATOM     43  C   UNL     1      -4.133   2.937   2.750  1.00  0.00    -0.014 A 
BRANCH  43  44
ATOM     44  C   UNL     1      -5.617   2.780   2.657  1.00  0.00     0.031 A 
ATOM     45  C   UNL     1      -6.400   3.310   1.480  1.00  0.00     0.074 A 
ATOM     46  C   UNL     1      -6.287   2.158   3.646  1.00  0.00     0.049 A 
ATOM     47  N   UNL     1      -7.699   3.359   1.303  1.00  0.00    -0.248 NA
ATOM     48  C   UNL     1      -5.630   3.862   0.354  1.00  0.00     0.031 C 
ATOM     49  C   UNL     1      -5.665   1.523   4.805  1.00  0.00     0.029 A 
ATOM     50  N   UNL     1      -7.634   1.944   3.833  1.00  0.00    -0.354 N 
ATOM     51  C   UNL     1      -7.900   4.009   0.091  1.00  0.00     0.074 A 
ATOM     52  C   UNL     1      -6.590   4.335  -0.429  1.00  0.00     0.031 C 
ATOM     53  C   UNL     1      -6.612   0.955   5.551  1.00  0.00     0.029 A 
ATOM     54  C   UNL     1      -7.920   1.311   5.018  1.00  0.00     0.049 A 
ATOM     55  H   UNL     1      -8.321   2.217   3.183  1.00  0.00     0.167 HD
ATOM     56  C   UNL     1      -9.069   4.313  -0.525  1.00  0.00     0.031 A 
ATOM     57  C   UNL     1      -9.084   1.054   5.649  1.00  0.00     0.031 A 
ATOM     58  C   UNL     1     -10.371   3.932  -0.032  1.00  0.00     0.049 A 
ATOM     59  C   UNL     1     -10.362   1.273   4.891  1.00  0.00     0.074 A 
ATOM     60  C   UNL     1     -11.610   4.196  -0.592  1.00  0.00     0.029 A 
ATOM     61  N   UNL     1     -10.607   3.199   1.123  1.00  0.00    -0.354 N 
ATOM     62  N   UNL     1     -10.530   1.845   3.721  1.00  0.00    -0.248 NA
ATOM     63  C   UNL     1     -11.598   0.747   5.482  1.00  0.00     0.031 C 
ATOM     64  C   UNL     1     -12.595   3.672   0.252  1.00  0.00     0.029 A 
ATOM     65  C   UNL     1     -11.971   3.023   1.306  1.00  0.00     0.049 A 
ATOM     66  H   UNL     1      -9.908   2.853   1.724  1.00  0.00     0.167 HD
ATOM     67  C   UNL     1     -11.889   1.766   3.443  1.00  0.00     0.074 A 
ATOM     68  C   UNL     1     -12.487   1.020   4.533  1.00  0.00     0.031 C 
ATOM     69  C   UNL     1     -12.577   2.295   2.398  1.00  0.00     0.031 A 
BRANCH  56  70
ATOM     70  C   UNL     1      -9.005   5.159  -1.773  1.00  0.00    -0.014 A 
ATOM     71  C   UNL     1      -8.525   4.659  -2.995  1.00  0.00     0.010 A 
ATOM     72  C   UNL     1      -9.485   6.483  -1.722  1.00  0.00     0.010 A 
ATOM     73  C   UNL     1      -8.491   5.476  -4.131  1.00  0.00     0.020 A 
ATOM     74  C   UNL     1      -9.482   7.293  -2.861  1.00  0.00     0.020 A 
ATOM     75  C   UNL     1      -8.969   6.789  -4.056  1.00  0.00     0.054 A 
BRANCH  75  76
ATOM     76  S   UNL     1      -8.934   7.820  -5.549  1.00  0.00     0.124 S 
ATOM     77  O   UNL     1      -7.503   8.071  -5.709  1.00  0.00    -0.237 OA
ATOM     78  O   UNL     1      -9.534   6.947  -6.554  1.00  0.00    -0.237 OA
ATOM     79  O   UNL     1      -9.733   8.988  -5.185  1.00  0.00    -0.744 OA
ENDBRANCH  75  76
ENDBRANCH  56  70
BRANCH  57  80
ATOM     80  C   UNL     1      -8.979   0.391   6.991  1.00  0.00    -0.014 A 
ATOM     81  C   UNL     1      -9.264  -0.968   7.065  1.00  0.00     0.010 A 
ATOM     82  C   UNL     1      -8.251   0.972   8.053  1.00  0.00     0.010 A 
ATOM     83  C   UNL     1      -8.675  -1.771   8.041  1.00  0.00     0.020 A 
ATOM     84  C   UNL     1      -7.661   0.166   9.044  1.00  0.00     0.020 A 
ATOM     85  C   UNL     1      -7.836  -1.214   8.996  1.00  0.00     0.054 A 
BRANCH  85  86
ATOM     86  S   UNL     1      -6.878  -2.343  10.046  1.00  0.00     0.124 S 
ATOM     87  O   UNL     1      -7.895  -3.224  10.607  1.00  0.00    -0.237 OA
ATOM     88  O   UNL     1      -5.984  -2.973   9.077  1.00  0.00    -0.237 OA
ATOM     89  O   UNL     1      -6.234  -1.452  11.007  1.00  0.00    -0.744 OA
ENDBRANCH  85  86
ENDBRANCH  57  80
BRANCH  69  90
ATOM     90  C   UNL     1     -14.082   2.155   2.406  1.00  0.00    -0.014 A 
ATOM     91  C   UNL     1     -14.851   2.803   3.391  1.00  0.00     0.010 A 
ATOM     92  C   UNL     1     -14.747   1.446   1.387  1.00  0.00     0.010 A 
ATOM     93  C   UNL     1     -16.244   2.706   3.389  1.00  0.00     0.020 A 
ATOM     94  C   UNL     1     -16.146   1.375   1.361  1.00  0.00     0.020 A 
ATOM     95  C   UNL     1     -16.884   1.991   2.374  1.00  0.00     0.054 A 
BRANCH  95  96
ATOM     96  S   UNL     1     -18.697   1.913   2.384  1.00  0.00     0.124 S 
ATOM     97  O   UNL     1     -18.956   1.025   3.514  1.00  0.00    -0.237 OA
ATOM     98  O   UNL     1     -19.076   3.310   2.583  1.00  0.00    -0.237 OA
ATOM     99  O   UNL     1     -19.028   1.364   1.071  1.00  0.00    -0.744 OA
ENDBRANCH  95  96
ENDBRANCH  69  90
ENDBRANCH  43  44
ENDBRANCH  36  38
ENDBRANCH  35  36
ENDBRANCH  34  35
ENDBRANCH  33  34
ENDBRANCH  32  33
ENDBRANCH   1  32
TORSDOF 22
