REMARK SMILES NC(=O)COc1ccc(/C=C2\SC(=S)N(CCC(=O)OCCOC(=O)c3ccc(-c4c5nc(c(-c6ccc(S(=O)(=O)[O-])cc6)c6ccc([nH]6)c(-c6ccc(S(=O)(=O)[O-])cc6)c6nc(c(-c7ccc(S(=O)(=O)[O-])cc7)c7ccc4[nH]7)C=C6)C=C5)cc3)C2=O)cc1
REMARK SMILES IDX 20 1 18 2 19 3 17 4 16 5 15 6 10 7 11 8 12 9 86 10 13 11
REMARK SMILES IDX 87 12 14 13 9 14 6 15 7 16 89 17 8 18 88 19 5 20 4 21 2 22
REMARK SMILES IDX 1 23 3 26 21 27 22 28 23 29 24 30 25 31 26 32 27 33 85 34
REMARK SMILES IDX 28 35 84 36 29 37 30 38 31 39 78 40 32 41 83 42 77 43 79 44
REMARK SMILES IDX 33 45 82 46 76 47 75 48 34 50 64 51 45 52 63 53 46 54 49 55
REMARK SMILES IDX 62 56 80 57 47 58 48 59 61 61 81 62 50 63 35 64 36 65 44 66
REMARK SMILES IDX 37 67 43 68 38 69 39 70 40 71 41 72 42 73 65 74 66 75 74 76
REMARK SMILES IDX 67 77 73 78 68 79 69 80 70 81 71 82 72 83 51 84 52 85 60 86
REMARK SMILES IDX 53 87 59 88 54 89 55 90 56 91 57 92 58 93
REMARK H PARENT 1 24 1 25 79 49 49 60
REMARK Flexibility Score: inf
ROOT
ATOM      1  O   UNL     1      -0.387   3.112 -10.146  1.00  0.00    -0.462 OA
ENDROOT
BRANCH   1   2
ATOM      2  C   UNL     1      -0.232   4.262 -10.845  1.00  0.00     0.307 C 
ATOM      3  O   UNL     1      -0.197   4.339 -12.065  1.00  0.00    -0.252 OA
BRANCH   2   4
ATOM      4  C   UNL     1      -0.013   5.453  -9.942  1.00  0.00     0.144 C 
BRANCH   4   5
ATOM      5  C   UNL     1      -1.044   5.601  -8.819  1.00  0.00     0.139 C 
BRANCH   5   6
ATOM      6  N   UNL     1      -0.673   4.830  -7.630  1.00  0.00    -0.292 N 
ATOM      7  C   UNL     1      -0.677   1.537  -6.249  1.00  0.00     0.029 C 
ATOM      8  C   UNL     1      -0.517   2.859  -6.381  1.00  0.00     0.081 C 
ATOM      9  S   UNL     1       0.517   3.924  -5.529  1.00  0.00    -0.054 SA
ATOM     10  C   UNL     1      -1.243   3.587  -7.438  1.00  0.00     0.266 C 
ATOM     11  C   UNL     1       0.239   5.233  -6.676  1.00  0.00     0.148 C 
ATOM     12  O   UNL     1      -2.200   3.107  -8.021  1.00  0.00    -0.268 OA
ATOM     13  S   UNL     1       1.037   6.694  -6.560  1.00  0.00    -0.052 S 
BRANCH   7  14
ATOM     14  C   UNL     1      -0.033   0.732  -5.222  1.00  0.00    -0.024 A 
ATOM     15  C   UNL     1       1.166  -0.765  -3.201  1.00  0.00     0.120 A 
ATOM     16  C   UNL     1       1.632  -0.867  -4.513  1.00  0.00     0.047 A 
ATOM     17  C   UNL     1       0.115   0.101  -2.898  1.00  0.00     0.047 A 
ATOM     18  C   UNL     1       1.024  -0.127  -5.530  1.00  0.00     0.012 A 
ATOM     19  C   UNL     1      -0.487   0.842  -3.907  1.00  0.00     0.012 A 
BRANCH  15  20
ATOM     20  O   UNL     1       1.831  -1.492  -2.251  1.00  0.00    -0.484 OA
BRANCH  20  21
ATOM     21  C   UNL     1       0.966  -2.225  -1.385  1.00  0.00     0.329 C 
BRANCH  21  22
ATOM     22  C   UNL     1       0.502  -1.478  -0.132  1.00  0.00     0.255 C 
ATOM     23  N   UNL     1       1.294  -0.438   0.263  1.00  0.00    -0.367 N 
ATOM     24  H   UNL     1       1.056   0.086   1.061  1.00  0.00     0.159 HD
ATOM     25  H   UNL     1       2.103  -0.213  -0.251  1.00  0.00     0.159 HD
ATOM     26  O   UNL     1      -0.499  -1.788   0.505  1.00  0.00    -0.271 OA
ENDBRANCH  21  22
ENDBRANCH  20  21
ENDBRANCH  15  20
ENDBRANCH   7  14
ENDBRANCH   5   6
ENDBRANCH   4   5
ENDBRANCH   2   4
ENDBRANCH   1   2
BRANCH   1  27
ATOM     27  C   UNL     1      -0.665   1.917 -10.904  1.00  0.00     0.274 C 
BRANCH  27  28
ATOM     28  C   UNL     1      -2.167   1.679 -11.092  1.00  0.00     0.275 C 
BRANCH  28  29
ATOM     29  O   UNL     1      -2.722   2.617 -12.029  1.00  0.00    -0.458 OA
BRANCH  29  30
ATOM     30  C   UNL     1      -3.461   3.610 -11.486  1.00  0.00     0.338 C 
ATOM     31  O   UNL     1      -3.768   3.769 -10.320  1.00  0.00    -0.246 OA
BRANCH  30  32
ATOM     32  C   UNL     1      -3.784   4.611 -12.504  1.00  0.00     0.060 A 
ATOM     33  C   UNL     1      -3.195   5.872 -12.386  1.00  0.00     0.016 A 
ATOM     34  C   UNL     1      -4.768   4.358 -13.459  1.00  0.00     0.016 A 
ATOM     35  C   UNL     1      -3.611   6.906 -13.213  1.00  0.00     0.010 A 
ATOM     36  C   UNL     1      -5.184   5.398 -14.290  1.00  0.00     0.010 A 
ATOM     37  C   UNL     1      -4.627   6.681 -14.149  1.00  0.00    -0.014 A 
BRANCH  37  38
ATOM     38  C   UNL     1      -5.170   7.826 -14.909  1.00  0.00     0.031 A 
ATOM     39  C   UNL     1      -6.470   8.444 -14.482  1.00  0.00     0.074 A 
ATOM     40  C   UNL     1      -4.473   8.330 -15.942  1.00  0.00     0.049 A 
ATOM     41  N   UNL     1      -7.124   9.441 -15.017  1.00  0.00    -0.248 NA
ATOM     42  C   UNL     1      -7.120   7.863 -13.295  1.00  0.00     0.031 C 
ATOM     43  C   UNL     1      -3.178   7.832 -16.411  1.00  0.00     0.029 A 
ATOM     44  N   UNL     1      -4.755   9.377 -16.778  1.00  0.00    -0.354 N 
ATOM     45  C   UNL     1      -8.269   9.598 -14.246  1.00  0.00     0.074 A 
ATOM     46  C   UNL     1      -8.229   8.584 -13.214  1.00  0.00     0.031 C 
ATOM     47  C   UNL     1      -2.775   8.581 -17.451  1.00  0.00     0.029 A 
ATOM     48  C   UNL     1      -3.795   9.586 -17.738  1.00  0.00     0.049 A 
ATOM     49  H   UNL     1      -5.567   9.928 -16.699  1.00  0.00     0.167 HD
ATOM     50  C   UNL     1      -9.264  10.505 -14.388  1.00  0.00     0.031 A 
ATOM     51  C   UNL     1      -3.752  10.481 -18.742  1.00  0.00     0.031 A 
ATOM     52  C   UNL     1      -9.299  11.505 -15.421  1.00  0.00     0.049 A 
ATOM     53  C   UNL     1      -4.879  11.463 -18.892  1.00  0.00     0.074 A 
ATOM     54  C   UNL     1     -10.268  12.462 -15.665  1.00  0.00     0.029 A 
ATOM     55  N   UNL     1      -8.312  11.680 -16.381  1.00  0.00    -0.354 N 
ATOM     56  N   UNL     1      -5.963  11.590 -18.163  1.00  0.00    -0.248 NA
ATOM     57  C   UNL     1      -4.773  12.430 -19.993  1.00  0.00     0.031 C 
ATOM     58  C   UNL     1      -9.880  13.198 -16.791  1.00  0.00     0.029 A 
ATOM     59  C   UNL     1      -8.650  12.726 -17.221  1.00  0.00     0.049 A 
ATOM     60  H   UNL     1      -7.493  11.139 -16.453  1.00  0.00     0.167 HD
ATOM     61  C   UNL     1      -6.657  12.666 -18.703  1.00  0.00     0.074 A 
ATOM     62  C   UNL     1      -5.865  13.160 -19.812  1.00  0.00     0.031 C 
ATOM     63  C   UNL     1      -7.842  13.200 -18.316  1.00  0.00     0.031 A 
BRANCH  50  64
ATOM     64  C   UNL     1     -10.411  10.425 -13.419  1.00  0.00    -0.014 A 
ATOM     65  C   UNL     1     -10.272  10.860 -12.089  1.00  0.00     0.010 A 
ATOM     66  C   UNL     1     -11.650   9.916 -13.848  1.00  0.00     0.010 A 
ATOM     67  C   UNL     1     -11.340  10.751 -11.194  1.00  0.00     0.020 A 
ATOM     68  C   UNL     1     -12.727   9.824 -12.961  1.00  0.00     0.020 A 
ATOM     69  C   UNL     1     -12.559  10.224 -11.634  1.00  0.00     0.054 A 
BRANCH  69  70
ATOM     70  S   UNL     1     -13.934  10.096 -10.458  1.00  0.00     0.124 S 
ATOM     71  O   UNL     1     -13.561   8.912  -9.688  1.00  0.00    -0.237 OA
ATOM     72  O   UNL     1     -13.863  11.363  -9.735  1.00  0.00    -0.237 OA
ATOM     73  O   UNL     1     -15.107   9.938 -11.315  1.00  0.00    -0.744 OA
ENDBRANCH  69  70
ENDBRANCH  50  64
BRANCH  51  74
ATOM     74  C   UNL     1      -2.599  10.482 -19.679  1.00  0.00    -0.014 A 
ATOM     75  C   UNL     1      -1.632  11.501 -19.624  1.00  0.00     0.010 A 
ATOM     76  C   UNL     1      -2.450   9.445 -20.617  1.00  0.00     0.010 A 
ATOM     77  C   UNL     1      -0.543  11.489 -20.500  1.00  0.00     0.020 A 
ATOM     78  C   UNL     1      -1.351   9.417 -21.479  1.00  0.00     0.020 A 
ATOM     79  C   UNL     1      -0.409  10.447 -21.422  1.00  0.00     0.054 A 
BRANCH  79  80
ATOM     80  S   UNL     1       1.043  10.413 -22.509  1.00  0.00     0.124 S 
ATOM     81  O   UNL     1       0.675  11.383 -23.536  1.00  0.00    -0.237 OA
ATOM     82  O   UNL     1       2.124  10.819 -21.613  1.00  0.00    -0.237 OA
ATOM     83  O   UNL     1       1.103   9.022 -22.952  1.00  0.00    -0.744 OA
ENDBRANCH  79  80
ENDBRANCH  51  74
BRANCH  63  84
ATOM     84  C   UNL     1      -8.329  14.403 -19.074  1.00  0.00    -0.014 A 
ATOM     85  C   UNL     1      -8.883  14.278 -20.359  1.00  0.00     0.010 A 
ATOM     86  C   UNL     1      -8.259  15.672 -18.472  1.00  0.00     0.010 A 
ATOM     87  C   UNL     1      -9.327  15.410 -21.047  1.00  0.00     0.020 A 
ATOM     88  C   UNL     1      -8.721  16.803 -19.148  1.00  0.00     0.020 A 
ATOM     89  C   UNL     1      -9.236  16.667 -20.439  1.00  0.00     0.054 A 
BRANCH  89  90
ATOM     90  S   UNL     1      -9.843  18.123 -21.335  1.00  0.00     0.124 S 
ATOM     91  O   UNL     1      -8.735  18.401 -22.245  1.00  0.00    -0.237 OA
ATOM     92  O   UNL     1     -11.066  17.631 -21.965  1.00  0.00    -0.237 OA
ATOM     93  O   UNL     1     -10.049  19.114 -20.281  1.00  0.00    -0.744 OA
ENDBRANCH  89  90
ENDBRANCH  63  84
ENDBRANCH  37  38
ENDBRANCH  30  32
ENDBRANCH  29  30
ENDBRANCH  28  29
ENDBRANCH  27  28
ENDBRANCH   1  27
TORSDOF 20
