REMARK SMILES O=C(COc1ccccc1/C=C1/SC(=S)N(c2ccc(F)c(Cl)c2)C1=O)OCCOC(=O)c1ccc(-c2c3nc(c(-c4ccc(S(=O)(=O)[O-])cc4)c4ccc([nH]4)c(-c4ccc(S(=O)(=O)[O-])cc4)c4nc(c(-c5ccc(S(=O)(=O)[O-])cc5)c5ccc2[nH]5)C=C4)C=C3)cc1
REMARK SMILES IDX 28 1 27 2 2 3 1 4 3 5 4 6 5 7 6 8 10 9 7 10 9 11 8 12 11 13
REMARK SMILES IDX 12 14 13 15 25 16 14 17 16 18 26 19 15 20 17 21 18 22 24 23
REMARK SMILES IDX 19 24 22 25 20 26 23 27 21 28 29 29 30 30 31 31 32 32 33 33
REMARK SMILES IDX 34 34 92 35 35 36 91 37 36 38 37 39 38 40 85 41 39 42 90 43
REMARK SMILES IDX 84 44 86 45 40 46 89 47 83 48 82 49 41 51 71 52 52 53 70 54
REMARK SMILES IDX 53 55 56 56 69 57 87 58 54 59 55 60 68 62 88 63 57 64 42 65
REMARK SMILES IDX 43 66 51 67 44 68 50 69 45 70 46 71 47 72 48 73 49 74 72 75
REMARK SMILES IDX 73 76 81 77 74 78 80 79 75 80 76 81 77 82 78 83 79 84 58 85
REMARK SMILES IDX 59 86 67 87 60 88 66 89 61 90 62 91 63 92 64 93 65 94
REMARK H PARENT 86 50 56 61
REMARK Flexibility Score: inf
ROOT
ATOM      1  C   UNL     1       4.721   1.086   0.149  1.00  0.00     0.274 C 
ENDROOT
BRANCH   1   2
ATOM      2  O   UNL     1       3.319   0.926  -0.155  1.00  0.00    -0.460 OA
BRANCH   2   3
ATOM      3  C   UNL     1       2.538  -0.089   0.293  1.00  0.00     0.344 C 
ATOM      4  O   UNL     1       1.314  -0.015   0.198  1.00  0.00    -0.248 OA
BRANCH   3   5
ATOM      5  C   UNL     1       3.217  -1.333   0.833  1.00  0.00     0.352 C 
BRANCH   5   6
ATOM      6  O   UNL     1       3.997  -1.966  -0.183  1.00  0.00    -0.481 OA
BRANCH   6   7
ATOM      7  C   UNL     1       3.307  -3.023  -0.728  1.00  0.00     0.127 A 
ATOM      8  C   UNL     1       3.505  -4.281  -0.153  1.00  0.00     0.047 A 
ATOM      9  C   UNL     1       2.457  -2.857  -1.837  1.00  0.00     0.018 A 
ATOM     10  C   UNL     1       2.799  -5.380  -0.637  1.00  0.00     0.004 A 
ATOM     11  C   UNL     1       1.736  -3.969  -2.293  1.00  0.00     0.012 A 
ATOM     12  C   UNL     1       1.906  -5.222  -1.696  1.00  0.00     0.001 A 
BRANCH   9  13
ATOM     13  C   UNL     1       2.225  -1.562  -2.498  1.00  0.00     0.033 C 
ATOM     14  C   UNL     1       3.157  -0.766  -3.042  1.00  0.00     0.081 C 
ATOM     15  S   UNL     1       2.827   0.835  -3.581  1.00  0.00    -0.054 SA
ATOM     16  C   UNL     1       4.614  -1.042  -3.168  1.00  0.00     0.270 C 
ATOM     17  C   UNL     1       4.537   1.277  -3.599  1.00  0.00     0.152 C 
ATOM     18  N   UNL     1       5.316   0.155  -3.344  1.00  0.00    -0.261 N 
ATOM     19  O   UNL     1       5.085  -2.171  -3.127  1.00  0.00    -0.268 OA
ATOM     20  S   UNL     1       5.003   2.837  -3.989  1.00  0.00    -0.051 S 
BRANCH  18  21
ATOM     21  C   UNL     1       6.748   0.143  -3.250  1.00  0.00     0.052 A 
ATOM     22  C   UNL     1       7.487  -0.893  -3.846  1.00  0.00     0.030 A 
ATOM     23  C   UNL     1       7.445   1.089  -2.479  1.00  0.00     0.050 A 
ATOM     24  C   UNL     1       8.868  -0.998  -3.664  1.00  0.00     0.043 A 
ATOM     25  C   UNL     1       8.824   0.966  -2.272  1.00  0.00     0.078 A 
ATOM     26  C   UNL     1       9.528  -0.075  -2.866  1.00  0.00     0.141 A 
ATOM     27  Cl  UNL     1       9.624   2.088  -1.239  1.00  0.00    -0.081 Cl
ATOM     28  F   UNL     1      10.847  -0.213  -2.672  1.00  0.00    -0.205 F 
ENDBRANCH  18  21
ENDBRANCH   9  13
ENDBRANCH   6   7
ENDBRANCH   5   6
ENDBRANCH   3   5
ENDBRANCH   2   3
ENDBRANCH   1   2
BRANCH   1  29
ATOM     29  C   UNL     1       4.925   2.171   1.202  1.00  0.00     0.275 C 
BRANCH  29  30
ATOM     30  O   UNL     1       4.408   1.687   2.445  1.00  0.00    -0.458 OA
BRANCH  30  31
ATOM     31  C   UNL     1       3.107   1.998   2.676  1.00  0.00     0.338 C 
ATOM     32  O   UNL     1       2.429   2.805   2.076  1.00  0.00    -0.246 OA
BRANCH  31  33
ATOM     33  C   UNL     1       2.584   1.003   3.632  1.00  0.00     0.060 A 
ATOM     34  C   UNL     1       1.273   0.545   3.456  1.00  0.00     0.016 A 
ATOM     35  C   UNL     1       3.383   0.507   4.667  1.00  0.00     0.016 A 
ATOM     36  C   UNL     1       0.733  -0.364   4.358  1.00  0.00     0.010 A 
ATOM     37  C   UNL     1       2.843  -0.399   5.573  1.00  0.00     0.010 A 
ATOM     38  C   UNL     1       1.500  -0.788   5.450  1.00  0.00    -0.014 A 
BRANCH  38  39
ATOM     39  C   UNL     1       0.825  -1.389   6.615  1.00  0.00     0.031 A 
ATOM     40  C   UNL     1       0.384  -0.454   7.708  1.00  0.00     0.074 A 
ATOM     41  C   UNL     1       0.618  -2.712   6.696  1.00  0.00     0.049 A 
ATOM     42  N   UNL     1      -0.226  -0.720   8.832  1.00  0.00    -0.248 NA
ATOM     43  C   UNL     1       0.679   0.978   7.507  1.00  0.00     0.031 C 
ATOM     44  C   UNL     1       0.988  -3.694   5.677  1.00  0.00     0.029 A 
ATOM     45  N   UNL     1       0.041  -3.456   7.690  1.00  0.00    -0.354 N 
ATOM     46  C   UNL     1      -0.381   0.506   9.470  1.00  0.00     0.074 A 
ATOM     47  C   UNL     1       0.229   1.510   8.631  1.00  0.00     0.031 C 
ATOM     48  C   UNL     1       0.625  -4.918   6.102  1.00  0.00     0.029 A 
ATOM     49  C   UNL     1       0.019  -4.803   7.427  1.00  0.00     0.049 A 
ATOM     50  H   UNL     1      -0.323  -3.062   8.516  1.00  0.00     0.167 HD
ATOM     51  C   UNL     1      -0.987   0.771  10.650  1.00  0.00     0.031 A 
ATOM     52  C   UNL     1      -0.442  -5.820   8.180  1.00  0.00     0.031 A 
ATOM     53  C   UNL     1      -1.568  -0.243  11.484  1.00  0.00     0.049 A 
ATOM     54  C   UNL     1      -1.068  -5.506   9.514  1.00  0.00     0.074 A 
ATOM     55  C   UNL     1      -2.222  -0.096  12.692  1.00  0.00     0.029 A 
ATOM     56  N   UNL     1      -1.552  -1.599  11.193  1.00  0.00    -0.354 N 
ATOM     57  N   UNL     1      -1.250  -4.339  10.088  1.00  0.00    -0.248 NA
ATOM     58  C   UNL     1      -1.567  -6.646  10.294  1.00  0.00     0.031 C 
ATOM     59  C   UNL     1      -2.557  -1.372  13.159  1.00  0.00     0.029 A 
ATOM     60  C   UNL     1      -2.164  -2.306  12.211  1.00  0.00     0.049 A 
ATOM     61  H   UNL     1      -1.163  -1.999  10.382  1.00  0.00     0.167 HD
ATOM     62  C   UNL     1      -1.917  -4.601  11.280  1.00  0.00     0.074 A 
ATOM     63  C   UNL     1      -2.111  -6.036  11.339  1.00  0.00     0.031 C 
ATOM     64  C   UNL     1      -2.340  -3.737  12.237  1.00  0.00     0.031 A 
BRANCH  51  65
ATOM     65  C   UNL     1      -1.002   2.204  11.109  1.00  0.00    -0.014 A 
ATOM     66  C   UNL     1      -1.784   3.174  10.455  1.00  0.00     0.010 A 
ATOM     67  C   UNL     1      -0.210   2.590  12.205  1.00  0.00     0.010 A 
ATOM     68  C   UNL     1      -1.738   4.511  10.860  1.00  0.00     0.020 A 
ATOM     69  C   UNL     1      -0.183   3.921  12.630  1.00  0.00     0.020 A 
ATOM     70  C   UNL     1      -0.932   4.876  11.942  1.00  0.00     0.054 A 
BRANCH  70  71
ATOM     71  S   UNL     1      -0.892   6.617  12.450  1.00  0.00     0.124 S 
ATOM     72  O   UNL     1      -0.094   7.223  11.387  1.00  0.00    -0.237 OA
ATOM     73  O   UNL     1      -2.307   6.982  12.459  1.00  0.00    -0.237 OA
ATOM     74  O   UNL     1      -0.254   6.580  13.764  1.00  0.00    -0.744 OA
ENDBRANCH  70  71
ENDBRANCH  51  65
BRANCH  52  75
ATOM     75  C   UNL     1      -0.350  -7.220   7.683  1.00  0.00    -0.014 A 
ATOM     76  C   UNL     1      -1.508  -7.919   7.301  1.00  0.00     0.010 A 
ATOM     77  C   UNL     1       0.899  -7.860   7.582  1.00  0.00     0.010 A 
ATOM     78  C   UNL     1      -1.422  -9.238   6.843  1.00  0.00     0.020 A 
ATOM     79  C   UNL     1       0.992  -9.170   7.101  1.00  0.00     0.020 A 
ATOM     80  C   UNL     1      -0.172  -9.854   6.745  1.00  0.00     0.054 A 
BRANCH  80  81
ATOM     81  S   UNL     1      -0.080 -11.548   6.099  1.00  0.00     0.124 S 
ATOM     82  O   UNL     1      -0.604 -12.328   7.215  1.00  0.00    -0.237 OA
ATOM     83  O   UNL     1      -0.933 -11.481   4.915  1.00  0.00    -0.237 OA
ATOM     84  O   UNL     1       1.343 -11.729   5.820  1.00  0.00    -0.744 OA
ENDBRANCH  80  81
ENDBRANCH  52  75
BRANCH  64  85
ATOM     85  C   UNL     1      -3.091  -4.318  13.404  1.00  0.00    -0.014 A 
ATOM     86  C   UNL     1      -2.437  -5.069  14.396  1.00  0.00     0.010 A 
ATOM     87  C   UNL     1      -4.469  -4.062  13.531  1.00  0.00     0.010 A 
ATOM     88  C   UNL     1      -3.157  -5.590  15.473  1.00  0.00     0.020 A 
ATOM     89  C   UNL     1      -5.186  -4.555  14.622  1.00  0.00     0.020 A 
ATOM     90  C   UNL     1      -4.528  -5.332  15.577  1.00  0.00     0.054 A 
BRANCH  90  91
ATOM     91  S   UNL     1      -5.436  -5.994  17.000  1.00  0.00     0.124 S 
ATOM     92  O   UNL     1      -5.561  -7.406  16.648  1.00  0.00    -0.237 OA
ATOM     93  O   UNL     1      -4.542  -5.701  18.117  1.00  0.00    -0.237 OA
ATOM     94  O   UNL     1      -6.686  -5.238  16.995  1.00  0.00    -0.744 OA
ENDBRANCH  90  91
ENDBRANCH  64  85
ENDBRANCH  38  39
ENDBRANCH  31  33
ENDBRANCH  30  31
ENDBRANCH  29  30
ENDBRANCH   1  29
TORSDOF 18
