REMARK SMILES O=C(OCCOC(=O)[C@H](NC(=O)[C@H]1CC[C@@H](CNC(=O)[C@@H]2Cc3ccccc3C[NH2+]2)CC1)c1ccccc1)c1ccc(-c2c3nc(c(-c4ccc(S(=O)(=O)[O-])cc4)c4ccc([nH]4)c(-c4ccc(S(=O)(=O)[O-])cc4)c4nc(c(-c5ccc(S(=O)(=O)[O-])cc5)c5ccc2[nH]5)C=C4)C=C3)cc1
REMARK SMILES IDX 5 1 4 2 3 3 2 4 1 5 39 6 40 7 98 8 41 9 97 10 42 11 43 12
REMARK SMILES IDX 44 13 91 14 45 15 96 16 90 17 92 18 46 19 95 20 89 21 88 22
REMARK SMILES IDX 47 24 77 25 58 26 76 27 59 28 62 29 75 30 93 31 60 32 61 33
REMARK SMILES IDX 74 35 94 36 63 37 48 38 49 39 57 40 50 41 56 42 51 43 52 44
REMARK SMILES IDX 53 45 54 46 55 47 78 48 79 49 87 50 80 51 86 52 81 53 82 54
REMARK SMILES IDX 83 55 84 56 85 57 64 58 65 59 73 60 66 61 72 62 67 63 68 64
REMARK SMILES IDX 69 65 70 66 71 67 6 68 7 69 8 70 9 71 33 72 34 73 38 74
REMARK SMILES IDX 35 75 37 76 36 77 10 78 11 79 12 81 13 82 32 83 14 84 31 85
REMARK SMILES IDX 15 86 16 87 17 88 18 89 19 90 20 92 21 93 22 94 30 95 23 96
REMARK SMILES IDX 29 97 24 100 28 101 25 102 27 103 26 104
REMARK H PARENT 92 23 62 34 10 80 18 91 30 98 30 99
REMARK Flexibility Score: inf
ROOT
ATOM      1  C   UNL     1     -12.925  -1.871   5.685  1.00  0.00     0.274 C 
ENDROOT
BRANCH   1   2
ATOM      2  C   UNL     1     -13.213  -0.473   5.135  1.00  0.00     0.275 C 
BRANCH   2   3
ATOM      3  O   UNL     1     -12.291  -0.087   4.102  1.00  0.00    -0.458 OA
BRANCH   3   4
ATOM      4  C   UNL     1     -11.024   0.381   4.176  1.00  0.00     0.338 C 
ATOM      5  O   UNL     1     -10.410   0.505   3.115  1.00  0.00    -0.246 OA
BRANCH   4   6
ATOM      6  C   UNL     1     -10.265   0.689   5.444  1.00  0.00     0.060 A 
ATOM      7  C   UNL     1     -10.723   0.594   6.760  1.00  0.00     0.016 A 
ATOM      8  C   UNL     1      -8.912   1.036   5.271  1.00  0.00     0.016 A 
ATOM      9  C   UNL     1      -9.846   0.707   7.850  1.00  0.00     0.010 A 
ATOM     10  C   UNL     1      -8.029   1.141   6.354  1.00  0.00     0.010 A 
ATOM     11  C   UNL     1      -8.487   0.950   7.654  1.00  0.00    -0.014 A 
BRANCH  11  12
ATOM     12  C   UNL     1      -7.622   1.218   8.824  1.00  0.00     0.031 A 
ATOM     13  C   UNL     1      -7.478   2.639   9.249  1.00  0.00     0.074 A 
ATOM     14  C   UNL     1      -7.000   0.234   9.501  1.00  0.00     0.049 A 
ATOM     15  N   UNL     1      -6.962   3.121  10.343  1.00  0.00    -0.248 NA
ATOM     16  C   UNL     1      -7.939   3.655   8.288  1.00  0.00     0.031 C 
ATOM     17  C   UNL     1      -6.964  -1.160   9.086  1.00  0.00     0.029 A 
ATOM     18  N   UNL     1      -6.310   0.236  10.690  1.00  0.00    -0.354 N 
ATOM     19  C   UNL     1      -6.948   4.495  10.163  1.00  0.00     0.074 A 
ATOM     20  C   UNL     1      -7.558   4.771   8.882  1.00  0.00     0.031 C 
ATOM     21  C   UNL     1      -6.420  -1.898  10.068  1.00  0.00     0.029 A 
ATOM     22  C   UNL     1      -6.046  -1.032  11.173  1.00  0.00     0.049 A 
ATOM     23  H   UNL     1      -6.031   1.059  11.152  1.00  0.00     0.167 HD
ATOM     24  C   UNL     1      -6.393   5.433  10.958  1.00  0.00     0.031 A 
ATOM     25  C   UNL     1      -5.596  -1.438  12.380  1.00  0.00     0.031 A 
ATOM     26  C   UNL     1      -5.705   5.135  12.181  1.00  0.00     0.049 A 
ATOM     27  C   UNL     1      -5.130  -0.363  13.329  1.00  0.00     0.074 A 
ATOM     28  C   UNL     1      -5.035   6.004  13.021  1.00  0.00     0.029 A 
ATOM     29  N   UNL     1      -5.537   3.857  12.701  1.00  0.00    -0.354 N 
ATOM     30  N   UNL     1      -5.247   0.939  13.217  1.00  0.00    -0.248 NA
ATOM     31  C   UNL     1      -4.417  -0.807  14.535  1.00  0.00     0.031 C 
ATOM     32  C   UNL     1      -4.377   5.242  13.990  1.00  0.00     0.029 A 
ATOM     33  C   UNL     1      -4.706   3.907  13.806  1.00  0.00     0.049 A 
ATOM     34  H   UNL     1      -5.947   3.039  12.338  1.00  0.00     0.167 HD
ATOM     35  C   UNL     1      -4.568   1.472  14.305  1.00  0.00     0.074 A 
ATOM     36  C   UNL     1      -4.134   0.351  15.115  1.00  0.00     0.031 C 
ATOM     37  C   UNL     1      -4.284   2.768  14.584  1.00  0.00     0.031 A 
BRANCH  24  38
ATOM     38  C   UNL     1      -6.379   6.831  10.414  1.00  0.00    -0.014 A 
ATOM     39  C   UNL     1      -7.556   7.593  10.332  1.00  0.00     0.010 A 
ATOM     40  C   UNL     1      -5.175   7.359   9.912  1.00  0.00     0.010 A 
ATOM     41  C   UNL     1      -7.535   8.850   9.726  1.00  0.00     0.020 A 
ATOM     42  C   UNL     1      -5.145   8.628   9.333  1.00  0.00     0.020 A 
ATOM     43  C   UNL     1      -6.329   9.360   9.233  1.00  0.00     0.054 A 
BRANCH  43  44
ATOM     44  S   UNL     1      -6.332  11.010   8.484  1.00  0.00     0.124 S 
ATOM     45  O   UNL     1      -7.028  10.766   7.223  1.00  0.00    -0.237 OA
ATOM     46  O   UNL     1      -7.071  11.800   9.466  1.00  0.00    -0.237 OA
ATOM     47  O   UNL     1      -4.915  11.338   8.362  1.00  0.00    -0.744 OA
ENDBRANCH  43  44
ENDBRANCH  24  38
BRANCH  25  48
ATOM     48  C   UNL     1      -5.565  -2.881  12.794  1.00  0.00    -0.014 A 
ATOM     49  C   UNL     1      -6.292  -3.304  13.928  1.00  0.00     0.010 A 
ATOM     50  C   UNL     1      -4.796  -3.840  12.110  1.00  0.00     0.010 A 
ATOM     51  C   UNL     1      -6.231  -4.630  14.379  1.00  0.00     0.020 A 
ATOM     52  C   UNL     1      -4.763  -5.177  12.532  1.00  0.00     0.020 A 
ATOM     53  C   UNL     1      -5.465  -5.561  13.675  1.00  0.00     0.054 A 
BRANCH  53  54
ATOM     54  S   UNL     1      -5.423  -7.286  14.247  1.00  0.00     0.124 S 
ATOM     55  O   UNL     1      -4.511  -7.207  15.384  1.00  0.00    -0.237 OA
ATOM     56  O   UNL     1      -6.823  -7.546  14.575  1.00  0.00    -0.237 OA
ATOM     57  O   UNL     1      -4.920  -8.014  13.085  1.00  0.00    -0.744 OA
ENDBRANCH  53  54
ENDBRANCH  25  48
BRANCH  37  58
ATOM     58  C   UNL     1      -3.446   3.040  15.802  1.00  0.00    -0.014 A 
ATOM     59  C   UNL     1      -2.087   2.677  15.852  1.00  0.00     0.010 A 
ATOM     60  C   UNL     1      -4.012   3.739  16.881  1.00  0.00     0.010 A 
ATOM     61  C   UNL     1      -1.319   2.979  16.978  1.00  0.00     0.020 A 
ATOM     62  C   UNL     1      -3.239   4.072  17.993  1.00  0.00     0.020 A 
ATOM     63  C   UNL     1      -1.901   3.676  18.041  1.00  0.00     0.054 A 
BRANCH  63  64
ATOM     64  S   UNL     1      -0.877   4.097  19.476  1.00  0.00     0.124 S 
ATOM     65  O   UNL     1      -0.731   2.801  20.134  1.00  0.00    -0.237 OA
ATOM     66  O   UNL     1       0.335   4.630  18.859  1.00  0.00    -0.237 OA
ATOM     67  O   UNL     1      -1.683   5.077  20.200  1.00  0.00    -0.744 OA
ENDBRANCH  63  64
ENDBRANCH  37  58
ENDBRANCH  11  12
ENDBRANCH   4   6
ENDBRANCH   3   4
ENDBRANCH   2   3
ENDBRANCH   1   2
BRANCH   1  68
ATOM     68  O   UNL     1     -11.532  -2.013   6.009  1.00  0.00    -0.460 OA
BRANCH  68  69
ATOM     69  C   UNL     1     -10.794  -2.943   5.338  1.00  0.00     0.333 C 
ATOM     70  O   UNL     1     -11.262  -3.698   4.485  1.00  0.00    -0.249 OA
BRANCH  69  71
ATOM     71  C   UNL     1      -9.300  -2.930   5.791  1.00  0.00     0.223 C 
BRANCH  71  72
ATOM     72  C   UNL     1      -9.136  -3.410   7.244  1.00  0.00    -0.014 A 
ATOM     73  C   UNL     1      -9.904  -2.865   8.296  1.00  0.00     0.006 A 
ATOM     74  C   UNL     1      -8.166  -4.365   7.599  1.00  0.00     0.006 A 
ATOM     75  C   UNL     1      -9.743  -3.280   9.622  1.00  0.00     0.000 A 
ATOM     76  C   UNL     1      -8.011  -4.789   8.924  1.00  0.00     0.000 A 
ATOM     77  C   UNL     1      -8.802  -4.252   9.935  1.00  0.00     0.000 A 
ENDBRANCH  71  72
BRANCH  71  78
ATOM     78  N   UNL     1      -8.583  -3.816   4.848  1.00  0.00    -0.339 N 
ATOM     79  C   UNL     1      -7.539  -3.795   3.999  1.00  0.00     0.224 C 
ATOM     80  H   UNL     1      -9.004  -4.705   4.839  1.00  0.00     0.164 HD
ATOM     81  O   UNL     1      -7.340  -4.884   3.438  1.00  0.00    -0.275 OA
BRANCH  79  82
ATOM     82  C   UNL     1      -6.648  -2.599   3.608  1.00  0.00     0.078 C 
ATOM     83  C   UNL     1      -6.550  -1.444   4.591  1.00  0.00     0.014 C 
ATOM     84  C   UNL     1      -5.247  -3.160   3.237  1.00  0.00     0.014 C 
ATOM     85  C   UNL     1      -5.455  -0.430   4.243  1.00  0.00     0.006 C 
ATOM     86  C   UNL     1      -4.146  -2.121   3.017  1.00  0.00     0.006 C 
ATOM     87  C   UNL     1      -4.074  -1.079   4.137  1.00  0.00     0.008 C 
BRANCH  87  88
ATOM     88  C   UNL     1      -3.621  -1.675   5.490  1.00  0.00     0.119 C 
BRANCH  88  89
ATOM     89  N   UNL     1      -2.176  -1.753   5.602  1.00  0.00    -0.351 N 
ATOM     90  C   UNL     1      -1.266  -1.087   6.368  1.00  0.00     0.278 C 
ATOM     91  H   UNL     1      -1.772  -2.423   5.005  1.00  0.00     0.163 HD
ATOM     92  O   UNL     1      -0.121  -1.560   6.369  1.00  0.00    -0.268 OA
BRANCH  90  93
ATOM     93  C   UNL     1      -1.574   0.168   7.209  1.00  0.00     0.277 C 
ATOM     94  C   UNL     1      -1.604  -0.172   8.725  1.00  0.00     0.111 C 
ATOM     95  N   UNL     1      -2.684   1.000   6.682  1.00  0.00    -0.332 N 
ATOM     96  C   UNL     1      -2.094   1.028   9.502  1.00  0.00    -0.033 A 
ATOM     97  C   UNL     1      -3.747   1.209   7.660  1.00  0.00     0.298 C 
ATOM     98  H   UNL     1      -3.080   0.536   5.864  1.00  0.00     0.347 HD
ATOM     99  H   UNL     1      -2.298   1.915   6.447  1.00  0.00     0.347 HD
ATOM    100  C   UNL     1      -1.519   1.466  10.695  1.00  0.00     0.004 A 
ATOM    101  C   UNL     1      -3.157   1.750   8.927  1.00  0.00     0.010 A 
ATOM    102  C   UNL     1      -1.954   2.662  11.265  1.00  0.00     0.000 A 
ATOM    103  C   UNL     1      -3.586   2.941   9.502  1.00  0.00     0.010 A 
ATOM    104  C   UNL     1      -2.960   3.408  10.651  1.00  0.00     0.001 A 
ENDBRANCH  90  93
ENDBRANCH  88  89
ENDBRANCH  87  88
ENDBRANCH  79  82
ENDBRANCH  71  78
ENDBRANCH  69  71
ENDBRANCH  68  69
ENDBRANCH   1  68
TORSDOF 20
