REMARK SMILES CC(C)[C@H](CO)Nc1ccc(C(=O)OCCOC(=O)c2ccc(-c3c4nc(c(-c5ccc(S(=O)(=O)[O-])cc5)c5ccc([nH]5)c(-c5ccc(S(=O)(=O)[O-])cc5)c5nc(c(-c6ccc(S(=O)(=O)[O-])cc6)c6ccc3[nH]6)C=C5)C=C4)cc2)cc1
REMARK SMILES IDX 15 1 14 2 12 3 13 4 11 5 8 6 9 7 81 8 10 9 80 10 7 11 4 13
REMARK SMILES IDX 2 14 1 15 3 16 5 17 6 18 16 20 17 21 18 22 19 23 20 24 21 25
REMARK SMILES IDX 79 26 22 27 78 28 23 29 24 30 25 31 72 32 26 33 77 34 71 35
REMARK SMILES IDX 73 36 27 37 76 38 70 39 69 40 28 42 58 43 39 44 57 45 40 46
REMARK SMILES IDX 43 47 56 48 74 49 41 50 42 51 55 53 75 54 44 55 29 56 30 57
REMARK SMILES IDX 38 58 31 59 37 60 32 61 33 62 34 63 35 64 36 65 59 66 60 67
REMARK SMILES IDX 68 68 61 69 67 70 62 71 63 72 64 73 65 74 66 75 45 76 46 77
REMARK SMILES IDX 54 78 47 79 53 80 48 81 49 82 50 83 51 84 52 85
REMARK H PARENT 7 12 6 19 73 41 43 52
REMARK Flexibility Score: inf
ROOT
ATOM      1  C   UNL     1      -6.724   5.966   3.655  1.00  0.00     0.275 C 
ENDROOT
BRANCH   1   2
ATOM      2  O   UNL     1      -5.962   4.802   3.274  1.00  0.00    -0.458 OA
BRANCH   2   3
ATOM      3  C   UNL     1      -4.636   4.875   3.552  1.00  0.00     0.338 C 
ATOM      4  O   UNL     1      -4.045   5.824   4.040  1.00  0.00    -0.246 OA
BRANCH   3   5
ATOM      5  C   UNL     1      -3.965   3.592   3.259  1.00  0.00     0.060 A 
ATOM      6  C   UNL     1      -2.486   1.259   2.711  1.00  0.00     0.034 A 
ATOM      7  C   UNL     1      -2.299   1.959   3.904  1.00  0.00     0.026 A 
ATOM      8  C   UNL     1      -3.441   1.736   1.804  1.00  0.00     0.026 A 
ATOM      9  C   UNL     1      -3.002   3.131   4.160  1.00  0.00     0.018 A 
ATOM     10  C   UNL     1      -4.200   2.882   2.083  1.00  0.00     0.018 A 
BRANCH   6  11
ATOM     11  N   UNL     1      -1.646   0.197   2.448  1.00  0.00    -0.380 N 
ATOM     12  H   UNL     1      -1.450  -0.432   3.179  1.00  0.00     0.160 HD
BRANCH  11  13
ATOM     13  C   UNL     1      -1.027  -0.049   1.141  1.00  0.00     0.107 C 
BRANCH  13  14
ATOM     14  C   UNL     1      -1.504  -1.414   0.593  1.00  0.00     0.007 C 
ATOM     15  C   UNL     1      -0.893  -1.715  -0.778  1.00  0.00     0.009 C 
ATOM     16  C   UNL     1      -1.242  -2.587   1.544  1.00  0.00     0.009 C 
ENDBRANCH  13  14
BRANCH  13  17
ATOM     17  C   UNL     1       0.506   0.076   1.305  1.00  0.00     0.181 C 
BRANCH  17  18
ATOM     18  O   UNL     1       0.854   1.391   1.745  1.00  0.00    -0.394 OA
ATOM     19  H   UNL     1       0.557   2.041   1.088  1.00  0.00     0.210 HD
ENDBRANCH  17  18
ENDBRANCH  13  17
ENDBRANCH  11  13
ENDBRANCH   6  11
ENDBRANCH   3   5
ENDBRANCH   2   3
ENDBRANCH   1   2
BRANCH   1  20
ATOM     20  C   UNL     1      -7.370   5.774   5.028  1.00  0.00     0.275 C 
BRANCH  20  21
ATOM     21  O   UNL     1      -6.350   5.622   6.030  1.00  0.00    -0.458 OA
BRANCH  21  22
ATOM     22  C   UNL     1      -6.592   4.689   6.982  1.00  0.00     0.338 C 
ATOM     23  O   UNL     1      -7.607   4.026   7.110  1.00  0.00    -0.246 OA
BRANCH  22  24
ATOM     24  C   UNL     1      -5.426   4.562   7.885  1.00  0.00     0.060 A 
ATOM     25  C   UNL     1      -4.129   4.572   7.379  1.00  0.00     0.016 A 
ATOM     26  C   UNL     1      -5.629   4.320   9.243  1.00  0.00     0.016 A 
ATOM     27  C   UNL     1      -3.049   4.221   8.193  1.00  0.00     0.010 A 
ATOM     28  C   UNL     1      -4.531   4.089  10.083  1.00  0.00     0.010 A 
ATOM     29  C   UNL     1      -3.228   3.985   9.564  1.00  0.00    -0.014 A 
BRANCH  29  30
ATOM     30  C   UNL     1      -2.080   3.591  10.443  1.00  0.00     0.031 A 
ATOM     31  C   UNL     1      -2.166   2.346  11.300  1.00  0.00     0.074 A 
ATOM     32  C   UNL     1      -0.954   4.333  10.497  1.00  0.00     0.049 A 
ATOM     33  N   UNL     1      -1.380   1.954  12.272  1.00  0.00    -0.248 NA
ATOM     34  C   UNL     1      -3.296   1.438  11.047  1.00  0.00     0.031 C 
ATOM     35  C   UNL     1      -0.691   5.546   9.720  1.00  0.00     0.029 A 
ATOM     36  N   UNL     1       0.193   4.168  11.240  1.00  0.00    -0.354 N 
ATOM     37  C   UNL     1      -1.968   0.809  12.802  1.00  0.00     0.074 A 
ATOM     38  C   UNL     1      -3.169   0.562  12.034  1.00  0.00     0.031 C 
ATOM     39  C   UNL     1       0.550   5.982   9.984  1.00  0.00     0.029 A 
ATOM     40  C   UNL     1       1.139   5.142  11.021  1.00  0.00     0.049 A 
ATOM     41  H   UNL     1       0.323   3.423  11.870  1.00  0.00     0.167 HD
ATOM     42  C   UNL     1      -1.555   0.038  13.838  1.00  0.00     0.031 A 
ATOM     43  C   UNL     1       2.329   5.373  11.610  1.00  0.00     0.031 A 
ATOM     44  C   UNL     1      -0.323   0.232  14.556  1.00  0.00     0.049 A 
ATOM     45  C   UNL     1       2.787   4.489  12.732  1.00  0.00     0.074 A 
ATOM     46  C   UNL     1       0.193  -0.521  15.599  1.00  0.00     0.029 A 
ATOM     47  N   UNL     1       0.600   1.232  14.293  1.00  0.00    -0.354 N 
ATOM     48  N   UNL     1       2.183   3.452  13.260  1.00  0.00    -0.248 NA
ATOM     49  C   UNL     1       4.078   4.819  13.353  1.00  0.00     0.031 C 
ATOM     50  C   UNL     1       1.415   0.042  15.985  1.00  0.00     0.029 A 
ATOM     51  C   UNL     1       1.678   1.121  15.156  1.00  0.00     0.049 A 
ATOM     52  H   UNL     1       0.503   1.920  13.596  1.00  0.00     0.167 HD
ATOM     53  C   UNL     1       3.017   3.010  14.281  1.00  0.00     0.074 A 
ATOM     54  C   UNL     1       4.181   3.872  14.277  1.00  0.00     0.031 C 
ATOM     55  C   UNL     1       2.826   1.989  15.151  1.00  0.00     0.031 A 
BRANCH  42  56
ATOM     56  C   UNL     1      -2.473  -1.066  14.292  1.00  0.00    -0.014 A 
ATOM     57  C   UNL     1      -2.624  -2.254  13.558  1.00  0.00     0.010 A 
ATOM     58  C   UNL     1      -3.178  -0.914  15.502  1.00  0.00     0.010 A 
ATOM     59  C   UNL     1      -3.499  -3.252  14.001  1.00  0.00     0.020 A 
ATOM     60  C   UNL     1      -4.035  -1.918  15.960  1.00  0.00     0.020 A 
ATOM     61  C   UNL     1      -4.205  -3.073  15.195  1.00  0.00     0.054 A 
BRANCH  61  62
ATOM     62  S   UNL     1      -5.330  -4.382  15.756  1.00  0.00     0.124 S 
ATOM     63  O   UNL     1      -6.499  -4.156  14.909  1.00  0.00    -0.237 OA
ATOM     64  O   UNL     1      -4.577  -5.601  15.473  1.00  0.00    -0.237 OA
ATOM     65  O   UNL     1      -5.521  -4.089  17.174  1.00  0.00    -0.744 OA
ENDBRANCH  61  62
ENDBRANCH  42  56
BRANCH  43  66
ATOM     66  C   UNL     1       3.146   6.538  11.173  1.00  0.00    -0.014 A 
ATOM     67  C   UNL     1       4.310   6.350  10.410  1.00  0.00     0.010 A 
ATOM     68  C   UNL     1       2.728   7.848  11.477  1.00  0.00     0.010 A 
ATOM     69  C   UNL     1       5.039   7.451   9.950  1.00  0.00     0.020 A 
ATOM     70  C   UNL     1       3.438   8.950  10.996  1.00  0.00     0.020 A 
ATOM     71  C   UNL     1       4.593   8.744  10.239  1.00  0.00     0.054 A 
BRANCH  71  72
ATOM     72  S   UNL     1       5.490  10.164   9.550  1.00  0.00     0.124 S 
ATOM     73  O   UNL     1       6.600  10.305  10.486  1.00  0.00    -0.237 OA
ATOM     74  O   UNL     1       5.847   9.699   8.211  1.00  0.00    -0.237 OA
ATOM     75  O   UNL     1       4.499  11.237   9.582  1.00  0.00    -0.744 OA
ENDBRANCH  71  72
ENDBRANCH  43  66
BRANCH  55  76
ATOM     76  C   UNL     1       3.907   1.741  16.165  1.00  0.00    -0.014 A 
ATOM     77  C   UNL     1       4.046   2.573  17.290  1.00  0.00     0.010 A 
ATOM     78  C   UNL     1       4.773   0.644  16.009  1.00  0.00     0.010 A 
ATOM     79  C   UNL     1       5.055   2.332  18.226  1.00  0.00     0.020 A 
ATOM     80  C   UNL     1       5.771   0.388  16.954  1.00  0.00     0.020 A 
ATOM     81  C   UNL     1       5.915   1.244  18.049  1.00  0.00     0.054 A 
BRANCH  81  82
ATOM     82  S   UNL     1       7.200   0.928  19.290  1.00  0.00     0.124 S 
ATOM     83  O   UNL     1       8.216   1.915  18.932  1.00  0.00    -0.237 OA
ATOM     84  O   UNL     1       6.503   1.174  20.550  1.00  0.00    -0.237 OA
ATOM     85  O   UNL     1       7.573  -0.465  19.054  1.00  0.00    -0.744 OA
ENDBRANCH  81  82
ENDBRANCH  55  76
ENDBRANCH  29  30
ENDBRANCH  22  24
ENDBRANCH  21  22
ENDBRANCH  20  21
ENDBRANCH   1  20
TORSDOF 19
