REMARK SMILES CCOC(=O)C1=NN(c2ccc(Br)cc2F)[C@](C)(C(=O)OCCOC(=O)c2ccc(-c3c4nc(c(-c5ccc(S(=O)(=O)[O-])cc5)c5ccc([nH]5)c(-c5ccc(S(=O)(=O)[O-])cc5)c5nc(c(-c6ccc(S(=O)(=O)[O-])cc6)c6ccc3[nH]6)C=C5)C=C4)cc2)C1
REMARK SMILES IDX 22 1 21 2 19 3 20 4 17 5 6 6 7 7 87 8 8 9 18 10 4 11 5 12
REMARK SMILES IDX 3 13 2 14 1 15 9 16 10 17 15 18 11 19 14 20 16 21 12 22
REMARK SMILES IDX 13 23 23 24 24 25 25 26 26 27 27 28 28 29 86 30 29 31 85 32
REMARK SMILES IDX 30 33 31 34 32 35 79 36 33 37 84 38 78 39 80 40 34 41 83 42
REMARK SMILES IDX 77 43 76 44 35 46 65 47 46 48 64 49 47 50 50 51 63 52 81 53
REMARK SMILES IDX 48 54 49 55 62 57 82 58 51 59 36 60 37 61 45 62 38 63 44 64
REMARK SMILES IDX 39 65 40 66 41 67 42 68 43 69 66 70 67 71 75 72 68 73 74 74
REMARK SMILES IDX 69 75 70 76 71 77 72 78 73 79 52 80 53 81 61 82 54 83 60 84
REMARK SMILES IDX 55 85 56 86 57 87 58 88 59 89
REMARK H PARENT 80 45 50 56
REMARK Flexibility Score: inf
ROOT
ATOM      1  C   UNL     1       4.310  -5.830   6.740  1.00  0.00     0.274 C 
ENDROOT
BRANCH   1   2
ATOM      2  O   UNL     1       4.166  -5.864   5.307  1.00  0.00    -0.460 OA
BRANCH   2   3
ATOM      3  C   UNL     1       3.689  -4.730   4.711  1.00  0.00     0.334 C 
ATOM      4  O   UNL     1       3.432  -3.695   5.316  1.00  0.00    -0.249 OA
BRANCH   3   5
ATOM      5  C   UNL     1       3.544  -4.900   3.187  1.00  0.00     0.163 C 
ATOM      6  C   UNL     1       2.352  -3.886   1.490  1.00  0.00     0.149 C 
ATOM      7  N   UNL     1       1.732  -5.014   1.663  1.00  0.00    -0.169 NA
ATOM      8  C   UNL     1       3.400  -3.533   2.490  1.00  0.00     0.108 C 
ATOM      9  N   UNL     1       2.263  -5.539   2.809  1.00  0.00    -0.245 N 
ATOM     10  C   UNL     1       4.732  -5.663   2.572  1.00  0.00     0.050 C 
BRANCH   6  11
ATOM     11  C   UNL     1       2.081  -2.930   0.366  1.00  0.00     0.354 C 
ATOM     12  O   UNL     1       2.929  -2.680  -0.466  1.00  0.00    -0.245 OA
BRANCH  11  13
ATOM     13  O   UNL     1       0.860  -2.386   0.518  1.00  0.00    -0.461 OA
BRANCH  13  14
ATOM     14  C   UNL     1       0.498  -1.401  -0.460  1.00  0.00     0.230 C 
ATOM     15  C   UNL     1       0.954  -0.024  -0.014  1.00  0.00     0.049 C 
ENDBRANCH  13  14
ENDBRANCH  11  13
ENDBRANCH   6  11
BRANCH   9  16
ATOM     16  C   UNL     1       1.894  -6.806   3.244  1.00  0.00     0.097 A 
ATOM     17  C   UNL     1       2.034  -7.927   2.416  1.00  0.00     0.032 A 
ATOM     18  C   UNL     1       1.399  -7.011   4.542  1.00  0.00     0.149 A 
ATOM     19  C   UNL     1       1.740  -9.209   2.892  1.00  0.00     0.018 A 
ATOM     20  C   UNL     1       1.093  -8.278   5.026  1.00  0.00     0.057 A 
ATOM     21  F   UNL     1       1.216  -5.964   5.362  1.00  0.00    -0.205 F 
ATOM     22  C   UNL     1       1.276  -9.377   4.197  1.00  0.00     0.021 A 
ATOM     23  Br  UNL     1       0.897 -11.110   4.849  1.00  0.00    -0.051 Br
ENDBRANCH   9  16
ENDBRANCH   3   5
ENDBRANCH   2   3
ENDBRANCH   1   2
BRANCH   1  24
ATOM     24  C   UNL     1       5.783  -5.763   7.141  1.00  0.00     0.275 C 
BRANCH  24  25
ATOM     25  O   UNL     1       6.386  -4.549   6.659  1.00  0.00    -0.458 OA
BRANCH  25  26
ATOM     26  C   UNL     1       7.125  -4.683   5.534  1.00  0.00     0.338 C 
ATOM     27  O   UNL     1       7.376  -5.708   4.924  1.00  0.00    -0.246 OA
BRANCH  26  28
ATOM     28  C   UNL     1       7.488  -3.351   5.036  1.00  0.00     0.060 A 
ATOM     29  C   UNL     1       6.610  -2.720   4.157  1.00  0.00     0.016 A 
ATOM     30  C   UNL     1       8.718  -2.776   5.338  1.00  0.00     0.016 A 
ATOM     31  C   UNL     1       6.964  -1.533   3.534  1.00  0.00     0.010 A 
ATOM     32  C   UNL     1       9.050  -1.545   4.762  1.00  0.00     0.010 A 
ATOM     33  C   UNL     1       8.181  -0.921   3.846  1.00  0.00    -0.014 A 
BRANCH  33  34
ATOM     34  C   UNL     1       8.540   0.371   3.213  1.00  0.00     0.031 A 
ATOM     35  C   UNL     1       9.723   0.454   2.292  1.00  0.00     0.074 A 
ATOM     36  C   UNL     1       7.799   1.467   3.469  1.00  0.00     0.049 A 
ATOM     37  N   UNL     1      10.297   1.512   1.781  1.00  0.00    -0.248 NA
ATOM     38  C   UNL     1      10.347  -0.820   1.899  1.00  0.00     0.031 C 
ATOM     39  C   UNL     1       6.587   1.500   4.292  1.00  0.00     0.029 A 
ATOM     40  N   UNL     1       7.961   2.769   3.068  1.00  0.00    -0.354 N 
ATOM     41  C   UNL     1      11.373   1.038   1.041  1.00  0.00     0.074 A 
ATOM     42  C   UNL     1      11.375  -0.404   1.171  1.00  0.00     0.031 C 
ATOM     43  C   UNL     1       6.114   2.755   4.329  1.00  0.00     0.029 A 
ATOM     44  C   UNL     1       7.030   3.627   3.604  1.00  0.00     0.049 A 
ATOM     45  H   UNL     1       8.675   3.061   2.456  1.00  0.00     0.167 HD
ATOM     46  C   UNL     1      12.279   1.746   0.325  1.00  0.00     0.031 A 
ATOM     47  C   UNL     1       6.951   4.971   3.565  1.00  0.00     0.031 A 
ATOM     48  C   UNL     1      12.259   3.180   0.197  1.00  0.00     0.049 A 
ATOM     49  C   UNL     1       8.015   5.739   2.832  1.00  0.00     0.074 A 
ATOM     50  C   UNL     1      13.127   3.993  -0.510  1.00  0.00     0.029 A 
ATOM     51  N   UNL     1      11.322   4.015   0.789  1.00  0.00    -0.354 N 
ATOM     52  N   UNL     1       9.045   5.281   2.161  1.00  0.00    -0.248 NA
ATOM     53  C   UNL     1       7.913   7.203   2.862  1.00  0.00     0.031 C 
ATOM     54  C   UNL     1      12.747   5.324  -0.300  1.00  0.00     0.029 A 
ATOM     55  C   UNL     1      11.607   5.336   0.488  1.00  0.00     0.049 A 
ATOM     56  H   UNL     1      10.566   3.712   1.342  1.00  0.00     0.167 HD
ATOM     57  C   UNL     1       9.707   6.403   1.675  1.00  0.00     0.074 A 
ATOM     58  C   UNL     1       8.947   7.558   2.112  1.00  0.00     0.031 C 
ATOM     59  C   UNL     1      10.842   6.472   0.938  1.00  0.00     0.031 A 
BRANCH  46  60
ATOM     60  C   UNL     1      13.401   0.985  -0.332  1.00  0.00    -0.014 A 
ATOM     61  C   UNL     1      13.181   0.177  -1.461  1.00  0.00     0.010 A 
ATOM     62  C   UNL     1      14.709   1.118   0.170  1.00  0.00     0.010 A 
ATOM     63  C   UNL     1      14.243  -0.511  -2.055  1.00  0.00     0.020 A 
ATOM     64  C   UNL     1      15.778   0.453  -0.437  1.00  0.00     0.020 A 
ATOM     65  C   UNL     1      15.535  -0.370  -1.538  1.00  0.00     0.054 A 
BRANCH  65  66
ATOM     66  S   UNL     1      16.899  -1.255  -2.343  1.00  0.00     0.124 S 
ATOM     67  O   UNL     1      16.640  -2.636  -1.941  1.00  0.00    -0.237 OA
ATOM     68  O   UNL     1      16.681  -0.962  -3.757  1.00  0.00    -0.237 OA
ATOM     69  O   UNL     1      18.096  -0.652  -1.762  1.00  0.00    -0.744 OA
ENDBRANCH  65  66
ENDBRANCH  46  60
BRANCH  47  70
ATOM     70  C   UNL     1       5.860   5.673   4.294  1.00  0.00    -0.014 A 
ATOM     71  C   UNL     1       4.850   6.353   3.594  1.00  0.00     0.010 A 
ATOM     72  C   UNL     1       5.821   5.652   5.702  1.00  0.00     0.010 A 
ATOM     73  C   UNL     1       3.829   7.011   4.287  1.00  0.00     0.020 A 
ATOM     74  C   UNL     1       4.785   6.281   6.397  1.00  0.00     0.020 A 
ATOM     75  C   UNL     1       3.802   6.968   5.684  1.00  0.00     0.054 A 
BRANCH  75  76
ATOM     76  S   UNL     1       2.439   7.785   6.560  1.00  0.00     0.124 S 
ATOM     77  O   UNL     1       2.792   9.194   6.421  1.00  0.00    -0.237 OA
ATOM     78  O   UNL     1       1.269   7.346   5.803  1.00  0.00    -0.237 OA
ATOM     79  O   UNL     1       2.532   7.245   7.915  1.00  0.00    -0.744 OA
ENDBRANCH  75  76
ENDBRANCH  47  70
BRANCH  59  80
ATOM     80  C   UNL     1      11.316   7.841   0.534  1.00  0.00    -0.014 A 
ATOM     81  C   UNL     1      11.894   8.716   1.471  1.00  0.00     0.010 A 
ATOM     82  C   UNL     1      11.221   8.240  -0.812  1.00  0.00     0.010 A 
ATOM     83  C   UNL     1      12.341   9.979   1.074  1.00  0.00     0.020 A 
ATOM     84  C   UNL     1      11.693   9.490  -1.218  1.00  0.00     0.020 A 
ATOM     85  C   UNL     1      12.237  10.358  -0.269  1.00  0.00     0.054 A 
BRANCH  85  86
ATOM     86  S   UNL     1      12.862  11.986  -0.766  1.00  0.00     0.124 S 
ATOM     87  O   UNL     1      11.841  12.881  -0.230  1.00  0.00    -0.237 OA
ATOM     88  O   UNL     1      14.162  12.047  -0.104  1.00  0.00    -0.237 OA
ATOM     89  O   UNL     1      12.916  11.905  -2.224  1.00  0.00    -0.744 OA
ENDBRANCH  85  86
ENDBRANCH  59  80
ENDBRANCH  33  34
ENDBRANCH  26  28
ENDBRANCH  25  26
ENDBRANCH  24  25
ENDBRANCH   1  24
TORSDOF 18
