REMARK SMILES Cn1ccc(NC(=O)[C@@H]2CCCC[C@@H]2C(=O)OCCOC(=O)c2ccc(-c3c4nc(c(-c5ccc(S(=O)(=O)[O-])cc5)c5ccc([nH]5)c(-c5ccc(S(=O)(=O)[O-])cc5)c5nc(c(-c6ccc(S(=O)(=O)[O-])cc6)c6ccc3[nH]6)C=C5)C=C4)cc2)n1
REMARK SMILES IDX 19 1 18 2 17 3 15 4 16 5 14 6 9 7 10 8 11 9 13 10 12 11 7 12
REMARK SMILES IDX 6 13 8 15 5 16 1 17 2 18 3 19 83 20 4 21 20 22 21 23 22 24
REMARK SMILES IDX 23 25 24 26 82 27 25 28 81 29 26 30 27 31 28 32 75 33 29 34
REMARK SMILES IDX 80 35 74 36 76 37 30 38 79 39 73 40 72 41 31 43 61 44 42 45
REMARK SMILES IDX 60 46 43 47 46 48 59 49 77 50 44 51 45 52 58 54 78 55 47 56
REMARK SMILES IDX 32 57 33 58 41 59 34 60 40 61 35 62 36 63 37 64 38 65 39 66
REMARK SMILES IDX 62 67 63 68 71 69 64 70 70 71 65 72 66 73 67 74 68 75 69 76
REMARK SMILES IDX 48 77 49 78 57 79 50 80 56 81 51 82 52 83 53 84 54 85 55 86
REMARK H PARENT 6 14 76 42 46 53
REMARK Flexibility Score: inf
ROOT
ATOM      1  C   UNL     1       2.519   3.437   4.478  1.00  0.00     0.275 C 
ENDROOT
BRANCH   1   2
ATOM      2  C   UNL     1       2.391   2.319   3.450  1.00  0.00     0.274 C 
BRANCH   2   3
ATOM      3  O   UNL     1       1.785   2.812   2.237  1.00  0.00    -0.462 OA
BRANCH   3   4
ATOM      4  C   UNL     1       0.507   2.425   2.011  1.00  0.00     0.309 C 
ATOM      5  O   UNL     1      -0.171   1.782   2.808  1.00  0.00    -0.252 OA
BRANCH   4   6
ATOM      6  C   UNL     1      -0.027   2.815   0.641  1.00  0.00     0.111 C 
ATOM      7  C   UNL     1       0.986   3.228  -0.453  1.00  0.00     0.093 C 
ATOM      8  C   UNL     1       1.242   4.752  -0.406  1.00  0.00     0.014 C 
ATOM      9  C   UNL     1      -0.046   5.564  -0.469  1.00  0.00     0.001 C 
ATOM     10  C   UNL     1      -1.265   3.721   0.707  1.00  0.00     0.016 C 
ATOM     11  C   UNL     1      -0.953   5.207   0.694  1.00  0.00     0.001 C 
BRANCH   7  12
ATOM     12  C   UNL     1       2.341   2.488  -0.445  1.00  0.00     0.229 C 
ATOM     13  N   UNL     1       2.450   1.133  -0.494  1.00  0.00    -0.309 N 
ATOM     14  H   UNL     1       3.366   0.787  -0.395  1.00  0.00     0.171 HD
ATOM     15  O   UNL     1       3.410   3.110  -0.376  1.00  0.00    -0.274 OA
BRANCH  13  16
ATOM     16  C   UNL     1       1.488   0.171  -0.658  1.00  0.00     0.154 A 
ATOM     17  C   UNL     1      -1.849  -0.736  -0.844  1.00  0.00     0.173 C 
ATOM     18  N   UNL     1      -0.406  -0.746  -0.837  1.00  0.00    -0.274 N 
ATOM     19  C   UNL     1       0.416  -1.758  -0.441  1.00  0.00     0.110 A 
ATOM     20  N   UNL     1       0.257   0.388  -1.114  1.00  0.00    -0.155 NA
ATOM     21  C   UNL     1       1.669  -1.196  -0.342  1.00  0.00     0.068 A 
ENDBRANCH  13  16
ENDBRANCH   7  12
ENDBRANCH   4   6
ENDBRANCH   3   4
ENDBRANCH   2   3
ENDBRANCH   1   2
BRANCH   1  22
ATOM     22  O   UNL     1       1.213   3.970   4.742  1.00  0.00    -0.458 OA
BRANCH  22  23
ATOM     23  C   UNL     1       1.091   5.312   4.642  1.00  0.00     0.338 C 
ATOM     24  O   UNL     1       2.002   6.120   4.528  1.00  0.00    -0.246 OA
BRANCH  23  25
ATOM     25  C   UNL     1      -0.338   5.697   4.646  1.00  0.00     0.060 A 
ATOM     26  C   UNL     1      -1.317   4.845   4.132  1.00  0.00     0.016 A 
ATOM     27  C   UNL     1      -0.694   6.983   5.053  1.00  0.00     0.016 A 
ATOM     28  C   UNL     1      -2.612   5.314   3.914  1.00  0.00     0.010 A 
ATOM     29  C   UNL     1      -2.023   7.408   4.943  1.00  0.00     0.010 A 
ATOM     30  C   UNL     1      -2.996   6.595   4.335  1.00  0.00    -0.014 A 
BRANCH  30  31
ATOM     31  C   UNL     1      -4.384   7.104   4.122  1.00  0.00     0.031 A 
ATOM     32  C   UNL     1      -4.609   8.440   3.455  1.00  0.00     0.074 A 
ATOM     33  C   UNL     1      -5.457   6.397   4.535  1.00  0.00     0.049 A 
ATOM     34  N   UNL     1      -5.682   9.190   3.449  1.00  0.00    -0.248 NA
ATOM     35  C   UNL     1      -3.472   9.020   2.720  1.00  0.00     0.031 C 
ATOM     36  C   UNL     1      -5.423   5.066   5.145  1.00  0.00     0.029 A 
ATOM     37  N   UNL     1      -6.796   6.706   4.500  1.00  0.00    -0.354 N 
ATOM     38  C   UNL     1      -5.323  10.365   2.797  1.00  0.00     0.074 A 
ATOM     39  C   UNL     1      -3.940  10.218   2.396  1.00  0.00     0.031 C 
ATOM     40  C   UNL     1      -6.678   4.653   5.378  1.00  0.00     0.029 A 
ATOM     41  C   UNL     1      -7.599   5.732   5.047  1.00  0.00     0.049 A 
ATOM     42  H   UNL     1      -7.147   7.544   4.121  1.00  0.00     0.167 HD
ATOM     43  C   UNL     1      -6.073  11.471   2.572  1.00  0.00     0.031 A 
ATOM     44  C   UNL     1      -8.919   5.720   5.318  1.00  0.00     0.031 A 
ATOM     45  C   UNL     1      -7.470  11.584   2.905  1.00  0.00     0.049 A 
ATOM     46  C   UNL     1      -9.736   6.949   5.054  1.00  0.00     0.074 A 
ATOM     47  C   UNL     1      -8.318  12.661   2.711  1.00  0.00     0.029 A 
ATOM     48  N   UNL     1      -8.232  10.574   3.470  1.00  0.00    -0.354 N 
ATOM     49  N   UNL     1      -9.353   8.097   4.549  1.00  0.00    -0.248 NA
ATOM     50  C   UNL     1     -11.155   6.893   5.428  1.00  0.00     0.031 C 
ATOM     51  C   UNL     1      -9.589  12.310   3.182  1.00  0.00     0.029 A 
ATOM     52  C   UNL     1      -9.539  11.001   3.633  1.00  0.00     0.049 A 
ATOM     53  H   UNL     1      -7.894   9.683   3.720  1.00  0.00     0.167 HD
ATOM     54  C   UNL     1     -10.483   8.905   4.556  1.00  0.00     0.074 A 
ATOM     55  C   UNL     1     -11.569   8.105   5.085  1.00  0.00     0.031 C 
ATOM     56  C   UNL     1     -10.605  10.199   4.172  1.00  0.00     0.031 A 
BRANCH  43  57
ATOM     57  C   UNL     1      -5.389  12.676   1.983  1.00  0.00    -0.014 A 
ATOM     58  C   UNL     1      -5.061  12.749   0.620  1.00  0.00     0.010 A 
ATOM     59  C   UNL     1      -5.127  13.784   2.812  1.00  0.00     0.010 A 
ATOM     60  C   UNL     1      -4.456  13.899   0.101  1.00  0.00     0.020 A 
ATOM     61  C   UNL     1      -4.543  14.942   2.293  1.00  0.00     0.020 A 
ATOM     62  C   UNL     1      -4.198  14.987   0.942  1.00  0.00     0.054 A 
BRANCH  62  63
ATOM     63  S   UNL     1      -3.449  16.484   0.240  1.00  0.00     0.124 S 
ATOM     64  O   UNL     1      -2.045  16.096   0.132  1.00  0.00    -0.237 OA
ATOM     65  O   UNL     1      -4.157  16.637  -1.029  1.00  0.00    -0.237 OA
ATOM     66  O   UNL     1      -3.736  17.514   1.236  1.00  0.00    -0.744 OA
ENDBRANCH  62  63
ENDBRANCH  43  57
BRANCH  44  67
ATOM     67  C   UNL     1      -9.524   4.516   5.948  1.00  0.00    -0.014 A 
ATOM     68  C   UNL     1     -10.352   3.662   5.201  1.00  0.00     0.010 A 
ATOM     69  C   UNL     1      -9.223   4.189   7.283  1.00  0.00     0.010 A 
ATOM     70  C   UNL     1     -10.859   2.492   5.775  1.00  0.00     0.020 A 
ATOM     71  C   UNL     1      -9.705   3.007   7.851  1.00  0.00     0.020 A 
ATOM     72  C   UNL     1     -10.525   2.168   7.094  1.00  0.00     0.054 A 
BRANCH  72  73
ATOM     73  S   UNL     1     -11.096   0.593   7.791  1.00  0.00     0.124 S 
ATOM     74  O   UNL     1     -12.448   0.928   8.227  1.00  0.00    -0.237 OA
ATOM     75  O   UNL     1     -11.005  -0.317   6.651  1.00  0.00    -0.237 OA
ATOM     76  O   UNL     1     -10.136   0.331   8.861  1.00  0.00    -0.744 OA
ENDBRANCH  72  73
ENDBRANCH  44  67
BRANCH  56  77
ATOM     77  C   UNL     1     -11.966  10.821   4.299  1.00  0.00    -0.014 A 
ATOM     78  C   UNL     1     -12.453  11.237   5.550  1.00  0.00     0.010 A 
ATOM     79  C   UNL     1     -12.756  11.011   3.152  1.00  0.00     0.010 A 
ATOM     80  C   UNL     1     -13.725  11.803   5.657  1.00  0.00     0.020 A 
ATOM     81  C   UNL     1     -14.022  11.593   3.253  1.00  0.00     0.020 A 
ATOM     82  C   UNL     1     -14.505  11.970   4.509  1.00  0.00     0.054 A 
BRANCH  82  83
ATOM     83  S   UNL     1     -16.147  12.725   4.665  1.00  0.00     0.124 S 
ATOM     84  O   UNL     1     -16.946  11.609   5.165  1.00  0.00    -0.237 OA
ATOM     85  O   UNL     1     -15.918  13.809   5.616  1.00  0.00    -0.237 OA
ATOM     86  O   UNL     1     -16.459  13.155   3.304  1.00  0.00    -0.744 OA
ENDBRANCH  82  83
ENDBRANCH  56  77
ENDBRANCH  30  31
ENDBRANCH  23  25
ENDBRANCH  22  23
ENDBRANCH   1  22
TORSDOF 16
