REMARK SMILES C[C@H](NC(=O)N1CCN(/C=C/c2ccccc2)CC1)C(=O)OCCOC(=O)c1ccc(-c2c3nc(c(-c4ccc(S(=O)(=O)[O-])cc4)c4ccc([nH]4)c(-c4ccc(S(=O)(=O)[O-])cc4)c4nc(c(-c5ccc(S(=O)(=O)[O-])cc5)c5ccc2[nH]5)C=C4)C=C3)cc1
REMARK SMILES IDX 23 1 22 2 20 3 21 4 2 5 1 6 3 7 4 8 5 10 6 11 7 12 19 13
REMARK SMILES IDX 8 14 18 15 9 16 10 17 11 18 12 19 13 20 17 21 14 22 16 23
REMARK SMILES IDX 15 24 24 25 25 26 26 27 27 28 28 29 29 30 87 31 30 32 86 33
REMARK SMILES IDX 31 34 32 35 33 36 80 37 34 38 85 39 79 40 81 41 35 42 84 43
REMARK SMILES IDX 78 44 77 45 36 47 66 48 47 49 65 50 48 51 51 52 64 53 82 54
REMARK SMILES IDX 49 55 50 56 63 58 83 59 52 60 37 61 38 62 46 63 39 64 45 65
REMARK SMILES IDX 40 66 41 67 42 68 43 69 44 70 67 71 68 72 76 73 69 74 75 75
REMARK SMILES IDX 70 76 71 77 72 78 73 79 74 80 53 81 54 82 62 83 55 84 61 85
REMARK SMILES IDX 56 86 57 87 58 88 59 89 60 90
REMARK H PARENT 3 9 81 46 51 57
REMARK Flexibility Score: inf
ROOT
ATOM      1  C   UNL     1      -3.179  -0.722  -0.513  1.00  0.00     0.274 C 
ENDROOT
BRANCH   1   2
ATOM      2  O   UNL     1      -1.738  -0.723  -0.529  1.00  0.00    -0.461 OA
BRANCH   2   3
ATOM      3  C   UNL     1      -1.176  -0.186  -1.645  1.00  0.00     0.328 C 
ATOM      4  O   UNL     1      -1.818   0.149  -2.638  1.00  0.00    -0.250 OA
BRANCH   3   5
ATOM      5  C   UNL     1       0.330   0.113  -1.495  1.00  0.00     0.190 C 
ATOM      6  C   UNL     1       0.976  -0.000  -2.865  1.00  0.00     0.043 C 
BRANCH   5   7
ATOM      7  N   UNL     1       1.021  -0.433  -0.329  1.00  0.00    -0.325 N 
ATOM      8  C   UNL     1       1.509  -1.648  -0.022  1.00  0.00     0.318 C 
ATOM      9  H   UNL     1       1.159   0.231   0.385  1.00  0.00     0.166 HD
ATOM     10  O   UNL     1       1.590  -1.962   1.165  1.00  0.00    -0.249 OA
ATOM     11  N   UNL     1       1.812  -2.514  -1.022  1.00  0.00    -0.321 N 
ATOM     12  C   UNL     1       1.583  -3.926  -0.774  1.00  0.00     0.143 C 
ATOM     13  C   UNL     1       2.940  -2.297  -1.924  1.00  0.00     0.143 C 
ATOM     14  C   UNL     1       1.230  -4.628  -2.082  1.00  0.00     0.137 C 
ATOM     15  C   UNL     1       2.750  -3.017  -3.271  1.00  0.00     0.137 C 
ATOM     16  N   UNL     1       2.259  -4.415  -3.129  1.00  0.00    -0.374 N 
BRANCH  16  17
ATOM     17  C   UNL     1       2.449  -5.312  -4.170  1.00  0.00     0.081 C 
ATOM     18  C   UNL     1       2.037  -6.582  -4.277  1.00  0.00     0.025 C 
BRANCH  18  19
ATOM     19  C   UNL     1       2.327  -7.454  -5.422  1.00  0.00    -0.024 A 
ATOM     20  C   UNL     1       1.453  -8.511  -5.704  1.00  0.00     0.008 A 
ATOM     21  C   UNL     1       3.487  -7.313  -6.195  1.00  0.00     0.008 A 
ATOM     22  C   UNL     1       1.725  -9.399  -6.747  1.00  0.00     0.001 A 
ATOM     23  C   UNL     1       3.757  -8.197  -7.240  1.00  0.00     0.001 A 
ATOM     24  C   UNL     1       2.877  -9.240  -7.515  1.00  0.00     0.000 A 
ENDBRANCH  18  19
ENDBRANCH  16  17
ENDBRANCH   5   7
ENDBRANCH   3   5
ENDBRANCH   2   3
ENDBRANCH   1   2
BRANCH   1  25
ATOM     25  C   UNL     1      -3.736   0.481   0.260  1.00  0.00     0.275 C 
BRANCH  25  26
ATOM     26  O   UNL     1      -3.436   1.745  -0.366  1.00  0.00    -0.458 OA
BRANCH  26  27
ATOM     27  C   UNL     1      -2.255   2.289   0.006  1.00  0.00     0.338 C 
ATOM     28  O   UNL     1      -1.427   1.806   0.762  1.00  0.00    -0.246 OA
BRANCH  27  29
ATOM     29  C   UNL     1      -2.002   3.551  -0.702  1.00  0.00     0.060 A 
ATOM     30  C   UNL     1      -0.990   3.574  -1.662  1.00  0.00     0.016 A 
ATOM     31  C   UNL     1      -2.593   4.736  -0.271  1.00  0.00     0.016 A 
ATOM     32  C   UNL     1      -0.475   4.781  -2.110  1.00  0.00     0.010 A 
ATOM     33  C   UNL     1      -2.128   5.951  -0.785  1.00  0.00     0.010 A 
ATOM     34  C   UNL     1      -1.037   5.982  -1.674  1.00  0.00    -0.014 A 
BRANCH  34  35
ATOM     35  C   UNL     1      -0.444   7.269  -2.107  1.00  0.00     0.031 A 
ATOM     36  C   UNL     1       0.186   8.177  -1.089  1.00  0.00     0.074 A 
ATOM     37  C   UNL     1      -0.451   7.609  -3.410  1.00  0.00     0.049 A 
ATOM     38  N   UNL     1       0.582   9.415  -1.222  1.00  0.00    -0.248 NA
ATOM     39  C   UNL     1       0.392   7.618   0.257  1.00  0.00     0.031 C 
ATOM     40  C   UNL     1      -0.953   6.773  -4.503  1.00  0.00     0.029 A 
ATOM     41  N   UNL     1      -0.022   8.751  -4.034  1.00  0.00    -0.354 N 
ATOM     42  C   UNL     1       1.028   9.805   0.035  1.00  0.00     0.074 A 
ATOM     43  C   UNL     1       0.865   8.668   0.915  1.00  0.00     0.031 C 
ATOM     44  C   UNL     1      -0.793   7.426  -5.664  1.00  0.00     0.029 A 
ATOM     45  C   UNL     1      -0.259   8.755  -5.388  1.00  0.00     0.049 A 
ATOM     46  H   UNL     1       0.412   9.496  -3.560  1.00  0.00     0.167 HD
ATOM     47  C   UNL     1       1.516  11.009   0.418  1.00  0.00     0.031 A 
ATOM     48  C   UNL     1      -0.114   9.735  -6.298  1.00  0.00     0.031 A 
ATOM     49  C   UNL     1       1.692  12.122  -0.475  1.00  0.00     0.049 A 
ATOM     50  C   UNL     1       0.379  11.078  -5.844  1.00  0.00     0.074 A 
ATOM     51  C   UNL     1       2.160  13.393  -0.191  1.00  0.00     0.029 A 
ATOM     52  N   UNL     1       1.416  12.091  -1.835  1.00  0.00    -0.354 N 
ATOM     53  N   UNL     1       0.727  11.460  -4.638  1.00  0.00    -0.248 NA
ATOM     54  C   UNL     1       0.485  12.126  -6.867  1.00  0.00     0.031 C 
ATOM     55  C   UNL     1       2.135  14.140  -1.374  1.00  0.00     0.029 A 
ATOM     56  C   UNL     1       1.695  13.322  -2.403  1.00  0.00     0.049 A 
ATOM     57  H   UNL     1       1.072  11.309  -2.323  1.00  0.00     0.167 HD
ATOM     58  C   UNL     1       1.107  12.790  -4.758  1.00  0.00     0.074 A 
ATOM     59  C   UNL     1       0.958  13.143  -6.157  1.00  0.00     0.031 C 
ATOM     60  C   UNL     1       1.541  13.644  -3.799  1.00  0.00     0.031 A 
BRANCH  47  61
ATOM     61  C   UNL     1       1.826  11.194   1.879  1.00  0.00    -0.014 A 
ATOM     62  C   UNL     1       2.955  10.603   2.474  1.00  0.00     0.010 A 
ATOM     63  C   UNL     1       0.964  11.975   2.671  1.00  0.00     0.010 A 
ATOM     64  C   UNL     1       3.188  10.750   3.845  1.00  0.00     0.020 A 
ATOM     65  C   UNL     1       1.207  12.143   4.036  1.00  0.00     0.020 A 
ATOM     66  C   UNL     1       2.305  11.510   4.620  1.00  0.00     0.054 A 
BRANCH  66  67
ATOM     67  S   UNL     1       2.620  11.679   6.399  1.00  0.00     0.124 S 
ATOM     68  O   UNL     1       2.158  10.391   6.908  1.00  0.00    -0.237 OA
ATOM     69  O   UNL     1       4.063  11.895   6.454  1.00  0.00    -0.237 OA
ATOM     70  O   UNL     1       1.806  12.830   6.785  1.00  0.00    -0.744 OA
ENDBRANCH  66  67
ENDBRANCH  47  61
BRANCH  48  71
ATOM     71  C   UNL     1      -0.497   9.484  -7.712  1.00  0.00    -0.014 A 
ATOM     72  C   UNL     1       0.486   9.347  -8.706  1.00  0.00     0.010 A 
ATOM     73  C   UNL     1      -1.852   9.324  -8.060  1.00  0.00     0.010 A 
ATOM     74  C   UNL     1       0.122   9.051 -10.023  1.00  0.00     0.020 A 
ATOM     75  C   UNL     1      -2.217   9.004  -9.370  1.00  0.00     0.020 A 
ATOM     76  C   UNL     1      -1.228   8.876 -10.345  1.00  0.00     0.054 A 
BRANCH  76  77
ATOM     77  S   UNL     1      -1.673   8.408 -12.041  1.00  0.00     0.124 S 
ATOM     78  O   UNL     1      -1.556   9.680 -12.746  1.00  0.00    -0.237 OA
ATOM     79  O   UNL     1      -0.664   7.405 -12.370  1.00  0.00    -0.237 OA
ATOM     80  O   UNL     1      -3.032   7.889 -11.904  1.00  0.00    -0.744 OA
ENDBRANCH  76  77
ENDBRANCH  48  71
BRANCH  60  81
ATOM     81  C   UNL     1       1.921  15.030  -4.236  1.00  0.00    -0.014 A 
ATOM     82  C   UNL     1       0.940  15.996  -4.519  1.00  0.00     0.010 A 
ATOM     83  C   UNL     1       3.280  15.383  -4.305  1.00  0.00     0.010 A 
ATOM     84  C   UNL     1       1.315  17.291  -4.884  1.00  0.00     0.020 A 
ATOM     85  C   UNL     1       3.658  16.682  -4.650  1.00  0.00     0.020 A 
ATOM     86  C   UNL     1       2.672  17.626  -4.948  1.00  0.00     0.054 A 
BRANCH  86  87
ATOM     87  S   UNL     1       3.136  19.328  -5.369  1.00  0.00     0.124 S 
ATOM     88  O   UNL     1       2.945  19.344  -6.817  1.00  0.00    -0.237 OA
ATOM     89  O   UNL     1       2.182  20.123  -4.600  1.00  0.00    -0.237 OA
ATOM     90  O   UNL     1       4.524  19.427  -4.921  1.00  0.00    -0.744 OA
ENDBRANCH  86  87
ENDBRANCH  60  81
ENDBRANCH  34  35
ENDBRANCH  27  29
ENDBRANCH  26  27
ENDBRANCH  25  26
ENDBRANCH   1  25
TORSDOF 17
