REMARK SMILES O=C(OCCOC(=O)[C@H]1CCCN(c2cc(-c3ccccn3)nc(-c3ccccc3F)n2)C1)c1ccc(-c2c3nc(c(-c4ccc(S(=O)(=O)[O-])cc4)c4ccc([nH]4)c(-c4ccc(S(=O)(=O)[O-])cc4)c4nc(c(-c5ccc(S(=O)(=O)[O-])cc5)c5ccc2[nH]5)C=C4)C=C3)cc1
REMARK SMILES IDX 4 1 3 2 2 3 1 4 34 5 35 6 93 7 36 8 92 9 37 10 38 11 39 12
REMARK SMILES IDX 86 13 40 14 91 15 85 16 87 17 41 18 90 19 84 20 83 21 42 23
REMARK SMILES IDX 72 24 53 25 71 26 54 27 57 28 70 29 88 30 55 31 56 32 69 34
REMARK SMILES IDX 89 35 58 36 43 37 44 38 52 39 45 40 51 41 46 42 47 43 48 44
REMARK SMILES IDX 49 45 50 46 73 47 74 48 82 49 75 50 81 51 76 52 77 53 78 54
REMARK SMILES IDX 79 55 80 56 59 57 60 58 68 59 61 60 67 61 62 62 63 63 64 64
REMARK SMILES IDX 65 65 66 66 5 67 6 68 7 69 8 70 9 71 10 72 33 73 11 74 13 75
REMARK SMILES IDX 12 76 14 77 15 78 32 79 16 80 24 81 23 82 17 83 18 84 22 85
REMARK SMILES IDX 19 86 21 87 20 88 25 89 26 90 30 91 27 92 29 93 31 94 28 95
REMARK H PARENT 87 22 57 33
REMARK Flexibility Score: inf
ROOT
ATOM      1  C   UNL     1       5.310   2.524  -5.580  1.00  0.00     0.275 C 
ENDROOT
BRANCH   1   2
ATOM      2  O   UNL     1       5.968   1.659  -4.642  1.00  0.00    -0.458 OA
BRANCH   2   3
ATOM      3  C   UNL     1       6.063   1.740  -3.294  1.00  0.00     0.338 C 
ATOM      4  O   UNL     1       6.757   0.895  -2.725  1.00  0.00    -0.246 OA
BRANCH   3   5
ATOM      5  C   UNL     1       5.289   2.700  -2.429  1.00  0.00     0.060 A 
ATOM      6  C   UNL     1       4.631   3.873  -2.828  1.00  0.00     0.016 A 
ATOM      7  C   UNL     1       5.131   2.300  -1.089  1.00  0.00     0.016 A 
ATOM      8  C   UNL     1       3.741   4.555  -1.974  1.00  0.00     0.010 A 
ATOM      9  C   UNL     1       4.224   2.953  -0.248  1.00  0.00     0.010 A 
ATOM     10  C   UNL     1       3.498   4.078  -0.690  1.00  0.00    -0.014 A 
BRANCH  10  11
ATOM     11  C   UNL     1       2.652   4.793   0.304  1.00  0.00     0.031 A 
ATOM     12  C   UNL     1       3.379   5.356   1.487  1.00  0.00     0.074 A 
ATOM     13  C   UNL     1       1.302   4.831   0.260  1.00  0.00     0.049 A 
ATOM     14  N   UNL     1       2.907   5.808   2.614  1.00  0.00    -0.248 NA
ATOM     15  C   UNL     1       4.851   5.380   1.385  1.00  0.00     0.031 C 
ATOM     16  C   UNL     1       0.458   4.398  -0.851  1.00  0.00     0.029 A 
ATOM     17  N   UNL     1       0.390   5.181   1.232  1.00  0.00    -0.354 N 
ATOM     18  C   UNL     1       4.025   6.191   3.338  1.00  0.00     0.074 A 
ATOM     19  C   UNL     1       5.191   5.771   2.599  1.00  0.00     0.031 C 
ATOM     20  C   UNL     1      -0.828   4.365  -0.451  1.00  0.00     0.029 A 
ATOM     21  C   UNL     1      -0.906   4.807   0.935  1.00  0.00     0.049 A 
ATOM     22  H   UNL     1       0.638   5.652   2.061  1.00  0.00     0.167 HD
ATOM     23  C   UNL     1       4.082   6.916   4.476  1.00  0.00     0.031 A 
ATOM     24  C   UNL     1      -2.019   4.805   1.698  1.00  0.00     0.031 A 
ATOM     25  C   UNL     1       2.920   7.318   5.206  1.00  0.00     0.049 A 
ATOM     26  C   UNL     1      -1.945   5.453   3.058  1.00  0.00     0.074 A 
ATOM     27  C   UNL     1       2.837   8.098   6.341  1.00  0.00     0.029 A 
ATOM     28  N   UNL     1       1.627   6.944   4.868  1.00  0.00    -0.354 N 
ATOM     29  N   UNL     1      -0.891   5.925   3.681  1.00  0.00    -0.248 NA
ATOM     30  C   UNL     1      -3.210   5.648   3.780  1.00  0.00     0.031 C 
ATOM     31  C   UNL     1       1.491   8.154   6.720  1.00  0.00     0.029 A 
ATOM     32  C   UNL     1       0.734   7.461   5.784  1.00  0.00     0.049 A 
ATOM     33  H   UNL     1       1.383   6.393   4.090  1.00  0.00     0.167 HD
ATOM     34  C   UNL     1      -1.377   6.562   4.818  1.00  0.00     0.074 A 
ATOM     35  C   UNL     1      -2.813   6.367   4.823  1.00  0.00     0.031 C 
ATOM     36  C   UNL     1      -0.697   7.282   5.744  1.00  0.00     0.031 A 
BRANCH  23  37
ATOM     37  C   UNL     1       5.458   7.310   4.931  1.00  0.00    -0.014 A 
ATOM     38  C   UNL     1       6.245   8.175   4.141  1.00  0.00     0.010 A 
ATOM     39  C   UNL     1       6.018   6.724   6.076  1.00  0.00     0.010 A 
ATOM     40  C   UNL     1       7.596   8.360   4.429  1.00  0.00     0.020 A 
ATOM     41  C   UNL     1       7.362   6.939   6.389  1.00  0.00     0.020 A 
ATOM     42  C   UNL     1       8.150   7.725   5.543  1.00  0.00     0.054 A 
BRANCH  42  43
ATOM     43  S   UNL     1       9.924   7.925   5.855  1.00  0.00     0.124 S 
ATOM     44  O   UNL     1      10.508   7.072   4.822  1.00  0.00    -0.237 OA
ATOM     45  O   UNL     1      10.122   9.360   5.669  1.00  0.00    -0.237 OA
ATOM     46  O   UNL     1      10.089   7.447   7.225  1.00  0.00    -0.744 OA
ENDBRANCH  42  43
ENDBRANCH  23  37
BRANCH  24  47
ATOM     47  C   UNL     1      -3.306   4.242   1.187  1.00  0.00    -0.014 A 
ATOM     48  C   UNL     1      -4.327   5.091   0.723  1.00  0.00     0.010 A 
ATOM     49  C   UNL     1      -3.528   2.850   1.173  1.00  0.00     0.010 A 
ATOM     50  C   UNL     1      -5.543   4.565   0.268  1.00  0.00     0.020 A 
ATOM     51  C   UNL     1      -4.740   2.318   0.706  1.00  0.00     0.020 A 
ATOM     52  C   UNL     1      -5.742   3.181   0.257  1.00  0.00     0.054 A 
BRANCH  52  53
ATOM     53  S   UNL     1      -7.316   2.538  -0.389  1.00  0.00     0.124 S 
ATOM     54  O   UNL     1      -8.273   2.998   0.612  1.00  0.00    -0.237 OA
ATOM     55  O   UNL     1      -7.402   3.186  -1.695  1.00  0.00    -0.237 OA
ATOM     56  O   UNL     1      -7.109   1.092  -0.435  1.00  0.00    -0.744 OA
ENDBRANCH  52  53
ENDBRANCH  24  47
BRANCH  36  57
ATOM     57  C   UNL     1      -1.486   8.017   6.789  1.00  0.00    -0.014 A 
ATOM     58  C   UNL     1      -2.048   7.355   7.891  1.00  0.00     0.010 A 
ATOM     59  C   UNL     1      -1.520   9.425   6.733  1.00  0.00     0.010 A 
ATOM     60  C   UNL     1      -2.617   8.093   8.932  1.00  0.00     0.020 A 
ATOM     61  C   UNL     1      -2.061  10.164   7.784  1.00  0.00     0.020 A 
ATOM     62  C   UNL     1      -2.604   9.492   8.879  1.00  0.00     0.054 A 
BRANCH  62  63
ATOM     63  S   UNL     1      -3.226  10.426  10.304  1.00  0.00     0.124 S 
ATOM     64  O   UNL     1      -4.669  10.237  10.184  1.00  0.00    -0.237 OA
ATOM     65  O   UNL     1      -2.593   9.746  11.431  1.00  0.00    -0.237 OA
ATOM     66  O   UNL     1      -2.752  11.787  10.060  1.00  0.00    -0.744 OA
ENDBRANCH  62  63
ENDBRANCH  36  57
ENDBRANCH  10  11
ENDBRANCH   3   5
ENDBRANCH   2   3
ENDBRANCH   1   2
BRANCH   1  67
ATOM     67  C   UNL     1       3.829   2.197  -5.795  1.00  0.00     0.274 C 
BRANCH  67  68
ATOM     68  O   UNL     1       3.184   1.774  -4.584  1.00  0.00    -0.462 OA
BRANCH  68  69
ATOM     69  C   UNL     1       2.494   0.595  -4.600  1.00  0.00     0.310 C 
ATOM     70  O   UNL     1       2.359  -0.107  -5.601  1.00  0.00    -0.252 OA
BRANCH  69  71
ATOM     71  C   UNL     1       1.920   0.228  -3.233  1.00  0.00     0.118 C 
ATOM     72  C   UNL     1       2.092   1.363  -2.233  1.00  0.00     0.019 C 
ATOM     73  C   UNL     1       0.450  -0.155  -3.364  1.00  0.00     0.133 C 
ATOM     74  C   UNL     1       1.397   1.125  -0.907  1.00  0.00     0.022 C 
ATOM     75  N   UNL     1      -0.259  -0.131  -2.086  1.00  0.00    -0.356 N 
ATOM     76  C   UNL     1      -0.083   1.000  -1.190  1.00  0.00     0.118 C 
BRANCH  75  77
ATOM     77  C   UNL     1      -0.614  -1.294  -1.430  1.00  0.00     0.133 A 
ATOM     78  C   UNL     1      -1.878  -1.328  -0.895  1.00  0.00     0.077 A 
ATOM     79  N   UNL     1       0.245  -2.305  -1.276  1.00  0.00    -0.211 NA
ATOM     80  C   UNL     1      -2.285  -2.468  -0.243  1.00  0.00     0.095 A 
ATOM     81  C   UNL     1      -0.204  -3.357  -0.558  1.00  0.00     0.165 A 
ATOM     82  N   UNL     1      -1.442  -3.499  -0.038  1.00  0.00    -0.226 NA
BRANCH  80  83
ATOM     83  C   UNL     1      -3.698  -2.556   0.160  1.00  0.00     0.089 A 
ATOM     84  C   UNL     1      -4.694  -2.156  -0.744  1.00  0.00     0.030 A 
ATOM     85  N   UNL     1      -3.977  -2.849   1.455  1.00  0.00    -0.255 NA
ATOM     86  C   UNL     1      -5.997  -1.991  -0.302  1.00  0.00     0.004 A 
ATOM     87  C   UNL     1      -5.262  -2.684   1.851  1.00  0.00     0.112 A 
ATOM     88  C   UNL     1      -6.289  -2.252   1.025  1.00  0.00     0.020 A 
ENDBRANCH  80  83
BRANCH  81  89
ATOM     89  C   UNL     1       0.743  -4.444  -0.347  1.00  0.00     0.055 A 
ATOM     90  C   UNL     1       1.814  -4.332   0.559  1.00  0.00     0.015 A 
ATOM     91  C   UNL     1       0.623  -5.631  -1.074  1.00  0.00     0.134 A 
ATOM     92  C   UNL     1       2.724  -5.383   0.729  1.00  0.00     0.001 A 
ATOM     93  C   UNL     1       1.528  -6.679  -0.914  1.00  0.00     0.040 A 
ATOM     94  F   UNL     1      -0.363  -5.779  -1.973  1.00  0.00    -0.206 F 
ATOM     95  C   UNL     1       2.580  -6.557  -0.010  1.00  0.00     0.003 A 
ENDBRANCH  81  89
ENDBRANCH  75  77
ENDBRANCH  69  71
ENDBRANCH  68  69
ENDBRANCH  67  68
ENDBRANCH   1  67
TORSDOF 17
