REMARK SMILES NS(=O)(=O)c1ccc(/N=N/c2ccc(O)c(C(=O)OCCOC(=O)c3ccc(-c4c5nc(c(-c6ccc(S(=O)(=O)[O-])cc6)c6ccc([nH]6)c(-c6ccc(S(=O)(=O)[O-])cc6)c6nc(c(-c7ccc(S(=O)(=O)[O-])cc7)c7ccc4[nH]7)C=C6)C=C5)cc3)c2)cc1
REMARK SMILES IDX 20 1 19 2 17 3 18 4 16 5 11 6 12 7 85 8 13 9 14 10 10 11
REMARK SMILES IDX 9 12 8 13 5 14 6 15 87 16 7 17 86 18 2 19 3 20 4 21 1 22
REMARK SMILES IDX 15 25 21 27 22 28 23 29 24 30 25 31 26 32 84 33 27 34 83 35
REMARK SMILES IDX 28 36 29 37 30 38 77 39 31 40 82 41 76 42 78 43 32 44 81 45
REMARK SMILES IDX 75 46 74 47 33 49 63 50 44 51 62 52 45 53 48 54 61 55 79 56
REMARK SMILES IDX 46 57 47 58 60 60 80 61 49 62 34 63 35 64 43 65 36 66 42 67
REMARK SMILES IDX 37 68 38 69 39 70 40 71 41 72 64 73 65 74 73 75 66 76 72 77
REMARK SMILES IDX 67 78 68 79 69 80 70 81 71 82 50 83 51 84 59 85 52 86 58 87
REMARK SMILES IDX 53 88 54 89 55 90 56 91 57 92
REMARK H PARENT 1 23 1 24 15 26 78 48 48 59
REMARK Flexibility Score: inf
ROOT
ATOM      1  C   UNL     1       2.030   5.888 -11.094  1.00  0.00     0.275 C 
ENDROOT
BRANCH   1   2
ATOM      2  O   UNL     1       2.042   6.083  -9.667  1.00  0.00    -0.458 OA
BRANCH   2   3
ATOM      3  C   UNL     1       2.916   6.997  -9.182  1.00  0.00     0.342 C 
ATOM      4  O   UNL     1       3.722   7.652  -9.826  1.00  0.00    -0.246 OA
BRANCH   3   5
ATOM      5  C   UNL     1       2.717   7.207  -7.728  1.00  0.00     0.104 A 
ATOM      6  C   UNL     1       1.795   6.505  -5.593  1.00  0.00     0.087 A 
ATOM      7  C   UNL     1       2.171   7.728  -5.029  1.00  0.00     0.034 A 
ATOM      8  C   UNL     1       2.029   6.269  -6.954  1.00  0.00     0.049 A 
ATOM      9  C   UNL     1       2.878   8.660  -5.788  1.00  0.00     0.049 A 
ATOM     10  C   UNL     1       3.191   8.376  -7.116  1.00  0.00     0.130 A 
BRANCH   6  11
ATOM     11  N   UNL     1       1.231   5.495  -4.796  1.00  0.00    -0.151 NA
ATOM     12  N   UNL     1       2.113   4.629  -4.604  1.00  0.00    -0.151 NA
BRANCH  12  13
ATOM     13  C   UNL     1       1.658   3.495  -3.916  1.00  0.00     0.086 A 
ATOM     14  C   UNL     1       0.960   1.158  -2.543  1.00  0.00     0.082 A 
ATOM     15  C   UNL     1       1.935   1.104  -3.539  1.00  0.00     0.024 A 
ATOM     16  C   UNL     1       0.314   2.360  -2.238  1.00  0.00     0.024 A 
ATOM     17  C   UNL     1       2.281   2.275  -4.215  1.00  0.00     0.031 A 
ATOM     18  C   UNL     1       0.671   3.525  -2.920  1.00  0.00     0.031 A 
BRANCH  14  19
ATOM     19  S   UNL     1       0.532  -0.304  -1.650  1.00  0.00     0.238 S 
ATOM     20  O   UNL     1       1.274  -1.428  -2.180  1.00  0.00    -0.207 OA
ATOM     21  O   UNL     1      -0.895  -0.340  -1.456  1.00  0.00    -0.207 OA
BRANCH  19  22
ATOM     22  N   UNL     1       1.208   0.007  -0.145  1.00  0.00    -0.225 NA
ATOM     23  H   UNL     1       1.028  -0.780   0.478  1.00  0.00     0.137 HD
ATOM     24  H   UNL     1       0.793   0.853   0.245  1.00  0.00     0.137 HD
ENDBRANCH  19  22
ENDBRANCH  14  19
ENDBRANCH  12  13
ENDBRANCH   6  11
BRANCH  10  25
ATOM     25  O   UNL     1       3.940   9.318  -7.769  1.00  0.00    -0.507 OA
ATOM     26  H   UNL     1       4.233  10.082  -7.312  1.00  0.00     0.293 HD
ENDBRANCH  10  25
ENDBRANCH   3   5
ENDBRANCH   2   3
ENDBRANCH   1   2
BRANCH   1  27
ATOM     27  C   UNL     1       0.817   6.562 -11.742  1.00  0.00     0.275 C 
BRANCH  27  28
ATOM     28  O   UNL     1       0.923   7.997 -11.692  1.00  0.00    -0.458 OA
BRANCH  28  29
ATOM     29  C   UNL     1       0.264   8.587 -10.665  1.00  0.00     0.338 C 
ATOM     30  O   UNL     1      -0.450   8.037  -9.842  1.00  0.00    -0.246 OA
BRANCH  29  31
ATOM     31  C   UNL     1       0.698   9.990 -10.543  1.00  0.00     0.060 A 
ATOM     32  C   UNL     1       1.302  10.353  -9.340  1.00  0.00     0.016 A 
ATOM     33  C   UNL     1       0.494  10.945 -11.539  1.00  0.00     0.016 A 
ATOM     34  C   UNL     1       1.757  11.650  -9.132  1.00  0.00     0.010 A 
ATOM     35  C   UNL     1       0.915  12.266 -11.316  1.00  0.00     0.010 A 
ATOM     36  C   UNL     1       1.551  12.625 -10.111  1.00  0.00    -0.014 A 
BRANCH  36  37
ATOM     37  C   UNL     1       1.898  14.035  -9.806  1.00  0.00     0.031 A 
ATOM     38  C   UNL     1       0.805  14.989  -9.414  1.00  0.00     0.074 A 
ATOM     39  C   UNL     1       3.180  14.447  -9.809  1.00  0.00     0.049 A 
ATOM     40  N   UNL     1       0.876  16.269  -9.156  1.00  0.00    -0.248 NA
ATOM     41  C   UNL     1      -0.547  14.421  -9.289  1.00  0.00     0.031 C 
ATOM     42  C   UNL     1       4.342  13.599 -10.075  1.00  0.00     0.029 A 
ATOM     43  N   UNL     1       3.719  15.689  -9.575  1.00  0.00    -0.354 N 
ATOM     44  C   UNL     1      -0.422  16.666  -8.857  1.00  0.00     0.074 A 
ATOM     45  C   UNL     1      -1.262  15.494  -8.984  1.00  0.00     0.031 C 
ATOM     46  C   UNL     1       5.456  14.347  -9.995  1.00  0.00     0.029 A 
ATOM     47  C   UNL     1       5.085  15.734  -9.723  1.00  0.00     0.049 A 
ATOM     48  H   UNL     1       3.178  16.472  -9.325  1.00  0.00     0.167 HD
ATOM     49  C   UNL     1      -0.873  17.895  -8.508  1.00  0.00     0.031 A 
ATOM     50  C   UNL     1       5.937  16.779  -9.675  1.00  0.00     0.031 A 
ATOM     51  C   UNL     1      -0.034  19.060  -8.393  1.00  0.00     0.049 A 
ATOM     52  C   UNL     1       5.396  18.158  -9.393  1.00  0.00     0.074 A 
ATOM     53  C   UNL     1      -0.400  20.351  -8.055  1.00  0.00     0.029 A 
ATOM     54  N   UNL     1       1.335  19.079  -8.617  1.00  0.00    -0.354 N 
ATOM     55  N   UNL     1       4.164  18.524  -9.128  1.00  0.00    -0.248 NA
ATOM     56  C   UNL     1       6.363  19.265  -9.400  1.00  0.00     0.031 C 
ATOM     57  C   UNL     1       0.735  21.164  -8.142  1.00  0.00     0.029 A 
ATOM     58  C   UNL     1       1.823  20.365  -8.455  1.00  0.00     0.049 A 
ATOM     59  H   UNL     1       1.879  18.294  -8.855  1.00  0.00     0.167 HD
ATOM     60  C   UNL     1       4.215  19.897  -8.904  1.00  0.00     0.074 A 
ATOM     61  C   UNL     1       5.600  20.292  -9.051  1.00  0.00     0.031 C 
ATOM     62  C   UNL     1       3.205  20.751  -8.601  1.00  0.00     0.031 A 
BRANCH  49  63
ATOM     63  C   UNL     1      -2.354  18.054  -8.285  1.00  0.00    -0.014 A 
ATOM     64  C   UNL     1      -2.996  17.488  -7.169  1.00  0.00     0.010 A 
ATOM     65  C   UNL     1      -3.111  18.812  -9.197  1.00  0.00     0.010 A 
ATOM     66  C   UNL     1      -4.374  17.643  -6.993  1.00  0.00     0.020 A 
ATOM     67  C   UNL     1      -4.482  18.997  -9.008  1.00  0.00     0.020 A 
ATOM     68  C   UNL     1      -5.109  18.396  -7.915  1.00  0.00     0.054 A 
BRANCH  68  69
ATOM     69  S   UNL     1      -6.892  18.595  -7.652  1.00  0.00     0.124 S 
ATOM     70  O   UNL     1      -7.391  17.252  -7.937  1.00  0.00    -0.237 OA
ATOM     71  O   UNL     1      -6.964  19.008  -6.253  1.00  0.00    -0.237 OA
ATOM     72  O   UNL     1      -7.275  19.619  -8.621  1.00  0.00    -0.744 OA
ENDBRANCH  68  69
ENDBRANCH  49  63
BRANCH  50  73
ATOM     73  C   UNL     1       7.390  16.574  -9.943  1.00  0.00    -0.014 A 
ATOM     74  C   UNL     1       8.348  16.783  -8.936  1.00  0.00     0.010 A 
ATOM     75  C   UNL     1       7.824  16.185 -11.224  1.00  0.00     0.010 A 
ATOM     76  C   UNL     1       9.712  16.628  -9.210  1.00  0.00     0.020 A 
ATOM     77  C   UNL     1       9.182  15.996 -11.493  1.00  0.00     0.020 A 
ATOM     78  C   UNL     1      10.119  16.231 -10.487  1.00  0.00     0.054 A 
BRANCH  78  79
ATOM     79  S   UNL     1      11.889  15.993 -10.807  1.00  0.00     0.124 S 
ATOM     80  O   UNL     1      12.389  17.364 -10.787  1.00  0.00    -0.237 OA
ATOM     81  O   UNL     1      12.301  15.153  -9.685  1.00  0.00    -0.237 OA
ATOM     82  O   UNL     1      11.917  15.336 -12.112  1.00  0.00    -0.744 OA
ENDBRANCH  78  79
ENDBRANCH  50  73
BRANCH  62  83
ATOM     83  C   UNL     1       3.560  22.196  -8.354  1.00  0.00    -0.014 A 
ATOM     84  C   UNL     1       3.979  23.042  -9.396  1.00  0.00     0.010 A 
ATOM     85  C   UNL     1       3.416  22.730  -7.059  1.00  0.00     0.010 A 
ATOM     86  C   UNL     1       4.280  24.384  -9.141  1.00  0.00     0.020 A 
ATOM     87  C   UNL     1       3.683  24.078  -6.807  1.00  0.00     0.020 A 
ATOM     88  C   UNL     1       4.128  24.894  -7.848  1.00  0.00     0.054 A 
BRANCH  88  89
ATOM     89  S   UNL     1       4.484  26.648  -7.553  1.00  0.00     0.124 S 
ATOM     90  O   UNL     1       5.939  26.688  -7.669  1.00  0.00    -0.237 OA
ATOM     91  O   UNL     1       3.750  27.309  -8.629  1.00  0.00    -0.237 OA
ATOM     92  O   UNL     1       3.961  26.889  -6.210  1.00  0.00    -0.744 OA
ENDBRANCH  88  89
ENDBRANCH  62  83
ENDBRANCH  36  37
ENDBRANCH  29  31
ENDBRANCH  28  29
ENDBRANCH  27  28
ENDBRANCH   1  27
TORSDOF 19
