REMARK SMILES Cc1cnccc1N[C@@H]1C=C[C@@H](C(=O)OCCOC(=O)c2ccc(-c3c4nc(c(-c5ccc(S(=O)(=O)[O-])cc5)c5ccc([nH]5)c(-c5ccc(S(=O)(=O)[O-])cc5)c5nc(c(-c6ccc(S(=O)(=O)[O-])cc6)c6ccc3[nH]6)C=C5)C=C4)cc2)C1
REMARK SMILES IDX 17 1 16 2 15 3 13 4 14 5 12 6 9 7 10 8 81 9 11 10 8 11 7 13
REMARK SMILES IDX 1 14 2 15 3 16 4 17 6 18 5 19 18 20 19 21 20 22 21 23 22 24
REMARK SMILES IDX 80 25 23 26 79 27 24 28 25 29 26 30 73 31 27 32 78 33 72 34
REMARK SMILES IDX 74 35 28 36 77 37 71 38 70 39 29 41 59 42 40 43 58 44 41 45
REMARK SMILES IDX 44 46 57 47 75 48 42 49 43 50 56 52 76 53 45 54 30 55 31 56
REMARK SMILES IDX 39 57 32 58 38 59 33 60 34 61 35 62 36 63 37 64 60 65 61 66
REMARK SMILES IDX 69 67 62 68 68 69 63 70 64 71 65 72 66 73 67 74 46 75 47 76
REMARK SMILES IDX 55 77 48 78 54 79 49 80 50 81 51 82 52 83 53 84
REMARK H PARENT 8 12 74 40 44 51
REMARK Flexibility Score: inf
ROOT
ATOM      1  C   UNL     1      -5.087   4.592   2.655  1.00  0.00     0.275 C 
ENDROOT
BRANCH   1   2
ATOM      2  C   UNL     1      -4.864   3.899   1.310  1.00  0.00     0.274 C 
BRANCH   2   3
ATOM      3  O   UNL     1      -3.461   3.914   0.990  1.00  0.00    -0.462 OA
BRANCH   3   4
ATOM      4  C   UNL     1      -3.118   4.395  -0.231  1.00  0.00     0.312 C 
ATOM      5  O   UNL     1      -3.921   4.663  -1.120  1.00  0.00    -0.252 OA
BRANCH   4   6
ATOM      6  C   UNL     1      -1.629   4.699  -0.341  1.00  0.00     0.124 C 
ATOM      7  C   UNL     1       0.576   3.655  -0.098  1.00  0.00     0.103 C 
ATOM      8  C   UNL     1       0.167   3.751  -1.527  1.00  0.00    -0.006 C 
ATOM      9  C   UNL     1      -0.679   4.061   0.684  1.00  0.00     0.048 C 
ATOM     10  C   UNL     1      -1.056   4.276  -1.663  1.00  0.00    -0.014 C 
BRANCH   7  11
ATOM     11  N   UNL     1       1.785   4.410   0.186  1.00  0.00    -0.379 N 
ATOM     12  H   UNL     1       2.585   3.852   0.320  1.00  0.00     0.161 HD
BRANCH  11  13
ATOM     13  C   UNL     1       2.019   5.768   0.303  1.00  0.00     0.040 A 
ATOM     14  C   UNL     1       4.120   5.369   1.738  1.00  0.00     0.048 C 
ATOM     15  C   UNL     1       3.090   6.247   1.087  1.00  0.00    -0.010 A 
ATOM     16  C   UNL     1       3.253   7.630   1.226  1.00  0.00     0.116 A 
ATOM     17  N   UNL     1       2.454   8.556   0.667  1.00  0.00    -0.264 NA
ATOM     18  C   UNL     1       1.204   6.734  -0.288  1.00  0.00     0.046 A 
ATOM     19  C   UNL     1       1.451   8.085  -0.088  1.00  0.00     0.113 A 
ENDBRANCH  11  13
ENDBRANCH   7  11
ENDBRANCH   4   6
ENDBRANCH   3   4
ENDBRANCH   2   3
ENDBRANCH   1   2
BRANCH   1  20
ATOM     20  O   UNL     1      -4.713   5.984   2.595  1.00  0.00    -0.458 OA
BRANCH  20  21
ATOM     21  C   UNL     1      -3.428   6.242   2.941  1.00  0.00     0.338 C 
ATOM     22  O   UNL     1      -2.581   5.440   3.293  1.00  0.00    -0.246 OA
BRANCH  21  23
ATOM     23  C   UNL     1      -3.138   7.671   2.749  1.00  0.00     0.060 A 
ATOM     24  C   UNL     1      -2.324   8.043   1.680  1.00  0.00     0.016 A 
ATOM     25  C   UNL     1      -3.559   8.620   3.681  1.00  0.00     0.016 A 
ATOM     26  C   UNL     1      -1.900   9.361   1.549  1.00  0.00     0.010 A 
ATOM     27  C   UNL     1      -3.150   9.951   3.535  1.00  0.00     0.010 A 
ATOM     28  C   UNL     1      -2.302  10.329   2.478  1.00  0.00    -0.014 A 
BRANCH  28  29
ATOM     29  C   UNL     1      -1.789  11.717   2.357  1.00  0.00     0.031 A 
ATOM     30  C   UNL     1      -0.818  12.256   3.372  1.00  0.00     0.074 A 
ATOM     31  C   UNL     1      -2.164  12.484   1.315  1.00  0.00     0.049 A 
ATOM     32  N   UNL     1      -0.336  13.467   3.490  1.00  0.00    -0.248 NA
ATOM     33  C   UNL     1      -0.333  11.312   4.391  1.00  0.00     0.031 C 
ATOM     34  C   UNL     1      -3.055  12.063   0.232  1.00  0.00     0.029 A 
ATOM     35  N   UNL     1      -1.831  13.775   0.990  1.00  0.00    -0.354 N 
ATOM     36  C   UNL     1       0.482  13.441   4.614  1.00  0.00     0.074 A 
ATOM     37  C   UNL     1       0.420  12.097   5.149  1.00  0.00     0.031 C 
ATOM     38  C   UNL     1      -3.178  13.068  -0.650  1.00  0.00     0.029 A 
ATOM     39  C   UNL     1      -2.425  14.222  -0.166  1.00  0.00     0.049 A 
ATOM     40  H   UNL     1      -1.225  14.328   1.533  1.00  0.00     0.167 HD
ATOM     41  C   UNL     1       1.215  14.445   5.152  1.00  0.00     0.031 A 
ATOM     42  C   UNL     1      -2.393  15.432  -0.758  1.00  0.00     0.031 A 
ATOM     43  C   UNL     1       1.297  15.774   4.603  1.00  0.00     0.049 A 
ATOM     44  C   UNL     1      -1.607  16.542  -0.120  1.00  0.00     0.074 A 
ATOM     45  C   UNL     1       2.016  16.858   5.075  1.00  0.00     0.029 A 
ATOM     46  N   UNL     1       0.648  16.196   3.453  1.00  0.00    -0.354 N 
ATOM     47  N   UNL     1      -0.876  16.513   0.968  1.00  0.00    -0.248 NA
ATOM     48  C   UNL     1      -1.650  17.852  -0.785  1.00  0.00     0.031 C 
ATOM     49  C   UNL     1       1.770  17.948   4.232  1.00  0.00     0.029 A 
ATOM     50  C   UNL     1       0.934  17.529   3.210  1.00  0.00     0.049 A 
ATOM     51  H   UNL     1       0.069  15.631   2.892  1.00  0.00     0.167 HD
ATOM     52  C   UNL     1      -0.367  17.797   1.116  1.00  0.00     0.074 A 
ATOM     53  C   UNL     1      -0.856  18.574  -0.006  1.00  0.00     0.031 C 
ATOM     54  C   UNL     1       0.430  18.291   2.095  1.00  0.00     0.031 A 
BRANCH  41  55
ATOM     55  C   UNL     1       1.956  14.155   6.430  1.00  0.00    -0.014 A 
ATOM     56  C   UNL     1       3.123  13.372   6.440  1.00  0.00     0.010 A 
ATOM     57  C   UNL     1       1.485  14.699   7.639  1.00  0.00     0.010 A 
ATOM     58  C   UNL     1       3.784  13.105   7.643  1.00  0.00     0.020 A 
ATOM     59  C   UNL     1       2.155  14.454   8.841  1.00  0.00     0.020 A 
ATOM     60  C   UNL     1       3.291  13.641   8.837  1.00  0.00     0.054 A 
BRANCH  60  61
ATOM     61  S   UNL     1       4.168  13.288  10.386  1.00  0.00     0.124 S 
ATOM     62  O   UNL     1       3.750  11.915  10.661  1.00  0.00    -0.237 OA
ATOM     63  O   UNL     1       5.570  13.453  10.010  1.00  0.00    -0.237 OA
ATOM     64  O   UNL     1       3.653  14.293  11.313  1.00  0.00    -0.744 OA
ENDBRANCH  60  61
ENDBRANCH  41  55
BRANCH  42  65
ATOM     65  C   UNL     1      -3.167  15.661  -2.007  1.00  0.00    -0.014 A 
ATOM     66  C   UNL     1      -2.508  15.815  -3.239  1.00  0.00     0.010 A 
ATOM     67  C   UNL     1      -4.573  15.699  -1.972  1.00  0.00     0.010 A 
ATOM     68  C   UNL     1      -3.242  16.006  -4.413  1.00  0.00     0.020 A 
ATOM     69  C   UNL     1      -5.310  15.864  -3.147  1.00  0.00     0.020 A 
ATOM     70  C   UNL     1      -4.639  16.026  -4.360  1.00  0.00     0.054 A 
BRANCH  70  71
ATOM     71  S   UNL     1      -5.578  16.200  -5.903  1.00  0.00     0.124 S 
ATOM     72  O   UNL     1      -5.479  17.633  -6.158  1.00  0.00    -0.237 OA
ATOM     73  O   UNL     1      -4.840  15.340  -6.825  1.00  0.00    -0.237 OA
ATOM     74  O   UNL     1      -6.910  15.716  -5.546  1.00  0.00    -0.744 OA
ENDBRANCH  70  71
ENDBRANCH  42  65
BRANCH  54  75
ATOM     75  C   UNL     1       0.831  19.736   1.991  1.00  0.00    -0.014 A 
ATOM     76  C   UNL     1      -0.079  20.762   2.300  1.00  0.00     0.010 A 
ATOM     77  C   UNL     1       2.146  20.071   1.621  1.00  0.00     0.010 A 
ATOM     78  C   UNL     1       0.312  22.101   2.214  1.00  0.00     0.020 A 
ATOM     79  C   UNL     1       2.546  21.408   1.553  1.00  0.00     0.020 A 
ATOM     80  C   UNL     1       1.621  22.416   1.837  1.00  0.00     0.054 A 
BRANCH  80  81
ATOM     81  S   UNL     1       2.118  24.159   1.768  1.00  0.00     0.124 S 
ATOM     82  O   UNL     1       1.519  24.596   0.510  1.00  0.00    -0.237 OA
ATOM     83  O   UNL     1       1.516  24.716   2.977  1.00  0.00    -0.237 OA
ATOM     84  O   UNL     1       3.578  24.103   1.777  1.00  0.00    -0.744 OA
ENDBRANCH  80  81
ENDBRANCH  54  75
ENDBRANCH  28  29
ENDBRANCH  21  23
ENDBRANCH  20  21
ENDBRANCH   1  20
TORSDOF 16
