REMARK SMILES O=C(OCCOC(=O)c1cccc(OS(=O)(=O)c2cccc([N+](=O)[O-])c2)c1)c1ccc(-c2c3nc(c(-c4ccc(S(=O)(=O)[O-])cc4)c4ccc([nH]4)c(-c4ccc(S(=O)(=O)[O-])cc4)c4nc(c(-c5ccc(S(=O)(=O)[O-])cc5)c5ccc2[nH]5)C=C4)C=C3)cc1
REMARK SMILES IDX 5 1 4 2 3 3 2 4 1 5 28 6 29 7 87 8 30 9 86 10 31 11 32 12
REMARK SMILES IDX 33 13 80 14 34 15 85 16 79 17 81 18 35 19 84 20 78 21 77 22
REMARK SMILES IDX 36 24 66 25 47 26 65 27 48 28 51 29 64 30 82 31 49 32 50 33
REMARK SMILES IDX 63 35 83 36 52 37 37 38 38 39 46 40 39 41 45 42 40 43 41 44
REMARK SMILES IDX 42 45 43 46 44 47 67 48 68 49 76 50 69 51 75 52 70 53 71 54
REMARK SMILES IDX 72 55 73 56 74 57 53 58 54 59 62 60 55 61 61 62 56 63 57 64
REMARK SMILES IDX 58 65 59 66 60 67 6 68 7 69 8 70 9 71 10 72 27 73 11 74
REMARK SMILES IDX 13 75 12 76 14 77 15 78 16 79 17 80 18 81 19 82 26 83 20 84
REMARK SMILES IDX 22 85 21 86 23 87 24 88 25 89
REMARK H PARENT 81 23 51 34
REMARK Flexibility Score: inf
ROOT
ATOM      1  C   UNL     1       4.074  -0.899  -1.776  1.00  0.00     0.275 C 
ENDROOT
BRANCH   1   2
ATOM      2  C   UNL     1       4.210  -1.361  -0.314  1.00  0.00     0.275 C 
BRANCH   2   3
ATOM      3  O   UNL     1       3.057  -1.089   0.496  1.00  0.00    -0.458 OA
BRANCH   3   4
ATOM      4  C   UNL     1       2.682   0.056   1.114  1.00  0.00     0.338 C 
ATOM      5  O   UNL     1       1.604   0.058   1.711  1.00  0.00    -0.246 OA
BRANCH   4   6
ATOM      6  C   UNL     1       3.447   1.352   1.064  1.00  0.00     0.060 A 
ATOM      7  C   UNL     1       4.662   1.576   0.415  1.00  0.00     0.016 A 
ATOM      8  C   UNL     1       2.825   2.469   1.657  1.00  0.00     0.016 A 
ATOM      9  C   UNL     1       5.208   2.849   0.301  1.00  0.00     0.010 A 
ATOM     10  C   UNL     1       3.349   3.761   1.514  1.00  0.00     0.010 A 
ATOM     11  C   UNL     1       4.545   3.958   0.818  1.00  0.00    -0.014 A 
BRANCH  11  12
ATOM     12  C   UNL     1       5.238   5.265   0.774  1.00  0.00     0.031 A 
ATOM     13  C   UNL     1       5.851   5.760   2.038  1.00  0.00     0.074 A 
ATOM     14  C   UNL     1       5.561   5.866  -0.389  1.00  0.00     0.049 A 
ATOM     15  N   UNL     1       6.561   6.835   2.225  1.00  0.00    -0.248 NA
ATOM     16  C   UNL     1       5.710   4.899   3.224  1.00  0.00     0.031 C 
ATOM     17  C   UNL     1       5.321   5.273  -1.697  1.00  0.00     0.029 A 
ATOM     18  N   UNL     1       6.245   7.027  -0.678  1.00  0.00    -0.354 N 
ATOM     19  C   UNL     1       6.976   6.768   3.541  1.00  0.00     0.074 A 
ATOM     20  C   UNL     1       6.384   5.587   4.128  1.00  0.00     0.031 C 
ATOM     21  C   UNL     1       5.924   6.022  -2.628  1.00  0.00     0.029 A 
ATOM     22  C   UNL     1       6.415   7.254  -2.030  1.00  0.00     0.049 A 
ATOM     23  H   UNL     1       6.581   7.640   0.016  1.00  0.00     0.167 HD
ATOM     24  C   UNL     1       7.809   7.609   4.188  1.00  0.00     0.031 A 
ATOM     25  C   UNL     1       6.846   8.343  -2.711  1.00  0.00     0.031 A 
ATOM     26  C   UNL     1       8.370   8.789   3.596  1.00  0.00     0.049 A 
ATOM     27  C   UNL     1       7.360   9.477  -1.885  1.00  0.00     0.074 A 
ATOM     28  C   UNL     1       9.174   9.744   4.187  1.00  0.00     0.029 A 
ATOM     29  N   UNL     1       8.169   9.189   2.282  1.00  0.00    -0.354 N 
ATOM     30  N   UNL     1       7.662   9.461  -0.609  1.00  0.00    -0.248 NA
ATOM     31  C   UNL     1       7.598  10.760  -2.548  1.00  0.00     0.031 C 
ATOM     32  C   UNL     1       9.377  10.770   3.260  1.00  0.00     0.029 A 
ATOM     33  C   UNL     1       8.785  10.408   2.060  1.00  0.00     0.049 A 
ATOM     34  H   UNL     1       7.663   8.680   1.608  1.00  0.00     0.167 HD
ATOM     35  C   UNL     1       8.233  10.693  -0.344  1.00  0.00     0.074 A 
ATOM     36  C   UNL     1       8.200  11.443  -1.584  1.00  0.00     0.031 C 
ATOM     37  C   UNL     1       8.771  11.136   0.816  1.00  0.00     0.031 A 
BRANCH  24  38
ATOM     38  C   UNL     1       8.052   7.311   5.635  1.00  0.00    -0.014 A 
ATOM     39  C   UNL     1       8.783   6.181   6.048  1.00  0.00     0.010 A 
ATOM     40  C   UNL     1       7.476   8.156   6.596  1.00  0.00     0.010 A 
ATOM     41  C   UNL     1       8.893   5.880   7.405  1.00  0.00     0.020 A 
ATOM     42  C   UNL     1       7.619   7.881   7.954  1.00  0.00     0.020 A 
ATOM     43  C   UNL     1       8.314   6.736   8.348  1.00  0.00     0.054 A 
BRANCH  43  44
ATOM     44  S   UNL     1       8.505   6.343  10.104  1.00  0.00     0.124 S 
ATOM     45  O   UNL     1       7.679   5.145  10.236  1.00  0.00    -0.237 OA
ATOM     46  O   UNL     1       9.945   6.130  10.222  1.00  0.00    -0.237 OA
ATOM     47  O   UNL     1       7.994   7.531  10.783  1.00  0.00    -0.744 OA
ENDBRANCH  43  44
ENDBRANCH  24  38
BRANCH  25  48
ATOM     48  C   UNL     1       6.623   8.473  -4.191  1.00  0.00    -0.014 A 
ATOM     49  C   UNL     1       7.643   9.316  -5.371  1.00  0.00     0.010 A 
ATOM     50  C   UNL     1       5.040   7.874  -4.778  1.00  0.00     0.010 A 
ATOM     51  C   UNL     1       7.179   9.599  -7.082  1.00  0.00     0.020 A 
ATOM     52  C   UNL     1       4.505   8.162  -6.706  1.00  0.00     0.020 A 
ATOM     53  C   UNL     1       5.654   9.037  -7.769  1.00  0.00     0.054 A 
BRANCH  53  54
ATOM     54  S   UNL     1       5.156   9.440  -9.429  1.00  0.00     0.124 S 
ATOM     55  O   UNL     1       5.769  10.747  -9.630  1.00  0.00    -0.237 OA
ATOM     56  O   UNL     1       5.731   8.338 -10.192  1.00  0.00    -0.237 OA
ATOM     57  O   UNL     1       3.699   9.440  -9.319  1.00  0.00    -0.744 OA
ENDBRANCH  53  54
ENDBRANCH  25  48
BRANCH  37  58
ATOM     58  C   UNL     1       9.513  12.438   0.753  1.00  0.00    -0.014 A 
ATOM     59  C   UNL     1       8.862  13.666   0.558  1.00  0.00     0.010 A 
ATOM     60  C   UNL     1      10.913  12.409   0.901  1.00  0.00     0.010 A 
ATOM     61  C   UNL     1       9.606  14.843   0.477  1.00  0.00     0.020 A 
ATOM     62  C   UNL     1      11.653  13.587   0.870  1.00  0.00     0.020 A 
ATOM     63  C   UNL     1      10.995  14.796   0.644  1.00  0.00     0.054 A 
BRANCH  63  64
ATOM     64  S   UNL     1      11.927  16.346   0.604  1.00  0.00     0.124 S 
ATOM     65  O   UNL     1      11.819  16.729  -0.802  1.00  0.00    -0.237 OA
ATOM     66  O   UNL     1      11.186  17.183   1.544  1.00  0.00    -0.237 OA
ATOM     67  O   UNL     1      13.265  15.957   1.042  1.00  0.00    -0.744 OA
ENDBRANCH  63  64
ENDBRANCH  37  58
ENDBRANCH  11  12
ENDBRANCH   4   6
ENDBRANCH   3   4
ENDBRANCH   2   3
ENDBRANCH   1   2
BRANCH   1  68
ATOM     68  O   UNL     1       3.516   0.419  -1.931  1.00  0.00    -0.458 OA
BRANCH  68  69
ATOM     69  C   UNL     1       2.159   0.513  -1.986  1.00  0.00     0.338 C 
ATOM     70  O   UNL     1       1.368  -0.412  -1.992  1.00  0.00    -0.246 OA
BRANCH  69  71
ATOM     71  C   UNL     1       1.776   1.944  -1.895  1.00  0.00     0.063 A 
ATOM     72  C   UNL     1       0.819   2.359  -0.966  1.00  0.00     0.016 A 
ATOM     73  C   UNL     1       2.394   2.882  -2.721  1.00  0.00     0.064 A 
ATOM     74  C   UNL     1       0.553   3.723  -0.806  1.00  0.00     0.005 A 
ATOM     75  C   UNL     1       2.050   4.234  -2.633  1.00  0.00     0.143 A 
ATOM     76  C   UNL     1       1.177   4.661  -1.632  1.00  0.00     0.048 A 
BRANCH  75  77
ATOM     77  O   UNL     1       2.538   5.207  -3.472  1.00  0.00    -0.379 OA
BRANCH  77  78
ATOM     78  S   UNL     1       3.042   4.825  -4.981  1.00  0.00     0.339 S 
ATOM     79  O   UNL     1       4.209   3.966  -4.853  1.00  0.00    -0.181 OA
ATOM     80  O   UNL     1       1.906   4.424  -5.783  1.00  0.00    -0.181 OA
BRANCH  78  81
ATOM     81  C   UNL     1       3.652   6.360  -5.638  1.00  0.00     0.112 A 
ATOM     82  C   UNL     1       5.327   6.247  -6.163  1.00  0.00     0.024 A 
ATOM     83  C   UNL     1       2.834   7.882  -5.186  1.00  0.00     0.109 A 
ATOM     84  C   UNL     1       6.290   7.744  -6.201  1.00  0.00     0.009 A 
ATOM     85  C   UNL     1       3.673   9.442  -5.213  1.00  0.00     0.270 A 
ATOM     86  C   UNL     1       5.409   9.492  -5.688  1.00  0.00     0.086 A 
BRANCH  85  87
ATOM     87  N   UNL     1       3.069  10.607  -4.622  1.00  0.00     0.062 N 
ATOM     88  O   UNL     1       3.589  11.704  -4.851  1.00  0.00    -0.258 OA
ATOM     89  O   UNL     1       2.093  10.412  -3.884  1.00  0.00    -0.258 OA
ENDBRANCH  85  87
ENDBRANCH  78  81
ENDBRANCH  77  78
ENDBRANCH  75  77
ENDBRANCH  69  71
ENDBRANCH  68  69
ENDBRANCH   1  68
TORSDOF 18
