REMARK SMILES Cc1ccccc1CCNS(=O)(=O)c1ccc(C(=O)OCCOC(=O)c2ccc(-c3c4nc(c(-c5ccc(S(=O)(=O)[O-])cc5)c5ccc([nH]5)c(-c5ccc(S(=O)(=O)[O-])cc5)c5nc(c(-c6ccc(S(=O)(=O)[O-])cc6)c6ccc3[nH]6)C=C5)C=C4)cc2)o1
REMARK SMILES IDX 21 1 20 2 18 3 19 4 17 5 14 6 15 7 86 8 16 9 11 10 12 11
REMARK SMILES IDX 13 12 10 13 9 15 8 16 7 17 1 18 2 19 3 20 4 21 6 22 5 23
REMARK SMILES IDX 22 24 23 25 24 26 25 27 26 28 27 29 85 30 28 31 84 32 29 33
REMARK SMILES IDX 30 34 31 35 78 36 32 37 83 38 77 39 79 40 33 41 82 42 76 43
REMARK SMILES IDX 75 44 34 46 64 47 45 48 63 49 46 50 49 51 62 52 80 53 47 54
REMARK SMILES IDX 48 55 61 57 81 58 50 59 35 60 36 61 44 62 37 63 43 64 38 65
REMARK SMILES IDX 39 66 40 67 41 68 42 69 65 70 66 71 74 72 67 73 73 74 68 75
REMARK SMILES IDX 69 76 70 77 71 78 72 79 51 80 52 81 60 82 53 83 59 84 54 85
REMARK SMILES IDX 55 86 56 87 57 88 58 89
REMARK H PARENT 10 14 79 45 49 56
REMARK Flexibility Score: inf
ROOT
ATOM      1  C   UNL     1       2.896  10.538  -1.102  1.00  0.00     0.275 C 
ENDROOT
BRANCH   1   2
ATOM      2  O   UNL     1       1.805   9.617  -1.003  1.00  0.00    -0.456 OA
BRANCH   2   3
ATOM      3  C   UNL     1       0.841   9.822  -1.943  1.00  0.00     0.374 C 
ATOM      4  O   UNL     1       0.795  10.810  -2.666  1.00  0.00    -0.242 OA
BRANCH   3   5
ATOM      5  C   UNL     1      -0.176   8.794  -1.909  1.00  0.00     0.213 A 
ATOM      6  C   UNL     1      -1.045   6.743  -2.148  1.00  0.00     0.234 A 
ATOM      7  C   UNL     1      -2.093   7.661  -2.099  1.00  0.00     0.065 A 
ATOM      8  O   UNL     1       0.130   7.455  -1.948  1.00  0.00    -0.436 OA
ATOM      9  C   UNL     1      -1.542   8.952  -1.996  1.00  0.00     0.060 A 
BRANCH   6  10
ATOM     10  S   UNL     1      -1.128   4.992  -2.596  1.00  0.00     0.273 S 
ATOM     11  O   UNL     1      -0.199   4.811  -3.688  1.00  0.00    -0.204 OA
ATOM     12  O   UNL     1      -2.550   4.771  -2.792  1.00  0.00    -0.204 OA
BRANCH  10  13
ATOM     13  N   UNL     1      -0.728   3.949  -1.333  1.00  0.00    -0.208 NA
ATOM     14  H   UNL     1      -1.021   4.396  -0.464  1.00  0.00     0.141 HD
BRANCH  13  15
ATOM     15  C   UNL     1       0.707   3.566  -1.175  1.00  0.00     0.104 C 
BRANCH  15  16
ATOM     16  C   UNL     1       0.898   2.708   0.099  1.00  0.00     0.052 C 
BRANCH  16  17
ATOM     17  C   UNL     1       0.278   1.311   0.073  1.00  0.00    -0.044 A 
ATOM     18  C   UNL     1       2.520   0.043  -0.164  1.00  0.00     0.044 C 
ATOM     19  C   UNL     1       1.017   0.116  -0.074  1.00  0.00    -0.048 A 
ATOM     20  C   UNL     1       0.337  -1.123  -0.086  1.00  0.00     0.004 A 
ATOM     21  C   UNL     1      -1.048  -1.194   0.039  1.00  0.00     0.000 A 
ATOM     22  C   UNL     1      -1.120   1.204   0.243  1.00  0.00     0.004 A 
ATOM     23  C   UNL     1      -1.778  -0.027   0.209  1.00  0.00     0.000 A 
ENDBRANCH  16  17
ENDBRANCH  15  16
ENDBRANCH  13  15
ENDBRANCH  10  13
ENDBRANCH   6  10
ENDBRANCH   3   5
ENDBRANCH   2   3
ENDBRANCH   1   2
BRANCH   1  24
ATOM     24  C   UNL     1       4.084  10.145  -0.206  1.00  0.00     0.275 C 
BRANCH  24  25
ATOM     25  O   UNL     1       4.420   8.745   0.012  1.00  0.00    -0.458 OA
BRANCH  25  26
ATOM     26  C   UNL     1       3.746   7.725  -0.591  1.00  0.00     0.338 C 
ATOM     27  O   UNL     1       2.984   6.995   0.033  1.00  0.00    -0.246 OA
BRANCH  26  28
ATOM     28  C   UNL     1       3.892   7.729  -2.069  1.00  0.00     0.060 A 
ATOM     29  C   UNL     1       2.946   7.078  -2.876  1.00  0.00     0.016 A 
ATOM     30  C   UNL     1       4.805   8.617  -2.624  1.00  0.00     0.016 A 
ATOM     31  C   UNL     1       2.804   7.439  -4.214  1.00  0.00     0.010 A 
ATOM     32  C   UNL     1       4.531   9.122  -3.862  1.00  0.00     0.010 A 
ATOM     33  C   UNL     1       3.572   8.502  -4.677  1.00  0.00    -0.014 A 
BRANCH  33  34
ATOM     34  C   UNL     1       3.650   8.946  -6.058  1.00  0.00     0.031 A 
ATOM     35  C   UNL     1       2.539   9.654  -6.710  1.00  0.00     0.074 A 
ATOM     36  C   UNL     1       4.887   8.757  -6.578  1.00  0.00     0.049 A 
ATOM     37  N   UNL     1       2.454   9.792  -7.982  1.00  0.00    -0.248 NA
ATOM     38  C   UNL     1       1.407  10.264  -6.013  1.00  0.00     0.031 C 
ATOM     39  C   UNL     1       5.549   9.253  -7.767  1.00  0.00     0.029 A 
ATOM     40  N   UNL     1       5.808   7.841  -6.068  1.00  0.00    -0.354 N 
ATOM     41  C   UNL     1       1.496  10.750  -8.243  1.00  0.00     0.074 A 
ATOM     42  C   UNL     1       0.787  10.926  -7.003  1.00  0.00     0.031 C 
ATOM     43  C   UNL     1       6.588   8.431  -8.045  1.00  0.00     0.029 A 
ATOM     44  C   UNL     1       6.532   7.302  -7.115  1.00  0.00     0.049 A 
ATOM     45  H   UNL     1       5.923   7.616  -5.117  1.00  0.00     0.167 HD
ATOM     46  C   UNL     1       1.547  11.379  -9.451  1.00  0.00     0.031 A 
ATOM     47  C   UNL     1       6.223   6.001  -7.416  1.00  0.00     0.031 A 
ATOM     48  C   UNL     1       2.607  10.782 -10.265  1.00  0.00     0.049 A 
ATOM     49  C   UNL     1       5.407   5.923  -8.699  1.00  0.00     0.074 A 
ATOM     50  C   UNL     1       3.924  11.124 -10.520  1.00  0.00     0.029 A 
ATOM     51  N   UNL     1       2.488   9.442 -10.582  1.00  0.00    -0.354 N 
ATOM     52  N   UNL     1       4.835   6.953  -9.267  1.00  0.00    -0.248 NA
ATOM     53  C   UNL     1       5.182   4.694  -9.452  1.00  0.00     0.031 C 
ATOM     54  C   UNL     1       4.603   9.943 -10.954  1.00  0.00     0.029 A 
ATOM     55  C   UNL     1       3.695   8.899 -10.970  1.00  0.00     0.049 A 
ATOM     56  H   UNL     1       1.644   8.937 -10.536  1.00  0.00     0.167 HD
ATOM     57  C   UNL     1       4.271   6.590 -10.453  1.00  0.00     0.074 A 
ATOM     58  C   UNL     1       4.462   5.147 -10.495  1.00  0.00     0.031 C 
ATOM     59  C   UNL     1       3.714   7.487 -11.321  1.00  0.00     0.031 A 
BRANCH  46  60
ATOM     60  C   UNL     1       0.835  12.649  -9.848  1.00  0.00    -0.014 A 
ATOM     61  C   UNL     1       1.407  13.428 -10.880  1.00  0.00     0.010 A 
ATOM     62  C   UNL     1      -0.356  13.143  -9.284  1.00  0.00     0.010 A 
ATOM     63  C   UNL     1       0.860  14.644 -11.302  1.00  0.00     0.020 A 
ATOM     64  C   UNL     1      -0.918  14.371  -9.698  1.00  0.00     0.020 A 
ATOM     65  C   UNL     1      -0.300  15.116 -10.703  1.00  0.00     0.054 A 
BRANCH  65  66
ATOM     66  S   UNL     1      -0.974  16.699 -11.280  1.00  0.00     0.124 S 
ATOM     67  O   UNL     1       0.118  17.627 -10.996  1.00  0.00    -0.237 OA
ATOM     68  O   UNL     1      -1.224  16.440 -12.695  1.00  0.00    -0.237 OA
ATOM     69  O   UNL     1      -2.171  16.887 -10.462  1.00  0.00    -0.744 OA
ENDBRANCH  65  66
ENDBRANCH  46  60
BRANCH  47  70
ATOM     70  C   UNL     1       6.050   5.146  -6.171  1.00  0.00    -0.014 A 
ATOM     71  C   UNL     1       7.128   5.116  -5.244  1.00  0.00     0.010 A 
ATOM     72  C   UNL     1       4.797   4.699  -5.712  1.00  0.00     0.010 A 
ATOM     73  C   UNL     1       6.934   4.797  -3.891  1.00  0.00     0.020 A 
ATOM     74  C   UNL     1       4.605   4.343  -4.356  1.00  0.00     0.020 A 
ATOM     75  C   UNL     1       5.664   4.438  -3.447  1.00  0.00     0.054 A 
BRANCH  75  76
ATOM     76  S   UNL     1       5.396   4.281  -1.649  1.00  0.00     0.124 S 
ATOM     77  O   UNL     1       6.152   3.076  -1.322  1.00  0.00    -0.237 OA
ATOM     78  O   UNL     1       5.966   5.531  -1.145  1.00  0.00    -0.237 OA
ATOM     79  O   UNL     1       3.946   4.154  -1.525  1.00  0.00    -0.744 OA
ENDBRANCH  75  76
ENDBRANCH  47  70
BRANCH  59  80
ATOM     80  C   UNL     1       3.071   7.093 -12.618  1.00  0.00    -0.014 A 
ATOM     81  C   UNL     1       3.603   6.107 -13.455  1.00  0.00     0.010 A 
ATOM     82  C   UNL     1       1.933   7.796 -13.080  1.00  0.00     0.010 A 
ATOM     83  C   UNL     1       2.952   5.755 -14.641  1.00  0.00     0.020 A 
ATOM     84  C   UNL     1       1.295   7.477 -14.271  1.00  0.00     0.020 A 
ATOM     85  C   UNL     1       1.790   6.428 -15.028  1.00  0.00     0.054 A 
BRANCH  85  86
ATOM     86  S   UNL     1       0.943   5.937 -16.541  1.00  0.00     0.124 S 
ATOM     87  O   UNL     1       2.040   5.844 -17.501  1.00  0.00    -0.237 OA
ATOM     88  O   UNL     1       0.342   4.665 -16.146  1.00  0.00    -0.237 OA
ATOM     89  O   UNL     1      -0.002   7.024 -16.783  1.00  0.00    -0.744 OA
ENDBRANCH  85  86
ENDBRANCH  59  80
ENDBRANCH  33  34
ENDBRANCH  26  28
ENDBRANCH  25  26
ENDBRANCH  24  25
ENDBRANCH   1  24
TORSDOF 19
