REMARK SMILES O=C(OCCOC(=O)c1ccc(S(=O)(=O)NCC[NH+]2CCCC2)c(F)c1)c1ccc(-c2c3nc(c(-c4ccc(S(=O)(=O)[O-])cc4)c4ccc([nH]4)c(-c4ccc(S(=O)(=O)[O-])cc4)c4nc(c(-c5ccc(S(=O)(=O)[O-])cc5)c5ccc2[nH]5)C=C4)C=C3)cc1
REMARK SMILES IDX 5 1 4 2 3 3 2 4 1 5 27 6 28 7 86 8 29 9 85 10 30 11 31 12
REMARK SMILES IDX 32 13 79 14 33 15 84 16 78 17 80 18 34 19 83 20 77 21 76 22
REMARK SMILES IDX 35 24 65 25 46 26 64 27 47 28 50 29 63 30 81 31 48 32 49 33
REMARK SMILES IDX 62 35 82 36 51 37 36 38 37 39 45 40 38 41 44 42 39 43 40 44
REMARK SMILES IDX 41 45 42 46 43 47 66 48 67 49 75 50 68 51 74 52 69 53 70 54
REMARK SMILES IDX 71 55 72 56 73 57 52 58 53 59 61 60 54 61 60 62 55 63 56 64
REMARK SMILES IDX 57 65 58 66 59 67 6 68 7 69 8 70 9 71 10 72 26 73 11 74
REMARK SMILES IDX 24 75 12 76 25 77 13 78 14 79 15 80 16 81 17 83 18 84 19 85
REMARK SMILES IDX 20 86 23 87 21 89 22 90
REMARK H PARENT 80 23 50 34 16 82 19 88
REMARK Flexibility Score: inf
ROOT
ATOM      1  C   UNL     1       3.800  -2.157   0.792  1.00  0.00     0.275 C 
ENDROOT
BRANCH   1   2
ATOM      2  C   UNL     1       4.034  -0.802   1.463  1.00  0.00     0.275 C 
BRANCH   2   3
ATOM      3  O   UNL     1       3.006   0.175   1.225  1.00  0.00    -0.458 OA
BRANCH   3   4
ATOM      4  C   UNL     1       2.880   1.084   0.230  1.00  0.00     0.338 C 
ATOM      5  O   UNL     1       2.018   1.956   0.338  1.00  0.00    -0.246 OA
BRANCH   4   6
ATOM      6  C   UNL     1       3.631   1.015  -1.063  1.00  0.00     0.060 A 
ATOM      7  C   UNL     1       4.929   0.528  -1.240  1.00  0.00     0.016 A 
ATOM      8  C   UNL     1       2.964   1.525  -2.193  1.00  0.00     0.016 A 
ATOM      9  C   UNL     1       5.520   0.484  -2.507  1.00  0.00     0.010 A 
ATOM     10  C   UNL     1       3.550   1.482  -3.461  1.00  0.00     0.010 A 
ATOM     11  C   UNL     1       4.835   0.960  -3.624  1.00  0.00    -0.014 A 
BRANCH  11  12
ATOM     12  C   UNL     1       5.508   1.032  -4.939  1.00  0.00     0.031 A 
ATOM     13  C   UNL     1       6.015   2.359  -5.419  1.00  0.00     0.074 A 
ATOM     14  C   UNL     1       5.666  -0.074  -5.689  1.00  0.00     0.049 A 
ATOM     15  N   UNL     1       6.658   2.645  -6.518  1.00  0.00    -0.248 NA
ATOM     16  C   UNL     1       5.796   3.511  -4.528  1.00  0.00     0.031 C 
ATOM     17  C   UNL     1       5.259  -1.422  -5.299  1.00  0.00     0.029 A 
ATOM     18  N   UNL     1       6.177  -0.235  -6.950  1.00  0.00    -0.354 N 
ATOM     19  C   UNL     1       6.961   3.996  -6.432  1.00  0.00     0.074 A 
ATOM     20  C   UNL     1       6.368   4.491  -5.210  1.00  0.00     0.031 C 
ATOM     21  C   UNL     1       5.438  -2.256  -6.338  1.00  0.00     0.029 A 
ATOM     22  C   UNL     1       5.999  -1.502  -7.454  1.00  0.00     0.049 A 
ATOM     23  H   UNL     1       6.627   0.486  -7.447  1.00  0.00     0.167 HD
ATOM     24  C   UNL     1       7.704   4.745  -7.279  1.00  0.00     0.031 A 
ATOM     25  C   UNL     1       6.248  -1.993  -8.682  1.00  0.00     0.031 A 
ATOM     26  C   UNL     1       8.243   4.249  -8.514  1.00  0.00     0.049 A 
ATOM     27  C   UNL     1       6.941  -1.106  -9.679  1.00  0.00     0.074 A 
ATOM     28  C   UNL     1       9.027   4.909  -9.442  1.00  0.00     0.029 A 
ATOM     29  N   UNL     1       8.026   2.969  -9.006  1.00  0.00    -0.354 N 
ATOM     30  N   UNL     1       7.316   0.145  -9.542  1.00  0.00    -0.248 NA
ATOM     31  C   UNL     1       7.297  -1.705 -10.971  1.00  0.00     0.031 C 
ATOM     32  C   UNL     1       9.242   4.042 -10.520  1.00  0.00     0.029 A 
ATOM     33  C   UNL     1       8.635   2.826 -10.240  1.00  0.00     0.049 A 
ATOM     34  H   UNL     1       7.514   2.266  -8.544  1.00  0.00     0.167 HD
ATOM     35  C   UNL     1       7.997   0.467 -10.709  1.00  0.00     0.074 A 
ATOM     36  C   UNL     1       7.974  -0.718 -11.544  1.00  0.00     0.031 C 
ATOM     37  C   UNL     1       8.604   1.631 -11.048  1.00  0.00     0.031 A 
BRANCH  24  38
ATOM     38  C   UNL     1       7.950   6.172  -6.877  1.00  0.00    -0.014 A 
ATOM     39  C   UNL     1       8.801   6.476  -5.796  1.00  0.00     0.010 A 
ATOM     40  C   UNL     1       7.301   7.218  -7.553  1.00  0.00     0.010 A 
ATOM     41  C   UNL     1       8.948   7.795  -5.361  1.00  0.00     0.020 A 
ATOM     42  C   UNL     1       7.464   8.542  -7.135  1.00  0.00     0.020 A 
ATOM     43  C   UNL     1       8.266   8.818  -6.025  1.00  0.00     0.054 A 
BRANCH  43  44
ATOM     44  S   UNL     1       8.444  10.518  -5.417  1.00  0.00     0.124 S 
ATOM     45  O   UNL     1       7.627  10.489  -4.205  1.00  0.00    -0.237 OA
ATOM     46  O   UNL     1       9.883  10.634  -5.200  1.00  0.00    -0.237 OA
ATOM     47  O   UNL     1       7.912  11.332  -6.507  1.00  0.00    -0.744 OA
ENDBRANCH  43  44
ENDBRANCH  24  38
BRANCH  25  48
ATOM     48  C   UNL     1       5.861  -3.390  -9.018  1.00  0.00    -0.014 A 
ATOM     49  C   UNL     1       6.829  -4.402  -9.132  1.00  0.00     0.010 A 
ATOM     50  C   UNL     1       4.504  -3.720  -9.203  1.00  0.00     0.010 A 
ATOM     51  C   UNL     1       6.452  -5.713  -9.440  1.00  0.00     0.020 A 
ATOM     52  C   UNL     1       4.121  -5.034  -9.493  1.00  0.00     0.020 A 
ATOM     53  C   UNL     1       5.099  -6.022  -9.617  1.00  0.00     0.054 A 
BRANCH  53  54
ATOM     54  S   UNL     1       4.636  -7.743  -9.965  1.00  0.00     0.124 S 
ATOM     55  O   UNL     1       5.121  -7.920 -11.330  1.00  0.00    -0.237 OA
ATOM     56  O   UNL     1       5.367  -8.477  -8.934  1.00  0.00    -0.237 OA
ATOM     57  O   UNL     1       3.184  -7.748  -9.809  1.00  0.00    -0.744 OA
ENDBRANCH  53  54
ENDBRANCH  25  48
BRANCH  37  58
ATOM     58  C   UNL     1       9.341   1.666 -12.357  1.00  0.00    -0.014 A 
ATOM     59  C   UNL     1       8.653   1.735 -13.580  1.00  0.00     0.010 A 
ATOM     60  C   UNL     1      10.748   1.699 -12.352  1.00  0.00     0.010 A 
ATOM     61  C   UNL     1       9.363   1.818 -14.780  1.00  0.00     0.020 A 
ATOM     62  C   UNL     1      11.459   1.809 -13.548  1.00  0.00     0.020 A 
ATOM     63  C   UNL     1      10.761   1.857 -14.756  1.00  0.00     0.054 A 
BRANCH  63  64
ATOM     64  S   UNL     1      11.659   2.033 -16.321  1.00  0.00     0.124 S 
ATOM     65  O   UNL     1      11.568   0.686 -16.877  1.00  0.00    -0.237 OA
ATOM     66  O   UNL     1      10.887   3.056 -17.023  1.00  0.00    -0.237 OA
ATOM     67  O   UNL     1      12.998   2.448 -15.907  1.00  0.00    -0.744 OA
ENDBRANCH  63  64
ENDBRANCH  37  58
ENDBRANCH  11  12
ENDBRANCH   4   6
ENDBRANCH   3   4
ENDBRANCH   2   3
ENDBRANCH   1   2
BRANCH   1  68
ATOM     68  O   UNL     1       3.330  -2.058  -0.559  1.00  0.00    -0.458 OA
BRANCH  68  69
ATOM     69  C   UNL     1       1.981  -2.140  -0.712  1.00  0.00     0.338 C 
ATOM     70  O   UNL     1       1.153  -2.299   0.167  1.00  0.00    -0.246 OA
BRANCH  69  71
ATOM     71  C   UNL     1       1.634  -1.858  -2.119  1.00  0.00     0.063 A 
ATOM     72  C   UNL     1       2.303  -2.481  -3.174  1.00  0.00     0.017 A 
ATOM     73  C   UNL     1       0.638  -0.911  -2.383  1.00  0.00     0.056 A 
ATOM     74  C   UNL     1       2.015  -2.099  -4.488  1.00  0.00     0.026 A 
ATOM     75  C   UNL     1       0.379  -0.514  -3.698  1.00  0.00     0.144 A 
ATOM     76  C   UNL     1       1.088  -1.076  -4.748  1.00  0.00     0.118 A 
ATOM     77  F   UNL     1      -0.533   0.447  -3.882  1.00  0.00    -0.205 F 
BRANCH  76  78
ATOM     78  S   UNL     1       1.012  -0.493  -6.414  1.00  0.00     0.243 S 
ATOM     79  O   UNL     1       2.330   0.001  -6.731  1.00  0.00    -0.207 OA
ATOM     80  O   UNL     1       0.385  -1.552  -7.175  1.00  0.00    -0.207 OA
BRANCH  78  81
ATOM     81  N   UNL     1      -0.046   0.797  -6.499  1.00  0.00    -0.205 NA
ATOM     82  H   UNL     1      -0.869   0.535  -5.956  1.00  0.00     0.141 HD
BRANCH  81  83
ATOM     83  C   UNL     1       0.355   2.131  -6.035  1.00  0.00     0.160 C 
BRANCH  83  84
ATOM     84  C   UNL     1       1.183   2.955  -7.040  1.00  0.00     0.278 C 
BRANCH  84  85
ATOM     85  N   UNL     1       0.690   3.145  -8.419  1.00  0.00    -0.334 N 
ATOM     86  C   UNL     1       1.271   4.383  -8.986  1.00  0.00     0.262 C 
ATOM     87  C   UNL     1      -0.751   3.300  -8.609  1.00  0.00     0.262 C 
ATOM     88  H   UNL     1       0.969   2.273  -8.869  1.00  0.00     0.348 HD
ATOM     89  C   UNL     1       0.294   5.475  -8.573  1.00  0.00     0.067 C 
ATOM     90  C   UNL     1      -1.059   4.790  -8.637  1.00  0.00     0.067 C 
ENDBRANCH  84  85
ENDBRANCH  83  84
ENDBRANCH  81  83
ENDBRANCH  78  81
ENDBRANCH  76  78
ENDBRANCH  69  71
ENDBRANCH  68  69
ENDBRANCH   1  68
TORSDOF 19
