REMARK SMILES COc1ccc2c(c1)c(CC(=O)OCCOC(=O)c1ccc(-c3c4nc(c(-c5ccc(S(=O)(=O)[O-])cc5)c5ccc([nH]5)c(-c5ccc(S(=O)(=O)[O-])cc5)c5nc(c(-c6ccc(S(=O)(=O)[O-])cc6)c6ccc3[nH]6)C=C5)C=C4)cc1)c(C(F)(F)F)n2C(=O)c1ccc(Cl)cc1
REMARK SMILES IDX 14 1 13 2 11 3 12 4 10 5 9 6 3 7 4 8 8 9 5 10 7 11 6 12
REMARK SMILES IDX 84 13 79 14 2 15 1 16 85 17 86 18 87 19 88 20 93 21 89 22
REMARK SMILES IDX 92 23 90 24 91 25 80 26 81 27 82 28 83 29 15 30 16 31 17 32
REMARK SMILES IDX 18 33 19 34 20 35 78 36 21 37 77 38 22 39 23 40 24 41 71 42
REMARK SMILES IDX 25 43 76 44 70 45 72 46 26 47 75 48 69 49 68 50 27 52 57 53
REMARK SMILES IDX 38 54 56 55 39 56 42 57 55 58 73 59 40 60 41 61 54 63 74 64
REMARK SMILES IDX 43 65 28 66 29 67 37 68 30 69 36 70 31 71 32 72 33 73 34 74
REMARK SMILES IDX 35 75 58 76 59 77 67 78 60 79 66 80 61 81 62 82 63 83 64 84
REMARK SMILES IDX 65 85 44 86 45 87 53 88 46 89 52 90 47 91 48 92 49 93 50 94
REMARK SMILES IDX 51 95
REMARK H PARENT 72 51 42 62
REMARK Flexibility Score: inf
ROOT
ATOM      1  C   UNL     1      -1.584  -1.061   6.947  1.00  0.00     0.274 C 
ENDROOT
BRANCH   1   2
ATOM      2  O   UNL     1      -1.047  -2.187   6.217  1.00  0.00    -0.462 OA
BRANCH   2   3
ATOM      3  C   UNL     1      -1.937  -3.178   5.966  1.00  0.00     0.310 C 
ATOM      4  O   UNL     1      -3.115  -3.148   6.311  1.00  0.00    -0.252 OA
BRANCH   3   5
ATOM      5  C   UNL     1      -1.360  -4.402   5.319  1.00  0.00     0.161 C 
BRANCH   5   6
ATOM      6  C   UNL     1       0.033  -4.428   4.739  1.00  0.00     0.002 A 
ATOM      7  C   UNL     1       1.105  -1.893   2.025  1.00  0.00     0.119 A 
ATOM      8  C   UNL     1       2.260  -2.557   1.659  1.00  0.00     0.048 A 
ATOM      9  C   UNL     1       0.343  -2.386   3.097  1.00  0.00     0.057 A 
ATOM     10  C   UNL     1       2.664  -3.702   2.350  1.00  0.00     0.031 A 
ATOM     11  C   UNL     1       0.675  -3.586   3.771  1.00  0.00     0.008 A 
ATOM     12  C   UNL     1       1.883  -4.201   3.417  1.00  0.00     0.057 A 
ATOM     13  N   UNL     1       2.098  -5.242   4.330  1.00  0.00    -0.271 N 
ATOM     14  C   UNL     1       0.880  -5.522   4.925  1.00  0.00     0.135 A 
BRANCH   7  15
ATOM     15  O   UNL     1       0.617  -0.766   1.421  1.00  0.00    -0.497 OA
ATOM     16  C   UNL     1       1.207  -0.372   0.186  1.00  0.00     0.278 C 
ENDBRANCH   7  15
BRANCH  13  17
ATOM     17  C   UNL     1       3.337  -5.857   4.634  1.00  0.00     0.262 C 
ATOM     18  O   UNL     1       3.395  -6.632   5.583  1.00  0.00    -0.268 OA
BRANCH  17  19
ATOM     19  C   UNL     1       4.600  -5.545   3.958  1.00  0.00     0.040 A 
ATOM     20  C   UNL     1       5.256  -4.347   4.264  1.00  0.00     0.015 A 
ATOM     21  C   UNL     1       5.082  -6.408   2.970  1.00  0.00     0.015 A 
ATOM     22  C   UNL     1       6.383  -3.984   3.529  1.00  0.00     0.021 A 
ATOM     23  C   UNL     1       6.214  -6.039   2.243  1.00  0.00     0.021 A 
ATOM     24  C   UNL     1       6.851  -4.825   2.517  1.00  0.00     0.041 A 
ATOM     25  Cl  UNL     1       8.214  -4.348   1.583  1.00  0.00    -0.084 Cl
ENDBRANCH  17  19
ENDBRANCH  13  17
BRANCH  14  26
ATOM     26  C   UNL     1       0.590  -6.795   5.655  1.00  0.00     0.432 C 
ATOM     27  F   UNL     1       0.706  -6.631   6.994  1.00  0.00    -0.165 F 
ATOM     28  F   UNL     1      -0.698  -7.177   5.426  1.00  0.00    -0.165 F 
ATOM     29  F   UNL     1       1.340  -7.852   5.275  1.00  0.00    -0.165 F 
ENDBRANCH  14  26
ENDBRANCH   5   6
ENDBRANCH   3   5
ENDBRANCH   2   3
ENDBRANCH   1   2
BRANCH   1  30
ATOM     30  C   UNL     1      -1.931   0.089   5.998  1.00  0.00     0.275 C 
BRANCH  30  31
ATOM     31  O   UNL     1      -3.092  -0.270   5.236  1.00  0.00    -0.458 OA
BRANCH  31  32
ATOM     32  C   UNL     1      -2.943  -0.395   3.895  1.00  0.00     0.338 C 
ATOM     33  O   UNL     1      -2.072   0.099   3.199  1.00  0.00    -0.246 OA
BRANCH  32  34
ATOM     34  C   UNL     1      -3.812  -1.521   3.509  1.00  0.00     0.060 A 
ATOM     35  C   UNL     1      -5.130  -1.584   3.961  1.00  0.00     0.016 A 
ATOM     36  C   UNL     1      -3.207  -2.631   2.910  1.00  0.00     0.016 A 
ATOM     37  C   UNL     1      -5.787  -2.808   3.939  1.00  0.00     0.010 A 
ATOM     38  C   UNL     1      -3.842  -3.862   2.948  1.00  0.00     0.010 A 
ATOM     39  C   UNL     1      -5.111  -3.958   3.508  1.00  0.00    -0.014 A 
BRANCH  39  40
ATOM     40  C   UNL     1      -5.851  -5.203   3.383  1.00  0.00     0.031 A 
ATOM     41  C   UNL     1      -6.605  -5.280   2.113  1.00  0.00     0.074 A 
ATOM     42  C   UNL     1      -5.849  -6.277   4.193  1.00  0.00     0.049 A 
ATOM     43  N   UNL     1      -7.867  -5.075   1.954  1.00  0.00    -0.248 NA
ATOM     44  C   UNL     1      -5.847  -5.455   0.868  1.00  0.00     0.031 C 
ATOM     45  C   UNL     1      -4.970  -6.622   5.308  1.00  0.00     0.029 A 
ATOM     46  N   UNL     1      -6.678  -7.357   4.105  1.00  0.00    -0.354 N 
ATOM     47  C   UNL     1      -8.105  -5.235   0.599  1.00  0.00     0.074 A 
ATOM     48  C   UNL     1      -6.814  -5.313  -0.038  1.00  0.00     0.031 C 
ATOM     49  C   UNL     1      -5.200  -7.910   5.675  1.00  0.00     0.029 A 
ATOM     50  C   UNL     1      -6.354  -8.412   4.942  1.00  0.00     0.049 A 
ATOM     51  H   UNL     1      -7.450  -7.384   3.494  1.00  0.00     0.167 HD
ATOM     52  C   UNL     1      -9.352  -5.462   0.108  1.00  0.00     0.031 A 
ATOM     53  C   UNL     1      -7.003  -9.601   4.999  1.00  0.00     0.031 A 
ATOM     54  C   UNL     1     -10.375  -5.214   1.091  1.00  0.00     0.049 A 
ATOM     55  C   UNL     1      -8.375  -9.383   4.477  1.00  0.00     0.074 A 
ATOM     56  C   UNL     1     -10.780  -4.097   1.795  1.00  0.00     0.029 A 
ATOM     57  N   UNL     1     -10.857  -6.298   1.786  1.00  0.00    -0.354 N 
ATOM     58  N   UNL     1      -9.276  -8.659   5.077  1.00  0.00    -0.248 NA
ATOM     59  C   UNL     1      -8.659  -9.700   3.087  1.00  0.00     0.031 C 
ATOM     60  C   UNL     1     -11.088  -4.572   3.104  1.00  0.00     0.029 A 
ATOM     61  C   UNL     1     -10.905  -5.957   3.118  1.00  0.00     0.049 A 
ATOM     62  H   UNL     1     -11.120  -7.164   1.400  1.00  0.00     0.167 HD
ATOM     63  C   UNL     1     -10.012  -8.082   4.055  1.00  0.00     0.074 A 
ATOM     64  C   UNL     1      -9.671  -8.858   2.867  1.00  0.00     0.031 C 
ATOM     65  C   UNL     1     -10.624  -6.870   4.215  1.00  0.00     0.031 A 
BRANCH  52  66
ATOM     66  C   UNL     1      -9.601  -6.167  -1.192  1.00  0.00    -0.014 A 
ATOM     67  C   UNL     1      -8.646  -7.020  -1.784  1.00  0.00     0.010 A 
ATOM     68  C   UNL     1     -10.883  -6.141  -1.768  1.00  0.00     0.010 A 
ATOM     69  C   UNL     1      -8.919  -7.751  -2.938  1.00  0.00     0.020 A 
ATOM     70  C   UNL     1     -11.185  -6.912  -2.901  1.00  0.00     0.020 A 
ATOM     71  C   UNL     1     -10.192  -7.696  -3.489  1.00  0.00     0.054 A 
BRANCH  71  72
ATOM     72  S   UNL     1     -10.532  -8.720  -4.940  1.00  0.00     0.124 S 
ATOM     73  O   UNL     1      -9.759  -8.038  -5.976  1.00  0.00    -0.237 OA
ATOM     74  O   UNL     1     -10.021 -10.025  -4.531  1.00  0.00    -0.237 OA
ATOM     75  O   UNL     1     -11.982  -8.638  -5.086  1.00  0.00    -0.744 OA
ENDBRANCH  71  72
ENDBRANCH  52  66
BRANCH  53  76
ATOM     76  C   UNL     1      -6.450 -10.972   5.123  1.00  0.00    -0.014 A 
ATOM     77  C   UNL     1      -5.160 -11.251   4.633  1.00  0.00     0.010 A 
ATOM     78  C   UNL     1      -7.318 -12.058   5.363  1.00  0.00     0.010 A 
ATOM     79  C   UNL     1      -4.792 -12.556   4.282  1.00  0.00     0.020 A 
ATOM     80  C   UNL     1      -6.956 -13.367   5.009  1.00  0.00     0.020 A 
ATOM     81  C   UNL     1      -5.710 -13.597   4.426  1.00  0.00     0.054 A 
BRANCH  81  82
ATOM     82  S   UNL     1      -5.289 -15.223   3.732  1.00  0.00     0.124 S 
ATOM     83  O   UNL     1      -5.255 -14.940   2.299  1.00  0.00    -0.237 OA
ATOM     84  O   UNL     1      -3.994 -15.504   4.346  1.00  0.00    -0.237 OA
ATOM     85  O   UNL     1      -6.384 -16.084   4.172  1.00  0.00    -0.744 OA
ENDBRANCH  81  82
ENDBRANCH  53  76
BRANCH  65  86
ATOM     86  C   UNL     1     -10.789  -6.320   5.623  1.00  0.00    -0.014 A 
ATOM     87  C   UNL     1     -12.060  -5.840   5.993  1.00  0.00     0.010 A 
ATOM     88  C   UNL     1      -9.726  -6.138   6.532  1.00  0.00     0.010 A 
ATOM     89  C   UNL     1     -12.264  -5.187   7.212  1.00  0.00     0.020 A 
ATOM     90  C   UNL     1      -9.929  -5.510   7.772  1.00  0.00     0.020 A 
ATOM     91  C   UNL     1     -11.196  -5.020   8.095  1.00  0.00     0.054 A 
BRANCH  91  92
ATOM     92  S   UNL     1     -11.500  -4.147   9.656  1.00  0.00     0.124 S 
ATOM     93  O   UNL     1     -11.672  -2.765   9.211  1.00  0.00    -0.237 OA
ATOM     94  O   UNL     1     -12.711  -4.793  10.158  1.00  0.00    -0.237 OA
ATOM     95  O   UNL     1     -10.296  -4.399  10.446  1.00  0.00    -0.744 OA
ENDBRANCH  91  92
ENDBRANCH  65  86
ENDBRANCH  39  40
ENDBRANCH  32  34
ENDBRANCH  31  32
ENDBRANCH  30  31
ENDBRANCH   1  30
TORSDOF 19
