REMARK SMILES O=C(OCCOC(=O)[C@@H]1[C@H](C(=O)Nc2cccc(Cl)c2F)[C@@H]2C=C[C@H]1C2)c1ccc(-c2c3nc(c(-c4ccc(S(=O)(=O)[O-])cc4)c4ccc([nH]4)c(-c4ccc(S(=O)(=O)[O-])cc4)c4nc(c(-c5ccc(S(=O)(=O)[O-])cc5)c5ccc2[nH]5)C=C4)C=C3)cc1
REMARK SMILES IDX 4 1 3 2 2 3 1 4 27 5 28 6 86 7 29 8 85 9 30 10 31 11 32 12
REMARK SMILES IDX 79 13 33 14 84 15 78 16 80 17 34 18 83 19 77 20 76 21 35 23
REMARK SMILES IDX 65 24 46 25 64 26 47 27 50 28 63 29 81 30 48 31 49 32 62 34
REMARK SMILES IDX 82 35 51 36 36 37 37 38 45 39 38 40 44 41 39 42 40 43 41 44
REMARK SMILES IDX 42 45 43 46 66 47 67 48 75 49 68 50 74 51 69 52 70 53 71 54
REMARK SMILES IDX 72 55 73 56 52 57 53 58 61 59 54 60 60 61 55 62 56 63 57 64
REMARK SMILES IDX 58 65 59 66 5 67 6 68 7 69 8 70 9 71 10 72 25 73 22 74 24 75
REMARK SMILES IDX 26 76 23 77 11 78 12 79 13 80 14 82 15 83 20 84 16 85 18 86
REMARK SMILES IDX 21 87 17 88 19 89
REMARK H PARENT 80 22 50 33 13 81
REMARK Flexibility Score: inf
ROOT
ATOM      1  C   UNL     1       4.889   0.449  -1.329  1.00  0.00     0.275 C 
ENDROOT
BRANCH   1   2
ATOM      2  O   UNL     1       3.856  -0.549  -1.466  1.00  0.00    -0.458 OA
BRANCH   2   3
ATOM      3  C   UNL     1       3.653  -1.671  -0.730  1.00  0.00     0.338 C 
ATOM      4  O   UNL     1       2.938  -2.576  -1.150  1.00  0.00    -0.246 OA
BRANCH   3   5
ATOM      5  C   UNL     1       4.147  -1.753   0.666  1.00  0.00     0.060 A 
ATOM      6  C   UNL     1       5.452  -1.433   1.036  1.00  0.00     0.016 A 
ATOM      7  C   UNL     1       3.248  -2.199   1.651  1.00  0.00     0.016 A 
ATOM      8  C   UNL     1       5.817  -1.407   2.378  1.00  0.00     0.010 A 
ATOM      9  C   UNL     1       3.623  -2.214   3.001  1.00  0.00     0.010 A 
ATOM     10  C   UNL     1       4.908  -1.796   3.367  1.00  0.00    -0.014 A 
BRANCH  10  11
ATOM     11  C   UNL     1       5.451  -2.010   4.725  1.00  0.00     0.031 A 
ATOM     12  C   UNL     1       6.022  -3.365   5.005  1.00  0.00     0.074 A 
ATOM     13  C   UNL     1       5.601  -0.997   5.598  1.00  0.00     0.049 A 
ATOM     14  N   UNL     1       6.812  -3.736   5.972  1.00  0.00    -0.248 NA
ATOM     15  C   UNL     1       5.710  -4.424   4.027  1.00  0.00     0.031 C 
ATOM     16  C   UNL     1       5.151   0.374   5.379  1.00  0.00     0.029 A 
ATOM     17  N   UNL     1       6.201  -0.951   6.830  1.00  0.00    -0.354 N 
ATOM     18  C   UNL     1       7.157  -5.046   5.674  1.00  0.00     0.074 A 
ATOM     19  C   UNL     1       6.434  -5.430   4.484  1.00  0.00     0.031 C 
ATOM     20  C   UNL     1       5.462   1.125   6.451  1.00  0.00     0.029 A 
ATOM     21  C   UNL     1       6.172   0.294   7.417  1.00  0.00     0.049 A 
ATOM     22  H   UNL     1       6.616  -1.737   7.255  1.00  0.00     0.167 HD
ATOM     23  C   UNL     1       8.031  -5.847   6.318  1.00  0.00     0.031 A 
ATOM     24  C   UNL     1       6.689   0.712   8.590  1.00  0.00     0.031 A 
ATOM     25  C   UNL     1       8.669  -5.489   7.549  1.00  0.00     0.049 A 
ATOM     26  C   UNL     1       7.522  -0.264   9.384  1.00  0.00     0.074 A 
ATOM     27  C   UNL     1       9.488  -6.256   8.353  1.00  0.00     0.029 A 
ATOM     28  N   UNL     1       8.530  -4.254   8.168  1.00  0.00    -0.354 N 
ATOM     29  N   UNL     1       7.871  -1.491   9.071  1.00  0.00    -0.248 NA
ATOM     30  C   UNL     1       8.060   0.207  10.667  1.00  0.00     0.031 C 
ATOM     31  C   UNL     1       9.806  -5.499   9.486  1.00  0.00     0.029 A 
ATOM     32  C   UNL     1       9.229  -4.243   9.358  1.00  0.00     0.049 A 
ATOM     33  H   UNL     1       8.009  -3.498   7.811  1.00  0.00     0.167 HD
ATOM     34  C   UNL     1       8.695  -1.926  10.102  1.00  0.00     0.074 A 
ATOM     35  C   UNL     1       8.803  -0.827  11.040  1.00  0.00     0.031 C 
ATOM     36  C   UNL     1       9.313  -3.123  10.262  1.00  0.00     0.031 A 
BRANCH  23  37
ATOM     37  C   UNL     1       8.289  -7.184   5.692  1.00  0.00    -0.014 A 
ATOM     38  C   UNL     1       9.071  -7.284   4.525  1.00  0.00     0.010 A 
ATOM     39  C   UNL     1       7.690  -8.338   6.223  1.00  0.00     0.010 A 
ATOM     40  C   UNL     1       9.214  -8.511   3.875  1.00  0.00     0.020 A 
ATOM     41  C   UNL     1       7.847  -9.571   5.585  1.00  0.00     0.020 A 
ATOM     42  C   UNL     1       8.592  -9.645   4.404  1.00  0.00     0.054 A 
BRANCH  42  43
ATOM     43  S   UNL     1       8.777 -11.223   3.532  1.00  0.00     0.124 S 
ATOM     44  O   UNL     1       7.910 -11.030   2.373  1.00  0.00    -0.237 OA
ATOM     45  O   UNL     1      10.209 -11.265   3.244  1.00  0.00    -0.237 OA
ATOM     46  O   UNL     1       8.311 -12.211   4.502  1.00  0.00    -0.744 OA
ENDBRANCH  42  43
ENDBRANCH  23  37
BRANCH  24  47
ATOM     47  C   UNL     1       6.448   2.097   9.090  1.00  0.00    -0.014 A 
ATOM     48  C   UNL     1       7.498   3.025   9.218  1.00  0.00     0.010 A 
ATOM     49  C   UNL     1       5.157   2.478   9.501  1.00  0.00     0.010 A 
ATOM     50  C   UNL     1       7.270   4.286   9.786  1.00  0.00     0.020 A 
ATOM     51  C   UNL     1       4.919   3.744  10.047  1.00  0.00     0.020 A 
ATOM     52  C   UNL     1       5.983   4.634  10.205  1.00  0.00     0.054 A 
BRANCH  52  53
ATOM     53  S   UNL     1       5.707   6.269  10.946  1.00  0.00     0.124 S 
ATOM     54  O   UNL     1       6.295   6.106  12.271  1.00  0.00    -0.237 OA
ATOM     55  O   UNL     1       6.429   7.155  10.036  1.00  0.00    -0.237 OA
ATOM     56  O   UNL     1       4.253   6.414  10.920  1.00  0.00    -0.744 OA
ENDBRANCH  52  53
ENDBRANCH  24  47
BRANCH  36  57
ATOM     57  C   UNL     1      10.178  -3.293  11.479  1.00  0.00    -0.014 A 
ATOM     58  C   UNL     1       9.609  -3.462  12.752  1.00  0.00     0.010 A 
ATOM     59  C   UNL     1      11.575  -3.363  11.329  1.00  0.00     0.010 A 
ATOM     60  C   UNL     1      10.427  -3.676  13.863  1.00  0.00     0.020 A 
ATOM     61  C   UNL     1      12.393  -3.603  12.433  1.00  0.00     0.020 A 
ATOM     62  C   UNL     1      11.814  -3.745  13.696  1.00  0.00     0.054 A 
BRANCH  62  63
ATOM     63  S   UNL     1      12.853  -4.085  15.142  1.00  0.00     0.124 S 
ATOM     64  O   UNL     1      12.872  -2.788  15.812  1.00  0.00    -0.237 OA
ATOM     65  O   UNL     1      12.111  -5.138  15.832  1.00  0.00    -0.237 OA
ATOM     66  O   UNL     1      14.125  -4.507  14.562  1.00  0.00    -0.744 OA
ENDBRANCH  62  63
ENDBRANCH  36  57
ENDBRANCH  10  11
ENDBRANCH   3   5
ENDBRANCH   2   3
ENDBRANCH   1   2
BRANCH   1  67
ATOM     67  C   UNL     1       4.592   1.659  -0.430  1.00  0.00     0.274 C 
BRANCH  67  68
ATOM     68  O   UNL     1       4.053   1.368   0.870  1.00  0.00    -0.462 OA
BRANCH  68  69
ATOM     69  C   UNL     1       2.695   1.257   0.868  1.00  0.00     0.310 C 
ATOM     70  O   UNL     1       2.035   1.238  -0.167  1.00  0.00    -0.252 OA
BRANCH  69  71
ATOM     71  C   UNL     1       2.117   1.005   2.247  1.00  0.00     0.119 C 
ATOM     72  C   UNL     1       0.627   0.634   2.241  1.00  0.00     0.100 C 
ATOM     73  C   UNL     1       2.241   1.839   3.554  1.00  0.00     0.027 C 
ATOM     74  C   UNL     1       0.163   0.989   3.676  1.00  0.00     0.025 C 
ATOM     75  C   UNL     1       1.258   2.980   3.733  1.00  0.00    -0.027 C 
ATOM     76  C   UNL     1       1.474   0.862   4.482  1.00  0.00     0.017 C 
ATOM     77  C   UNL     1       0.019   2.474   3.798  1.00  0.00    -0.027 C 
BRANCH  72  78
ATOM     78  C   UNL     1      -0.292   1.100   1.116  1.00  0.00     0.229 C 
ATOM     79  O   UNL     1      -1.052   0.233   0.640  1.00  0.00    -0.274 OA
ATOM     80  N   UNL     1      -0.535   2.339   0.624  1.00  0.00    -0.323 N 
ATOM     81  H   UNL     1      -1.290   2.284  -0.006  1.00  0.00     0.170 HD
BRANCH  80  82
ATOM     82  C   UNL     1      -0.097   3.684   0.686  1.00  0.00     0.078 A 
ATOM     83  C   UNL     1      -1.087   4.613   0.315  1.00  0.00     0.029 A 
ATOM     84  C   UNL     1       1.147   4.224   1.026  1.00  0.00     0.165 A 
ATOM     85  C   UNL     1      -0.878   5.997   0.387  1.00  0.00     0.004 A 
ATOM     86  C   UNL     1       1.364   5.606   1.104  1.00  0.00     0.078 A 
ATOM     87  F   UNL     1       2.215   3.467   1.258  1.00  0.00    -0.203 F 
ATOM     88  C   UNL     1       0.347   6.498   0.804  1.00  0.00     0.024 A 
ATOM     89  Cl  UNL     1       2.907   6.221   1.579  1.00  0.00    -0.081 Cl
ENDBRANCH  80  82
ENDBRANCH  72  78
ENDBRANCH  69  71
ENDBRANCH  68  69
ENDBRANCH  67  68
ENDBRANCH   1  67
TORSDOF 16
