REMARK SMILES N#Cc1cc(F)ccc1N1[C@@H]2CC[C@H]1C[C@H](CC(=O)OCCOC(=O)c1ccc(-c3c4nc(c(-c5ccc(S(=O)(=O)[O-])cc5)c5ccc([nH]5)c(-c5ccc(S(=O)(=O)[O-])cc5)c5nc(c(-c6ccc(S(=O)(=O)[O-])cc6)c6ccc3[nH]6)C=C5)C=C4)cc1)C2
REMARK SMILES IDX 21 1 20 2 18 3 19 4 17 5 16 6 10 7 11 8 14 9 12 10 86 11
REMARK SMILES IDX 13 12 15 13 9 14 3 15 4 16 5 17 8 18 6 19 7 20 2 21 1 22
REMARK SMILES IDX 22 23 23 24 24 25 25 26 26 27 27 28 85 29 28 30 84 31 29 32
REMARK SMILES IDX 30 33 31 34 78 35 32 36 83 37 77 38 79 39 33 40 82 41 76 42
REMARK SMILES IDX 75 43 34 45 64 46 45 47 63 48 46 49 49 50 62 51 80 52 47 53
REMARK SMILES IDX 48 54 61 56 81 57 50 58 35 59 36 60 44 61 37 62 43 63 38 64
REMARK SMILES IDX 39 65 40 66 41 67 42 68 65 69 66 70 74 71 67 72 73 73 68 74
REMARK SMILES IDX 69 75 70 76 71 77 72 78 51 79 52 80 60 81 53 82 59 83 54 84
REMARK SMILES IDX 55 85 56 86 57 87 58 88
REMARK H PARENT 79 44 49 55
REMARK Flexibility Score: inf
ROOT
ATOM      1  C   UNL     1      -7.955   1.995  -1.271  1.00  0.00     0.274 C 
ENDROOT
BRANCH   1   2
ATOM      2  O   UNL     1      -6.541   1.753  -1.370  1.00  0.00    -0.462 OA
BRANCH   2   3
ATOM      3  C   UNL     1      -6.124   1.014  -2.427  1.00  0.00     0.306 C 
ATOM      4  O   UNL     1      -6.867   0.463  -3.229  1.00  0.00    -0.252 OA
BRANCH   3   5
ATOM      5  C   UNL     1      -4.617   0.906  -2.507  1.00  0.00     0.126 C 
BRANCH   5   6
ATOM      6  C   UNL     1      -3.811   2.151  -2.083  1.00  0.00     0.004 C 
ATOM      7  N   UNL     1      -1.414   2.473  -0.512  1.00  0.00    -0.364 N 
ATOM      8  C   UNL     1      -1.347   2.912  -1.905  1.00  0.00     0.083 C 
ATOM      9  C   UNL     1      -2.627   3.053   0.045  1.00  0.00     0.083 C 
ATOM     10  C   UNL     1      -1.730   4.393  -1.795  1.00  0.00     0.027 C 
ATOM     11  C   UNL     1      -2.376   2.066  -2.667  1.00  0.00     0.029 C 
ATOM     12  C   UNL     1      -2.553   4.497  -0.503  1.00  0.00     0.027 C 
ATOM     13  C   UNL     1      -3.860   2.367  -0.547  1.00  0.00     0.029 C 
BRANCH   7  14
ATOM     14  C   UNL     1      -0.563   1.491  -0.083  1.00  0.00     0.055 A 
ATOM     15  C   UNL     1      -0.873   0.130   0.110  1.00  0.00     0.078 A 
ATOM     16  C   UNL     1       0.154  -0.822   0.256  1.00  0.00     0.060 A 
ATOM     17  C   UNL     1       1.480  -0.425   0.280  1.00  0.00     0.124 A 
ATOM     18  C   UNL     1       0.799   1.853   0.015  1.00  0.00     0.030 A 
ATOM     19  F   UNL     1       2.445  -1.347   0.383  1.00  0.00    -0.207 F 
ATOM     20  C   UNL     1       1.813   0.913   0.198  1.00  0.00     0.041 A 
BRANCH  15  21
ATOM     21  C   UNL     1      -2.199  -0.406   0.133  1.00  0.00     0.101 C 
ATOM     22  N   UNL     1      -3.223  -0.949   0.205  1.00  0.00    -0.192 NA
ENDBRANCH  15  21
ENDBRANCH   7  14
ENDBRANCH   5   6
ENDBRANCH   3   5
ENDBRANCH   2   3
ENDBRANCH   1   2
BRANCH   1  23
ATOM     23  C   UNL     1      -8.313   3.353  -1.877  1.00  0.00     0.275 C 
BRANCH  23  24
ATOM     24  O   UNL     1      -8.101   3.356  -3.301  1.00  0.00    -0.458 OA
BRANCH  24  25
ATOM     25  C   UNL     1      -6.947   3.928  -3.713  1.00  0.00     0.338 C 
ATOM     26  O   UNL     1      -6.115   4.496  -3.026  1.00  0.00    -0.246 OA
BRANCH  25  27
ATOM     27  C   UNL     1      -6.773   3.711  -5.155  1.00  0.00     0.060 A 
ATOM     28  C   UNL     1      -5.887   2.726  -5.594  1.00  0.00     0.016 A 
ATOM     29  C   UNL     1      -7.397   4.559  -6.067  1.00  0.00     0.016 A 
ATOM     30  C   UNL     1      -5.599   2.596  -6.949  1.00  0.00     0.010 A 
ATOM     31  C   UNL     1      -7.131   4.407  -7.431  1.00  0.00     0.010 A 
ATOM     32  C   UNL     1      -6.218   3.437  -7.881  1.00  0.00    -0.014 A 
BRANCH  32  33
ATOM     33  C   UNL     1      -5.889   3.324  -9.324  1.00  0.00     0.031 A 
ATOM     34  C   UNL     1      -5.169   4.446 -10.020  1.00  0.00     0.074 A 
ATOM     35  C   UNL     1      -6.245   2.219 -10.007  1.00  0.00     0.049 A 
ATOM     36  N   UNL     1      -4.883   4.582 -11.290  1.00  0.00    -0.248 NA
ATOM     37  C   UNL     1      -4.716   5.566  -9.179  1.00  0.00     0.031 C 
ATOM     38  C   UNL     1      -6.908   1.046  -9.431  1.00  0.00     0.029 A 
ATOM     39  N   UNL     1      -6.104   1.903 -11.334  1.00  0.00    -0.354 N 
ATOM     40  C   UNL     1      -4.243   5.810 -11.405  1.00  0.00     0.074 A 
ATOM     41  C   UNL     1      -4.207   6.393 -10.081  1.00  0.00     0.031 C 
ATOM     42  C   UNL     1      -7.107   0.137 -10.398  1.00  0.00     0.029 A 
ATOM     43  C   UNL     1      -6.649   0.685 -11.669  1.00  0.00     0.049 A 
ATOM     44  H   UNL     1      -5.657   2.491 -11.985  1.00  0.00     0.167 HD
ATOM     45  C   UNL     1      -3.731   6.396 -12.515  1.00  0.00     0.031 A 
ATOM     46  C   UNL     1      -6.794   0.091 -12.870  1.00  0.00     0.031 A 
ATOM     47  C   UNL     1      -3.782   5.808 -13.829  1.00  0.00     0.049 A 
ATOM     48  C   UNL     1      -6.291   0.799 -14.098  1.00  0.00     0.074 A 
ATOM     49  C   UNL     1      -3.279   6.312 -15.016  1.00  0.00     0.029 A 
ATOM     50  N   UNL     1      -4.374   4.590 -14.133  1.00  0.00    -0.354 N 
ATOM     51  N   UNL     1      -5.677   1.956 -14.191  1.00  0.00    -0.248 NA
ATOM     52  C   UNL     1      -6.495   0.121 -15.385  1.00  0.00     0.031 C 
ATOM     53  C   UNL     1      -3.631   5.435 -16.047  1.00  0.00     0.029 A 
ATOM     54  C   UNL     1      -4.278   4.343 -15.492  1.00  0.00     0.049 A 
ATOM     55  H   UNL     1      -4.800   3.990 -13.478  1.00  0.00     0.167 HD
ATOM     56  C   UNL     1      -5.392   2.126 -15.541  1.00  0.00     0.074 A 
ATOM     57  C   UNL     1      -5.886   0.948 -16.223  1.00  0.00     0.031 C 
ATOM     58  C   UNL     1      -4.775   3.163 -16.160  1.00  0.00     0.031 A 
BRANCH  45  59
ATOM     59  C   UNL     1      -3.107   7.761 -12.364  1.00  0.00    -0.014 A 
ATOM     60  C   UNL     1      -1.902   7.944 -11.662  1.00  0.00     0.010 A 
ATOM     61  C   UNL     1      -3.716   8.874 -12.974  1.00  0.00     0.010 A 
ATOM     62  C   UNL     1      -1.340   9.219 -11.539  1.00  0.00     0.020 A 
ATOM     63  C   UNL     1      -3.140  10.144 -12.883  1.00  0.00     0.020 A 
ATOM     64  C   UNL     1      -1.963  10.311 -12.151  1.00  0.00     0.054 A 
BRANCH  64  65
ATOM     65  S   UNL     1      -1.197  11.947 -11.994  1.00  0.00     0.124 S 
ATOM     66  O   UNL     1      -1.405  12.243 -10.578  1.00  0.00    -0.237 OA
ATOM     67  O   UNL     1       0.187  11.690 -12.384  1.00  0.00    -0.237 OA
ATOM     68  O   UNL     1      -1.959  12.780 -12.921  1.00  0.00    -0.744 OA
ENDBRANCH  64  65
ENDBRANCH  45  59
BRANCH  46  69
ATOM     69  C   UNL     1      -7.467  -1.234 -12.969  1.00  0.00    -0.014 A 
ATOM     70  C   UNL     1      -6.749  -2.375 -13.369  1.00  0.00     0.010 A 
ATOM     71  C   UNL     1      -8.834  -1.364 -12.659  1.00  0.00     0.010 A 
ATOM     72  C   UNL     1      -7.388  -3.614 -13.477  1.00  0.00     0.020 A 
ATOM     73  C   UNL     1      -9.468  -2.607 -12.731  1.00  0.00     0.020 A 
ATOM     74  C   UNL     1      -8.743  -3.722 -13.152  1.00  0.00     0.054 A 
BRANCH  74  75
ATOM     75  S   UNL     1      -9.538  -5.350 -13.259  1.00  0.00     0.124 S 
ATOM     76  O   UNL     1      -9.574  -5.577 -14.700  1.00  0.00    -0.237 OA
ATOM     77  O   UNL     1      -8.616  -6.198 -12.507  1.00  0.00    -0.237 OA
ATOM     78  O   UNL     1     -10.838  -5.139 -12.626  1.00  0.00    -0.744 OA
ENDBRANCH  74  75
ENDBRANCH  46  69
BRANCH  58  79
ATOM     79  C   UNL     1      -4.551   3.053 -17.646  1.00  0.00    -0.014 A 
ATOM     80  C   UNL     1      -5.620   3.113 -18.559  1.00  0.00     0.010 A 
ATOM     81  C   UNL     1      -3.238   2.939 -18.139  1.00  0.00     0.010 A 
ATOM     82  C   UNL     1      -5.381   3.026 -19.933  1.00  0.00     0.020 A 
ATOM     83  C   UNL     1      -2.991   2.890 -19.513  1.00  0.00     0.020 A 
ATOM     84  C   UNL     1      -4.067   2.919 -20.402  1.00  0.00     0.054 A 
BRANCH  84  85
ATOM     85  S   UNL     1      -3.782   2.857 -22.191  1.00  0.00     0.124 S 
ATOM     86  O   UNL     1      -4.302   1.537 -22.538  1.00  0.00    -0.237 OA
ATOM     87  O   UNL     1      -4.567   3.989 -22.678  1.00  0.00    -0.237 OA
ATOM     88  O   UNL     1      -2.334   3.009 -22.319  1.00  0.00    -0.744 OA
ENDBRANCH  84  85
ENDBRANCH  58  79
ENDBRANCH  32  33
ENDBRANCH  25  27
ENDBRANCH  24  25
ENDBRANCH  23  24
ENDBRANCH   1  23
TORSDOF 17
