REMARK SMILES CC1=C([C@H](NC(=O)[C@@H]2[C@H](C)c3cc(F)ccc3N2C)C(=O)OCCOC(=O)c2ccc(-c3c4nc(c(-c5ccc(S(=O)(=O)[O-])cc5)c5ccc([nH]5)c(-c5ccc(S(=O)(=O)[O-])cc5)c5nc(c(-c6ccc(S(=O)(=O)[O-])cc6)c6ccc3[nH]6)C=C5)C=C4)cc2)[C@@H](C)N=N1
REMARK SMILES IDX 24 1 23 2 22 3 20 4 21 5 4 6 3 7 1 8 2 9 91 10 88 11 90 12
REMARK SMILES IDX 89 13 5 14 6 15 7 17 8 18 9 19 18 20 11 21 10 22 17 23 19 24
REMARK SMILES IDX 12 25 16 26 13 27 15 28 14 29 25 30 26 31 27 32 28 33 29 34
REMARK SMILES IDX 87 35 30 36 86 37 31 38 32 39 33 40 80 41 34 42 85 43 79 44
REMARK SMILES IDX 81 45 35 46 84 47 78 48 77 49 36 51 66 52 47 53 65 54 48 55
REMARK SMILES IDX 51 56 64 57 82 58 49 59 50 60 63 62 83 63 52 64 37 65 38 66
REMARK SMILES IDX 46 67 39 68 45 69 40 70 41 71 42 72 43 73 44 74 67 75 68 76
REMARK SMILES IDX 76 77 69 78 75 79 70 80 71 81 72 82 73 83 74 84 53 85 54 86
REMARK SMILES IDX 62 87 55 88 61 89 56 90 57 91 58 92 59 93 60 94
REMARK H PARENT 5 16 81 50 51 61
REMARK Flexibility Score: inf
ROOT
ATOM      1  C   UNL     1       2.839   2.991   5.442  1.00  0.00     0.275 C 
ENDROOT
BRANCH   1   2
ATOM      2  C   UNL     1       1.427   2.921   6.069  1.00  0.00     0.274 C 
BRANCH   2   3
ATOM      3  O   UNL     1       0.596   1.904   5.460  1.00  0.00    -0.460 OA
BRANCH   3   4
ATOM      4  C   UNL     1       0.035   2.248   4.283  1.00  0.00     0.333 C 
ATOM      5  O   UNL     1      -0.021   3.413   3.917  1.00  0.00    -0.249 OA
BRANCH   4   6
ATOM      6  C   UNL     1      -0.585   1.088   3.461  1.00  0.00     0.223 C 
BRANCH   6   7
ATOM      7  C   UNL     1      -2.062   1.359   3.421  1.00  0.00     0.012 C 
ATOM      8  C   UNL     1      -2.740   0.774   1.010  1.00  0.00     0.069 C 
ATOM      9  C   UNL     1      -2.945   1.206   2.423  1.00  0.00     0.064 C 
ATOM     10  N   UNL     1      -4.228   1.475   2.826  1.00  0.00    -0.160 NA
ATOM     11  C   UNL     1      -2.874   1.824   4.601  1.00  0.00     0.156 C 
ATOM     12  N   UNL     1      -4.250   1.829   4.035  1.00  0.00    -0.181 NA
ATOM     13  C   UNL     1      -2.601   3.207   5.212  1.00  0.00     0.040 C 
ENDBRANCH   6   7
BRANCH   6  14
ATOM     14  N   UNL     1      -0.439  -0.358   3.696  1.00  0.00    -0.337 N 
ATOM     15  C   UNL     1       0.739  -1.090   3.735  1.00  0.00     0.244 C 
ATOM     16  H   UNL     1      -1.271  -0.863   3.843  1.00  0.00     0.164 HD
ATOM     17  O   UNL     1       0.771  -2.169   3.143  1.00  0.00    -0.273 OA
BRANCH  15  18
ATOM     18  C   UNL     1       1.833  -0.607   4.695  1.00  0.00     0.178 C 
ATOM     19  C   UNL     1       3.343  -0.833   4.428  1.00  0.00     0.050 C 
ATOM     20  N   UNL     1       1.557  -1.087   6.077  1.00  0.00    -0.362 N 
ATOM     21  C   UNL     1       3.853  -1.078   5.824  1.00  0.00    -0.016 A 
ATOM     22  C   UNL     1       3.746  -1.816   3.355  1.00  0.00     0.015 C 
ATOM     23  C   UNL     1       2.780  -1.192   6.716  1.00  0.00     0.041 A 
ATOM     24  C   UNL     1       0.319  -0.869   6.791  1.00  0.00     0.144 C 
ATOM     25  C   UNL     1       5.163  -1.027   6.272  1.00  0.00     0.045 A 
ATOM     26  C   UNL     1       3.013  -1.325   8.076  1.00  0.00     0.029 A 
ATOM     27  C   UNL     1       5.384  -1.123   7.642  1.00  0.00     0.123 A 
ATOM     28  C   UNL     1       4.328  -1.282   8.543  1.00  0.00     0.041 A 
ATOM     29  F   UNL     1       6.634  -1.030   8.115  1.00  0.00    -0.207 F 
ENDBRANCH  15  18
ENDBRANCH   6  14
ENDBRANCH   4   6
ENDBRANCH   3   4
ENDBRANCH   2   3
ENDBRANCH   1   2
BRANCH   1  30
ATOM     30  O   UNL     1       2.822   3.711   4.193  1.00  0.00    -0.458 OA
BRANCH  30  31
ATOM     31  C   UNL     1       2.925   3.036   3.021  1.00  0.00     0.338 C 
ATOM     32  O   UNL     1       3.337   1.894   2.863  1.00  0.00    -0.246 OA
BRANCH  31  33
ATOM     33  C   UNL     1       2.084   3.732   2.019  1.00  0.00     0.060 A 
ATOM     34  C   UNL     1       1.756   5.075   2.208  1.00  0.00     0.016 A 
ATOM     35  C   UNL     1       1.309   2.917   1.178  1.00  0.00     0.016 A 
ATOM     36  C   UNL     1       0.517   5.524   1.770  1.00  0.00     0.010 A 
ATOM     37  C   UNL     1       0.064   3.373   0.750  1.00  0.00     0.010 A 
ATOM     38  C   UNL     1      -0.373   4.646   1.123  1.00  0.00    -0.014 A 
BRANCH  38  39
ATOM     39  C   UNL     1      -1.581   5.211   0.518  1.00  0.00     0.031 A 
ATOM     40  C   UNL     1      -1.198   5.983  -0.664  1.00  0.00     0.074 A 
ATOM     41  C   UNL     1      -2.878   5.195   0.883  1.00  0.00     0.049 A 
ATOM     42  N   UNL     1      -0.957   7.247  -0.630  1.00  0.00    -0.248 NA
ATOM     43  C   UNL     1      -0.772   5.293  -1.882  1.00  0.00     0.031 C 
ATOM     44  C   UNL     1      -3.503   4.501   1.988  1.00  0.00     0.029 A 
ATOM     45  N   UNL     1      -3.945   5.829   0.301  1.00  0.00    -0.354 N 
ATOM     46  C   UNL     1      -0.547   7.568  -1.901  1.00  0.00     0.074 A 
ATOM     47  C   UNL     1      -0.248   6.317  -2.557  1.00  0.00     0.031 C 
ATOM     48  C   UNL     1      -4.850   4.593   1.920  1.00  0.00     0.029 A 
ATOM     49  C   UNL     1      -5.188   5.467   0.814  1.00  0.00     0.049 A 
ATOM     50  H   UNL     1      -3.840   6.489  -0.422  1.00  0.00     0.167 HD
ATOM     51  C   UNL     1      -0.747   8.822  -2.376  1.00  0.00     0.031 A 
ATOM     52  C   UNL     1      -6.419   5.987   0.566  1.00  0.00     0.031 A 
ATOM     53  C   UNL     1      -1.049   9.759  -1.319  1.00  0.00     0.049 A 
ATOM     54  C   UNL     1      -6.189   7.381   0.129  1.00  0.00     0.074 A 
ATOM     55  C   UNL     1      -0.370  10.205  -0.201  1.00  0.00     0.029 A 
ATOM     56  N   UNL     1      -2.376  10.050  -1.102  1.00  0.00    -0.354 N 
ATOM     57  N   UNL     1      -5.820   8.322   0.950  1.00  0.00    -0.248 NA
ATOM     58  C   UNL     1      -5.934   7.638  -1.279  1.00  0.00     0.031 C 
ATOM     59  C   UNL     1      -1.363  10.357   0.810  1.00  0.00     0.029 A 
ATOM     60  C   UNL     1      -2.608  10.065   0.252  1.00  0.00     0.049 A 
ATOM     61  H   UNL     1      -3.048  10.219  -1.801  1.00  0.00     0.167 HD
ATOM     62  C   UNL     1      -4.883   9.051   0.237  1.00  0.00     0.074 A 
ATOM     63  C   UNL     1      -5.070   8.648  -1.156  1.00  0.00     0.031 C 
ATOM     64  C   UNL     1      -3.873   9.711   0.874  1.00  0.00     0.031 A 
BRANCH  51  65
ATOM     65  C   UNL     1      -1.042   9.074  -3.821  1.00  0.00    -0.014 A 
ATOM     66  C   UNL     1      -1.437   8.052  -4.711  1.00  0.00     0.010 A 
ATOM     67  C   UNL     1      -1.140  10.399  -4.276  1.00  0.00     0.010 A 
ATOM     68  C   UNL     1      -1.843   8.320  -6.012  1.00  0.00     0.020 A 
ATOM     69  C   UNL     1      -1.597  10.684  -5.567  1.00  0.00     0.020 A 
ATOM     70  C   UNL     1      -1.923   9.639  -6.432  1.00  0.00     0.054 A 
BRANCH  70  71
ATOM     71  S   UNL     1      -2.499   9.947  -8.114  1.00  0.00     0.124 S 
ATOM     72  O   UNL     1      -1.402   9.398  -8.907  1.00  0.00    -0.237 OA
ATOM     73  O   UNL     1      -3.749   9.194  -8.158  1.00  0.00    -0.237 OA
ATOM     74  O   UNL     1      -2.641  11.400  -8.164  1.00  0.00    -0.744 OA
ENDBRANCH  70  71
ENDBRANCH  51  65
BRANCH  52  75
ATOM     75  C   UNL     1      -7.589   5.201   0.072  1.00  0.00    -0.014 A 
ATOM     76  C   UNL     1      -7.453   3.852  -0.304  1.00  0.00     0.010 A 
ATOM     77  C   UNL     1      -8.779   5.869  -0.293  1.00  0.00     0.010 A 
ATOM     78  C   UNL     1      -8.392   3.239  -1.144  1.00  0.00     0.020 A 
ATOM     79  C   UNL     1      -9.723   5.261  -1.136  1.00  0.00     0.020 A 
ATOM     80  C   UNL     1      -9.490   3.968  -1.603  1.00  0.00     0.054 A 
BRANCH  80  81
ATOM     81  S   UNL     1     -10.523   3.243  -2.909  1.00  0.00     0.124 S 
ATOM     82  O   UNL     1      -9.610   3.248  -4.049  1.00  0.00    -0.237 OA
ATOM     83  O   UNL     1     -10.843   1.924  -2.369  1.00  0.00    -0.237 OA
ATOM     84  O   UNL     1     -11.654   4.162  -3.009  1.00  0.00    -0.744 OA
ENDBRANCH  80  81
ENDBRANCH  52  75
BRANCH  64  85
ATOM     85  C   UNL     1      -3.967   9.909   2.377  1.00  0.00    -0.014 A 
ATOM     86  C   UNL     1      -3.787  11.218   2.861  1.00  0.00     0.010 A 
ATOM     87  C   UNL     1      -4.068   8.862   3.317  1.00  0.00     0.010 A 
ATOM     88  C   UNL     1      -3.668  11.476   4.228  1.00  0.00     0.020 A 
ATOM     89  C   UNL     1      -3.977   9.118   4.698  1.00  0.00     0.020 A 
ATOM     90  C   UNL     1      -3.752  10.424   5.141  1.00  0.00     0.054 A 
BRANCH  90  91
ATOM     91  S   UNL     1      -3.535  10.806   6.901  1.00  0.00     0.124 S 
ATOM     92  O   UNL     1      -2.115  11.142   6.974  1.00  0.00    -0.237 OA
ATOM     93  O   UNL     1      -4.451  11.928   7.104  1.00  0.00    -0.237 OA
ATOM     94  O   UNL     1      -3.913   9.570   7.584  1.00  0.00    -0.744 OA
ENDBRANCH  90  91
ENDBRANCH  64  85
ENDBRANCH  38  39
ENDBRANCH  31  33
ENDBRANCH  30  31
ENDBRANCH   1  30
TORSDOF 17
