REMARK SMILES COc1cc(/C=C2/SC(=O)N(c3ccc(C)c(C)c3)C2=O)ccc1OCCC(=O)OCCOC(=O)c1ccc(-c2c3nc(c(-c4ccc(S(=O)(=O)[O-])cc4)c4ccc([nH]4)c(-c4ccc(S(=O)(=O)[O-])cc4)c4nc(c(-c5ccc(S(=O)(=O)[O-])cc5)c5ccc2[nH]5)C=C4)C=C3)cc1
REMARK SMILES IDX 31 1 30 2 28 3 29 4 27 5 26 6 25 7 24 8 3 9 4 10 5 11 23 12
REMARK SMILES IDX 22 13 2 14 1 15 6 16 7 17 8 18 20 19 9 20 11 21 21 22 10 23
REMARK SMILES IDX 12 24 13 25 19 26 14 27 17 28 15 29 18 30 16 31 32 32 33 33
REMARK SMILES IDX 34 34 35 35 36 36 37 37 95 38 38 39 94 40 39 41 40 42 41 43
REMARK SMILES IDX 88 44 42 45 93 46 87 47 89 48 43 49 92 50 86 51 85 52 44 54
REMARK SMILES IDX 74 55 55 56 73 57 56 58 59 59 72 60 90 61 57 62 58 63 71 65
REMARK SMILES IDX 91 66 60 67 45 68 46 69 54 70 47 71 53 72 48 73 49 74 50 75
REMARK SMILES IDX 51 76 52 77 75 78 76 79 84 80 77 81 83 82 78 83 79 84 80 85
REMARK SMILES IDX 81 86 82 87 61 88 62 89 70 90 63 91 69 92 64 93 65 94 66 95
REMARK SMILES IDX 67 96 68 97
REMARK H PARENT 89 53 59 64
REMARK Flexibility Score: inf
ROOT
ATOM      1  C   UNL     1      -1.190   0.591  -2.845  1.00  0.00     0.274 C 
ENDROOT
BRANCH   1   2
ATOM      2  O   UNL     1       0.232   0.709  -2.616  1.00  0.00    -0.462 OA
BRANCH   2   3
ATOM      3  C   UNL     1       0.641   1.499  -1.590  1.00  0.00     0.309 C 
ATOM      4  O   UNL     1      -0.099   1.974  -0.739  1.00  0.00    -0.252 OA
BRANCH   3   5
ATOM      5  C   UNL     1       2.114   1.841  -1.679  1.00  0.00     0.164 C 
BRANCH   5   6
ATOM      6  C   UNL     1       3.071   0.765  -1.178  1.00  0.00     0.241 C 
BRANCH   6   7
ATOM      7  O   UNL     1       3.668  -0.014  -2.229  1.00  0.00    -0.489 OA
BRANCH   7   8
ATOM      8  C   UNL     1       2.796  -0.865  -2.853  1.00  0.00     0.161 A 
ATOM      9  C   UNL     1       2.060  -1.853  -2.193  1.00  0.00     0.161 A 
ATOM     10  C   UNL     1       1.088  -2.571  -2.894  1.00  0.00     0.058 A 
ATOM     11  C   UNL     1       0.877  -2.324  -4.261  1.00  0.00    -0.020 A 
ATOM     12  C   UNL     1       2.654  -0.683  -4.229  1.00  0.00     0.051 A 
ATOM     13  C   UNL     1       1.690  -1.403  -4.932  1.00  0.00     0.012 A 
BRANCH   9  14
ATOM     14  O   UNL     1       2.380  -2.163  -0.898  1.00  0.00    -0.493 OA
ATOM     15  C   UNL     1       1.275  -2.035  -0.009  1.00  0.00     0.278 C 
ENDBRANCH   9  14
BRANCH  11  16
ATOM     16  C   UNL     1      -0.126  -3.067  -5.034  1.00  0.00     0.029 C 
ATOM     17  C   UNL     1       0.010  -4.353  -5.383  1.00  0.00     0.083 C 
ATOM     18  S   UNL     1      -1.068  -5.190  -6.431  1.00  0.00    -0.022 SA
ATOM     19  C   UNL     1       1.150  -5.233  -5.017  1.00  0.00     0.272 C 
ATOM     20  C   UNL     1      -0.016  -6.604  -6.520  1.00  0.00     0.298 C 
ATOM     21  N   UNL     1       1.021  -6.463  -5.632  1.00  0.00    -0.236 N 
ATOM     22  O   UNL     1       2.106  -4.862  -4.349  1.00  0.00    -0.268 OA
ATOM     23  O   UNL     1      -0.254  -7.526  -7.286  1.00  0.00    -0.260 OA
BRANCH  21  24
ATOM     24  C   UNL     1       2.058  -7.413  -5.465  1.00  0.00     0.053 A 
ATOM     25  C   UNL     1       2.558  -7.666  -4.183  1.00  0.00     0.027 A 
ATOM     26  C   UNL     1       2.703  -7.967  -6.572  1.00  0.00     0.030 A 
ATOM     27  C   UNL     1       3.701  -8.438  -4.010  1.00  0.00     0.006 A 
ATOM     28  C   UNL     1       3.901  -8.687  -6.414  1.00  0.00    -0.046 A 
ATOM     29  C   UNL     1       4.395  -8.941  -5.118  1.00  0.00    -0.048 A 
ATOM     30  C   UNL     1       4.656  -9.105  -7.645  1.00  0.00     0.044 C 
ATOM     31  C   UNL     1       5.673  -9.684  -4.846  1.00  0.00     0.044 C 
ENDBRANCH  21  24
ENDBRANCH  11  16
ENDBRANCH   7   8
ENDBRANCH   6   7
ENDBRANCH   5   6
ENDBRANCH   3   5
ENDBRANCH   2   3
ENDBRANCH   1   2
BRANCH   1  32
ATOM     32  C   UNL     1      -1.831  -0.615  -2.158  1.00  0.00     0.275 C 
BRANCH  32  33
ATOM     33  O   UNL     1      -1.834  -0.415  -0.743  1.00  0.00    -0.458 OA
BRANCH  33  34
ATOM     34  C   UNL     1      -2.103  -1.516  -0.000  1.00  0.00     0.338 C 
ATOM     35  O   UNL     1      -2.387  -2.620  -0.418  1.00  0.00    -0.246 OA
BRANCH  34  36
ATOM     36  C   UNL     1      -1.988  -1.157   1.435  1.00  0.00     0.060 A 
ATOM     37  C   UNL     1      -1.140  -0.126   1.859  1.00  0.00     0.016 A 
ATOM     38  C   UNL     1      -2.740  -1.871   2.369  1.00  0.00     0.016 A 
ATOM     39  C   UNL     1      -1.064   0.213   3.207  1.00  0.00     0.010 A 
ATOM     40  C   UNL     1      -2.709  -1.491   3.712  1.00  0.00     0.010 A 
ATOM     41  C   UNL     1      -1.884  -0.436   4.137  1.00  0.00    -0.014 A 
BRANCH  41  42
ATOM     42  C   UNL     1      -1.944   0.022   5.546  1.00  0.00     0.031 A 
ATOM     43  C   UNL     1      -1.512  -0.892   6.654  1.00  0.00     0.074 A 
ATOM     44  C   UNL     1      -2.458   1.238   5.817  1.00  0.00     0.049 A 
ATOM     45  N   UNL     1      -1.666  -0.756   7.945  1.00  0.00    -0.248 NA
ATOM     46  C   UNL     1      -0.833  -2.135   6.254  1.00  0.00     0.031 C 
ATOM     47  C   UNL     1      -2.889   2.220   4.817  1.00  0.00     0.029 A 
ATOM     48  N   UNL     1      -2.718   1.853   7.014  1.00  0.00    -0.354 N 
ATOM     49  C   UNL     1      -1.142  -1.912   8.513  1.00  0.00     0.074 A 
ATOM     50  C   UNL     1      -0.679  -2.744   7.422  1.00  0.00     0.031 C 
ATOM     51  C   UNL     1      -3.341   3.317   5.441  1.00  0.00     0.029 A 
ATOM     52  C   UNL     1      -3.300   3.092   6.880  1.00  0.00     0.049 A 
ATOM     53  H   UNL     1      -2.509   1.447   7.887  1.00  0.00     0.167 HD
ATOM     54  C   UNL     1      -1.062  -2.247   9.824  1.00  0.00     0.031 A 
ATOM     55  C   UNL     1      -3.778   3.939   7.811  1.00  0.00     0.031 A 
ATOM     56  C   UNL     1      -1.534  -1.403  10.893  1.00  0.00     0.049 A 
ATOM     57  C   UNL     1      -3.709   3.531   9.254  1.00  0.00     0.074 A 
ATOM     58  C   UNL     1      -1.504  -1.636  12.256  1.00  0.00     0.029 A 
ATOM     59  N   UNL     1      -2.119  -0.157  10.714  1.00  0.00    -0.354 N 
ATOM     60  N   UNL     1      -3.234   2.424   9.775  1.00  0.00    -0.248 NA
ATOM     61  C   UNL     1      -4.242   4.485  10.235  1.00  0.00     0.031 C 
ATOM     62  C   UNL     1      -2.107  -0.548  12.899  1.00  0.00     0.029 A 
ATOM     63  C   UNL     1      -2.462   0.388  11.940  1.00  0.00     0.049 A 
ATOM     64  H   UNL     1      -2.269   0.277   9.843  1.00  0.00     0.167 HD
ATOM     65  C   UNL     1      -3.389   2.557  11.149  1.00  0.00     0.074 A 
ATOM     66  C   UNL     1      -3.986   3.859  11.376  1.00  0.00     0.031 C 
ATOM     67  C   UNL     1      -3.064   1.684  12.135  1.00  0.00     0.031 A 
BRANCH  54  68
ATOM     68  C   UNL     1      -0.481  -3.597  10.159  1.00  0.00    -0.014 A 
ATOM     69  C   UNL     1       0.884  -3.878   9.962  1.00  0.00     0.010 A 
ATOM     70  C   UNL     1      -1.314  -4.606  10.678  1.00  0.00     0.010 A 
ATOM     71  C   UNL     1       1.391  -5.156  10.219  1.00  0.00     0.020 A 
ATOM     72  C   UNL     1      -0.805  -5.877  10.965  1.00  0.00     0.020 A 
ATOM     73  C   UNL     1       0.540  -6.151  10.710  1.00  0.00     0.054 A 
BRANCH  73  74
ATOM     74  S   UNL     1       1.218  -7.805  11.021  1.00  0.00     0.124 S 
ATOM     75  O   UNL     1       1.368  -8.328   9.665  1.00  0.00    -0.237 OA
ATOM     76  O   UNL     1       2.466  -7.514  11.723  1.00  0.00    -0.237 OA
ATOM     77  O   UNL     1       0.190  -8.455  11.829  1.00  0.00    -0.744 OA
ENDBRANCH  73  74
ENDBRANCH  54  68
BRANCH  55  78
ATOM     78  C   UNL     1      -4.360   5.246   7.399  1.00  0.00    -0.014 A 
ATOM     79  C   UNL     1      -3.674   6.443   7.670  1.00  0.00     0.010 A 
ATOM     80  C   UNL     1      -5.580   5.303   6.699  1.00  0.00     0.010 A 
ATOM     81  C   UNL     1      -4.198   7.671   7.256  1.00  0.00     0.020 A 
ATOM     82  C   UNL     1      -6.093   6.527   6.258  1.00  0.00     0.020 A 
ATOM     83  C   UNL     1      -5.402   7.705   6.547  1.00  0.00     0.054 A 
BRANCH  83  84
ATOM     84  S   UNL     1      -6.025   9.304   5.958  1.00  0.00     0.124 S 
ATOM     85  O   UNL     1      -6.511   9.914   7.192  1.00  0.00    -0.237 OA
ATOM     86  O   UNL     1      -4.831   9.914   5.378  1.00  0.00    -0.237 OA
ATOM     87  O   UNL     1      -7.057   8.934   4.992  1.00  0.00    -0.744 OA
ENDBRANCH  83  84
ENDBRANCH  55  78
BRANCH  67  88
ATOM     88  C   UNL     1      -3.315   2.138  13.548  1.00  0.00    -0.014 A 
ATOM     89  C   UNL     1      -4.618   2.224  14.068  1.00  0.00     0.010 A 
ATOM     90  C   UNL     1      -2.222   2.470  14.368  1.00  0.00     0.010 A 
ATOM     91  C   UNL     1      -4.826   2.679  15.373  1.00  0.00     0.020 A 
ATOM     92  C   UNL     1      -2.425   2.898  15.681  1.00  0.00     0.020 A 
ATOM     93  C   UNL     1      -3.727   3.019  16.169  1.00  0.00     0.054 A 
BRANCH  93  94
ATOM     94  S   UNL     1      -4.020   3.593  17.864  1.00  0.00     0.124 S 
ATOM     95  O   UNL     1      -4.488   4.958  17.645  1.00  0.00    -0.237 OA
ATOM     96  O   UNL     1      -5.026   2.654  18.353  1.00  0.00    -0.237 OA
ATOM     97  O   UNL     1      -2.709   3.477  18.499  1.00  0.00    -0.744 OA
ENDBRANCH  93  94
ENDBRANCH  67  88
ENDBRANCH  41  42
ENDBRANCH  34  36
ENDBRANCH  33  34
ENDBRANCH  32  33
ENDBRANCH   1  32
TORSDOF 20
