REMARK SMILES CCSc1ccc(-c2cc(Cl)cc3c2O[C@H](C(F)(F)F)C(C(=O)OCCOC(=O)c2ccc(-c4c5nc(c(-c6ccc(S(=O)(=O)[O-])cc6)c6ccc([nH]6)c(-c6ccc(S(=O)(=O)[O-])cc6)c6nc(c(-c7ccc(S(=O)(=O)[O-])cc7)c7ccc4[nH]7)C=C6)C=C5)cc2)=C3)cc1
REMARK SMILES IDX 25 1 24 2 22 3 23 4 21 5 8 6 9 7 14 8 10 9 13 10 15 11 11 12
REMARK SMILES IDX 12 13 90 14 16 15 7 16 4 17 5 18 92 19 6 20 91 21 3 22 2 23
REMARK SMILES IDX 1 24 17 25 18 26 19 27 20 28 26 29 27 30 28 31 29 32 30 33
REMARK SMILES IDX 31 34 89 35 32 36 88 37 33 38 34 39 35 40 82 41 36 42 87 43
REMARK SMILES IDX 81 44 83 45 37 46 86 47 80 48 79 49 38 51 68 52 49 53 67 54
REMARK SMILES IDX 50 55 53 56 66 57 84 58 51 59 52 60 65 62 85 63 54 64 39 65
REMARK SMILES IDX 40 66 48 67 41 68 47 69 42 70 43 71 44 72 45 73 46 74 69 75
REMARK SMILES IDX 70 76 78 77 71 78 77 79 72 80 73 81 74 82 75 83 76 84 55 85
REMARK SMILES IDX 56 86 64 87 57 88 63 89 58 90 59 91 60 92 61 93 62 94
REMARK H PARENT 83 50 53 61
REMARK Flexibility Score: inf
ROOT
ATOM      1  C   UNL     1      13.852  -3.454   1.240  1.00  0.00     0.275 C 
ENDROOT
BRANCH   1   2
ATOM      2  O   UNL     1      12.849  -2.654   1.914  1.00  0.00    -0.459 OA
BRANCH   2   3
ATOM      3  C   UNL     1      12.768  -1.387   1.428  1.00  0.00     0.338 C 
ATOM      4  O   UNL     1      13.475  -0.952   0.525  1.00  0.00    -0.246 OA
BRANCH   3   5
ATOM      5  C   UNL     1      11.714  -0.550   2.060  1.00  0.00     0.087 C 
ATOM      6  C   UNL     1       7.867  -1.360   1.109  1.00  0.00     0.026 A 
ATOM      7  C   UNL     1       8.057  -2.004  -0.136  1.00  0.00     0.033 A 
ATOM      8  C   UNL     1       9.010  -0.727   1.599  1.00  0.00     0.135 A 
ATOM      9  C   UNL     1       9.197  -1.846  -0.927  1.00  0.00     0.042 A 
ATOM     10  C   UNL     1      10.033  -0.356   0.690  1.00  0.00     0.019 A 
ATOM     11  O   UNL     1       9.345  -0.642   2.949  1.00  0.00    -0.475 OA
ATOM     12  Cl  UNL     1       9.535  -2.796  -2.314  1.00  0.00    -0.084 Cl
ATOM     13  C   UNL     1      10.129  -0.907  -0.574  1.00  0.00     0.032 A 
ATOM     14  C   UNL     1      11.206   0.365   1.216  1.00  0.00     0.027 C 
ATOM     15  C   UNL     1      10.799  -0.998   3.188  1.00  0.00     0.316 C 
BRANCH   6  16
ATOM     16  C   UNL     1       6.434  -1.255   1.530  1.00  0.00    -0.015 A 
ATOM     17  C   UNL     1       3.555  -1.517   1.417  1.00  0.00     0.007 A 
ATOM     18  C   UNL     1       4.350  -2.346   2.226  1.00  0.00     0.015 A 
ATOM     19  C   UNL     1       4.205  -0.509   0.717  1.00  0.00     0.015 A 
ATOM     20  C   UNL     1       5.758  -2.198   2.309  1.00  0.00     0.010 A 
ATOM     21  C   UNL     1       5.609  -0.381   0.780  1.00  0.00     0.010 A 
BRANCH  17  22
ATOM     22  S   UNL     1       1.791  -1.822   1.422  1.00  0.00    -0.126 SA
BRANCH  22  23
ATOM     23  C   UNL     1       1.090  -0.935  -0.022  1.00  0.00     0.071 C 
ATOM     24  C   UNL     1       0.746   0.512   0.286  1.00  0.00     0.016 C 
ENDBRANCH  22  23
ENDBRANCH  17  22
ENDBRANCH   6  16
BRANCH  15  25
ATOM     25  C   UNL     1      11.338  -0.304   4.446  1.00  0.00     0.430 C 
ATOM     26  F   UNL     1      11.185   1.042   4.384  1.00  0.00    -0.167 F 
ATOM     27  F   UNL     1      10.740  -0.735   5.575  1.00  0.00    -0.167 F 
ATOM     28  F   UNL     1      12.671  -0.534   4.594  1.00  0.00    -0.167 F 
ENDBRANCH  15  25
ENDBRANCH   3   5
ENDBRANCH   2   3
ENDBRANCH   1   2
BRANCH   1  29
ATOM     29  C   UNL     1      13.535  -4.953   1.226  1.00  0.00     0.275 C 
BRANCH  29  30
ATOM     30  O   UNL     1      12.225  -5.218   0.691  1.00  0.00    -0.458 OA
BRANCH  30  31
ATOM     31  C   UNL     1      11.258  -5.321   1.635  1.00  0.00     0.338 C 
ATOM     32  O   UNL     1      11.433  -5.230   2.845  1.00  0.00    -0.246 OA
BRANCH  31  33
ATOM     33  C   UNL     1       9.907  -5.437   1.032  1.00  0.00     0.060 A 
ATOM     34  C   UNL     1       8.849  -4.956   1.798  1.00  0.00     0.016 A 
ATOM     35  C   UNL     1       9.633  -5.994  -0.226  1.00  0.00     0.016 A 
ATOM     36  C   UNL     1       7.552  -4.985   1.287  1.00  0.00     0.010 A 
ATOM     37  C   UNL     1       8.312  -6.011  -0.736  1.00  0.00     0.010 A 
ATOM     38  C   UNL     1       7.251  -5.471   0.001  1.00  0.00    -0.014 A 
BRANCH  38  39
ATOM     39  C   UNL     1       5.811  -5.398  -0.444  1.00  0.00     0.031 A 
ATOM     40  C   UNL     1       4.772  -6.097   0.384  1.00  0.00     0.074 A 
ATOM     41  C   UNL     1       5.371  -4.568  -1.418  1.00  0.00     0.049 A 
ATOM     42  N   UNL     1       3.472  -5.965   0.358  1.00  0.00    -0.248 NA
ATOM     43  C   UNL     1       5.269  -7.063   1.374  1.00  0.00     0.031 C 
ATOM     44  C   UNL     1       6.226  -3.788  -2.291  1.00  0.00     0.029 A 
ATOM     45  N   UNL     1       4.104  -4.153  -1.778  1.00  0.00    -0.354 N 
ATOM     46  C   UNL     1       2.992  -6.823   1.334  1.00  0.00     0.074 A 
ATOM     47  C   UNL     1       4.144  -7.451   1.951  1.00  0.00     0.031 C 
ATOM     48  C   UNL     1       5.508  -2.847  -2.920  1.00  0.00     0.029 A 
ATOM     49  C   UNL     1       4.094  -3.086  -2.661  1.00  0.00     0.049 A 
ATOM     50  H   UNL     1       3.283  -4.577  -1.438  1.00  0.00     0.167 HD
ATOM     51  C   UNL     1       1.710  -7.112   1.656  1.00  0.00     0.031 A 
ATOM     52  C   UNL     1       3.081  -2.400  -3.238  1.00  0.00     0.031 A 
ATOM     53  C   UNL     1       0.556  -6.612   0.961  1.00  0.00     0.049 A 
ATOM     54  C   UNL     1       1.671  -2.868  -2.993  1.00  0.00     0.074 A 
ATOM     55  C   UNL     1      -0.769  -6.967   1.140  1.00  0.00     0.029 A 
ATOM     56  N   UNL     1       0.585  -5.683  -0.068  1.00  0.00    -0.354 N 
ATOM     57  N   UNL     1       1.238  -3.739  -2.116  1.00  0.00    -0.248 NA
ATOM     58  C   UNL     1       0.615  -2.288  -3.837  1.00  0.00     0.031 C 
ATOM     59  C   UNL     1      -1.531  -6.314   0.166  1.00  0.00     0.029 A 
ATOM     60  C   UNL     1      -0.694  -5.487  -0.565  1.00  0.00     0.049 A 
ATOM     61  H   UNL     1       1.395  -5.228  -0.396  1.00  0.00     0.167 HD
ATOM     62  C   UNL     1      -0.138  -3.810  -2.296  1.00  0.00     0.074 A 
ATOM     63  C   UNL     1      -0.472  -2.874  -3.350  1.00  0.00     0.031 C 
ATOM     64  C   UNL     1      -1.036  -4.581  -1.636  1.00  0.00     0.031 A 
BRANCH  51  65
ATOM     65  C   UNL     1       1.529  -8.150   2.725  1.00  0.00    -0.014 A 
ATOM     66  C   UNL     1       1.794  -7.862   4.076  1.00  0.00     0.010 A 
ATOM     67  C   UNL     1       1.179  -9.459   2.350  1.00  0.00     0.010 A 
ATOM     68  C   UNL     1       1.779  -8.887   5.024  1.00  0.00     0.020 A 
ATOM     69  C   UNL     1       1.136 -10.479   3.300  1.00  0.00     0.020 A 
ATOM     70  C   UNL     1       1.466 -10.191   4.625  1.00  0.00     0.054 A 
BRANCH  70  71
ATOM     71  S   UNL     1       1.521 -11.515   5.861  1.00  0.00     0.124 S 
ATOM     72  O   UNL     1       2.958 -11.652   6.088  1.00  0.00    -0.237 OA
ATOM     73  O   UNL     1       0.760 -10.949   6.971  1.00  0.00    -0.237 OA
ATOM     74  O   UNL     1       0.888 -12.646   5.186  1.00  0.00    -0.744 OA
ENDBRANCH  70  71
ENDBRANCH  51  65
BRANCH  52  75
ATOM     75  C   UNL     1       3.343  -1.256  -4.172  1.00  0.00    -0.014 A 
ATOM     76  C   UNL     1       2.848   0.036  -3.905  1.00  0.00     0.010 A 
ATOM     77  C   UNL     1       4.077  -1.455  -5.357  1.00  0.00     0.010 A 
ATOM     78  C   UNL     1       3.090   1.096  -4.792  1.00  0.00     0.020 A 
ATOM     79  C   UNL     1       4.357  -0.394  -6.223  1.00  0.00     0.020 A 
ATOM     80  C   UNL     1       3.855   0.875  -5.940  1.00  0.00     0.054 A 
BRANCH  80  81
ATOM     81  S   UNL     1       4.229   2.273  -7.038  1.00  0.00     0.124 S 
ATOM     82  O   UNL     1       2.946   2.497  -7.695  1.00  0.00    -0.237 OA
ATOM     83  O   UNL     1       4.649   3.309  -6.097  1.00  0.00    -0.237 OA
ATOM     84  O   UNL     1       5.292   1.756  -7.897  1.00  0.00    -0.744 OA
ENDBRANCH  80  81
ENDBRANCH  52  75
BRANCH  64  85
ATOM     85  C   UNL     1      -2.489  -4.454  -2.017  1.00  0.00    -0.014 A 
ATOM     86  C   UNL     1      -2.969  -4.919  -3.255  1.00  0.00     0.010 A 
ATOM     87  C   UNL     1      -3.403  -3.923  -1.088  1.00  0.00     0.010 A 
ATOM     88  C   UNL     1      -4.331  -4.833  -3.564  1.00  0.00     0.020 A 
ATOM     89  C   UNL     1      -4.768  -3.865  -1.380  1.00  0.00     0.020 A 
ATOM     90  C   UNL     1      -5.222  -4.311  -2.622  1.00  0.00     0.054 A 
BRANCH  90  91
ATOM     91  S   UNL     1      -6.992  -4.269  -3.022  1.00  0.00     0.124 S 
ATOM     92  O   UNL     1      -7.055  -3.193  -4.007  1.00  0.00    -0.237 OA
ATOM     93  O   UNL     1      -7.234  -5.612  -3.542  1.00  0.00    -0.237 OA
ATOM     94  O   UNL     1      -7.631  -3.979  -1.740  1.00  0.00    -0.744 OA
ENDBRANCH  90  91
ENDBRANCH  64  85
ENDBRANCH  38  39
ENDBRANCH  31  33
ENDBRANCH  30  31
ENDBRANCH  29  30
ENDBRANCH   1  29
TORSDOF 18
