REMARK SMILES O=C(CCCCCn1cc(Cl)c(I)n1)OCCOC(=O)c1ccc(-c2c3nc(c(-c4ccc(S(=O)(=O)[O-])cc4)c4ccc([nH]4)c(-c4ccc(S(=O)(=O)[O-])cc4)c4nc(c(-c5ccc(S(=O)(=O)[O-])cc5)c5ccc2[nH]5)C=C4)C=C3)cc1
REMARK SMILES IDX 16 1 15 2 2 3 1 4 3 5 4 6 5 7 6 8 7 9 8 10 9 11 14 12 10 13
REMARK SMILES IDX 12 14 11 15 13 16 17 17 18 18 19 19 20 20 21 21 22 22 80 23
REMARK SMILES IDX 23 24 79 25 24 26 25 27 26 28 73 29 27 30 78 31 72 32 74 33
REMARK SMILES IDX 28 34 77 35 71 36 70 37 29 39 59 40 40 41 58 42 41 43 44 44
REMARK SMILES IDX 57 45 75 46 42 47 43 48 56 50 76 51 45 52 30 53 31 54 39 55
REMARK SMILES IDX 32 56 38 57 33 58 34 59 35 60 36 61 37 62 60 63 61 64 69 65
REMARK SMILES IDX 62 66 68 67 63 68 64 69 65 70 66 71 67 72 46 73 47 74 55 75
REMARK SMILES IDX 48 76 54 77 49 78 50 79 51 80 52 81 53 82
REMARK H PARENT 74 38 44 49
REMARK Flexibility Score: inf
ROOT
ATOM      1  C   UNL     1       3.755  -1.727   0.460  1.00  0.00     0.274 C 
ENDROOT
BRANCH   1   2
ATOM      2  O   UNL     1       2.480  -1.083   0.647  1.00  0.00    -0.462 OA
BRANCH   2   3
ATOM      3  C   UNL     1       2.246   0.246   0.745  1.00  0.00     0.305 C 
ATOM      4  O   UNL     1       1.306   0.651   1.427  1.00  0.00    -0.252 OA
BRANCH   3   5
ATOM      5  C   UNL     1       3.079   1.233  -0.047  1.00  0.00     0.123 C 
BRANCH   5   6
ATOM      6  C   UNL     1       4.020   2.106   0.773  1.00  0.00     0.012 C 
BRANCH   6   7
ATOM      7  C   UNL     1       5.303   1.405   1.221  1.00  0.00     0.002 C 
BRANCH   7   8
ATOM      8  C   UNL     1       6.175   0.815   0.093  1.00  0.00     0.024 C 
BRANCH   8   9
ATOM      9  C   UNL     1       6.944   1.830  -0.752  1.00  0.00     0.144 C 
BRANCH   9  10
ATOM     10  N   UNL     1       7.844   2.622   0.061  1.00  0.00    -0.270 N 
ATOM     11  C   UNL     1       7.728   3.955   0.324  1.00  0.00     0.130 A 
ATOM     12  N   UNL     1       8.758   1.997   0.827  1.00  0.00    -0.165 NA
ATOM     13  C   UNL     1       8.543   4.194   1.405  1.00  0.00     0.092 A 
ATOM     14  C   UNL     1       9.152   2.950   1.675  1.00  0.00     0.141 A 
ATOM     15  Cl  UNL     1       8.706   5.659   2.239  1.00  0.00    -0.080 Cl
ATOM     16  I   UNL     1      10.430   2.535   3.211  1.00  0.00    -0.018 I 
ENDBRANCH   9  10
ENDBRANCH   8   9
ENDBRANCH   7   8
ENDBRANCH   6   7
ENDBRANCH   5   6
ENDBRANCH   3   5
ENDBRANCH   2   3
ENDBRANCH   1   2
BRANCH   1  17
ATOM     17  C   UNL     1       3.975  -2.300  -0.934  1.00  0.00     0.275 C 
BRANCH  17  18
ATOM     18  O   UNL     1       3.981  -1.282  -1.924  1.00  0.00    -0.458 OA
BRANCH  18  19
ATOM     19  C   UNL     1       2.769  -0.941  -2.431  1.00  0.00     0.338 C 
ATOM     20  O   UNL     1       1.687  -1.339  -2.074  1.00  0.00    -0.246 OA
BRANCH  19  21
ATOM     21  C   UNL     1       3.013  -0.023  -3.558  1.00  0.00     0.060 A 
ATOM     22  C   UNL     1       1.927   0.281  -4.380  1.00  0.00     0.016 A 
ATOM     23  C   UNL     1       4.323   0.360  -3.893  1.00  0.00     0.016 A 
ATOM     24  C   UNL     1       2.185   0.758  -5.648  1.00  0.00     0.010 A 
ATOM     25  C   UNL     1       4.579   0.830  -5.156  1.00  0.00     0.010 A 
ATOM     26  C   UNL     1       3.516   0.924  -6.046  1.00  0.00    -0.014 A 
BRANCH  26  27
ATOM     27  C   UNL     1       3.791   1.214  -7.436  1.00  0.00     0.031 A 
ATOM     28  C   UNL     1       3.466   2.601  -7.831  1.00  0.00     0.074 A 
ATOM     29  C   UNL     1       4.379   0.311  -8.245  1.00  0.00     0.049 A 
ATOM     30  N   UNL     1       2.542   2.990  -8.642  1.00  0.00    -0.248 NA
ATOM     31  C   UNL     1       4.144   3.696  -7.118  1.00  0.00     0.031 C 
ATOM     32  C   UNL     1       4.990  -0.978  -7.899  1.00  0.00     0.029 A 
ATOM     33  N   UNL     1       4.640   0.416  -9.571  1.00  0.00    -0.354 N 
ATOM     34  C   UNL     1       2.643   4.375  -8.695  1.00  0.00     0.074 A 
ATOM     35  C   UNL     1       3.527   4.762  -7.625  1.00  0.00     0.031 C 
ATOM     36  C   UNL     1       5.747  -1.408  -8.937  1.00  0.00     0.029 A 
ATOM     37  C   UNL     1       5.552  -0.510 -10.063  1.00  0.00     0.049 A 
ATOM     38  H   UNL     1       4.216   1.097 -10.142  1.00  0.00     0.167 HD
ATOM     39  C   UNL     1       2.160   5.087  -9.749  1.00  0.00     0.031 A 
ATOM     40  C   UNL     1       6.133  -0.492 -11.291  1.00  0.00     0.031 A 
ATOM     41  C   UNL     1       1.237   4.315 -10.537  1.00  0.00     0.049 A 
ATOM     42  C   UNL     1       5.278   0.361 -12.157  1.00  0.00     0.074 A 
ATOM     43  C   UNL     1       0.007   3.741 -10.283  1.00  0.00     0.029 A 
ATOM     44  N   UNL     1       1.735   3.670 -11.646  1.00  0.00    -0.354 N 
ATOM     45  N   UNL     1       4.056   0.041 -12.486  1.00  0.00    -0.248 NA
ATOM     46  C   UNL     1       5.593   1.779 -12.240  1.00  0.00     0.031 C 
ATOM     47  C   UNL     1       0.054   2.473 -10.933  1.00  0.00     0.029 A 
ATOM     48  C   UNL     1       1.268   2.378 -11.617  1.00  0.00     0.049 A 
ATOM     49  H   UNL     1       2.319   4.062 -12.334  1.00  0.00     0.167 HD
ATOM     50  C   UNL     1       3.339   1.226 -12.398  1.00  0.00     0.074 A 
ATOM     51  C   UNL     1       4.355   2.277 -12.318  1.00  0.00     0.031 C 
ATOM     52  C   UNL     1       2.001   1.231 -12.117  1.00  0.00     0.031 A 
BRANCH  39  53
ATOM     53  C   UNL     1       2.799   6.357 -10.239  1.00  0.00    -0.014 A 
ATOM     54  C   UNL     1       2.170   7.104 -11.252  1.00  0.00     0.010 A 
ATOM     55  C   UNL     1       4.126   6.710  -9.909  1.00  0.00     0.010 A 
ATOM     56  C   UNL     1       2.850   8.130 -11.923  1.00  0.00     0.020 A 
ATOM     57  C   UNL     1       4.797   7.756 -10.541  1.00  0.00     0.020 A 
ATOM     58  C   UNL     1       4.163   8.444 -11.565  1.00  0.00     0.054 A 
BRANCH  58  59
ATOM     59  S   UNL     1       5.059   9.716 -12.489  1.00  0.00     0.124 S 
ATOM     60  O   UNL     1       5.160   9.113 -13.814  1.00  0.00    -0.237 OA
ATOM     61  O   UNL     1       4.163  10.864 -12.379  1.00  0.00    -0.237 OA
ATOM     62  O   UNL     1       6.319   9.844 -11.760  1.00  0.00    -0.744 OA
ENDBRANCH  58  59
ENDBRANCH  39  53
BRANCH  40  63
ATOM     63  C   UNL     1       7.542  -0.821 -11.636  1.00  0.00    -0.014 A 
ATOM     64  C   UNL     1       7.952  -0.990 -12.973  1.00  0.00     0.010 A 
ATOM     65  C   UNL     1       8.550  -0.677 -10.660  1.00  0.00     0.010 A 
ATOM     66  C   UNL     1       9.315  -0.957 -13.326  1.00  0.00     0.020 A 
ATOM     67  C   UNL     1       9.909  -0.645 -11.003  1.00  0.00     0.020 A 
ATOM     68  C   UNL     1      10.285  -0.762 -12.338  1.00  0.00     0.054 A 
BRANCH  68  69
ATOM     69  S   UNL     1      12.027  -0.539 -12.817  1.00  0.00     0.124 S 
ATOM     70  O   UNL     1      12.401  -1.877 -13.265  1.00  0.00    -0.237 OA
ATOM     71  O   UNL     1      11.942   0.478 -13.861  1.00  0.00    -0.237 OA
ATOM     72  O   UNL     1      12.669  -0.098 -11.579  1.00  0.00    -0.744 OA
ENDBRANCH  68  69
ENDBRANCH  40  63
BRANCH  52  73
ATOM     73  C   UNL     1       1.262  -0.093 -12.120  1.00  0.00    -0.014 A 
ATOM     74  C   UNL     1       1.551  -1.163 -11.247  1.00  0.00     0.010 A 
ATOM     75  C   UNL     1       0.125  -0.195 -12.941  1.00  0.00     0.010 A 
ATOM     76  C   UNL     1       0.740  -2.311 -11.221  1.00  0.00     0.020 A 
ATOM     77  C   UNL     1      -0.695  -1.325 -12.907  1.00  0.00     0.020 A 
ATOM     78  C   UNL     1      -0.379  -2.384 -12.056  1.00  0.00     0.054 A 
BRANCH  78  79
ATOM     79  S   UNL     1      -1.446  -3.853 -12.005  1.00  0.00     0.124 S 
ATOM     80  O   UNL     1      -0.590  -4.888 -12.576  1.00  0.00    -0.237 OA
ATOM     81  O   UNL     1      -1.739  -3.993 -10.580  1.00  0.00    -0.237 OA
ATOM     82  O   UNL     1      -2.595  -3.478 -12.830  1.00  0.00    -0.744 OA
ENDBRANCH  78  79
ENDBRANCH  52  73
ENDBRANCH  26  27
ENDBRANCH  19  21
ENDBRANCH  18  19
ENDBRANCH  17  18
ENDBRANCH   1  17
TORSDOF 19
