REMARK SMILES O=C(OCCOC(=O)c1cc(-c2cc(Cl)ccc2Cl)cc([N+](=O)[O-])c1)c1ccc(-c2c3nc(c(-c4ccc(S(=O)(=O)[O-])cc4)c4ccc([nH]4)c(-c4ccc(S(=O)(=O)[O-])cc4)c4nc(c(-c5ccc(S(=O)(=O)[O-])cc5)c5ccc2[nH]5)C=C4)C=C3)cc1
REMARK SMILES IDX 4 1 3 2 2 3 1 4 26 5 27 6 85 7 28 8 84 9 29 10 30 11 31 12
REMARK SMILES IDX 78 13 32 14 83 15 77 16 79 17 33 18 82 19 76 20 75 21 34 23
REMARK SMILES IDX 64 24 45 25 63 26 46 27 49 28 62 29 80 30 47 31 48 32 61 34
REMARK SMILES IDX 81 35 50 36 35 37 36 38 44 39 37 40 43 41 38 42 39 43 40 44
REMARK SMILES IDX 41 45 42 46 65 47 66 48 74 49 67 50 73 51 68 52 69 53 70 54
REMARK SMILES IDX 71 55 72 56 51 57 52 58 60 59 53 60 59 61 54 62 55 63 56 64
REMARK SMILES IDX 57 65 58 66 5 67 6 68 7 69 8 70 9 71 10 72 25 73 11 74 21 75
REMARK SMILES IDX 20 76 12 77 13 78 18 79 14 80 17 81 19 82 15 83 16 84 22 85
REMARK SMILES IDX 23 86 24 87
REMARK H PARENT 79 22 49 33
REMARK Flexibility Score: inf
ROOT
ATOM      1  C   UNL     1       4.066   0.864   1.374  1.00  0.00     0.275 C 
ENDROOT
BRANCH   1   2
ATOM      2  O   UNL     1       3.122   1.184   0.337  1.00  0.00    -0.458 OA
BRANCH   2   3
ATOM      3  C   UNL     1       3.045   0.750  -0.942  1.00  0.00     0.338 C 
ATOM      4  O   UNL     1       2.235   1.291  -1.694  1.00  0.00    -0.246 OA
BRANCH   3   5
ATOM      5  C   UNL     1       3.782  -0.446  -1.467  1.00  0.00     0.060 A 
ATOM      6  C   UNL     1       5.008  -0.936  -1.012  1.00  0.00     0.016 A 
ATOM      7  C   UNL     1       3.160  -1.134  -2.526  1.00  0.00     0.016 A 
ATOM      8  C   UNL     1       5.554  -2.118  -1.528  1.00  0.00     0.010 A 
ATOM      9  C   UNL     1       3.693  -2.320  -3.038  1.00  0.00     0.010 A 
ATOM     10  C   UNL     1       4.897  -2.824  -2.534  1.00  0.00    -0.014 A 
BRANCH  10  11
ATOM     11  C   UNL     1       5.522  -4.014  -3.154  1.00  0.00     0.031 A 
ATOM     12  C   UNL     1       6.127  -3.876  -4.520  1.00  0.00     0.074 A 
ATOM     13  C   UNL     1       5.560  -5.198  -2.511  1.00  0.00     0.049 A 
ATOM     14  N   UNL     1       6.680  -4.793  -5.265  1.00  0.00    -0.248 NA
ATOM     15  C   UNL     1       6.152  -2.523  -5.106  1.00  0.00     0.031 C 
ATOM     16  C   UNL     1       5.132  -5.433  -1.133  1.00  0.00     0.029 A 
ATOM     17  N   UNL     1       5.945  -6.441  -2.949  1.00  0.00    -0.354 N 
ATOM     18  C   UNL     1       7.165  -4.125  -6.380  1.00  0.00     0.074 A 
ATOM     19  C   UNL     1       6.777  -2.738  -6.255  1.00  0.00     0.031 C 
ATOM     20  C   UNL     1       5.178  -6.753  -0.877  1.00  0.00     0.029 A 
ATOM     21  C   UNL     1       5.618  -7.453  -2.072  1.00  0.00     0.049 A 
ATOM     22  H   UNL     1       6.409  -6.594  -3.803  1.00  0.00     0.167 HD
ATOM     23  C   UNL     1       7.908  -4.622  -7.394  1.00  0.00     0.031 A 
ATOM     24  C   UNL     1       5.633  -8.790  -2.234  1.00  0.00     0.031 A 
ATOM     25  C   UNL     1       8.269  -6.006  -7.513  1.00  0.00     0.049 A 
ATOM     26  C   UNL     1       6.237  -9.345  -3.491  1.00  0.00     0.074 A 
ATOM     27  C   UNL     1       9.068  -6.609  -8.467  1.00  0.00     0.029 A 
ATOM     28  N   UNL     1       7.828  -7.010  -6.664  1.00  0.00    -0.354 N 
ATOM     29  N   UNL     1       6.764  -8.692  -4.498  1.00  0.00    -0.248 NA
ATOM     30  C   UNL     1       6.302 -10.807  -3.609  1.00  0.00     0.031 C 
ATOM     31  C   UNL     1       9.052  -7.988  -8.236  1.00  0.00     0.029 A 
ATOM     32  C   UNL     1       8.288  -8.236  -7.106  1.00  0.00     0.049 A 
ATOM     33  H   UNL     1       7.270  -6.870  -5.865  1.00  0.00     0.167 HD
ATOM     34  C   UNL     1       7.285  -9.664  -5.340  1.00  0.00     0.074 A 
ATOM     35  C   UNL     1       6.987 -10.948  -4.736  1.00  0.00     0.031 C 
ATOM     36  C   UNL     1       7.979  -9.503  -6.493  1.00  0.00     0.031 A 
BRANCH  23  37
ATOM     37  C   UNL     1       8.377  -3.661  -8.447  1.00  0.00    -0.014 A 
ATOM     38  C   UNL     1       9.413  -2.748  -8.178  1.00  0.00     0.010 A 
ATOM     39  C   UNL     1       7.814  -3.705  -9.734  1.00  0.00     0.010 A 
ATOM     40  C   UNL     1       9.867  -1.883  -9.175  1.00  0.00     0.020 A 
ATOM     41  C   UNL     1       8.279  -2.854 -10.739  1.00  0.00     0.020 A 
ATOM     42  C   UNL     1       9.299  -1.944 -10.451  1.00  0.00     0.054 A 
BRANCH  42  43
ATOM     43  S   UNL     1       9.945  -0.845 -11.741  1.00  0.00     0.124 S 
ATOM     44  O   UNL     1       9.444   0.457 -11.307  1.00  0.00    -0.237 OA
ATOM     45  O   UNL     1      11.389  -1.032 -11.625  1.00  0.00    -0.237 OA
ATOM     46  O   UNL     1       9.349  -1.363 -12.970  1.00  0.00    -0.744 OA
ENDBRANCH  42  43
ENDBRANCH  23  37
BRANCH  24  47
ATOM     47  C   UNL     1       5.013  -9.700  -1.231  1.00  0.00    -0.014 A 
ATOM     48  C   UNL     1       5.788 -10.481  -0.359  1.00  0.00     0.010 A 
ATOM     49  C   UNL     1       3.613  -9.838  -1.202  1.00  0.00     0.010 A 
ATOM     50  C   UNL     1       5.174 -11.399   0.504  1.00  0.00     0.020 A 
ATOM     51  C   UNL     1       2.993 -10.734  -0.324  1.00  0.00     0.020 A 
ATOM     52  C   UNL     1       3.780 -11.524   0.513  1.00  0.00     0.054 A 
BRANCH  52  53
ATOM     53  S   UNL     1       3.007 -12.724   1.636  1.00  0.00     0.124 S 
ATOM     54  O   UNL     1       3.293 -13.991   0.969  1.00  0.00    -0.237 OA
ATOM     55  O   UNL     1       3.724 -12.496   2.889  1.00  0.00    -0.237 OA
ATOM     56  O   UNL     1       1.600 -12.329   1.651  1.00  0.00    -0.744 OA
ENDBRANCH  52  53
ENDBRANCH  24  47
BRANCH  36  57
ATOM     57  C   UNL     1       8.504 -10.743  -7.154  1.00  0.00    -0.014 A 
ATOM     58  C   UNL     1       7.646 -11.618  -7.841  1.00  0.00     0.010 A 
ATOM     59  C   UNL     1       9.887 -10.999  -7.136  1.00  0.00     0.010 A 
ATOM     60  C   UNL     1       8.164 -12.742  -8.486  1.00  0.00     0.020 A 
ATOM     61  C   UNL     1      10.411 -12.104  -7.806  1.00  0.00     0.020 A 
ATOM     62  C   UNL     1       9.544 -12.974  -8.469  1.00  0.00     0.054 A 
BRANCH  62  63
ATOM     63  S   UNL     1      10.197 -14.401  -9.376  1.00  0.00     0.124 S 
ATOM     64  O   UNL     1       9.813 -15.513  -8.512  1.00  0.00    -0.237 OA
ATOM     65  O   UNL     1       9.489 -14.321 -10.652  1.00  0.00    -0.237 OA
ATOM     66  O   UNL     1      11.633 -14.136  -9.450  1.00  0.00    -0.744 OA
ENDBRANCH  62  63
ENDBRANCH  36  57
ENDBRANCH  10  11
ENDBRANCH   3   5
ENDBRANCH   2   3
ENDBRANCH   1   2
BRANCH   1  67
ATOM     67  C   UNL     1       3.728  -0.383   2.197  1.00  0.00     0.275 C 
BRANCH  67  68
ATOM     68  O   UNL     1       3.273  -1.494   1.412  1.00  0.00    -0.458 OA
BRANCH  68  69
ATOM     69  C   UNL     1       1.926  -1.572   1.256  1.00  0.00     0.338 C 
ATOM     70  O   UNL     1       1.089  -0.816   1.713  1.00  0.00    -0.246 OA
BRANCH  69  71
ATOM     71  C   UNL     1       1.604  -2.682   0.335  1.00  0.00     0.067 A 
ATOM     72  C   UNL     1       0.691  -2.452  -0.710  1.00  0.00     0.025 A 
ATOM     73  C   UNL     1       2.127  -3.955   0.555  1.00  0.00     0.101 A 
ATOM     74  C   UNL     1       0.354  -3.480  -1.604  1.00  0.00    -0.009 A 
ATOM     75  C   UNL     1       1.763  -4.984  -0.318  1.00  0.00     0.270 A 
ATOM     76  C   UNL     1       0.963  -4.732  -1.436  1.00  0.00     0.094 A 
BRANCH  74  77
ATOM     77  C   UNL     1      -0.704  -3.331  -2.619  1.00  0.00     0.002 A 
ATOM     78  C   UNL     1      -0.568  -2.414  -3.676  1.00  0.00     0.030 A 
ATOM     79  C   UNL     1      -1.876  -4.125  -2.585  1.00  0.00     0.048 A 
ATOM     80  C   UNL     1      -1.550  -2.315  -4.666  1.00  0.00     0.041 A 
ATOM     81  C   UNL     1      -2.842  -4.035  -3.589  1.00  0.00     0.023 A 
ATOM     82  Cl  UNL     1      -2.213  -5.228  -1.288  1.00  0.00    -0.084 Cl
ATOM     83  Cl  UNL     1      -1.368  -1.179  -5.945  1.00  0.00    -0.084 Cl
ATOM     84  C   UNL     1      -2.679  -3.129  -4.633  1.00  0.00     0.022 A 
ENDBRANCH  74  77
BRANCH  75  85
ATOM     85  N   UNL     1       2.090  -6.373   0.010  1.00  0.00     0.062 N 
ATOM     86  O   UNL     1       1.771  -7.242  -0.811  1.00  0.00    -0.258 OA
ATOM     87  O   UNL     1       2.629  -6.582   1.105  1.00  0.00    -0.258 OA
ENDBRANCH  75  85
ENDBRANCH  69  71
ENDBRANCH  68  69
ENDBRANCH  67  68
ENDBRANCH   1  67
TORSDOF 16
