REMARK SMILES O=C(OCCOC(=O)c1nn(-c2ccc(Br)cc2F)cc1CCCO)c1ccc(-c2c3nc(c(-c4ccc(S(=O)(=O)[O-])cc4)c4ccc([nH]4)c(-c4ccc(S(=O)(=O)[O-])cc4)c4nc(c(-c5ccc(S(=O)(=O)[O-])cc5)c5ccc2[nH]5)C=C4)C=C3)cc1
REMARK SMILES IDX 5 1 4 2 3 3 2 4 1 5 26 6 27 7 85 8 28 9 84 10 29 11 30 12
REMARK SMILES IDX 31 13 78 14 32 15 83 16 77 17 79 18 33 19 82 20 76 21 75 22
REMARK SMILES IDX 34 24 64 25 45 26 63 27 46 28 49 29 62 30 80 31 47 32 48 33
REMARK SMILES IDX 61 35 81 36 50 37 35 38 36 39 44 40 37 41 43 42 38 43 39 44
REMARK SMILES IDX 40 45 41 46 42 47 65 48 66 49 74 50 67 51 73 52 68 53 69 54
REMARK SMILES IDX 70 55 71 56 72 57 51 58 52 59 60 60 53 61 59 62 54 63 55 64
REMARK SMILES IDX 56 65 57 66 58 67 6 68 7 69 8 70 9 71 10 72 21 73 11 74
REMARK SMILES IDX 20 75 22 76 23 77 24 78 25 79 12 81 13 82 18 83 14 84 17 85
REMARK SMILES IDX 19 86 15 87 16 88
REMARK H PARENT 79 23 49 34 25 80
REMARK Flexibility Score: inf
ROOT
ATOM      1  C   UNL     1       4.924  -1.601   0.366  1.00  0.00     0.275 C 
ENDROOT
BRANCH   1   2
ATOM      2  C   UNL     1       4.757  -0.097   0.590  1.00  0.00     0.275 C 
BRANCH   2   3
ATOM      3  O   UNL     1       3.546   0.334  -0.031  1.00  0.00    -0.458 OA
BRANCH   3   4
ATOM      4  C   UNL     1       3.055   1.515   0.380  1.00  0.00     0.338 C 
ATOM      5  O   UNL     1       2.807   1.850   1.532  1.00  0.00    -0.246 OA
BRANCH   4   6
ATOM      6  C   UNL     1       2.772   2.261  -0.847  1.00  0.00     0.060 A 
ATOM      7  C   UNL     1       3.808   2.497  -1.757  1.00  0.00     0.016 A 
ATOM      8  C   UNL     1       1.455   2.597  -1.149  1.00  0.00     0.016 A 
ATOM      9  C   UNL     1       3.517   3.097  -2.972  1.00  0.00     0.010 A 
ATOM     10  C   UNL     1       1.161   3.110  -2.404  1.00  0.00     0.010 A 
ATOM     11  C   UNL     1       2.190   3.418  -3.296  1.00  0.00    -0.014 A 
BRANCH  11  12
ATOM     12  C   UNL     1       1.934   4.108  -4.560  1.00  0.00     0.031 A 
ATOM     13  C   UNL     1       2.583   3.565  -5.784  1.00  0.00     0.074 A 
ATOM     14  C   UNL     1       1.168   5.213  -4.673  1.00  0.00     0.049 A 
ATOM     15  N   UNL     1       3.661   3.999  -6.353  1.00  0.00    -0.248 NA
ATOM     16  C   UNL     1       2.026   2.357  -6.402  1.00  0.00     0.031 C 
ATOM     17  C   UNL     1       0.254   5.809  -3.695  1.00  0.00     0.029 A 
ATOM     18  N   UNL     1       1.022   6.023  -5.760  1.00  0.00    -0.354 N 
ATOM     19  C   UNL     1       3.810   3.261  -7.523  1.00  0.00     0.074 A 
ATOM     20  C   UNL     1       2.867   2.171  -7.424  1.00  0.00     0.031 C 
ATOM     21  C   UNL     1      -0.507   6.747  -4.301  1.00  0.00     0.029 A 
ATOM     22  C   UNL     1      -0.001   6.950  -5.645  1.00  0.00     0.049 A 
ATOM     23  H   UNL     1       1.595   5.956  -6.558  1.00  0.00     0.167 HD
ATOM     24  C   UNL     1       4.545   3.722  -8.576  1.00  0.00     0.031 A 
ATOM     25  C   UNL     1      -0.407   7.840  -6.579  1.00  0.00     0.031 A 
ATOM     26  C   UNL     1       5.360   4.854  -8.212  1.00  0.00     0.049 A 
ATOM     27  C   UNL     1       0.735   8.081  -7.488  1.00  0.00     0.074 A 
ATOM     28  C   UNL     1       6.343   5.092  -7.271  1.00  0.00     0.029 A 
ATOM     29  N   UNL     1       4.942   6.094  -8.636  1.00  0.00    -0.354 N 
ATOM     30  N   UNL     1       1.819   8.708  -7.127  1.00  0.00    -0.248 NA
ATOM     31  C   UNL     1       0.850   7.289  -8.701  1.00  0.00     0.031 C 
ATOM     32  C   UNL     1       6.114   6.429  -6.828  1.00  0.00     0.029 A 
ATOM     33  C   UNL     1       5.048   6.946  -7.567  1.00  0.00     0.049 A 
ATOM     34  H   UNL     1       4.626   6.327  -9.539  1.00  0.00     0.167 HD
ATOM     35  C   UNL     1       2.846   8.064  -7.800  1.00  0.00     0.074 A 
ATOM     36  C   UNL     1       2.178   7.283  -8.838  1.00  0.00     0.031 C 
ATOM     37  C   UNL     1       4.112   8.017  -7.288  1.00  0.00     0.031 A 
BRANCH  24  38
ATOM     38  C   UNL     1       4.252   3.399 -10.025  1.00  0.00    -0.014 A 
ATOM     39  C   UNL     1       5.119   3.890 -11.026  1.00  0.00     0.010 A 
ATOM     40  C   UNL     1       3.016   2.878 -10.454  1.00  0.00     0.010 A 
ATOM     41  C   UNL     1       4.731   3.934 -12.373  1.00  0.00     0.020 A 
ATOM     42  C   UNL     1       2.638   2.874 -11.799  1.00  0.00     0.020 A 
ATOM     43  C   UNL     1       3.481   3.440 -12.746  1.00  0.00     0.054 A 
BRANCH  43  44
ATOM     44  S   UNL     1       2.933   3.611 -14.463  1.00  0.00     0.124 S 
ATOM     45  O   UNL     1       2.750   5.055 -14.574  1.00  0.00    -0.237 OA
ATOM     46  O   UNL     1       4.059   3.054 -15.206  1.00  0.00    -0.237 OA
ATOM     47  O   UNL     1       1.708   2.816 -14.509  1.00  0.00    -0.744 OA
ENDBRANCH  43  44
ENDBRANCH  24  38
BRANCH  25  48
ATOM     48  C   UNL     1      -1.783   8.302  -6.859  1.00  0.00    -0.014 A 
ATOM     49  C   UNL     1      -2.012   9.401  -7.704  1.00  0.00     0.010 A 
ATOM     50  C   UNL     1      -2.879   7.477  -6.531  1.00  0.00     0.010 A 
ATOM     51  C   UNL     1      -3.277   9.617  -8.273  1.00  0.00     0.020 A 
ATOM     52  C   UNL     1      -4.144   7.692  -7.086  1.00  0.00     0.020 A 
ATOM     53  C   UNL     1      -4.328   8.743  -7.981  1.00  0.00     0.054 A 
BRANCH  53  54
ATOM     54  S   UNL     1      -5.893   8.900  -8.889  1.00  0.00     0.124 S 
ATOM     55  O   UNL     1      -6.465  10.115  -8.316  1.00  0.00    -0.237 OA
ATOM     56  O   UNL     1      -5.446   9.005 -10.276  1.00  0.00    -0.237 OA
ATOM     57  O   UNL     1      -6.605   7.665  -8.564  1.00  0.00    -0.744 OA
ENDBRANCH  53  54
ENDBRANCH  25  48
BRANCH  37  58
ATOM     58  C   UNL     1       4.489   8.978  -6.182  1.00  0.00    -0.014 A 
ATOM     59  C   UNL     1       3.801   9.088  -4.959  1.00  0.00     0.010 A 
ATOM     60  C   UNL     1       5.671   9.724  -6.349  1.00  0.00     0.010 A 
ATOM     61  C   UNL     1       4.258   9.953  -3.952  1.00  0.00     0.020 A 
ATOM     62  C   UNL     1       6.145  10.569  -5.343  1.00  0.00     0.020 A 
ATOM     63  C   UNL     1       5.428  10.692  -4.154  1.00  0.00     0.054 A 
BRANCH  63  64
ATOM     64  S   UNL     1       6.029  11.789  -2.840  1.00  0.00     0.124 S 
ATOM     65  O   UNL     1       5.025  12.849  -2.826  1.00  0.00    -0.237 OA
ATOM     66  O   UNL     1       6.041  10.917  -1.668  1.00  0.00    -0.237 OA
ATOM     67  O   UNL     1       7.353  12.199  -3.307  1.00  0.00    -0.744 OA
ENDBRANCH  63  64
ENDBRANCH  37  58
ENDBRANCH  11  12
ENDBRANCH   4   6
ENDBRANCH   3   4
ENDBRANCH   2   3
ENDBRANCH   1   2
BRANCH   1  68
ATOM     68  O   UNL     1       4.379  -1.983  -0.910  1.00  0.00    -0.457 OA
BRANCH  68  69
ATOM     69  C   UNL     1       3.075  -2.414  -0.886  1.00  0.00     0.359 C 
ATOM     70  O   UNL     1       2.472  -2.745   0.130  1.00  0.00    -0.244 OA
BRANCH  69  71
ATOM     71  C   UNL     1       2.469  -2.398  -2.219  1.00  0.00     0.173 A 
ATOM     72  N   UNL     1       2.941  -3.224  -3.169  1.00  0.00    -0.160 NA
ATOM     73  C   UNL     1       1.385  -1.607  -2.723  1.00  0.00     0.006 A 
ATOM     74  N   UNL     1       2.345  -2.822  -4.310  1.00  0.00    -0.237 N 
ATOM     75  C   UNL     1       1.416  -1.843  -4.085  1.00  0.00     0.119 A 
BRANCH  73  76
ATOM     76  C   UNL     1       0.486  -0.619  -2.048  1.00  0.00     0.042 C 
BRANCH  76  77
ATOM     77  C   UNL     1      -0.449  -1.179  -0.971  1.00  0.00     0.033 C 
BRANCH  77  78
ATOM     78  C   UNL     1       0.041  -0.868   0.442  1.00  0.00     0.156 C 
BRANCH  78  79
ATOM     79  O   UNL     1      -0.250   0.485   0.771  1.00  0.00    -0.396 OA
ATOM     80  H   UNL     1       0.198   1.074   0.144  1.00  0.00     0.210 HD
ENDBRANCH  78  79
ENDBRANCH  77  78
ENDBRANCH  76  77
ENDBRANCH  73  76
BRANCH  74  81
ATOM     81  C   UNL     1       2.665  -3.451  -5.527  1.00  0.00     0.100 A 
ATOM     82  C   UNL     1       2.982  -4.817  -5.514  1.00  0.00     0.032 A 
ATOM     83  C   UNL     1       2.674  -2.741  -6.725  1.00  0.00     0.149 A 
ATOM     84  C   UNL     1       3.269  -5.470  -6.711  1.00  0.00     0.018 A 
ATOM     85  C   UNL     1       3.012  -3.380  -7.915  1.00  0.00     0.057 A 
ATOM     86  F   UNL     1       2.434  -1.422  -6.754  1.00  0.00    -0.205 F 
ATOM     87  C   UNL     1       3.294  -4.745  -7.903  1.00  0.00     0.021 A 
ATOM     88  Br  UNL     1       3.720  -5.634  -9.516  1.00  0.00    -0.051 Br
ENDBRANCH  74  81
ENDBRANCH  69  71
ENDBRANCH  68  69
ENDBRANCH   1  68
TORSDOF 19
