REMARK SMILES CSc1ncccc1C(=O)N1CSC[C@H]1C(=O)OCCOC(=O)c1ccc(-c2c3nc(c(-c4ccc(S(=O)(=O)[O-])cc4)c4ccc([nH]4)c(-c4ccc(S(=O)(=O)[O-])cc4)c4nc(c(-c5ccc(S(=O)(=O)[O-])cc5)c5ccc2[nH]5)C=C4)C=C3)cc1
REMARK SMILES IDX 19 1 18 2 16 3 17 4 15 5 11 6 12 7 13 8 14 9 9 10 10 11 8 12
REMARK SMILES IDX 3 13 4 14 5 15 7 16 6 17 2 18 1 19 20 20 21 21 22 22 23 23
REMARK SMILES IDX 24 24 25 25 83 26 26 27 82 28 27 29 28 30 29 31 76 32 30 33
REMARK SMILES IDX 81 34 75 35 77 36 31 37 80 38 74 39 73 40 32 42 62 43 43 44
REMARK SMILES IDX 61 45 44 46 47 47 60 48 78 49 45 50 46 51 59 53 79 54 48 55
REMARK SMILES IDX 33 56 34 57 42 58 35 59 41 60 36 61 37 62 38 63 39 64 40 65
REMARK SMILES IDX 63 66 64 67 72 68 65 69 71 70 66 71 67 72 68 73 69 74 70 75
REMARK SMILES IDX 49 76 50 77 58 78 51 79 57 80 52 81 53 82 54 83 55 84 56 85
REMARK H PARENT 77 41 47 52
REMARK Flexibility Score: inf
ROOT
ATOM      1  C   UNL     1       5.188  -1.732   3.009  1.00  0.00     0.274 C 
ENDROOT
BRANCH   1   2
ATOM      2  O   UNL     1       4.814  -0.391   2.626  1.00  0.00    -0.461 OA
BRANCH   2   3
ATOM      3  C   UNL     1       5.830   0.372   2.141  1.00  0.00     0.329 C 
ATOM      4  O   UNL     1       6.998  -0.000   2.062  1.00  0.00    -0.250 OA
BRANCH   3   5
ATOM      5  C   UNL     1       5.427   1.810   1.799  1.00  0.00     0.206 C 
ATOM      6  N   UNL     1       4.011   2.178   1.694  1.00  0.00    -0.315 N 
ATOM      7  C   UNL     1       3.389   2.445   2.970  1.00  0.00     0.191 C 
ATOM      8  S   UNL     1       4.705   3.094   4.034  1.00  0.00    -0.138 SA
ATOM      9  C   UNL     1       6.038   2.743   2.841  1.00  0.00     0.108 C 
BRANCH   6  10
ATOM     10  C   UNL     1       3.446   2.324   0.434  1.00  0.00     0.258 C 
ATOM     11  O   UNL     1       3.987   1.879  -0.572  1.00  0.00    -0.269 OA
BRANCH  10  12
ATOM     12  C   UNL     1       2.288   3.220   0.253  1.00  0.00     0.072 A 
ATOM     13  C   UNL     1       1.153   2.883  -0.486  1.00  0.00     0.108 A 
ATOM     14  N   UNL     1       0.162   3.788  -0.718  1.00  0.00    -0.249 NA
ATOM     15  C   UNL     1       0.342   5.060  -0.299  1.00  0.00     0.112 A 
ATOM     16  C   UNL     1       2.446   4.552   0.669  1.00  0.00     0.018 A 
ATOM     17  C   UNL     1       1.461   5.490   0.386  1.00  0.00     0.021 A 
BRANCH  13  18
ATOM     18  S   UNL     1       0.898   1.323  -1.306  1.00  0.00    -0.109 SA
ATOM     19  C   UNL     1       0.475   0.278   0.102  1.00  0.00     0.092 C 
ENDBRANCH  13  18
ENDBRANCH  10  12
ENDBRANCH   6  10
ENDBRANCH   3   5
ENDBRANCH   2   3
ENDBRANCH   1   2
BRANCH   1  20
ATOM     20  C   UNL     1       4.706  -2.763   1.992  1.00  0.00     0.275 C 
BRANCH  20  21
ATOM     21  O   UNL     1       5.133  -2.418   0.666  1.00  0.00    -0.458 OA
BRANCH  21  22
ATOM     22  C   UNL     1       4.178  -1.813  -0.084  1.00  0.00     0.338 C 
ATOM     23  O   UNL     1       3.030  -1.578   0.250  1.00  0.00    -0.246 OA
BRANCH  22  24
ATOM     24  C   UNL     1       4.726  -1.486  -1.406  1.00  0.00     0.060 A 
ATOM     25  C   UNL     1       5.562  -0.381  -1.549  1.00  0.00     0.016 A 
ATOM     26  C   UNL     1       4.310  -2.209  -2.522  1.00  0.00     0.016 A 
ATOM     27  C   UNL     1       5.923   0.056  -2.821  1.00  0.00     0.010 A 
ATOM     28  C   UNL     1       4.742  -1.818  -3.793  1.00  0.00     0.010 A 
ATOM     29  C   UNL     1       5.533  -0.667  -3.956  1.00  0.00    -0.014 A 
BRANCH  29  30
ATOM     30  C   UNL     1       5.961  -0.232  -5.311  1.00  0.00     0.031 A 
ATOM     31  C   UNL     1       4.945   0.192  -6.336  1.00  0.00     0.074 A 
ATOM     32  C   UNL     1       7.271  -0.238  -5.626  1.00  0.00     0.049 A 
ATOM     33  N   UNL     1       5.115   0.434  -7.611  1.00  0.00    -0.248 NA
ATOM     34  C   UNL     1       3.558   0.357  -5.871  1.00  0.00     0.031 C 
ATOM     35  C   UNL     1       8.361  -0.586  -4.711  1.00  0.00     0.029 A 
ATOM     36  N   UNL     1       7.909   0.051  -6.806  1.00  0.00    -0.354 N 
ATOM     37  C   UNL     1       3.854   0.739  -8.111  1.00  0.00     0.074 A 
ATOM     38  C   UNL     1       2.928   0.650  -7.002  1.00  0.00     0.031 C 
ATOM     39  C   UNL     1       9.531  -0.473  -5.357  1.00  0.00     0.029 A 
ATOM     40  C   UNL     1       9.271  -0.119  -6.748  1.00  0.00     0.049 A 
ATOM     41  H   UNL     1       7.436   0.351  -7.616  1.00  0.00     0.167 HD
ATOM     42  C   UNL     1       3.504   1.059  -9.381  1.00  0.00     0.031 A 
ATOM     43  C   UNL     1      10.208  -0.043  -7.712  1.00  0.00     0.031 A 
ATOM     44  C   UNL     1       4.433   1.171 -10.476  1.00  0.00     0.049 A 
ATOM     45  C   UNL     1       9.790   0.267  -9.119  1.00  0.00     0.074 A 
ATOM     46  C   UNL     1       4.175   1.500 -11.796  1.00  0.00     0.029 A 
ATOM     47  N   UNL     1       5.801   0.966 -10.377  1.00  0.00    -0.354 N 
ATOM     48  N   UNL     1       8.589   0.512  -9.584  1.00  0.00    -0.248 NA
ATOM     49  C   UNL     1      10.851   0.296 -10.134  1.00  0.00     0.031 C 
ATOM     50  C   UNL     1       5.382   1.458 -12.503  1.00  0.00     0.029 A 
ATOM     51  C   UNL     1       6.398   1.145 -11.614  1.00  0.00     0.049 A 
ATOM     52  H   UNL     1       6.279   0.728  -9.550  1.00  0.00     0.167 HD
ATOM     53  C   UNL     1       8.750   0.734 -10.945  1.00  0.00     0.074 A 
ATOM     54  C   UNL     1      10.166   0.611 -11.226  1.00  0.00     0.031 C 
ATOM     55  C   UNL     1       7.808   1.013 -11.879  1.00  0.00     0.031 A 
BRANCH  42  56
ATOM     56  C   UNL     1       2.041   1.272  -9.668  1.00  0.00    -0.014 A 
ATOM     57  C   UNL     1       1.380   2.447  -9.271  1.00  0.00     0.010 A 
ATOM     58  C   UNL     1       1.329   0.296 -10.390  1.00  0.00     0.010 A 
ATOM     59  C   UNL     1       0.024   2.628  -9.563  1.00  0.00     0.020 A 
ATOM     60  C   UNL     1      -0.021   0.482 -10.701  1.00  0.00     0.020 A 
ATOM     61  C   UNL     1      -0.670   1.641 -10.271  1.00  0.00     0.054 A 
BRANCH  61  62
ATOM     62  S   UNL     1      -2.422   1.907 -10.662  1.00  0.00     0.124 S 
ATOM     63  O   UNL     1      -3.066   1.612  -9.385  1.00  0.00    -0.237 OA
ATOM     64  O   UNL     1      -2.455   3.309 -11.072  1.00  0.00    -0.237 OA
ATOM     65  O   UNL     1      -2.688   0.946 -11.730  1.00  0.00    -0.744 OA
ENDBRANCH  61  62
ENDBRANCH  42  56
BRANCH  43  66
ATOM     66  C   UNL     1      11.630  -0.314  -7.375  1.00  0.00    -0.014 A 
ATOM     67  C   UNL     1      12.563   0.734  -7.322  1.00  0.00     0.010 A 
ATOM     68  C   UNL     1      12.047  -1.622  -7.066  1.00  0.00     0.010 A 
ATOM     69  C   UNL     1      13.892   0.479  -6.970  1.00  0.00     0.020 A 
ATOM     70  C   UNL     1      13.368  -1.877  -6.690  1.00  0.00     0.020 A 
ATOM     71  C   UNL     1      14.285  -0.825  -6.653  1.00  0.00     0.054 A 
BRANCH  71  72
ATOM     72  S   UNL     1      15.995  -1.126  -6.127  1.00  0.00     0.124 S 
ATOM     73  O   UNL     1      16.705  -1.148  -7.401  1.00  0.00    -0.237 OA
ATOM     74  O   UNL     1      16.273   0.022  -5.267  1.00  0.00    -0.237 OA
ATOM     75  O   UNL     1      15.914  -2.409  -5.430  1.00  0.00    -0.744 OA
ENDBRANCH  71  72
ENDBRANCH  43  66
BRANCH  55  76
ATOM     76  C   UNL     1       8.283   1.228 -13.288  1.00  0.00    -0.014 A 
ATOM     77  C   UNL     1       8.644   0.140 -14.102  1.00  0.00     0.010 A 
ATOM     78  C   UNL     1       8.328   2.530 -13.817  1.00  0.00     0.010 A 
ATOM     79  C   UNL     1       9.066   0.354 -15.417  1.00  0.00     0.020 A 
ATOM     80  C   UNL     1       8.731   2.745 -15.137  1.00  0.00     0.020 A 
ATOM     81  C   UNL     1       9.110   1.656 -15.925  1.00  0.00     0.054 A 
BRANCH  81  82
ATOM     82  S   UNL     1       9.618   1.909 -17.649  1.00  0.00     0.124 S 
ATOM     83  O   UNL     1      11.070   1.784 -17.559  1.00  0.00    -0.237 OA
ATOM     84  O   UNL     1       8.935   0.825 -18.351  1.00  0.00    -0.237 OA
ATOM     85  O   UNL     1       9.126   3.250 -17.960  1.00  0.00    -0.744 OA
ENDBRANCH  81  82
ENDBRANCH  55  76
ENDBRANCH  29  30
ENDBRANCH  22  24
ENDBRANCH  21  22
ENDBRANCH  20  21
ENDBRANCH   1  20
TORSDOF 17
