REMARK SMILES CC[C@@H](CNC(=O)NCc1c(C)noc1C)C(=O)OCCOC(=O)c1ccc(-c2c3nc(c(-c4ccc(S(=O)(=O)[O-])cc4)c4ccc([nH]4)c(-c4ccc(S(=O)(=O)[O-])cc4)c4nc(c(-c5ccc(S(=O)(=O)[O-])cc5)c5ccc2[nH]5)C=C4)C=C3)cc1
REMARK SMILES IDX 20 1 19 2 17 3 18 4 3 5 2 6 1 7 4 8 5 9 6 10 7 12 8 13 9 15
REMARK SMILES IDX 10 16 11 17 15 18 12 19 13 20 14 21 16 22 21 23 22 24 23 25
REMARK SMILES IDX 24 26 25 27 26 28 84 29 27 30 83 31 28 32 29 33 30 34 77 35
REMARK SMILES IDX 31 36 82 37 76 38 78 39 32 40 81 41 75 42 74 43 33 45 63 46
REMARK SMILES IDX 44 47 62 48 45 49 48 50 61 51 79 52 46 53 47 54 60 56 80 57
REMARK SMILES IDX 49 58 34 59 35 60 43 61 36 62 42 63 37 64 38 65 39 66 40 67
REMARK SMILES IDX 41 68 64 69 65 70 73 71 66 72 72 73 67 74 68 75 69 76 70 77
REMARK SMILES IDX 71 78 50 79 51 80 59 81 52 82 58 83 53 84 54 85 55 86 56 87
REMARK SMILES IDX 57 88
REMARK H PARENT 5 11 8 14 78 44 48 55
REMARK Flexibility Score: inf
ROOT
ATOM      1  C   UNL     1      -1.124  -4.737   1.731  1.00  0.00     0.274 C 
ENDROOT
BRANCH   1   2
ATOM      2  O   UNL     1      -0.801  -3.380   1.371  1.00  0.00    -0.462 OA
BRANCH   2   3
ATOM      3  C   UNL     1       0.308  -2.855   1.953  1.00  0.00     0.310 C 
ATOM      4  O   UNL     1       1.025  -3.452   2.749  1.00  0.00    -0.252 OA
BRANCH   3   5
ATOM      5  C   UNL     1       0.566  -1.413   1.549  1.00  0.00     0.118 C 
BRANCH   5   6
ATOM      6  C   UNL     1       0.033  -1.067   0.149  1.00  0.00     0.014 C 
ATOM      7  C   UNL     1       0.673   0.190  -0.430  1.00  0.00     0.005 C 
ENDBRANCH   5   6
BRANCH   5   8
ATOM      8  C   UNL     1       0.102  -0.450   2.644  1.00  0.00     0.133 C 
BRANCH   8   9
ATOM      9  N   UNL     1      -1.248  -0.692   3.108  1.00  0.00    -0.337 N 
ATOM     10  C   UNL     1      -1.778  -1.257   4.198  1.00  0.00     0.315 C 
ATOM     11  H   UNL     1      -1.931  -0.367   2.478  1.00  0.00     0.165 HD
ATOM     12  O   UNL     1      -3.008  -1.281   4.282  1.00  0.00    -0.249 OA
ATOM     13  N   UNL     1      -1.076  -1.782   5.204  1.00  0.00    -0.334 N 
ATOM     14  H   UNL     1      -1.658  -2.087   5.937  1.00  0.00     0.165 HD
BRANCH  13  15
ATOM     15  C   UNL     1       0.324  -2.018   5.492  1.00  0.00     0.159 C 
BRANCH  15  16
ATOM     16  C   UNL     1       0.794  -1.090   6.552  1.00  0.00     0.037 A 
ATOM     17  C   UNL     1       1.530  -1.434   7.725  1.00  0.00     0.086 A 
ATOM     18  C   UNL     1       0.698   0.287   6.633  1.00  0.00     0.138 A 
ATOM     19  C   UNL     1       2.005  -2.769   8.162  1.00  0.00     0.071 C 
ATOM     20  N   UNL     1       1.804  -0.356   8.468  1.00  0.00    -0.085 NA
ATOM     21  O   UNL     1       1.289   0.718   7.778  1.00  0.00    -0.361 OA
ATOM     22  C   UNL     1       0.136   1.349   5.778  1.00  0.00     0.091 C 
ENDBRANCH  15  16
ENDBRANCH  13  15
ENDBRANCH   8   9
ENDBRANCH   5   8
ENDBRANCH   3   5
ENDBRANCH   2   3
ENDBRANCH   1   2
BRANCH   1  23
ATOM     23  C   UNL     1      -0.582  -5.747   0.715  1.00  0.00     0.275 C 
BRANCH  23  24
ATOM     24  O   UNL     1       0.857  -5.806   0.730  1.00  0.00    -0.458 OA
BRANCH  24  25
ATOM     25  C   UNL     1       1.473  -5.023  -0.184  1.00  0.00     0.338 C 
ATOM     26  O   UNL     1       0.945  -4.319  -1.031  1.00  0.00    -0.246 OA
BRANCH  25  27
ATOM     27  C   UNL     1       2.922  -5.019   0.059  1.00  0.00     0.060 A 
ATOM     28  C   UNL     1       3.505  -3.843   0.536  1.00  0.00     0.016 A 
ATOM     29  C   UNL     1       3.712  -6.122  -0.267  1.00  0.00     0.016 A 
ATOM     30  C   UNL     1       4.884  -3.756   0.690  1.00  0.00     0.010 A 
ATOM     31  C   UNL     1       5.099  -6.034  -0.116  1.00  0.00     0.010 A 
ATOM     32  C   UNL     1       5.692  -4.846   0.351  1.00  0.00    -0.014 A 
BRANCH  32  33
ATOM     33  C   UNL     1       7.165  -4.712   0.423  1.00  0.00     0.031 A 
ATOM     34  C   UNL     1       7.955  -4.516  -0.839  1.00  0.00     0.074 A 
ATOM     35  C   UNL     1       7.783  -4.732   1.619  1.00  0.00     0.049 A 
ATOM     36  N   UNL     1       9.250  -4.450  -0.998  1.00  0.00    -0.248 NA
ATOM     37  C   UNL     1       7.184  -4.372  -2.084  1.00  0.00     0.031 C 
ATOM     38  C   UNL     1       7.113  -4.854   2.915  1.00  0.00     0.029 A 
ATOM     39  N   UNL     1       9.114  -4.650   1.935  1.00  0.00    -0.354 N 
ATOM     40  C   UNL     1       9.455  -4.282  -2.362  1.00  0.00     0.074 A 
ATOM     41  C   UNL     1       8.149  -4.262  -2.987  1.00  0.00     0.031 C 
ATOM     42  C   UNL     1       8.040  -4.840   3.887  1.00  0.00     0.029 A 
ATOM     43  C   UNL     1       9.366  -4.754   3.281  1.00  0.00     0.049 A 
ATOM     44  H   UNL     1       9.822  -4.528   1.261  1.00  0.00     0.167 HD
ATOM     45  C   UNL     1      10.625  -4.160  -3.031  1.00  0.00     0.031 A 
ATOM     46  C   UNL     1      10.536  -4.805   3.948  1.00  0.00     0.031 A 
ATOM     47  C   UNL     1      11.920  -4.183  -2.405  1.00  0.00     0.049 A 
ATOM     48  C   UNL     1      11.824  -4.731   3.176  1.00  0.00     0.074 A 
ATOM     49  C   UNL     1      13.166  -4.071  -2.996  1.00  0.00     0.029 A 
ATOM     50  N   UNL     1      12.135  -4.327  -1.042  1.00  0.00    -0.354 N 
ATOM     51  N   UNL     1      12.001  -4.592   1.883  1.00  0.00    -0.248 NA
ATOM     52  C   UNL     1      13.068  -4.825   3.951  1.00  0.00     0.031 C 
ATOM     53  C   UNL     1      14.137  -4.187  -1.995  1.00  0.00     0.029 A 
ATOM     54  C   UNL     1      13.493  -4.325  -0.775  1.00  0.00     0.049 A 
ATOM     55  H   UNL     1      11.426  -4.417  -0.365  1.00  0.00     0.167 HD
ATOM     56  C   UNL     1      13.378  -4.567   1.692  1.00  0.00     0.074 A 
ATOM     57  C   UNL     1      13.985  -4.690   3.002  1.00  0.00     0.031 C 
ATOM     58  C   UNL     1      14.077  -4.452   0.536  1.00  0.00     0.031 A 
BRANCH  45  59
ATOM     59  C   UNL     1      10.555  -4.036  -4.528  1.00  0.00    -0.014 A 
ATOM     60  C   UNL     1      10.153  -2.837  -5.143  1.00  0.00     0.010 A 
ATOM     61  C   UNL     1      10.923  -5.130  -5.332  1.00  0.00     0.010 A 
ATOM     62  C   UNL     1      10.085  -2.747  -6.536  1.00  0.00     0.020 A 
ATOM     63  C   UNL     1      10.875  -5.037  -6.725  1.00  0.00     0.020 A 
ATOM     64  C   UNL     1      10.440  -3.850  -7.318  1.00  0.00     0.054 A 
BRANCH  64  65
ATOM     65  S   UNL     1      10.355  -3.706  -9.125  1.00  0.00     0.124 S 
ATOM     66  O   UNL     1       8.918  -3.806  -9.366  1.00  0.00    -0.237 OA
ATOM     67  O   UNL     1      10.943  -2.392  -9.372  1.00  0.00    -0.237 OA
ATOM     68  O   UNL     1      11.146  -4.838  -9.600  1.00  0.00    -0.744 OA
ENDBRANCH  64  65
ENDBRANCH  45  59
BRANCH  46  69
ATOM     69  C   UNL     1      10.539  -4.972   5.425  1.00  0.00    -0.014 A 
ATOM     70  C   UNL     1      10.911  -3.911   6.267  1.00  0.00     0.010 A 
ATOM     71  C   UNL     1      10.154  -6.199   5.997  1.00  0.00     0.010 A 
ATOM     72  C   UNL     1      10.910  -4.077   7.655  1.00  0.00     0.020 A 
ATOM     73  C   UNL     1      10.129  -6.361   7.384  1.00  0.00     0.020 A 
ATOM     74  C   UNL     1      10.518  -5.301   8.205  1.00  0.00     0.054 A 
BRANCH  74  75
ATOM     75  S   UNL     1      10.465  -5.482  10.010  1.00  0.00     0.124 S 
ATOM     76  O   UNL     1      11.873  -5.688  10.335  1.00  0.00    -0.237 OA
ATOM     77  O   UNL     1       9.894  -4.208  10.442  1.00  0.00    -0.237 OA
ATOM     78  O   UNL     1       9.598  -6.641  10.208  1.00  0.00    -0.744 OA
ENDBRANCH  74  75
ENDBRANCH  46  69
BRANCH  58  79
ATOM     79  C   UNL     1      15.576  -4.429   0.639  1.00  0.00    -0.014 A 
ATOM     80  C   UNL     1      16.305  -5.607   0.877  1.00  0.00     0.010 A 
ATOM     81  C   UNL     1      16.267  -3.219   0.445  1.00  0.00     0.010 A 
ATOM     82  C   UNL     1      17.700  -5.571   0.946  1.00  0.00     0.020 A 
ATOM     83  C   UNL     1      17.662  -3.183   0.492  1.00  0.00     0.020 A 
ATOM     84  C   UNL     1      18.369  -4.358   0.756  1.00  0.00     0.054 A 
BRANCH  84  85
ATOM     85  S   UNL     1      20.183  -4.340   0.806  1.00  0.00     0.124 S 
ATOM     86  O   UNL     1      20.447  -4.386   2.241  1.00  0.00    -0.237 OA
ATOM     87  O   UNL     1      20.539  -5.546   0.062  1.00  0.00    -0.237 OA
ATOM     88  O   UNL     1      20.533  -3.084   0.147  1.00  0.00    -0.744 OA
ENDBRANCH  84  85
ENDBRANCH  58  79
ENDBRANCH  32  33
ENDBRANCH  25  27
ENDBRANCH  24  25
ENDBRANCH  23  24
ENDBRANCH   1  23
TORSDOF 19
