REMARK SMILES C[C@]12c3ccccc3[C@](C)(c3ccccc31)[C@@H]1C(=O)N(c3ccc(C(=O)OCCOC(=O)c4ccc(-c5c6nc(c(-c7ccc(S(=O)(=O)[O-])cc7)c7ccc([nH]7)c(-c7ccc(S(=O)(=O)[O-])cc7)c7nc(c(-c8ccc(S(=O)(=O)[O-])cc8)c8ccc5[nH]8)C=C7)C=C6)cc4)cc3)C(=O)[C@H]12
REMARK SMILES IDX 29 1 28 2 27 3 25 4 26 5 24 6 21 7 22 8 94 9 23 10 93 11
REMARK SMILES IDX 20 12 1 13 2 14 16 15 3 16 97 17 15 18 11 19 8 20 4 21 17 22
REMARK SMILES IDX 95 23 14 24 12 25 9 26 7 27 5 28 18 29 96 30 13 31 10 32
REMARK SMILES IDX 6 33 19 34 30 35 31 36 32 37 33 38 34 39 92 40 35 41 91 42
REMARK SMILES IDX 36 43 37 44 38 45 85 46 39 47 90 48 84 49 86 50 40 51 89 52
REMARK SMILES IDX 83 53 82 54 41 56 71 57 52 58 70 59 53 60 56 61 69 62 87 63
REMARK SMILES IDX 54 64 55 65 68 67 88 68 57 69 42 70 43 71 51 72 44 73 50 74
REMARK SMILES IDX 45 75 46 76 47 77 48 78 49 79 72 80 73 81 81 82 74 83 80 84
REMARK SMILES IDX 75 85 76 86 77 87 78 88 79 89 58 90 59 91 67 92 60 93 66 94
REMARK SMILES IDX 61 95 62 96 63 97 64 98 65 99
REMARK H PARENT 86 55 56 66
REMARK Flexibility Score: inf
ROOT
ATOM      1  C   UNL     1      -4.324   9.876   0.872  1.00  0.00     0.275 C 
ENDROOT
BRANCH   1   2
ATOM      2  C   UNL     1      -4.622   9.708  -0.620  1.00  0.00     0.275 C 
BRANCH   2   3
ATOM      3  O   UNL     1      -4.211   8.408  -1.092  1.00  0.00    -0.458 OA
BRANCH   3   4
ATOM      4  C   UNL     1      -3.091   8.379  -1.860  1.00  0.00     0.338 C 
ATOM      5  O   UNL     1      -2.429   9.336  -2.212  1.00  0.00    -0.246 OA
BRANCH   4   6
ATOM      6  C   UNL     1      -2.679   6.973  -2.116  1.00  0.00     0.060 A 
ATOM      7  C   UNL     1      -1.761   4.347  -2.377  1.00  0.00     0.052 A 
ATOM      8  C   UNL     1      -0.845   5.392  -2.283  1.00  0.00     0.028 A 
ATOM      9  C   UNL     1      -3.136   4.614  -2.392  1.00  0.00     0.028 A 
ATOM     10  C   UNL     1      -1.308   6.704  -2.224  1.00  0.00     0.018 A 
ATOM     11  C   UNL     1      -3.597   5.925  -2.219  1.00  0.00     0.018 A 
BRANCH   7  12
ATOM     12  N   UNL     1      -1.290   3.036  -2.490  1.00  0.00    -0.250 N 
ATOM     13  C   UNL     1       1.071  -0.073  -0.188  1.00  0.00     0.022 C 
ATOM     14  C   UNL     1       0.377  -0.222  -1.541  1.00  0.00     0.030 C 
ATOM     15  C   UNL     1      -0.787  -1.250  -1.580  1.00  0.00    -0.033 A 
ATOM     16  C   UNL     1       1.319  -0.682  -2.700  1.00  0.00    -0.033 A 
ATOM     17  C   UNL     1      -0.072   1.142  -2.126  1.00  0.00     0.108 C 
ATOM     18  C   UNL     1      -1.254  -2.001  -0.507  1.00  0.00     0.005 A 
ATOM     19  C   UNL     1      -1.380  -1.426  -2.880  1.00  0.00    -0.033 A 
ATOM     20  C   UNL     1       0.679  -0.690  -3.986  1.00  0.00    -0.033 A 
ATOM     21  C   UNL     1       2.663  -1.027  -2.576  1.00  0.00     0.005 A 
ATOM     22  C   UNL     1      -1.165   0.884  -3.170  1.00  0.00     0.108 C 
ATOM     23  C   UNL     1      -0.664   2.341  -1.449  1.00  0.00     0.238 C 
ATOM     24  C   UNL     1      -2.293  -2.913  -0.715  1.00  0.00     0.000 A 
ATOM     25  C   UNL     1      -2.404  -2.348  -3.076  1.00  0.00     0.005 A 
ATOM     26  C   UNL     1      -0.844  -0.413  -3.943  1.00  0.00     0.030 C 
ATOM     27  C   UNL     1       1.419  -1.020  -5.118  1.00  0.00     0.005 A 
ATOM     28  C   UNL     1       3.383  -1.364  -3.722  1.00  0.00     0.000 A 
ATOM     29  C   UNL     1      -1.430   2.271  -3.649  1.00  0.00     0.238 C 
ATOM     30  O   UNL     1      -0.531   2.655  -0.281  1.00  0.00    -0.274 OA
ATOM     31  C   UNL     1      -2.856  -3.090  -1.986  1.00  0.00     0.000 A 
ATOM     32  C   UNL     1      -1.552  -0.456  -5.295  1.00  0.00     0.022 C 
ATOM     33  C   UNL     1       2.770  -1.352  -4.981  1.00  0.00     0.000 A 
ATOM     34  O   UNL     1      -1.826   2.598  -4.752  1.00  0.00    -0.274 OA
ENDBRANCH   7  12
ENDBRANCH   4   6
ENDBRANCH   3   4
ENDBRANCH   2   3
ENDBRANCH   1   2
BRANCH   1  35
ATOM     35  O   UNL     1      -2.909  10.014   1.097  1.00  0.00    -0.458 OA
BRANCH  35  36
ATOM     36  C   UNL     1      -2.294   8.944   1.651  1.00  0.00     0.338 C 
ATOM     37  O   UNL     1      -2.806   7.901   2.018  1.00  0.00    -0.246 OA
BRANCH  36  38
ATOM     38  C   UNL     1      -0.841   9.172   1.631  1.00  0.00     0.060 A 
ATOM     39  C   UNL     1      -0.165   9.770   2.689  1.00  0.00     0.016 A 
ATOM     40  C   UNL     1      -0.133   8.686   0.536  1.00  0.00     0.016 A 
ATOM     41  C   UNL     1       1.230   9.901   2.618  1.00  0.00     0.010 A 
ATOM     42  C   UNL     1       1.256   8.765   0.487  1.00  0.00     0.010 A 
ATOM     43  C   UNL     1       1.958   9.391   1.521  1.00  0.00    -0.014 A 
BRANCH  43  44
ATOM     44  C   UNL     1       3.445   9.469   1.469  1.00  0.00     0.031 A 
ATOM     45  C   UNL     1       4.149  10.235   0.376  1.00  0.00     0.074 A 
ATOM     46  C   UNL     1       4.174   8.809   2.393  1.00  0.00     0.049 A 
ATOM     47  N   UNL     1       5.433  10.444   0.217  1.00  0.00    -0.248 NA
ATOM     48  C   UNL     1       3.318  10.819  -0.690  1.00  0.00     0.031 C 
ATOM     49  C   UNL     1       3.620   7.963   3.452  1.00  0.00     0.029 A 
ATOM     50  N   UNL     1       5.531   8.759   2.606  1.00  0.00    -0.354 N 
ATOM     51  C   UNL     1       5.561  11.172  -0.961  1.00  0.00     0.074 A 
ATOM     52  C   UNL     1       4.233  11.319  -1.511  1.00  0.00     0.031 C 
ATOM     53  C   UNL     1       4.617   7.543   4.246  1.00  0.00     0.029 A 
ATOM     54  C   UNL     1       5.886   8.054   3.733  1.00  0.00     0.049 A 
ATOM     55  H   UNL     1       6.186   9.187   2.009  1.00  0.00     0.167 HD
ATOM     56  C   UNL     1       6.678  11.699  -1.516  1.00  0.00     0.031 A 
ATOM     57  C   UNL     1       7.089   7.857   4.311  1.00  0.00     0.031 A 
ATOM     58  C   UNL     1       7.994  11.587  -0.941  1.00  0.00     0.049 A 
ATOM     59  C   UNL     1       8.311   8.484   3.699  1.00  0.00     0.074 A 
ATOM     60  C   UNL     1       9.172  12.164  -1.384  1.00  0.00     0.029 A 
ATOM     61  N   UNL     1       8.307  10.863   0.199  1.00  0.00    -0.354 N 
ATOM     62  N   UNL     1       8.397   9.244   2.634  1.00  0.00    -0.248 NA
ATOM     63  C   UNL     1       9.596   8.239   4.370  1.00  0.00     0.031 C 
ATOM     64  C   UNL     1      10.206  11.743  -0.547  1.00  0.00     0.029 A 
ATOM     65  C   UNL     1       9.664  10.959   0.459  1.00  0.00     0.049 A 
ATOM     66  H   UNL     1       7.662  10.355   0.742  1.00  0.00     0.167 HD
ATOM     67  C   UNL     1       9.741   9.583   2.517  1.00  0.00     0.074 A 
ATOM     68  C   UNL     1      10.429   8.960   3.629  1.00  0.00     0.031 C 
ATOM     69  C   UNL     1      10.344  10.340   1.569  1.00  0.00     0.031 A 
BRANCH  56  70
ATOM     70  C   UNL     1       6.547  12.498  -2.789  1.00  0.00    -0.014 A 
ATOM     71  C   UNL     1       7.166  12.048  -3.971  1.00  0.00     0.010 A 
ATOM     72  C   UNL     1       5.937  13.766  -2.780  1.00  0.00     0.010 A 
ATOM     73  C   UNL     1       7.208  12.863  -5.107  1.00  0.00     0.020 A 
ATOM     74  C   UNL     1       5.951  14.572  -3.923  1.00  0.00     0.020 A 
ATOM     75  C   UNL     1       6.611  14.126  -5.070  1.00  0.00     0.054 A 
BRANCH  75  76
ATOM     76  S   UNL     1       6.712  15.189  -6.537  1.00  0.00     0.124 S 
ATOM     77  O   UNL     1       8.094  15.655  -6.486  1.00  0.00    -0.237 OA
ATOM     78  O   UNL     1       6.396  14.266  -7.625  1.00  0.00    -0.237 OA
ATOM     79  O   UNL     1       5.698  16.212  -6.288  1.00  0.00    -0.744 OA
ENDBRANCH  75  76
ENDBRANCH  56  70
BRANCH  57  80
ATOM     80  C   UNL     1       7.165   7.099   5.591  1.00  0.00    -0.014 A 
ATOM     81  C   UNL     1       6.898   5.718   5.629  1.00  0.00     0.010 A 
ATOM     82  C   UNL     1       7.421   7.777   6.796  1.00  0.00     0.010 A 
ATOM     83  C   UNL     1       6.832   5.042   6.850  1.00  0.00     0.020 A 
ATOM     84  C   UNL     1       7.386   7.098   8.018  1.00  0.00     0.020 A 
ATOM     85  C   UNL     1       7.061   5.740   8.038  1.00  0.00     0.054 A 
BRANCH  85  86
ATOM     86  S   UNL     1       6.918   4.855   9.616  1.00  0.00     0.124 S 
ATOM     87  O   UNL     1       5.470   4.757   9.773  1.00  0.00    -0.237 OA
ATOM     88  O   UNL     1       7.609   3.598   9.341  1.00  0.00    -0.237 OA
ATOM     89  O   UNL     1       7.592   5.737  10.565  1.00  0.00    -0.744 OA
ENDBRANCH  85  86
ENDBRANCH  57  80
BRANCH  69  90
ATOM     90  C   UNL     1      11.832  10.556   1.664  1.00  0.00    -0.014 A 
ATOM     91  C   UNL     1      12.334  11.845   1.928  1.00  0.00     0.010 A 
ATOM     92  C   UNL     1      12.729   9.524   1.341  1.00  0.00     0.010 A 
ATOM     93  C   UNL     1      13.702  12.108   1.824  1.00  0.00     0.020 A 
ATOM     94  C   UNL     1      14.102   9.777   1.264  1.00  0.00     0.020 A 
ATOM     95  C   UNL     1      14.576  11.075   1.478  1.00  0.00     0.054 A 
BRANCH  95  96
ATOM     96  S   UNL     1      16.342  11.445   1.298  1.00  0.00     0.124 S 
ATOM     97  O   UNL     1      16.385  12.117   0.002  1.00  0.00    -0.237 OA
ATOM     98  O   UNL     1      16.613  12.294   2.456  1.00  0.00    -0.237 OA
ATOM     99  O   UNL     1      16.975  10.129   1.340  1.00  0.00    -0.744 OA
ENDBRANCH  95  96
ENDBRANCH  69  90
ENDBRANCH  43  44
ENDBRANCH  36  38
ENDBRANCH  35  36
ENDBRANCH   1  35
TORSDOF 15
