REMARK SMILES Cc1cc(OCC(=O)OCCOC(=O)c2ccc(-c3c4nc(c(-c5ccc(S(=O)(=O)[O-])cc5)c5ccc([nH]5)c(-c5ccc(S(=O)(=O)[O-])cc5)c5nc(c(-c6ccc(S(=O)(=O)[O-])cc6)c6ccc3[nH]6)C=C5)C=C4)cc2)ccc1NC(=O)c1ccc(N2C(=O)[C@@H]3[C@H](C2=O)[C@H]2C=C[C@@H]3C2)cc1
REMARK SMILES IDX 10 1 9 2 7 3 8 4 6 5 5 6 4 7 1 8 2 9 3 10 77 11 76 12 75 13
REMARK SMILES IDX 78 14 79 15 80 17 81 18 82 19 98 20 83 21 97 22 84 23 85 24
REMARK SMILES IDX 86 25 90 26 87 27 88 28 89 29 91 30 95 31 92 32 94 33 96 34
REMARK SMILES IDX 93 35 11 36 12 37 13 38 14 39 15 40 16 41 74 42 17 43 73 44
REMARK SMILES IDX 18 45 19 46 20 47 67 48 21 49 72 50 66 51 68 52 22 53 71 54
REMARK SMILES IDX 65 55 64 56 23 58 53 59 34 60 52 61 35 62 38 63 51 64 69 65
REMARK SMILES IDX 36 66 37 67 50 69 70 70 39 71 24 72 25 73 33 74 26 75 32 76
REMARK SMILES IDX 27 77 28 78 29 79 30 80 31 81 54 82 55 83 63 84 56 85 62 86
REMARK SMILES IDX 57 87 58 88 59 89 60 90 61 91 40 92 41 93 49 94 42 95 48 96
REMARK SMILES IDX 43 97 44 98 45 99 46 100 47 101
REMARK H PARENT 78 16 68 57 38 68
REMARK Flexibility Score: inf
ROOT
ATOM      1  C   UNL     1      -2.114  -1.335   3.554  1.00  0.00     0.274 C 
ENDROOT
BRANCH   1   2
ATOM      2  O   UNL     1      -1.847  -1.585   2.173  1.00  0.00    -0.460 OA
BRANCH   2   3
ATOM      3  C   UNL     1      -1.979  -2.882   1.785  1.00  0.00     0.344 C 
ATOM      4  O   UNL     1      -2.216  -3.811   2.549  1.00  0.00    -0.248 OA
BRANCH   3   5
ATOM      5  C   UNL     1      -1.837  -3.034   0.271  1.00  0.00     0.351 C 
BRANCH   5   6
ATOM      6  O   UNL     1      -0.562  -2.714  -0.269  1.00  0.00    -0.482 OA
BRANCH   6   7
ATOM      7  C   UNL     1      -0.234  -1.389  -0.309  1.00  0.00     0.120 A 
ATOM      8  C   UNL     1       3.057   0.397   0.164  1.00  0.00     0.047 C 
ATOM      9  C   UNL     1       1.579   0.230  -0.046  1.00  0.00    -0.024 A 
ATOM     10  C   UNL     1       1.106  -1.099  -0.077  1.00  0.00     0.052 A 
ATOM     11  C   UNL     1       0.668   1.293  -0.211  1.00  0.00     0.044 A 
ATOM     12  C   UNL     1      -0.653   0.985  -0.530  1.00  0.00     0.030 A 
ATOM     13  C   UNL     1      -1.099  -0.345  -0.596  1.00  0.00     0.048 A 
BRANCH  11  14
ATOM     14  N   UNL     1       1.113   2.630  -0.174  1.00  0.00    -0.322 N 
ATOM     15  C   UNL     1       0.445   3.825   0.019  1.00  0.00     0.255 C 
ATOM     16  H   UNL     1       2.083   2.732  -0.311  1.00  0.00     0.170 HD
ATOM     17  O   UNL     1       0.953   4.860  -0.423  1.00  0.00    -0.269 OA
BRANCH  15  18
ATOM     18  C   UNL     1      -0.736   3.962   0.915  1.00  0.00     0.040 A 
ATOM     19  C   UNL     1      -1.717   4.922   0.638  1.00  0.00     0.016 A 
ATOM     20  C   UNL     1      -0.782   3.311   2.143  1.00  0.00     0.016 A 
ATOM     21  C   UNL     1      -2.790   5.144   1.528  1.00  0.00     0.027 A 
ATOM     22  C   UNL     1      -1.812   3.600   3.058  1.00  0.00     0.027 A 
ATOM     23  C   UNL     1      -2.873   4.470   2.753  1.00  0.00     0.052 A 
BRANCH  23  24
ATOM     24  N   UNL     1      -3.987   4.618   3.648  1.00  0.00    -0.250 N 
ATOM     25  C   UNL     1      -5.245   5.054   3.271  1.00  0.00     0.238 C 
ATOM     26  C   UNL     1      -3.926   4.343   5.002  1.00  0.00     0.238 C 
ATOM     27  O   UNL     1      -5.629   5.494   2.196  1.00  0.00    -0.274 OA
ATOM     28  C   UNL     1      -6.180   4.975   4.452  1.00  0.00     0.099 C 
ATOM     29  C   UNL     1      -5.267   4.608   5.629  1.00  0.00     0.099 C 
ATOM     30  O   UNL     1      -2.971   3.993   5.686  1.00  0.00    -0.274 OA
ATOM     31  C   UNL     1      -7.213   3.823   4.448  1.00  0.00     0.025 C 
ATOM     32  C   UNL     1      -5.916   3.334   6.205  1.00  0.00     0.025 C 
ATOM     33  C   UNL     1      -8.057   4.005   5.700  1.00  0.00    -0.027 C 
ATOM     34  C   UNL     1      -6.391   2.623   4.933  1.00  0.00     0.017 C 
ATOM     35  C   UNL     1      -7.272   3.725   6.754  1.00  0.00    -0.027 C 
ENDBRANCH  23  24
ENDBRANCH  15  18
ENDBRANCH  11  14
ENDBRANCH   6   7
ENDBRANCH   5   6
ENDBRANCH   3   5
ENDBRANCH   2   3
ENDBRANCH   1   2
BRANCH   1  36
ATOM     36  C   UNL     1      -2.117   0.172   3.828  1.00  0.00     0.275 C 
BRANCH  36  37
ATOM     37  O   UNL     1      -3.049   1.061   3.153  1.00  0.00    -0.458 OA
BRANCH  37  38
ATOM     38  C   UNL     1      -3.455   0.868   1.873  1.00  0.00     0.338 C 
ATOM     39  O   UNL     1      -3.042   1.503   0.916  1.00  0.00    -0.246 OA
BRANCH  38  40
ATOM     40  C   UNL     1      -4.495  -0.154   1.825  1.00  0.00     0.060 A 
ATOM     41  C   UNL     1      -4.736  -0.916   0.670  1.00  0.00     0.016 A 
ATOM     42  C   UNL     1      -5.048  -0.484   3.053  1.00  0.00     0.016 A 
ATOM     43  C   UNL     1      -5.484  -2.079   0.770  1.00  0.00     0.010 A 
ATOM     44  C   UNL     1      -5.555  -1.727   3.196  1.00  0.00     0.010 A 
ATOM     45  C   UNL     1      -5.867  -2.468   2.046  1.00  0.00    -0.014 A 
BRANCH  45  46
ATOM     46  C   UNL     1      -6.862  -3.459   2.373  1.00  0.00     0.031 A 
ATOM     47  C   UNL     1      -6.465  -4.855   2.596  1.00  0.00     0.074 A 
ATOM     48  C   UNL     1      -7.948  -2.823   2.883  1.00  0.00     0.049 A 
ATOM     49  N   UNL     1      -7.283  -5.764   2.975  1.00  0.00    -0.248 NA
ATOM     50  C   UNL     1      -5.105  -5.370   2.428  1.00  0.00     0.031 C 
ATOM     51  C   UNL     1      -8.898  -3.216   3.907  1.00  0.00     0.029 A 
ATOM     52  N   UNL     1      -8.375  -1.521   2.611  1.00  0.00    -0.354 N 
ATOM     53  C   UNL     1      -6.537  -6.819   3.459  1.00  0.00     0.074 A 
ATOM     54  C   UNL     1      -5.200  -6.591   2.977  1.00  0.00     0.031 C 
ATOM     55  C   UNL     1      -9.951  -2.368   3.858  1.00  0.00     0.029 A 
ATOM     56  C   UNL     1      -9.754  -1.502   2.696  1.00  0.00     0.049 A 
ATOM     57  H   UNL     1      -7.797  -0.754   2.396  1.00  0.00     0.167 HD
ATOM     58  C   UNL     1      -7.138  -7.652   4.355  1.00  0.00     0.031 A 
ATOM     59  C   UNL     1     -10.483  -1.566   1.535  1.00  0.00     0.031 A 
ATOM     60  C   UNL     1      -8.540  -7.255   4.518  1.00  0.00     0.049 A 
ATOM     61  C   UNL     1     -11.145  -2.931   1.445  1.00  0.00     0.074 A 
ATOM     62  C   UNL     1      -9.183  -6.491   5.477  1.00  0.00     0.029 A 
ATOM     63  N   UNL     1      -9.375  -7.285   3.406  1.00  0.00    -0.354 N 
ATOM     64  N   UNL     1     -10.606  -4.046   1.868  1.00  0.00    -0.248 NA
ATOM     65  C   UNL     1     -12.529  -3.097   1.020  1.00  0.00     0.031 C 
ATOM     66  C   UNL     1     -10.361  -5.960   4.877  1.00  0.00     0.029 A 
ATOM     67  C   UNL     1     -10.424  -6.398   3.562  1.00  0.00     0.049 A 
ATOM     68  H   UNL     1      -9.238  -7.859   2.617  1.00  0.00     0.167 HD
ATOM     69  C   UNL     1     -11.571  -5.016   1.924  1.00  0.00     0.074 A 
ATOM     70  C   UNL     1     -12.743  -4.386   1.333  1.00  0.00     0.031 C 
ATOM     71  C   UNL     1     -11.411  -6.244   2.502  1.00  0.00     0.031 A 
BRANCH  58  72
ATOM     72  C   UNL     1      -6.461  -8.635   5.283  1.00  0.00    -0.014 A 
ATOM     73  C   UNL     1      -7.193  -9.104   6.397  1.00  0.00     0.010 A 
ATOM     74  C   UNL     1      -5.141  -9.112   5.165  1.00  0.00     0.010 A 
ATOM     75  C   UNL     1      -6.644  -9.962   7.357  1.00  0.00     0.020 A 
ATOM     76  C   UNL     1      -4.575  -9.979   6.124  1.00  0.00     0.020 A 
ATOM     77  C   UNL     1      -5.331 -10.394   7.218  1.00  0.00     0.054 A 
BRANCH  77  78
ATOM     78  S   UNL     1      -4.657 -11.509   8.478  1.00  0.00     0.124 S 
ATOM     79  O   UNL     1      -4.726 -10.693   9.688  1.00  0.00    -0.237 OA
ATOM     80  O   UNL     1      -5.582 -12.637   8.429  1.00  0.00    -0.237 OA
ATOM     81  O   UNL     1      -3.305 -11.795   8.003  1.00  0.00    -0.744 OA
ENDBRANCH  77  78
ENDBRANCH  58  72
BRANCH  59  82
ATOM     82  C   UNL     1      -9.856  -0.805   0.394  1.00  0.00    -0.014 A 
ATOM     83  C   UNL     1      -9.717   0.597   0.549  1.00  0.00     0.010 A 
ATOM     84  C   UNL     1      -9.067  -1.439  -0.585  1.00  0.00     0.010 A 
ATOM     85  C   UNL     1      -8.722   1.309  -0.132  1.00  0.00     0.020 A 
ATOM     86  C   UNL     1      -8.078  -0.719  -1.288  1.00  0.00     0.020 A 
ATOM     87  C   UNL     1      -7.883   0.639  -1.021  1.00  0.00     0.054 A 
BRANCH  87  88
ATOM     88  S   UNL     1      -6.407   1.520  -1.627  1.00  0.00     0.124 S 
ATOM     89  O   UNL     1      -6.979   2.475  -2.569  1.00  0.00    -0.237 OA
ATOM     90  O   UNL     1      -5.883   2.085  -0.386  1.00  0.00    -0.237 OA
ATOM     91  O   UNL     1      -5.593   0.460  -2.218  1.00  0.00    -0.744 OA
ENDBRANCH  87  88
ENDBRANCH  59  82
BRANCH  71  92
ATOM     92  C   UNL     1     -12.266  -7.438   2.167  1.00  0.00    -0.014 A 
ATOM     93  C   UNL     1     -13.062  -7.505   1.015  1.00  0.00     0.010 A 
ATOM     94  C   UNL     1     -12.150  -8.617   2.941  1.00  0.00     0.010 A 
ATOM     95  C   UNL     1     -13.794  -8.651   0.709  1.00  0.00     0.020 A 
ATOM     96  C   UNL     1     -12.814  -9.793   2.601  1.00  0.00     0.020 A 
ATOM     97  C   UNL     1     -13.670  -9.786   1.509  1.00  0.00     0.054 A 
BRANCH  97  98
ATOM     98  S   UNL     1     -14.616 -11.260   1.085  1.00  0.00     0.124 S 
ATOM     99  O   UNL     1     -15.925 -10.940   1.649  1.00  0.00    -0.237 OA
ATOM    100  O   UNL     1     -14.550 -11.277  -0.375  1.00  0.00    -0.237 OA
ATOM    101  O   UNL     1     -13.891 -12.339   1.749  1.00  0.00    -0.744 OA
ENDBRANCH  97  98
ENDBRANCH  71  92
ENDBRANCH  45  46
ENDBRANCH  38  40
ENDBRANCH  37  38
ENDBRANCH  36  37
ENDBRANCH   1  36
TORSDOF 19
