REMARK SMILES C/C=C/C=C/C(=O)N[C@@H](C)CC(=O)OCCOC(=O)c1ccc(-c2c3nc(c(-c4ccc(S(=O)(=O)[O-])cc4)c4ccc([nH]4)c(-c4ccc(S(=O)(=O)[O-])cc4)c4nc(c(-c5ccc(S(=O)(=O)[O-])cc5)c5ccc2[nH]5)C=C4)C=C3)cc1
REMARK SMILES IDX 15 1 14 2 12 3 13 4 11 5 9 6 10 7 8 8 6 9 7 10 5 12 4 13
REMARK SMILES IDX 3 14 1 15 2 16 16 17 17 18 18 19 19 20 20 21 21 22 79 23
REMARK SMILES IDX 22 24 78 25 23 26 24 27 25 28 72 29 26 30 77 31 71 32 73 33
REMARK SMILES IDX 27 34 76 35 70 36 69 37 28 39 58 40 39 41 57 42 40 43 43 44
REMARK SMILES IDX 56 45 74 46 41 47 42 48 55 50 75 51 44 52 29 53 30 54 38 55
REMARK SMILES IDX 31 56 37 57 32 58 33 59 34 60 35 61 36 62 59 63 60 64 68 65
REMARK SMILES IDX 61 66 67 67 62 68 63 69 64 70 65 71 66 72 45 73 46 74 54 75
REMARK SMILES IDX 47 76 53 77 48 78 49 79 50 80 51 81 52 82
REMARK H PARENT 8 11 73 38 43 49
REMARK Flexibility Score: inf
ROOT
ATOM      1  C   UNL     1      -5.078  -2.817  -3.489  1.00  0.00     0.274 C 
ENDROOT
BRANCH   1   2
ATOM      2  O   UNL     1      -3.917  -3.624  -3.777  1.00  0.00    -0.462 OA
BRANCH   2   3
ATOM      3  C   UNL     1      -3.171  -3.243  -4.846  1.00  0.00     0.307 C 
ATOM      4  O   UNL     1      -3.407  -2.268  -5.550  1.00  0.00    -0.252 OA
BRANCH   3   5
ATOM      5  C   UNL     1      -2.054  -4.211  -5.151  1.00  0.00     0.147 C 
BRANCH   5   6
ATOM      6  C   UNL     1      -1.035  -4.385  -4.019  1.00  0.00     0.090 C 
ATOM      7  C   UNL     1       0.325  -4.781  -4.602  1.00  0.00     0.031 C 
BRANCH   6   8
ATOM      8  N   UNL     1      -1.451  -5.431  -3.082  1.00  0.00    -0.350 N 
ATOM      9  C   UNL     1      -1.511  -5.460  -1.724  1.00  0.00     0.244 C 
ATOM     10  O   UNL     1      -1.977  -6.458  -1.173  1.00  0.00    -0.270 OA
ATOM     11  H   UNL     1      -1.740  -6.267  -3.514  1.00  0.00     0.164 HD
BRANCH   9  12
ATOM     12  C   UNL     1      -1.130  -4.299  -0.892  1.00  0.00     0.071 C 
ATOM     13  C   UNL     1      -0.037  -3.535  -1.033  1.00  0.00     0.005 C 
BRANCH  13  14
ATOM     14  C   UNL     1       0.187  -2.368  -0.205  1.00  0.00    -0.004 C 
ATOM     15  C   UNL     1       1.176  -0.113   0.234  1.00  0.00     0.035 C 
ATOM     16  C   UNL     1       1.003  -1.366  -0.564  1.00  0.00    -0.030 C 
ENDBRANCH  13  14
ENDBRANCH   9  12
ENDBRANCH   6   8
ENDBRANCH   5   6
ENDBRANCH   3   5
ENDBRANCH   2   3
ENDBRANCH   1   2
BRANCH   1  17
ATOM     17  C   UNL     1      -4.827  -1.764  -2.403  1.00  0.00     0.275 C 
BRANCH  17  18
ATOM     18  O   UNL     1      -4.045  -0.652  -2.880  1.00  0.00    -0.458 OA
BRANCH  18  19
ATOM     19  C   UNL     1      -2.713  -0.836  -2.760  1.00  0.00     0.338 C 
ATOM     20  O   UNL     1      -2.167  -1.819  -2.289  1.00  0.00    -0.246 OA
BRANCH  19  21
ATOM     21  C   UNL     1      -1.942   0.261  -3.349  1.00  0.00     0.060 A 
ATOM     22  C   UNL     1      -1.061  -0.037  -4.395  1.00  0.00     0.016 A 
ATOM     23  C   UNL     1      -1.977   1.536  -2.784  1.00  0.00     0.016 A 
ATOM     24  C   UNL     1      -0.208   0.947  -4.885  1.00  0.00     0.010 A 
ATOM     25  C   UNL     1      -1.121   2.523  -3.280  1.00  0.00     0.010 A 
ATOM     26  C   UNL     1      -0.228   2.232  -4.326  1.00  0.00    -0.014 A 
BRANCH  26  27
ATOM     27  C   UNL     1       0.683   3.282  -4.835  1.00  0.00     0.031 A 
ATOM     28  C   UNL     1       1.897   3.677  -4.046  1.00  0.00     0.074 A 
ATOM     29  C   UNL     1       0.397   3.893  -5.998  1.00  0.00     0.049 A 
ATOM     30  N   UNL     1       2.745   4.646  -4.272  1.00  0.00    -0.248 NA
ATOM     31  C   UNL     1       2.195   2.879  -2.847  1.00  0.00     0.031 C 
ATOM     32  C   UNL     1      -0.734   3.565  -6.868  1.00  0.00     0.029 A 
ATOM     33  N   UNL     1       1.028   4.927  -6.642  1.00  0.00    -0.354 N 
ATOM     34  C   UNL     1       3.669   4.590  -3.236  1.00  0.00     0.074 A 
ATOM     35  C   UNL     1       3.272   3.495  -2.375  1.00  0.00     0.031 C 
ATOM     36  C   UNL     1      -0.722   4.389  -7.929  1.00  0.00     0.029 A 
ATOM     37  C   UNL     1       0.388   5.327  -7.789  1.00  0.00     0.049 A 
ATOM     38  H   UNL     1       1.858   5.341  -6.313  1.00  0.00     0.167 HD
ATOM     39  C   UNL     1       4.746   5.384  -3.021  1.00  0.00     0.031 A 
ATOM     40  C   UNL     1       0.646   6.356  -8.619  1.00  0.00     0.031 A 
ATOM     41  C   UNL     1       5.127   6.479  -3.874  1.00  0.00     0.049 A 
ATOM     42  C   UNL     1       1.813   7.257  -8.329  1.00  0.00     0.074 A 
ATOM     43  C   UNL     1       6.200   7.343  -3.741  1.00  0.00     0.029 A 
ATOM     44  N   UNL     1       4.446   6.862  -5.020  1.00  0.00    -0.354 N 
ATOM     45  N   UNL     1       2.673   7.196  -7.340  1.00  0.00    -0.248 NA
ATOM     46  C   UNL     1       2.043   8.366  -9.265  1.00  0.00     0.031 C 
ATOM     47  C   UNL     1       6.146   8.272  -4.787  1.00  0.00     0.029 A 
ATOM     48  C   UNL     1       5.065   7.959  -5.595  1.00  0.00     0.049 A 
ATOM     49  H   UNL     1       3.640   6.420  -5.372  1.00  0.00     0.167 HD
ATOM     50  C   UNL     1       3.559   8.246  -7.546  1.00  0.00     0.074 A 
ATOM     51  C   UNL     1       3.136   8.921  -8.758  1.00  0.00     0.031 C 
ATOM     52  C   UNL     1       4.629   8.616  -6.801  1.00  0.00     0.031 A 
BRANCH  39  53
ATOM     53  C   UNL     1       5.565   5.119  -1.787  1.00  0.00    -0.014 A 
ATOM     54  C   UNL     1       6.436   4.018  -1.716  1.00  0.00     0.010 A 
ATOM     55  C   UNL     1       5.480   5.999  -0.694  1.00  0.00     0.010 A 
ATOM     56  C   UNL     1       7.179   3.779  -0.556  1.00  0.00     0.020 A 
ATOM     57  C   UNL     1       6.236   5.775   0.460  1.00  0.00     0.020 A 
ATOM     58  C   UNL     1       7.067   4.655   0.529  1.00  0.00     0.054 A 
BRANCH  58  59
ATOM     59  S   UNL     1       8.040   4.327   2.024  1.00  0.00     0.124 S 
ATOM     60  O   UNL     1       7.279   3.246   2.646  1.00  0.00    -0.237 OA
ATOM     61  O   UNL     1       9.344   3.946   1.485  1.00  0.00    -0.237 OA
ATOM     62  O   UNL     1       8.014   5.600   2.740  1.00  0.00    -0.744 OA
ENDBRANCH  58  59
ENDBRANCH  39  53
BRANCH  40  63
ATOM     63  C   UNL     1      -0.239   6.596  -9.788  1.00  0.00    -0.014 A 
ATOM     64  C   UNL     1       0.200   6.298 -11.088  1.00  0.00     0.010 A 
ATOM     65  C   UNL     1      -1.543   7.091  -9.598  1.00  0.00     0.010 A 
ATOM     66  C   UNL     1      -0.648   6.496 -12.182  1.00  0.00     0.020 A 
ATOM     67  C   UNL     1      -2.400   7.269 -10.687  1.00  0.00     0.020 A 
ATOM     68  C   UNL     1      -1.944   6.978 -11.973  1.00  0.00     0.054 A 
BRANCH  68  69
ATOM     69  S   UNL     1      -3.054   7.160 -13.397  1.00  0.00     0.124 S 
ATOM     70  O   UNL     1      -2.585   8.409 -13.989  1.00  0.00    -0.237 OA
ATOM     71  O   UNL     1      -2.783   5.952 -14.171  1.00  0.00    -0.237 OA
ATOM     72  O   UNL     1      -4.381   7.214 -12.788  1.00  0.00    -0.744 OA
ENDBRANCH  68  69
ENDBRANCH  40  63
BRANCH  52  73
ATOM     73  C   UNL     1       5.438   9.784  -7.292  1.00  0.00    -0.014 A 
ATOM     74  C   UNL     1       4.980  11.104  -7.130  1.00  0.00     0.010 A 
ATOM     75  C   UNL     1       6.697   9.558  -7.877  1.00  0.00     0.010 A 
ATOM     76  C   UNL     1       5.760  12.178  -7.566  1.00  0.00     0.020 A 
ATOM     77  C   UNL     1       7.487  10.631  -8.296  1.00  0.00     0.020 A 
ATOM     78  C   UNL     1       7.008  11.934  -8.149  1.00  0.00     0.054 A 
BRANCH  78  79
ATOM     79  S   UNL     1       8.026  13.344  -8.665  1.00  0.00     0.124 S 
ATOM     80  O   UNL     1       7.399  13.726  -9.927  1.00  0.00    -0.237 OA
ATOM     81  O   UNL     1       7.853  14.290  -7.565  1.00  0.00    -0.237 OA
ATOM     82  O   UNL     1       9.367  12.776  -8.782  1.00  0.00    -0.744 OA
ENDBRANCH  78  79
ENDBRANCH  52  73
ENDBRANCH  26  27
ENDBRANCH  19  21
ENDBRANCH  18  19
ENDBRANCH  17  18
ENDBRANCH   1  17
TORSDOF 18
