REMARK SMILES C=CCN(CC(=O)OCCOC(=O)c1ccc(-c2c3nc(c(-c4ccc(S(=O)(=O)[O-])cc4)c4ccc([nH]4)c(-c4ccc(S(=O)(=O)[O-])cc4)c4nc(c(-c5ccc(S(=O)(=O)[O-])cc5)c5ccc2[nH]5)C=C4)C=C3)cc1)C(=O)NCC(C)C
REMARK SMILES IDX 9 1 8 2 6 3 7 4 5 5 4 6 3 7 2 8 1 9 74 10 75 11 76 12 77 14
REMARK SMILES IDX 78 15 79 16 80 17 10 18 11 19 12 20 13 21 14 22 15 23 73 24
REMARK SMILES IDX 16 25 72 26 17 27 18 28 19 29 66 30 20 31 71 32 65 33 67 34
REMARK SMILES IDX 21 35 70 36 64 37 63 38 22 40 52 41 33 42 51 43 34 44 37 45
REMARK SMILES IDX 50 46 68 47 35 48 36 49 49 51 69 52 38 53 23 54 24 55 32 56
REMARK SMILES IDX 25 57 31 58 26 59 27 60 28 61 29 62 30 63 53 64 54 65 62 66
REMARK SMILES IDX 55 67 61 68 56 69 57 70 58 71 59 72 60 73 39 74 40 75 48 76
REMARK SMILES IDX 41 77 47 78 42 79 43 80 44 81 45 82 46 83
REMARK H PARENT 76 13 67 39 37 50
REMARK Flexibility Score: inf
ROOT
ATOM      1  C   UNL     1      -5.851  -2.450   0.753  1.00  0.00     0.274 C 
ENDROOT
BRANCH   1   2
ATOM      2  O   UNL     1      -4.496  -2.143   0.328  1.00  0.00    -0.461 OA
BRANCH   2   3
ATOM      3  C   UNL     1      -3.504  -2.736   1.050  1.00  0.00     0.325 C 
ATOM      4  O   UNL     1      -3.705  -3.329   2.109  1.00  0.00    -0.250 OA
BRANCH   3   5
ATOM      5  C   UNL     1      -2.135  -2.810   0.339  1.00  0.00     0.244 C 
BRANCH   5   6
ATOM      6  N   UNL     1      -1.724  -1.734  -0.557  1.00  0.00    -0.310 N 
BRANCH   6   7
ATOM      7  C   UNL     1      -1.306  -0.519   0.147  1.00  0.00     0.149 C 
BRANCH   7   8
ATOM      8  C   UNL     1       0.142  -0.655   0.549  1.00  0.00    -0.013 C 
ATOM      9  C   UNL     1       1.143   0.082   0.047  1.00  0.00     0.006 C 
ENDBRANCH   7   8
ENDBRANCH   6   7
BRANCH   6  10
ATOM     10  C   UNL     1      -1.579  -1.724  -1.910  1.00  0.00     0.318 C 
ATOM     11  O   UNL     1      -1.207  -0.692  -2.493  1.00  0.00    -0.249 OA
ATOM     12  N   UNL     1      -1.764  -2.739  -2.759  1.00  0.00    -0.338 N 
ATOM     13  H   UNL     1      -1.506  -2.429  -3.657  1.00  0.00     0.165 HD
BRANCH  12  14
ATOM     14  C   UNL     1      -2.203  -4.137  -2.877  1.00  0.00     0.120 C 
BRANCH  14  15
ATOM     15  C   UNL     1      -3.330  -4.240  -3.954  1.00  0.00     0.002 C 
ATOM     16  C   UNL     1      -2.720  -4.629  -5.304  1.00  0.00     0.009 C 
ATOM     17  C   UNL     1      -4.471  -5.229  -3.700  1.00  0.00     0.009 C 
ENDBRANCH  14  15
ENDBRANCH  12  14
ENDBRANCH   6  10
ENDBRANCH   5   6
ENDBRANCH   3   5
ENDBRANCH   2   3
ENDBRANCH   1   2
BRANCH   1  18
ATOM     18  C   UNL     1      -6.471  -3.711   0.094  1.00  0.00     0.275 C 
BRANCH  18  19
ATOM     19  O   UNL     1      -5.857  -4.971   0.478  1.00  0.00    -0.458 OA
BRANCH  19  20
ATOM     20  C   UNL     1      -4.716  -5.163  -0.212  1.00  0.00     0.338 C 
ATOM     21  O   UNL     1      -4.258  -4.330  -0.971  1.00  0.00    -0.246 OA
BRANCH  20  22
ATOM     22  C   UNL     1      -3.973  -6.420  -0.083  1.00  0.00     0.060 A 
ATOM     23  C   UNL     1      -2.760  -6.405   0.620  1.00  0.00     0.016 A 
ATOM     24  C   UNL     1      -4.212  -7.409  -1.040  1.00  0.00     0.016 A 
ATOM     25  C   UNL     1      -1.781  -7.369   0.353  1.00  0.00     0.010 A 
ATOM     26  C   UNL     1      -3.236  -8.376  -1.303  1.00  0.00     0.010 A 
ATOM     27  C   UNL     1      -2.015  -8.369  -0.605  1.00  0.00    -0.014 A 
BRANCH  27  28
ATOM     28  C   UNL     1      -1.175  -9.592  -0.627  1.00  0.00     0.031 A 
ATOM     29  C   UNL     1      -0.117  -9.882  -1.652  1.00  0.00     0.074 A 
ATOM     30  C   UNL     1      -1.506 -10.515   0.296  1.00  0.00     0.049 A 
ATOM     31  N   UNL     1       0.610 -10.965  -1.782  1.00  0.00    -0.248 NA
ATOM     32  C   UNL     1       0.169  -8.847  -2.655  1.00  0.00     0.031 C 
ATOM     33  C   UNL     1      -2.548 -10.336   1.315  1.00  0.00     0.029 A 
ATOM     34  N   UNL     1      -1.047 -11.785   0.507  1.00  0.00    -0.354 N 
ATOM     35  C   UNL     1       1.440 -10.752  -2.878  1.00  0.00     0.074 A 
ATOM     36  C   UNL     1       1.115  -9.432  -3.386  1.00  0.00     0.031 C 
ATOM     37  C   UNL     1      -2.680 -11.469   2.011  1.00  0.00     0.029 A 
ATOM     38  C   UNL     1      -1.746 -12.452   1.482  1.00  0.00     0.049 A 
ATOM     39  H   UNL     1      -0.294 -12.180   0.011  1.00  0.00     0.167 HD
ATOM     40  C   UNL     1       2.377 -11.585  -3.399  1.00  0.00     0.031 A 
ATOM     41  C   UNL     1      -1.670 -13.725   1.901  1.00  0.00     0.031 A 
ATOM     42  C   UNL     1       2.670 -12.904  -2.880  1.00  0.00     0.049 A 
ATOM     43  C   UNL     1      -0.632 -14.618   1.310  1.00  0.00     0.074 A 
ATOM     44  C   UNL     1       3.658 -13.789  -3.283  1.00  0.00     0.029 A 
ATOM     45  N   UNL     1       1.968 -13.536  -1.863  1.00  0.00    -0.354 N 
ATOM     46  N   UNL     1       0.203 -14.363   0.334  1.00  0.00    -0.248 NA
ATOM     47  C   UNL     1      -0.502 -15.954   1.899  1.00  0.00     0.031 C 
ATOM     48  C   UNL     1       3.521 -14.972  -2.547  1.00  0.00     0.029 A 
ATOM     49  C   UNL     1       2.481 -14.808  -1.648  1.00  0.00     0.049 A 
ATOM     50  H   UNL     1       1.216 -13.140  -1.367  1.00  0.00     0.167 HD
ATOM     51  C   UNL     1       0.981 -15.503   0.203  1.00  0.00     0.074 A 
ATOM     52  C   UNL     1       0.519 -16.442   1.208  1.00  0.00     0.031 C 
ATOM     53  C   UNL     1       1.994 -15.743  -0.665  1.00  0.00     0.031 A 
BRANCH  40  54
ATOM     54  C   UNL     1       3.171 -11.126  -4.601  1.00  0.00    -0.014 A 
ATOM     55  C   UNL     1       4.185 -10.160  -4.479  1.00  0.00     0.010 A 
ATOM     56  C   UNL     1       2.996 -11.770  -5.843  1.00  0.00     0.010 A 
ATOM     57  C   UNL     1       4.994  -9.833  -5.576  1.00  0.00     0.020 A 
ATOM     58  C   UNL     1       3.814 -11.460  -6.936  1.00  0.00     0.020 A 
ATOM     59  C   UNL     1       4.803 -10.485  -6.798  1.00  0.00     0.054 A 
BRANCH  59  60
ATOM     60  S   UNL     1       5.902 -10.084  -8.188  1.00  0.00     0.124 S 
ATOM     61  O   UNL     1       5.398  -8.778  -8.603  1.00  0.00    -0.237 OA
ATOM     62  O   UNL     1       7.223 -10.076  -7.563  1.00  0.00    -0.237 OA
ATOM     63  O   UNL     1       5.673 -11.171  -9.137  1.00  0.00    -0.744 OA
ENDBRANCH  59  60
ENDBRANCH  40  54
BRANCH  41  64
ATOM     64  C   UNL     1      -2.601 -14.176   2.962  1.00  0.00    -0.014 A 
ATOM     65  C   UNL     1      -2.165 -14.261   4.293  1.00  0.00     0.010 A 
ATOM     66  C   UNL     1      -3.960 -14.387   2.660  1.00  0.00     0.010 A 
ATOM     67  C   UNL     1      -3.075 -14.548   5.311  1.00  0.00     0.020 A 
ATOM     68  C   UNL     1      -4.875 -14.653   3.680  1.00  0.00     0.020 A 
ATOM     69  C   UNL     1      -4.425 -14.735   4.999  1.00  0.00     0.054 A 
BRANCH  69  70
ATOM     70  S   UNL     1      -5.606 -15.003   6.349  1.00  0.00     0.124 S 
ATOM     71  O   UNL     1      -5.384 -16.410   6.668  1.00  0.00    -0.237 OA
ATOM     72  O   UNL     1      -5.158 -14.046   7.359  1.00  0.00    -0.237 OA
ATOM     73  O   UNL     1      -6.896 -14.692   5.739  1.00  0.00    -0.744 OA
ENDBRANCH  69  70
ENDBRANCH  41  64
BRANCH  53  74
ATOM     74  C   UNL     1       2.671 -17.079  -0.546  1.00  0.00    -0.014 A 
ATOM     75  C   UNL     1       2.036 -18.253  -0.990  1.00  0.00     0.010 A 
ATOM     76  C   UNL     1       3.950 -17.163   0.032  1.00  0.00     0.010 A 
ATOM     77  C   UNL     1       2.651 -19.495  -0.816  1.00  0.00     0.020 A 
ATOM     78  C   UNL     1       4.577 -18.401   0.186  1.00  0.00     0.020 A 
ATOM     79  C   UNL     1       3.914 -19.561  -0.220  1.00  0.00     0.054 A 
BRANCH  79  80
ATOM     80  S   UNL     1       4.697 -21.183  -0.008  1.00  0.00     0.124 S 
ATOM     81  O   UNL     1       3.988 -21.711   1.154  1.00  0.00    -0.237 OA
ATOM     82  O   UNL     1       4.410 -21.850  -1.276  1.00  0.00    -0.237 OA
ATOM     83  O   UNL     1       6.105 -20.860   0.214  1.00  0.00    -0.744 OA
ENDBRANCH  79  80
ENDBRANCH  53  74
ENDBRANCH  27  28
ENDBRANCH  20  22
ENDBRANCH  19  20
ENDBRANCH  18  19
ENDBRANCH   1  18
TORSDOF 20
