REMARK SMILES C[C@@H](C(=O)OCCOC(=O)c1ccc(-c2c3nc(c(-c4ccc(S(=O)(=O)[O-])cc4)c4ccc([nH]4)c(-c4ccc(S(=O)(=O)[O-])cc4)c4nc(c(-c5ccc(S(=O)(=O)[O-])cc5)c5ccc2[nH]5)C=C4)C=C3)cc1)c1ccc2c(c1)[nH]c1ccc(Cl)cc12
REMARK SMILES IDX 7 1 6 2 5 3 3 4 4 5 2 6 1 7 71 8 72 9 76 10 73 11 75 12
REMARK SMILES IDX 74 13 77 14 84 15 78 16 83 18 79 19 81 20 80 21 82 22 8 23
REMARK SMILES IDX 9 24 10 25 11 26 12 27 70 28 13 29 69 30 14 31 15 32 16 33
REMARK SMILES IDX 63 34 17 35 68 36 62 37 64 38 18 39 67 40 61 41 60 42 19 44
REMARK SMILES IDX 49 45 30 46 48 47 31 48 34 49 47 50 65 51 32 52 33 53 46 55
REMARK SMILES IDX 66 56 35 57 20 58 21 59 29 60 22 61 28 62 23 63 24 64 25 65
REMARK SMILES IDX 26 66 27 67 50 68 51 69 59 70 52 71 58 72 53 73 54 74 55 75
REMARK SMILES IDX 56 76 57 77 36 78 37 79 45 80 38 81 44 82 39 83 40 84 41 85
REMARK SMILES IDX 42 86 43 87
REMARK H PARENT 77 17 64 43 34 54
REMARK Flexibility Score: inf
ROOT
ATOM      1  C   UNL     1       2.222  -2.889  -3.416  1.00  0.00     0.275 C 
ENDROOT
BRANCH   1   2
ATOM      2  C   UNL     1       2.652  -1.427  -3.454  1.00  0.00     0.274 C 
BRANCH   2   3
ATOM      3  O   UNL     1       2.175  -0.737  -2.281  1.00  0.00    -0.462 OA
BRANCH   3   4
ATOM      4  C   UNL     1       1.122   0.110  -2.453  1.00  0.00     0.313 C 
ATOM      5  O   UNL     1       0.592   0.333  -3.536  1.00  0.00    -0.252 OA
BRANCH   4   6
ATOM      6  C   UNL     1       0.702   0.801  -1.151  1.00  0.00     0.126 C 
ATOM      7  C   UNL     1       1.572   0.426   0.054  1.00  0.00     0.025 C 
BRANCH   6   8
ATOM      8  C   UNL     1      -0.796   0.651  -0.887  1.00  0.00    -0.032 A 
ATOM      9  C   UNL     1      -1.685   1.524  -1.536  1.00  0.00     0.005 A 
ATOM     10  C   UNL     1      -1.313  -0.355  -0.049  1.00  0.00     0.031 A 
ATOM     11  C   UNL     1      -3.072   1.420  -1.367  1.00  0.00     0.011 A 
ATOM     12  C   UNL     1      -2.705  -0.435   0.120  1.00  0.00     0.047 A 
ATOM     13  C   UNL     1      -3.595   0.421  -0.525  1.00  0.00     0.007 A 
ATOM     14  N   UNL     1      -3.462  -1.308   0.867  1.00  0.00    -0.355 N 
ATOM     15  C   UNL     1      -4.920   0.016  -0.170  1.00  0.00     0.009 A 
ATOM     16  C   UNL     1      -4.804  -1.041   0.731  1.00  0.00     0.047 A 
ATOM     17  H   UNL     1      -3.091  -2.030   1.426  1.00  0.00     0.167 HD
ATOM     18  C   UNL     1      -6.210   0.450  -0.542  1.00  0.00     0.031 A 
ATOM     19  C   UNL     1      -5.912  -1.660   1.319  1.00  0.00     0.028 A 
ATOM     20  C   UNL     1      -7.326  -0.179   0.017  1.00  0.00     0.041 A 
ATOM     21  C   UNL     1      -7.181  -1.207   0.943  1.00  0.00     0.022 A 
ATOM     22  Cl  UNL     1      -8.904   0.337  -0.442  1.00  0.00    -0.084 Cl
ENDBRANCH   6   8
ENDBRANCH   4   6
ENDBRANCH   3   4
ENDBRANCH   2   3
ENDBRANCH   1   2
BRANCH   1  23
ATOM     23  O   UNL     1       0.795  -2.968  -3.572  1.00  0.00    -0.458 OA
BRANCH  23  24
ATOM     24  C   UNL     1       0.118  -3.565  -2.569  1.00  0.00     0.338 C 
ATOM     25  O   UNL     1       0.584  -4.102  -1.572  1.00  0.00    -0.246 OA
BRANCH  24  26
ATOM     26  C   UNL     1      -1.325  -3.483  -2.835  1.00  0.00     0.060 A 
ATOM     27  C   UNL     1      -1.933  -2.237  -2.938  1.00  0.00     0.016 A 
ATOM     28  C   UNL     1      -2.100  -4.645  -2.857  1.00  0.00     0.016 A 
ATOM     29  C   UNL     1      -3.323  -2.148  -2.952  1.00  0.00     0.010 A 
ATOM     30  C   UNL     1      -3.494  -4.549  -2.967  1.00  0.00     0.010 A 
ATOM     31  C   UNL     1      -4.131  -3.297  -2.955  1.00  0.00    -0.014 A 
BRANCH  31  32
ATOM     32  C   UNL     1      -5.618  -3.160  -2.877  1.00  0.00     0.031 A 
ATOM     33  C   UNL     1      -6.397  -3.786  -1.741  1.00  0.00     0.074 A 
ATOM     34  C   UNL     1      -6.280  -2.401  -3.777  1.00  0.00     0.049 A 
ATOM     35  N   UNL     1      -7.691  -3.787  -1.527  1.00  0.00    -0.248 NA
ATOM     36  C   UNL     1      -5.629  -4.511  -0.714  1.00  0.00     0.031 C 
ATOM     37  C   UNL     1      -5.669  -1.713  -4.917  1.00  0.00     0.029 A 
ATOM     38  N   UNL     1      -7.608  -2.058  -3.861  1.00  0.00    -0.354 N 
ATOM     39  C   UNL     1      -7.885  -4.484  -0.340  1.00  0.00     0.074 A 
ATOM     40  C   UNL     1      -6.587  -4.962   0.084  1.00  0.00     0.031 C 
ATOM     41  C   UNL     1      -6.604  -0.987  -5.547  1.00  0.00     0.029 A 
ATOM     42  C   UNL     1      -7.896  -1.217  -4.910  1.00  0.00     0.049 A 
ATOM     43  H   UNL     1      -8.290  -2.384  -3.229  1.00  0.00     0.167 HD
ATOM     44  C   UNL     1      -9.024  -4.666   0.371  1.00  0.00     0.031 A 
ATOM     45  C   UNL     1      -9.066  -0.706  -5.343  1.00  0.00     0.031 A 
ATOM     46  C   UNL     1     -10.320  -4.180  -0.019  1.00  0.00     0.049 A 
ATOM     47  C   UNL     1     -10.338  -1.059  -4.630  1.00  0.00     0.074 A 
ATOM     48  C   UNL     1     -11.529  -4.333   0.639  1.00  0.00     0.029 A 
ATOM     49  N   UNL     1     -10.578  -3.438  -1.160  1.00  0.00    -0.354 N 
ATOM     50  N   UNL     1     -10.499  -1.767  -3.539  1.00  0.00    -0.248 NA
ATOM     51  C   UNL     1     -11.590  -0.568  -5.224  1.00  0.00     0.031 C 
ATOM     52  C   UNL     1     -12.527  -3.723  -0.130  1.00  0.00     0.029 A 
ATOM     53  C   UNL     1     -11.932  -3.159  -1.245  1.00  0.00     0.049 A 
ATOM     54  H   UNL     1      -9.899  -3.153  -1.814  1.00  0.00     0.167 HD
ATOM     55  C   UNL     1     -11.869  -1.806  -3.315  1.00  0.00     0.074 A 
ATOM     56  C   UNL     1     -12.492  -1.038  -4.373  1.00  0.00     0.031 C 
ATOM     57  C   UNL     1     -12.549  -2.427  -2.320  1.00  0.00     0.031 A 
BRANCH  44  58
ATOM     58  C   UNL     1      -8.913  -5.409   1.674  1.00  0.00    -0.014 A 
ATOM     59  C   UNL     1      -8.425  -4.760   2.823  1.00  0.00     0.010 A 
ATOM     60  C   UNL     1      -9.344  -6.743   1.769  1.00  0.00     0.010 A 
ATOM     61  C   UNL     1      -8.340  -5.442   4.038  1.00  0.00     0.020 A 
ATOM     62  C   UNL     1      -9.276  -7.424   2.989  1.00  0.00     0.020 A 
ATOM     63  C   UNL     1      -8.761  -6.773   4.112  1.00  0.00     0.054 A 
BRANCH  63  64
ATOM     64  S   UNL     1      -8.651  -7.627   5.709  1.00  0.00     0.124 S 
ATOM     65  O   UNL     1      -7.211  -7.838   5.836  1.00  0.00    -0.237 OA
ATOM     66  O   UNL     1      -9.226  -6.653   6.634  1.00  0.00    -0.237 OA
ATOM     67  O   UNL     1      -9.443  -8.838   5.510  1.00  0.00    -0.744 OA
ENDBRANCH  63  64
ENDBRANCH  44  58
BRANCH  45  68
ATOM     68  C   UNL     1      -9.087   0.144  -6.564  1.00  0.00    -0.014 A 
ATOM     69  C   UNL     1      -9.339   1.524  -6.480  1.00  0.00     0.010 A 
ATOM     70  C   UNL     1      -8.817  -0.428  -7.822  1.00  0.00     0.010 A 
ATOM     71  C   UNL     1      -9.313   2.318  -7.631  1.00  0.00     0.020 A 
ATOM     72  C   UNL     1      -8.764   0.366  -8.969  1.00  0.00     0.020 A 
ATOM     73  C   UNL     1      -9.020   1.734  -8.868  1.00  0.00     0.054 A 
BRANCH  73  74
ATOM     74  S   UNL     1      -8.893   2.784 -10.343  1.00  0.00     0.124 S 
ATOM     75  O   UNL     1     -10.286   2.882 -10.766  1.00  0.00    -0.237 OA
ATOM     76  O   UNL     1      -8.303   4.013  -9.817  1.00  0.00    -0.237 OA
ATOM     77  O   UNL     1      -8.020   2.016 -11.227  1.00  0.00    -0.744 OA
ENDBRANCH  73  74
ENDBRANCH  45  68
BRANCH  57  78
ATOM     78  C   UNL     1     -14.047  -2.320  -2.343  1.00  0.00    -0.014 A 
ATOM     79  C   UNL     1     -14.805  -3.097  -3.237  1.00  0.00     0.010 A 
ATOM     80  C   UNL     1     -14.707  -1.463  -1.446  1.00  0.00     0.010 A 
ATOM     81  C   UNL     1     -16.198  -2.999  -3.252  1.00  0.00     0.020 A 
ATOM     82  C   UNL     1     -16.103  -1.376  -1.445  1.00  0.00     0.020 A 
ATOM     83  C   UNL     1     -16.839  -2.135  -2.359  1.00  0.00     0.054 A 
BRANCH  83  84
ATOM     84  S   UNL     1     -18.651  -2.048  -2.370  1.00  0.00     0.124 S 
ATOM     85  O   UNL     1     -18.907  -1.196  -3.528  1.00  0.00    -0.237 OA
ATOM     86  O   UNL     1     -19.043  -3.447  -2.522  1.00  0.00    -0.237 OA
ATOM     87  O   UNL     1     -18.976  -1.455  -1.075  1.00  0.00    -0.744 OA
ENDBRANCH  83  84
ENDBRANCH  57  78
ENDBRANCH  31  32
ENDBRANCH  24  26
ENDBRANCH  23  24
ENDBRANCH   1  23
TORSDOF 15
