REMARK SMILES COc1ccc2c(c1)c(CC(=O)OCCOC(=O)c1ccc(-c3c4nc(c(-c5ccc(S(=O)(=O)[O-])cc5)c5ccc([nH]5)c(-c5ccc(S(=O)(=O)[O-])cc5)c5nc(c(-c6ccc(S(=O)(=O)[O-])cc6)c6ccc3[nH]6)C=C5)C=C4)cc1)c(C)n2Cc1ccn(C(F)F)c(=O)c1
REMARK SMILES IDX 14 1 13 2 11 3 12 4 10 5 9 6 3 7 4 8 8 9 5 10 7 11 6 12
REMARK SMILES IDX 81 13 79 14 80 15 2 16 1 17 82 18 83 19 84 20 92 21 85 22
REMARK SMILES IDX 90 23 86 24 91 25 87 26 88 27 89 28 15 29 16 30 17 31 18 32
REMARK SMILES IDX 19 33 20 34 78 35 21 36 77 37 22 38 23 39 24 40 71 41 25 42
REMARK SMILES IDX 76 43 70 44 72 45 26 46 75 47 69 48 68 49 27 51 57 52 38 53
REMARK SMILES IDX 56 54 39 55 42 56 55 57 73 58 40 59 41 60 54 62 74 63 43 64
REMARK SMILES IDX 28 65 29 66 37 67 30 68 36 69 31 70 32 71 33 72 34 73 35 74
REMARK SMILES IDX 58 75 59 76 67 77 60 78 66 79 61 80 62 81 63 82 64 83 65 84
REMARK SMILES IDX 44 85 45 86 53 87 46 88 52 89 47 90 48 91 49 92 50 93 51 94
REMARK H PARENT 72 50 42 61
REMARK Flexibility Score: inf
ROOT
ATOM      1  C   UNL     1      -1.292   6.110  -3.649  1.00  0.00     0.274 C 
ENDROOT
BRANCH   1   2
ATOM      2  O   UNL     1      -0.746   6.087  -2.306  1.00  0.00    -0.462 OA
BRANCH   2   3
ATOM      3  C   UNL     1      -1.612   6.482  -1.345  1.00  0.00     0.310 C 
ATOM      4  O   UNL     1      -2.777   6.796  -1.583  1.00  0.00    -0.252 OA
BRANCH   3   5
ATOM      5  C   UNL     1      -1.049   6.656   0.039  1.00  0.00     0.160 C 
BRANCH   5   6
ATOM      6  C   UNL     1       0.290   6.133   0.481  1.00  0.00    -0.008 A 
ATOM      7  C   UNL     1       1.583   2.476   0.085  1.00  0.00     0.119 A 
ATOM      8  C   UNL     1       2.874   2.732   0.486  1.00  0.00     0.048 A 
ATOM      9  C   UNL     1       0.671   3.533   0.013  1.00  0.00     0.057 A 
ATOM     10  C   UNL     1       3.237   4.024   0.893  1.00  0.00     0.031 A 
ATOM     11  C   UNL     1       0.965   4.854   0.423  1.00  0.00     0.007 A 
ATOM     12  C   UNL     1       2.266   5.053   0.909  1.00  0.00     0.049 A 
ATOM     13  N   UNL     1       2.337   6.370   1.322  1.00  0.00    -0.340 N 
ATOM     14  C   UNL     1       1.075   6.915   1.325  1.00  0.00     0.020 A 
ATOM     15  C   UNL     1       0.680   8.166   2.047  1.00  0.00     0.065 C 
BRANCH   7  16
ATOM     16  O   UNL     1       1.107   1.280  -0.377  1.00  0.00    -0.497 OA
ATOM     17  C   UNL     1       1.525   0.117   0.325  1.00  0.00     0.278 C 
ENDBRANCH   7  16
BRANCH  13  18
ATOM     18  C   UNL     1       3.566   7.100   1.629  1.00  0.00     0.158 C 
BRANCH  18  19
ATOM     19  C   UNL     1       3.926   8.027   0.488  1.00  0.00    -0.021 A 
ATOM     20  C   UNL     1       3.306   9.336   0.435  1.00  0.00     0.024 A 
ATOM     21  C   UNL     1       4.739   7.654  -0.514  1.00  0.00     0.077 A 
ATOM     22  C   UNL     1       3.373  10.072  -0.679  1.00  0.00     0.095 A 
ATOM     23  C   UNL     1       4.922   8.523  -1.713  1.00  0.00     0.255 A 
ATOM     24  N   UNL     1       4.127   9.657  -1.759  1.00  0.00    -0.258 N 
ATOM     25  O   UNL     1       5.725   8.174  -2.572  1.00  0.00    -0.269 OA
BRANCH  24  26
ATOM     26  C   UNL     1       4.177  10.457  -2.953  1.00  0.00     0.451 C 
ATOM     27  F   UNL     1       5.380  11.072  -3.070  1.00  0.00    -0.185 F 
ATOM     28  F   UNL     1       3.983   9.705  -4.065  1.00  0.00    -0.185 F 
ENDBRANCH  24  26
ENDBRANCH  18  19
ENDBRANCH  13  18
ENDBRANCH   5   6
ENDBRANCH   3   5
ENDBRANCH   2   3
ENDBRANCH   1   2
BRANCH   1  29
ATOM     29  C   UNL     1      -1.682   4.706  -4.120  1.00  0.00     0.275 C 
BRANCH  29  30
ATOM     30  O   UNL     1      -2.892   4.302  -3.458  1.00  0.00    -0.458 OA
BRANCH  30  31
ATOM     31  C   UNL     1      -2.792   3.245  -2.619  1.00  0.00     0.338 C 
ATOM     32  O   UNL     1      -1.928   2.381  -2.616  1.00  0.00    -0.246 OA
BRANCH  31  33
ATOM     33  C   UNL     1      -3.638   3.575  -1.461  1.00  0.00     0.060 A 
ATOM     34  C   UNL     1      -4.994   3.858  -1.522  1.00  0.00     0.016 A 
ATOM     35  C   UNL     1      -2.933   3.848  -0.296  1.00  0.00     0.016 A 
ATOM     36  C   UNL     1      -5.572   4.552  -0.455  1.00  0.00     0.010 A 
ATOM     37  C   UNL     1      -3.491   4.502   0.770  1.00  0.00     0.010 A 
ATOM     38  C   UNL     1      -4.786   4.949   0.640  1.00  0.00    -0.014 A 
BRANCH  38  39
ATOM     39  C   UNL     1      -5.307   5.745   1.732  1.00  0.00     0.031 A 
ATOM     40  C   UNL     1      -5.974   4.948   2.774  1.00  0.00     0.074 A 
ATOM     41  C   UNL     1      -5.076   7.052   1.963  1.00  0.00     0.049 A 
ATOM     42  N   UNL     1      -7.246   4.817   2.917  1.00  0.00    -0.248 NA
ATOM     43  C   UNL     1      -5.162   4.109   3.664  1.00  0.00     0.031 C 
ATOM     44  C   UNL     1      -4.183   7.988   1.283  1.00  0.00     0.029 A 
ATOM     45  N   UNL     1      -5.614   7.814   2.954  1.00  0.00    -0.354 N 
ATOM     46  C   UNL     1      -7.418   3.998   4.018  1.00  0.00     0.074 A 
ATOM     47  C   UNL     1      -6.115   3.468   4.343  1.00  0.00     0.031 C 
ATOM     48  C   UNL     1      -4.108   9.146   1.984  1.00  0.00     0.029 A 
ATOM     49  C   UNL     1      -5.095   9.094   3.047  1.00  0.00     0.049 A 
ATOM     50  H   UNL     1      -6.318   7.481   3.557  1.00  0.00     0.167 HD
ATOM     51  C   UNL     1      -8.598   3.960   4.690  1.00  0.00     0.031 A 
ATOM     52  C   UNL     1      -5.499  10.066   3.898  1.00  0.00     0.031 A 
ATOM     53  C   UNL     1      -9.641   4.660   3.984  1.00  0.00     0.049 A 
ATOM     54  C   UNL     1      -6.897   9.748   4.277  1.00  0.00     0.074 A 
ATOM     55  C   UNL     1     -10.296   4.468   2.785  1.00  0.00     0.029 A 
ATOM     56  N   UNL     1      -9.834   5.979   4.326  1.00  0.00    -0.354 N 
ATOM     57  N   UNL     1      -7.891   9.761   3.433  1.00  0.00    -0.248 NA
ATOM     58  C   UNL     1      -7.151   9.051   5.527  1.00  0.00     0.031 C 
ATOM     59  C   UNL     1     -10.510   5.776   2.257  1.00  0.00     0.029 A 
ATOM     60  C   UNL     1     -10.004   6.706   3.171  1.00  0.00     0.049 A 
ATOM     61  H   UNL     1      -9.849   6.340   5.242  1.00  0.00     0.167 HD
ATOM     62  C   UNL     1      -8.732   8.744   3.856  1.00  0.00     0.074 A 
ATOM     63  C   UNL     1      -8.298   8.441   5.215  1.00  0.00     0.031 C 
ATOM     64  C   UNL     1      -9.527   8.067   2.976  1.00  0.00     0.031 A 
BRANCH  51  65
ATOM     65  C   UNL     1      -8.724   3.548   6.125  1.00  0.00    -0.014 A 
ATOM     66  C   UNL     1      -7.638   3.579   7.024  1.00  0.00     0.010 A 
ATOM     67  C   UNL     1     -10.002   3.315   6.662  1.00  0.00     0.010 A 
ATOM     68  C   UNL     1      -7.804   3.340   8.387  1.00  0.00     0.020 A 
ATOM     69  C   UNL     1     -10.187   3.121   8.037  1.00  0.00     0.020 A 
ATOM     70  C   UNL     1      -9.082   3.124   8.888  1.00  0.00     0.054 A 
BRANCH  70  71
ATOM     71  S   UNL     1      -9.272   2.944  10.678  1.00  0.00     0.124 S 
ATOM     72  O   UNL     1      -8.677   1.631  10.912  1.00  0.00    -0.237 OA
ATOM     73  O   UNL     1      -8.511   4.081  11.188  1.00  0.00    -0.237 OA
ATOM     74  O   UNL     1     -10.716   3.022  10.879  1.00  0.00    -0.744 OA
ENDBRANCH  70  71
ENDBRANCH  51  65
BRANCH  52  75
ATOM     75  C   UNL     1      -4.650  10.978   4.697  1.00  0.00    -0.014 A 
ATOM     76  C   UNL     1      -3.372  10.550   5.108  1.00  0.00     0.010 A 
ATOM     77  C   UNL     1      -5.210  12.103   5.331  1.00  0.00     0.010 A 
ATOM     78  C   UNL     1      -2.715  11.166   6.179  1.00  0.00     0.020 A 
ATOM     79  C   UNL     1      -4.554  12.727   6.404  1.00  0.00     0.020 A 
ATOM     80  C   UNL     1      -3.328  12.227   6.846  1.00  0.00     0.054 A 
BRANCH  80  81
ATOM     81  S   UNL     1      -2.537  12.870   8.348  1.00  0.00     0.124 S 
ATOM     82  O   UNL     1      -2.667  11.742   9.266  1.00  0.00    -0.237 OA
ATOM     83  O   UNL     1      -1.178  13.151   7.890  1.00  0.00    -0.237 OA
ATOM     84  O   UNL     1      -3.333  14.046   8.685  1.00  0.00    -0.744 OA
ENDBRANCH  80  81
ENDBRANCH  52  75
BRANCH  64  85
ATOM     85  C   UNL     1      -9.721   8.648   1.587  1.00  0.00    -0.014 A 
ATOM     86  C   UNL     1     -11.040   8.866   1.147  1.00  0.00     0.010 A 
ATOM     87  C   UNL     1      -8.673   8.799   0.656  1.00  0.00     0.010 A 
ATOM     88  C   UNL     1     -11.313   9.173  -0.189  1.00  0.00     0.020 A 
ATOM     89  C   UNL     1      -8.939   9.130  -0.683  1.00  0.00     0.020 A 
ATOM     90  C   UNL     1     -10.262   9.284  -1.102  1.00  0.00     0.054 A 
BRANCH  90  91
ATOM     91  S   UNL     1     -10.668   9.595  -2.844  1.00  0.00     0.124 S 
ATOM     92  O   UNL     1     -11.237   8.315  -3.262  1.00  0.00    -0.237 OA
ATOM     93  O   UNL     1     -11.620  10.701  -2.764  1.00  0.00    -0.237 OA
ATOM     94  O   UNL     1      -9.384   9.931  -3.455  1.00  0.00    -0.744 OA
ENDBRANCH  90  91
ENDBRANCH  64  85
ENDBRANCH  38  39
ENDBRANCH  31  33
ENDBRANCH  30  31
ENDBRANCH  29  30
ENDBRANCH   1  29
TORSDOF 19
