REMARK SMILES C[C@H](C(=O)OCCOC(=O)c1ccc(-c2c3nc(c(-c4ccc(S(=O)(=O)[O-])cc4)c4ccc([nH]4)c(-c4ccc(S(=O)(=O)[O-])cc4)c4nc(c(-c5ccc(S(=O)(=O)[O-])cc5)c5ccc2[nH]5)C=C4)C=C3)cc1)c1ccc2c3cc(Cl)ccc3n(C(=O)c3cocn3)c2c1
REMARK SMILES IDX 6 1 5 2 3 3 4 4 2 5 1 6 71 7 72 8 91 9 73 10 90 11 74 12
REMARK SMILES IDX 82 13 75 14 81 15 76 16 80 17 77 18 79 19 78 20 83 21 84 22
REMARK SMILES IDX 85 23 86 24 89 25 87 26 88 27 7 28 8 29 9 30 10 31 11 32
REMARK SMILES IDX 12 33 70 34 13 35 69 36 14 37 15 38 16 39 63 40 17 41 68 42
REMARK SMILES IDX 62 43 64 44 18 45 67 46 61 47 60 48 19 50 49 51 30 52 48 53
REMARK SMILES IDX 31 54 34 55 47 56 65 57 32 58 33 59 46 61 66 62 35 63 20 64
REMARK SMILES IDX 21 65 29 66 22 67 28 68 23 69 24 70 25 71 26 72 27 73 50 74
REMARK SMILES IDX 51 75 59 76 52 77 58 78 53 79 54 80 55 81 56 82 57 83 36 84
REMARK SMILES IDX 37 85 45 86 38 87 44 88 39 89 40 90 41 91 42 92 43 93
REMARK H PARENT 64 49 34 60
REMARK Flexibility Score: inf
ROOT
ATOM      1  C   UNL     1       1.136  -1.709   1.173  1.00  0.00     0.274 C 
ENDROOT
BRANCH   1   2
ATOM      2  O   UNL     1       0.707  -0.961   0.019  1.00  0.00    -0.462 OA
BRANCH   2   3
ATOM      3  C   UNL     1       0.687   0.397   0.134  1.00  0.00     0.313 C 
ATOM      4  O   UNL     1       1.039   1.020   1.128  1.00  0.00    -0.252 OA
BRANCH   3   5
ATOM      5  C   UNL     1       0.119   1.072  -1.117  1.00  0.00     0.126 C 
ATOM      6  C   UNL     1       0.580   0.429  -2.427  1.00  0.00     0.025 C 
BRANCH   5   7
ATOM      7  C   UNL     1      -1.396   1.139  -1.077  1.00  0.00    -0.032 A 
ATOM      8  C   UNL     1      -2.071   2.326  -1.368  1.00  0.00     0.005 A 
ATOM      9  C   UNL     1      -2.131  -0.017  -0.785  1.00  0.00     0.032 A 
ATOM     10  C   UNL     1      -3.471   2.364  -1.397  1.00  0.00     0.011 A 
ATOM     11  C   UNL     1      -3.529   0.043  -0.751  1.00  0.00     0.058 A 
ATOM     12  C   UNL     1      -4.211   1.199  -1.101  1.00  0.00     0.008 A 
ATOM     13  N   UNL     1      -4.452  -0.951  -0.432  1.00  0.00    -0.274 N 
ATOM     14  C   UNL     1      -5.598   0.882  -1.084  1.00  0.00     0.009 A 
ATOM     15  C   UNL     1      -5.737  -0.448  -0.662  1.00  0.00     0.057 A 
ATOM     16  C   UNL     1      -6.751   1.640  -1.384  1.00  0.00     0.031 A 
ATOM     17  C   UNL     1      -7.012  -1.012  -0.463  1.00  0.00     0.029 A 
ATOM     18  C   UNL     1      -8.009   1.060  -1.235  1.00  0.00     0.041 A 
ATOM     19  C   UNL     1      -8.140  -0.243  -0.773  1.00  0.00     0.023 A 
ATOM     20  Cl  UNL     1      -9.415   1.980  -1.608  1.00  0.00    -0.084 Cl
BRANCH  13  21
ATOM     21  C   UNL     1      -4.084  -2.223   0.077  1.00  0.00     0.284 C 
ATOM     22  O   UNL     1      -3.116  -2.241   0.836  1.00  0.00    -0.266 OA
BRANCH  21  23
ATOM     23  C   UNL     1      -4.742  -3.472  -0.290  1.00  0.00     0.167 A 
ATOM     24  C   UNL     1      -5.457  -3.761  -1.431  1.00  0.00     0.231 A 
ATOM     25  N   UNL     1      -4.607  -4.637   0.453  1.00  0.00    -0.211 NA
ATOM     26  O   UNL     1      -5.787  -5.084  -1.411  1.00  0.00    -0.451 OA
ATOM     27  C   UNL     1      -5.228  -5.545  -0.260  1.00  0.00     0.308 A 
ENDBRANCH  21  23
ENDBRANCH  13  21
ENDBRANCH   5   7
ENDBRANCH   3   5
ENDBRANCH   2   3
ENDBRANCH   1   2
BRANCH   1  28
ATOM     28  C   UNL     1       2.404  -2.486   0.837  1.00  0.00     0.275 C 
BRANCH  28  29
ATOM     29  O   UNL     1       3.440  -1.560   0.468  1.00  0.00    -0.458 OA
BRANCH  29  30
ATOM     30  C   UNL     1       3.693  -1.474  -0.853  1.00  0.00     0.338 C 
ATOM     31  O   UNL     1       3.243  -2.177  -1.754  1.00  0.00    -0.246 OA
BRANCH  30  32
ATOM     32  C   UNL     1       4.559  -0.321  -1.103  1.00  0.00     0.060 A 
ATOM     33  C   UNL     1       4.002   0.959  -1.077  1.00  0.00     0.016 A 
ATOM     34  C   UNL     1       5.886  -0.510  -1.481  1.00  0.00     0.016 A 
ATOM     35  C   UNL     1       4.744   2.050  -1.506  1.00  0.00     0.010 A 
ATOM     36  C   UNL     1       6.656   0.600  -1.832  1.00  0.00     0.010 A 
ATOM     37  C   UNL     1       6.083   1.884  -1.875  1.00  0.00    -0.014 A 
BRANCH  37  38
ATOM     38  C   UNL     1       6.873   3.049  -2.339  1.00  0.00     0.031 A 
ATOM     39  C   UNL     1       7.398   3.083  -3.746  1.00  0.00     0.074 A 
ATOM     40  C   UNL     1       7.109   4.077  -1.501  1.00  0.00     0.049 A 
ATOM     41  N   UNL     1       8.254   3.910  -4.287  1.00  0.00    -0.248 NA
ATOM     42  C   UNL     1       6.900   2.045  -4.664  1.00  0.00     0.031 C 
ATOM     43  C   UNL     1       6.600   4.192  -0.132  1.00  0.00     0.029 A 
ATOM     44  N   UNL     1       7.838   5.225  -1.681  1.00  0.00    -0.354 N 
ATOM     45  C   UNL     1       8.439   3.463  -5.589  1.00  0.00     0.074 A 
ATOM     46  C   UNL     1       7.601   2.295  -5.761  1.00  0.00     0.031 C 
ATOM     47  C   UNL     1       7.013   5.355   0.395  1.00  0.00     0.029 A 
ATOM     48  C   UNL     1       7.879   6.027  -0.566  1.00  0.00     0.049 A 
ATOM     49  H   UNL     1       8.287   5.452  -2.527  1.00  0.00     0.167 HD
ATOM     50  C   UNL     1       9.244   3.976  -6.550  1.00  0.00     0.031 A 
ATOM     51  C   UNL     1       8.574   7.155  -0.326  1.00  0.00     0.031 A 
ATOM     52  C   UNL     1      10.056   5.150  -6.374  1.00  0.00     0.049 A 
ATOM     53  C   UNL     1       9.487   7.686  -1.391  1.00  0.00     0.074 A 
ATOM     54  C   UNL     1      10.925   5.743  -7.273  1.00  0.00     0.029 A 
ATOM     55  N   UNL     1      10.086   5.921  -5.221  1.00  0.00    -0.354 N 
ATOM     56  N   UNL     1       9.711   7.209  -2.593  1.00  0.00    -0.248 NA
ATOM     57  C   UNL     1      10.255   8.894  -1.064  1.00  0.00     0.031 C 
ATOM     58  C   UNL     1      11.500   6.858  -6.653  1.00  0.00     0.029 A 
ATOM     59  C   UNL     1      10.961   6.981  -5.382  1.00  0.00     0.049 A 
ATOM     60  H   UNL     1       9.561   5.740  -4.407  1.00  0.00     0.167 HD
ATOM     61  C   UNL     1      10.647   8.060  -3.167  1.00  0.00     0.074 A 
ATOM     62  C   UNL     1      10.929   9.093  -2.189  1.00  0.00     0.031 C 
ATOM     63  C   UNL     1      11.227   7.990  -4.390  1.00  0.00     0.031 A 
BRANCH  50  64
ATOM     64  C   UNL     1       9.320   3.233  -7.854  1.00  0.00    -0.014 A 
ATOM     65  C   UNL     1       8.279   3.299  -8.797  1.00  0.00     0.010 A 
ATOM     66  C   UNL     1      10.460   2.459  -8.143  1.00  0.00     0.010 A 
ATOM     67  C   UNL     1       8.359   2.572  -9.989  1.00  0.00     0.020 A 
ATOM     68  C   UNL     1      10.551   1.747  -9.342  1.00  0.00     0.020 A 
ATOM     69  C   UNL     1       9.490   1.792 -10.249  1.00  0.00     0.054 A 
BRANCH  69  70
ATOM     70  S   UNL     1       9.575   0.857 -11.802  1.00  0.00     0.124 S 
ATOM     71  O   UNL     1       8.719  -0.289 -11.508  1.00  0.00    -0.237 OA
ATOM     72  O   UNL     1       9.043   1.803 -12.780  1.00  0.00    -0.237 OA
ATOM     73  O   UNL     1      10.997   0.553 -11.944  1.00  0.00    -0.744 OA
ENDBRANCH  69  70
ENDBRANCH  50  64
BRANCH  51  74
ATOM     74  C   UNL     1       8.468   7.814   1.002  1.00  0.00    -0.014 A 
ATOM     75  C   UNL     1       7.764   9.021   1.147  1.00  0.00     0.010 A 
ATOM     76  C   UNL     1       9.035   7.209   2.139  1.00  0.00     0.010 A 
ATOM     77  C   UNL     1       7.630   9.613   2.407  1.00  0.00     0.020 A 
ATOM     78  C   UNL     1       8.883   7.785   3.402  1.00  0.00     0.020 A 
ATOM     79  C   UNL     1       8.188   8.989   3.527  1.00  0.00     0.054 A 
BRANCH  79  80
ATOM     80  S   UNL     1       7.938   9.727   5.166  1.00  0.00     0.124 S 
ATOM     81  O   UNL     1       8.958  10.770   5.187  1.00  0.00    -0.237 OA
ATOM     82  O   UNL     1       6.556  10.195   5.101  1.00  0.00    -0.237 OA
ATOM     83  O   UNL     1       8.164   8.608   6.079  1.00  0.00    -0.744 OA
ENDBRANCH  79  80
ENDBRANCH  51  74
BRANCH  63  84
ATOM     84  C   UNL     1      12.209   9.071  -4.739  1.00  0.00    -0.014 A 
ATOM     85  C   UNL     1      13.516   9.051  -4.223  1.00  0.00     0.010 A 
ATOM     86  C   UNL     1      11.829  10.095  -5.624  1.00  0.00     0.010 A 
ATOM     87  C   UNL     1      14.423  10.055  -4.568  1.00  0.00     0.020 A 
ATOM     88  C   UNL     1      12.740  11.091  -5.985  1.00  0.00     0.020 A 
ATOM     89  C   UNL     1      14.027  11.072  -5.443  1.00  0.00     0.054 A 
BRANCH  89  90
ATOM     90  S   UNL     1      15.231  12.345  -5.911  1.00  0.00     0.124 S 
ATOM     91  O   UNL     1      15.204  13.228  -4.748  1.00  0.00    -0.237 OA
ATOM     92  O   UNL     1      16.462  11.579  -6.090  1.00  0.00    -0.237 OA
ATOM     93  O   UNL     1      14.674  12.910  -7.138  1.00  0.00    -0.744 OA
ENDBRANCH  89  90
ENDBRANCH  63  84
ENDBRANCH  37  38
ENDBRANCH  30  32
ENDBRANCH  29  30
ENDBRANCH  28  29
ENDBRANCH   1  28
TORSDOF 17
