REMARK SMILES C[C@@H](C(=O)OCCOC(=O)c1ccc(-c2c3nc(c(-c4ccc(S(=O)(=O)[O-])cc4)c4ccc([nH]4)c(-c4ccc(S(=O)(=O)[O-])cc4)c4nc(c(-c5ccc(S(=O)(=O)[O-])cc5)c5ccc2[nH]5)C=C4)C=C3)cc1)c1ccc(-c2ccn(C(F)F)c(=O)c2)cc1
REMARK SMILES IDX 6 1 5 2 3 3 4 4 2 5 1 6 71 7 72 8 86 9 73 10 85 11 74 12
REMARK SMILES IDX 75 13 76 14 84 15 77 16 82 17 78 18 83 19 79 20 80 21 81 22
REMARK SMILES IDX 7 23 8 24 9 25 10 26 11 27 12 28 70 29 13 30 69 31 14 32
REMARK SMILES IDX 15 33 16 34 63 35 17 36 68 37 62 38 64 39 18 40 67 41 61 42
REMARK SMILES IDX 60 43 19 45 49 46 30 47 48 48 31 49 34 50 47 51 65 52 32 53
REMARK SMILES IDX 33 54 46 56 66 57 35 58 20 59 21 60 29 61 22 62 28 63 23 64
REMARK SMILES IDX 24 65 25 66 26 67 27 68 50 69 51 70 59 71 52 72 58 73 53 74
REMARK SMILES IDX 54 75 55 76 56 77 57 78 36 79 37 80 45 81 38 82 44 83 39 84
REMARK SMILES IDX 40 85 41 86 42 87 43 88
REMARK H PARENT 64 44 34 55
REMARK Flexibility Score: inf
ROOT
ATOM      1  C   UNL     1       2.605  -3.381   1.455  1.00  0.00     0.274 C 
ENDROOT
BRANCH   1   2
ATOM      2  O   UNL     1       2.116  -2.264   0.682  1.00  0.00    -0.462 OA
BRANCH   2   3
ATOM      3  C   UNL     1       1.039  -2.487  -0.126  1.00  0.00     0.313 C 
ATOM      4  O   UNL     1       0.493  -3.580  -0.229  1.00  0.00    -0.252 OA
BRANCH   3   5
ATOM      5  C   UNL     1       0.647  -1.241  -0.952  1.00  0.00     0.126 C 
ATOM      6  C   UNL     1       1.369   0.020  -0.452  1.00  0.00     0.025 C 
BRANCH   5   7
ATOM      7  C   UNL     1      -0.874  -1.067  -1.102  1.00  0.00    -0.034 A 
ATOM      8  C   UNL     1      -1.564   0.074  -0.656  1.00  0.00     0.005 A 
ATOM      9  C   UNL     1      -1.638  -2.083  -1.707  1.00  0.00     0.005 A 
ATOM     10  C   UNL     1      -2.959   0.178  -0.773  1.00  0.00     0.009 A 
ATOM     11  C   UNL     1      -3.034  -1.987  -1.809  1.00  0.00     0.009 A 
ATOM     12  C   UNL     1      -3.709  -0.857  -1.335  1.00  0.00    -0.018 A 
BRANCH  12  13
ATOM     13  C   UNL     1      -5.186  -0.808  -1.326  1.00  0.00    -0.011 A 
ATOM     14  C   UNL     1      -5.947  -0.894  -0.095  1.00  0.00     0.027 A 
ATOM     15  C   UNL     1      -5.855  -0.730  -2.489  1.00  0.00     0.080 A 
ATOM     16  C   UNL     1      -7.280  -0.998  -0.113  1.00  0.00     0.095 A 
ATOM     17  C   UNL     1      -7.350  -0.780  -2.523  1.00  0.00     0.255 A 
ATOM     18  N   UNL     1      -7.977  -0.969  -1.303  1.00  0.00    -0.258 N 
ATOM     19  O   UNL     1      -7.906  -0.665  -3.611  1.00  0.00    -0.269 OA
BRANCH  18  20
ATOM     20  C   UNL     1      -9.412  -1.130  -1.299  1.00  0.00     0.451 C 
ATOM     21  F   UNL     1     -10.018  -0.028  -1.810  1.00  0.00    -0.185 F 
ATOM     22  F   UNL     1      -9.774  -2.192  -2.064  1.00  0.00    -0.185 F 
ENDBRANCH  18  20
ENDBRANCH  12  13
ENDBRANCH   5   7
ENDBRANCH   3   5
ENDBRANCH   2   3
ENDBRANCH   1   2
BRANCH   1  23
ATOM     23  C   UNL     1       2.296  -3.188   2.938  1.00  0.00     0.275 C 
BRANCH  23  24
ATOM     24  O   UNL     1       0.882  -3.326   3.156  1.00  0.00    -0.458 OA
BRANCH  24  25
ATOM     25  C   UNL     1       0.223  -2.196   3.494  1.00  0.00     0.338 C 
ATOM     26  O   UNL     1       0.690  -1.095   3.724  1.00  0.00    -0.246 OA
BRANCH  25  27
ATOM     27  C   UNL     1      -1.218  -2.475   3.446  1.00  0.00     0.060 A 
ATOM     28  C   UNL     1      -1.839  -2.458   2.203  1.00  0.00     0.016 A 
ATOM     29  C   UNL     1      -1.967  -2.664   4.608  1.00  0.00     0.016 A 
ATOM     30  C   UNL     1      -3.219  -2.582   2.113  1.00  0.00     0.010 A 
ATOM     31  C   UNL     1      -3.357  -2.828   4.511  1.00  0.00     0.010 A 
ATOM     32  C   UNL     1      -4.000  -2.754   3.263  1.00  0.00    -0.014 A 
BRANCH  32  33
ATOM     33  C   UNL     1      -5.484  -2.746   3.131  1.00  0.00     0.031 A 
ATOM     34  C   UNL     1      -6.275  -1.571   3.650  1.00  0.00     0.074 A 
ATOM     35  C   UNL     1      -6.112  -3.686   2.394  1.00  0.00     0.049 A 
ATOM     36  N   UNL     1      -7.565  -1.350   3.581  1.00  0.00    -0.248 NA
ATOM     37  C   UNL     1      -5.515  -0.484   4.289  1.00  0.00     0.031 C 
ATOM     38  C   UNL     1      -5.452  -4.789   1.694  1.00  0.00     0.029 A 
ATOM     39  N   UNL     1      -7.435  -3.817   2.047  1.00  0.00    -0.354 N 
ATOM     40  C   UNL     1      -7.775  -0.128   4.210  1.00  0.00     0.074 A 
ATOM     41  C   UNL     1      -6.480   0.356   4.636  1.00  0.00     0.031 C 
ATOM     42  C   UNL     1      -6.355  -5.424   0.930  1.00  0.00     0.029 A 
ATOM     43  C   UNL     1      -7.671  -4.830   1.147  1.00  0.00     0.049 A 
ATOM     44  H   UNL     1      -8.147  -3.240   2.409  1.00  0.00     0.167 HD
ATOM     45  C   UNL     1      -8.938   0.532   4.423  1.00  0.00     0.031 A 
ATOM     46  C   UNL     1      -8.815  -5.244   0.566  1.00  0.00     0.031 A 
ATOM     47  C   UNL     1     -10.228   0.078   3.984  1.00  0.00     0.049 A 
ATOM     48  C   UNL     1     -10.108  -4.558   0.911  1.00  0.00     0.074 A 
ATOM     49  C   UNL     1     -11.463   0.669   4.189  1.00  0.00     0.029 A 
ATOM     50  N   UNL     1     -10.454  -1.075   3.251  1.00  0.00    -0.354 N 
ATOM     51  N   UNL     1     -10.298  -3.449   1.586  1.00  0.00    -0.248 NA
ATOM     52  C   UNL     1     -11.344  -5.199   0.438  1.00  0.00     0.031 C 
ATOM     53  C   UNL     1     -12.440  -0.144   3.603  1.00  0.00     0.029 A 
ATOM     54  C   UNL     1     -11.807  -1.213   2.993  1.00  0.00     0.049 A 
ATOM     55  H   UNL     1      -9.755  -1.703   2.957  1.00  0.00     0.167 HD
ATOM     56  C   UNL     1     -11.678  -3.271   1.629  1.00  0.00     0.074 A 
ATOM     57  C   UNL     1     -12.269  -4.356   0.875  1.00  0.00     0.031 C 
ATOM     58  C   UNL     1     -12.391  -2.298   2.248  1.00  0.00     0.031 A 
BRANCH  45  59
ATOM     59  C   UNL     1      -8.873   1.794   5.236  1.00  0.00    -0.014 A 
ATOM     60  C   UNL     1      -8.446   3.011   4.678  1.00  0.00     0.010 A 
ATOM     61  C   UNL     1      -9.275   1.757   6.584  1.00  0.00     0.010 A 
ATOM     62  C   UNL     1      -8.388   4.163   5.467  1.00  0.00     0.020 A 
ATOM     63  C   UNL     1      -9.236   2.910   7.370  1.00  0.00     0.020 A 
ATOM     64  C   UNL     1      -8.775   4.103   6.810  1.00  0.00     0.054 A 
BRANCH  64  65
ATOM     65  S   UNL     1      -8.692   5.610   7.816  1.00  0.00     0.124 S 
ATOM     66  O   UNL     1      -7.256   5.729   8.056  1.00  0.00    -0.237 OA
ATOM     67  O   UNL     1      -9.267   6.620   6.932  1.00  0.00    -0.237 OA
ATOM     68  O   UNL     1      -9.495   5.286   8.992  1.00  0.00    -0.744 OA
ENDBRANCH  64  65
ENDBRANCH  45  59
BRANCH  46  69
ATOM     69  C   UNL     1      -8.809  -6.399  -0.374  1.00  0.00    -0.014 A 
ATOM     70  C   UNL     1      -9.139  -6.219  -1.729  1.00  0.00     0.010 A 
ATOM     71  C   UNL     1      -8.497  -7.691   0.088  1.00  0.00     0.010 A 
ATOM     72  C   UNL     1      -9.169  -7.313  -2.601  1.00  0.00     0.020 A 
ATOM     73  C   UNL     1      -8.497  -8.780  -0.786  1.00  0.00     0.020 A 
ATOM     74  C   UNL     1      -8.848  -8.587  -2.123  1.00  0.00     0.054 A 
BRANCH  74  75
ATOM     75  S   UNL     1      -8.846  -9.993  -3.270  1.00  0.00     0.124 S 
ATOM     76  O   UNL     1     -10.265 -10.325  -3.343  1.00  0.00    -0.237 OA
ATOM     77  O   UNL     1      -8.264  -9.421  -4.481  1.00  0.00    -0.237 OA
ATOM     78  O   UNL     1      -8.006 -10.978  -2.593  1.00  0.00    -0.744 OA
ENDBRANCH  74  75
ENDBRANCH  46  69
BRANCH  58  79
ATOM     79  C   UNL     1     -13.890  -2.347   2.130  1.00  0.00    -0.014 A 
ATOM     80  C   UNL     1     -14.641  -3.287   2.857  1.00  0.00     0.010 A 
ATOM     81  C   UNL     1     -14.561  -1.404   1.331  1.00  0.00     0.010 A 
ATOM     82  C   UNL     1     -16.036  -3.296   2.772  1.00  0.00     0.020 A 
ATOM     83  C   UNL     1     -15.957  -1.395   1.261  1.00  0.00     0.020 A 
ATOM     84  C   UNL     1     -16.686  -2.349   1.974  1.00  0.00     0.054 A 
BRANCH  84  85
ATOM     85  S   UNL     1     -18.500  -2.341   1.927  1.00  0.00     0.124 S 
ATOM     86  O   UNL     1     -18.786  -3.463   1.038  1.00  0.00    -0.237 OA
ATOM     87  O   UNL     1     -18.860  -2.541   3.328  1.00  0.00    -0.237 OA
ATOM     88  O   UNL     1     -18.825  -1.021   1.390  1.00  0.00    -0.744 OA
ENDBRANCH  84  85
ENDBRANCH  58  79
ENDBRANCH  32  33
ENDBRANCH  25  27
ENDBRANCH  24  25
ENDBRANCH  23  24
ENDBRANCH   1  23
TORSDOF 17
