REMARK SMILES CC1(C)S[C@H](c2ccc(-c3ccccc3)o2)[NH2+][C@H]1C(=O)OCCOC(=O)c1ccc(-c2c3nc(c(-c4ccc(S(=O)(=O)[O-])cc4)c4ccc([nH]4)c(-c4ccc(S(=O)(=O)[O-])cc4)c4nc(c(-c5ccc(S(=O)(=O)[O-])cc5)c5ccc2[nH]5)C=C4)C=C3)cc1
REMARK SMILES IDX 23 1 22 2 21 3 19 4 20 5 18 6 1 7 2 8 3 9 4 10 5 11 17 12
REMARK SMILES IDX 6 15 7 16 16 17 8 18 9 19 10 20 11 21 15 22 12 23 14 24
REMARK SMILES IDX 13 25 24 26 25 27 26 28 27 29 28 30 86 31 29 32 85 33 30 34
REMARK SMILES IDX 31 35 32 36 79 37 33 38 84 39 78 40 80 41 34 42 83 43 77 44
REMARK SMILES IDX 76 45 35 47 65 48 46 49 64 50 47 51 50 52 63 53 81 54 48 55
REMARK SMILES IDX 49 56 62 58 82 59 51 60 36 61 37 62 45 63 38 64 44 65 39 66
REMARK SMILES IDX 40 67 41 68 42 69 43 70 66 71 67 72 75 73 68 74 74 75 69 76
REMARK SMILES IDX 70 77 71 78 72 79 73 80 52 81 53 82 61 83 54 84 60 85 55 86
REMARK SMILES IDX 56 87 57 88 58 89 59 90
REMARK H PARENT 17 13 17 14 80 46 50 57
REMARK Flexibility Score: inf
ROOT
ATOM      1  C   UNL     1       2.304   4.689   0.596  1.00  0.00     0.275 C 
ENDROOT
BRANCH   1   2
ATOM      2  C   UNL     1       0.965   4.310   1.233  1.00  0.00     0.274 C 
BRANCH   2   3
ATOM      3  O   UNL     1       0.635   2.920   1.025  1.00  0.00    -0.458 OA
BRANCH   3   4
ATOM      4  C   UNL     1      -0.164   2.647  -0.038  1.00  0.00     0.366 C 
ATOM      5  O   UNL     1      -0.615   3.513  -0.781  1.00  0.00    -0.245 OA
BRANCH   4   6
ATOM      6  C   UNL     1      -0.530   1.155  -0.188  1.00  0.00     0.310 C 
ATOM      7  C   UNL     1       1.200   0.280   1.603  1.00  0.00     0.030 C 
ATOM      8  C   UNL     1       0.473   0.063   0.272  1.00  0.00     0.079 C 
ATOM      9  C   UNL     1       1.474  -0.294  -0.829  1.00  0.00     0.030 C 
ATOM     10  S   UNL     1      -0.610  -1.406   0.534  1.00  0.00    -0.078 SA
ATOM     11  C   UNL     1      -2.159  -0.500   0.255  1.00  0.00     0.311 C 
ATOM     12  N   UNL     1      -1.849   0.915   0.461  1.00  0.00    -0.316 N 
ATOM     13  H   UNL     1      -1.795   1.123   1.458  1.00  0.00     0.348 HD
ATOM     14  H   UNL     1      -2.572   1.514   0.062  1.00  0.00     0.348 HD
BRANCH  11  15
ATOM     15  C   UNL     1      -2.758  -0.882  -1.071  1.00  0.00     0.172 A 
ATOM     16  C   UNL     1      -3.222  -2.104  -1.529  1.00  0.00     0.054 A 
ATOM     17  O   UNL     1      -2.940   0.067  -2.049  1.00  0.00    -0.454 OA
ATOM     18  C   UNL     1      -3.729  -1.893  -2.827  1.00  0.00     0.051 A 
ATOM     19  C   UNL     1      -3.546  -0.556  -3.106  1.00  0.00     0.134 A 
BRANCH  19  20
ATOM     20  C   UNL     1      -3.904   0.252  -4.260  1.00  0.00     0.017 A 
ATOM     21  C   UNL     1      -2.926   0.875  -5.043  1.00  0.00     0.012 A 
ATOM     22  C   UNL     1      -5.246   0.328  -4.664  1.00  0.00     0.012 A 
ATOM     23  C   UNL     1      -3.282   1.549  -6.216  1.00  0.00     0.001 A 
ATOM     24  C   UNL     1      -5.603   1.014  -5.827  1.00  0.00     0.001 A 
ATOM     25  C   UNL     1      -4.619   1.619  -6.606  1.00  0.00     0.000 A 
ENDBRANCH  19  20
ENDBRANCH  11  15
ENDBRANCH   4   6
ENDBRANCH   3   4
ENDBRANCH   2   3
ENDBRANCH   1   2
BRANCH   1  26
ATOM     26  O   UNL     1       2.250   4.584  -0.837  1.00  0.00    -0.458 OA
BRANCH  26  27
ATOM     27  C   UNL     1       2.849   3.490  -1.360  1.00  0.00     0.338 C 
ATOM     28  O   UNL     1       3.467   2.629  -0.759  1.00  0.00    -0.246 OA
BRANCH  27  29
ATOM     29  C   UNL     1       2.563   3.419  -2.800  1.00  0.00     0.060 A 
ATOM     30  C   UNL     1       1.484   2.645  -3.232  1.00  0.00     0.016 A 
ATOM     31  C   UNL     1       3.405   4.037  -3.722  1.00  0.00     0.016 A 
ATOM     32  C   UNL     1       1.243   2.475  -4.591  1.00  0.00     0.010 A 
ATOM     33  C   UNL     1       3.149   3.883  -5.089  1.00  0.00     0.010 A 
ATOM     34  C   UNL     1       2.072   3.094  -5.531  1.00  0.00    -0.014 A 
BRANCH  34  35
ATOM     35  C   UNL     1       1.825   2.890  -6.976  1.00  0.00     0.031 A 
ATOM     36  C   UNL     1       2.758   2.032  -7.781  1.00  0.00     0.074 A 
ATOM     37  C   UNL     1       0.757   3.466  -7.560  1.00  0.00     0.049 A 
ATOM     38  N   UNL     1       2.782   1.828  -9.072  1.00  0.00    -0.248 NA
ATOM     39  C   UNL     1       3.801   1.310  -7.034  1.00  0.00     0.031 C 
ATOM     40  C   UNL     1      -0.252   4.273  -6.871  1.00  0.00     0.029 A 
ATOM     41  N   UNL     1       0.348   3.464  -8.869  1.00  0.00    -0.354 N 
ATOM     42  C   UNL     1       3.859   0.980  -9.300  1.00  0.00     0.074 A 
ATOM     43  C   UNL     1       4.465   0.710  -8.013  1.00  0.00     0.031 C 
ATOM     44  C   UNL     1      -1.163   4.690  -7.766  1.00  0.00     0.029 A 
ATOM     45  C   UNL     1      -0.773   4.226  -9.094  1.00  0.00     0.049 A 
ATOM     46  H   UNL     1       0.813   2.965  -9.579  1.00  0.00     0.167 HD
ATOM     47  C   UNL     1       4.304   0.478 -10.476  1.00  0.00     0.031 A 
ATOM     48  C   UNL     1      -1.396   4.545 -10.245  1.00  0.00     0.031 A 
ATOM     49  C   UNL     1       3.696   0.749 -11.752  1.00  0.00     0.049 A 
ATOM     50  C   UNL     1      -0.846   4.028 -11.544  1.00  0.00     0.074 A 
ATOM     51  C   UNL     1       4.075   0.290 -13.002  1.00  0.00     0.029 A 
ATOM     52  N   UNL     1       2.579   1.549 -11.941  1.00  0.00    -0.354 N 
ATOM     53  N   UNL     1       0.190   3.249 -11.747  1.00  0.00    -0.248 NA
ATOM     54  C   UNL     1      -1.542   4.440 -12.771  1.00  0.00     0.031 C 
ATOM     55  C   UNL     1       3.209   0.845 -13.951  1.00  0.00     0.029 A 
ATOM     56  C   UNL     1       2.265   1.612 -13.287  1.00  0.00     0.049 A 
ATOM     57  H   UNL     1       2.083   2.004 -11.223  1.00  0.00     0.167 HD
ATOM     58  C   UNL     1       0.262   3.066 -13.123  1.00  0.00     0.074 A 
ATOM     59  C   UNL     1      -0.844   3.804 -13.702  1.00  0.00     0.031 C 
ATOM     60  C   UNL     1       1.162   2.353 -13.844  1.00  0.00     0.031 A 
BRANCH  47  61
ATOM     61  C   UNL     1       5.540  -0.378 -10.438  1.00  0.00    -0.014 A 
ATOM     62  C   UNL     1       5.498  -1.700  -9.963  1.00  0.00     0.010 A 
ATOM     63  C   UNL     1       6.758   0.145 -10.909  1.00  0.00     0.010 A 
ATOM     64  C   UNL     1       6.663  -2.473  -9.923  1.00  0.00     0.020 A 
ATOM     65  C   UNL     1       7.920  -0.631 -10.890  1.00  0.00     0.020 A 
ATOM     66  C   UNL     1       7.869  -1.930 -10.380  1.00  0.00     0.054 A 
BRANCH  66  67
ATOM     67  S   UNL     1       9.366  -2.953 -10.328  1.00  0.00     0.124 S 
ATOM     68  O   UNL     1       9.713  -2.904  -8.910  1.00  0.00    -0.237 OA
ATOM     69  O   UNL     1       8.891  -4.247 -10.812  1.00  0.00    -0.237 OA
ATOM     70  O   UNL     1      10.291  -2.260 -11.221  1.00  0.00    -0.744 OA
ENDBRANCH  66  67
ENDBRANCH  47  61
BRANCH  48  71
ATOM     71  C   UNL     1      -2.586   5.435 -10.217  1.00  0.00    -0.014 A 
ATOM     72  C   UNL     1      -3.868   4.923 -10.477  1.00  0.00     0.010 A 
ATOM     73  C   UNL     1      -2.441   6.801  -9.911  1.00  0.00     0.010 A 
ATOM     74  C   UNL     1      -4.985   5.763 -10.440  1.00  0.00     0.020 A 
ATOM     75  C   UNL     1      -3.558   7.638  -9.849  1.00  0.00     0.020 A 
ATOM     76  C   UNL     1      -4.822   7.116 -10.125  1.00  0.00     0.054 A 
BRANCH  76  77
ATOM     77  S   UNL     1      -6.290   8.178 -10.023  1.00  0.00     0.124 S 
ATOM     78  O   UNL     1      -6.570   8.442 -11.430  1.00  0.00    -0.237 OA
ATOM     79  O   UNL     1      -7.255   7.324  -9.335  1.00  0.00    -0.237 OA
ATOM     80  O   UNL     1      -5.824   9.327  -9.249  1.00  0.00    -0.744 OA
ENDBRANCH  76  77
ENDBRANCH  48  71
BRANCH  60  81
ATOM     81  C   UNL     1       0.974   2.314 -15.335  1.00  0.00    -0.014 A 
ATOM     82  C   UNL     1       1.322   3.414 -16.138  1.00  0.00     0.010 A 
ATOM     83  C   UNL     1       0.493   1.141 -15.943  1.00  0.00     0.010 A 
ATOM     84  C   UNL     1       1.168   3.350 -17.525  1.00  0.00     0.020 A 
ATOM     85  C   UNL     1       0.357   1.066 -17.331  1.00  0.00     0.020 A 
ATOM     86  C   UNL     1       0.684   2.177 -18.113  1.00  0.00     0.054 A 
BRANCH  86  87
ATOM     87  S   UNL     1       0.536   2.097 -19.920  1.00  0.00     0.124 S 
ATOM     88  O   UNL     1      -0.689   2.855 -20.157  1.00  0.00    -0.237 OA
ATOM     89  O   UNL     1       1.768   2.736 -20.374  1.00  0.00    -0.237 OA
ATOM     90  O   UNL     1       0.447   0.665 -20.195  1.00  0.00    -0.744 OA
ENDBRANCH  86  87
ENDBRANCH  60  81
ENDBRANCH  34  35
ENDBRANCH  27  29
ENDBRANCH  26  27
ENDBRANCH   1  26
TORSDOF 16
