REMARK SMILES O=C(OCCOC(=O)[C@@H](Cc1cccc(F)c1)[C@H]1CCCCC[C@@H]1O)c1ccc(-c2c3nc(c(-c4ccc(S(=O)(=O)[O-])cc4)c4ccc([nH]4)c(-c4ccc(S(=O)(=O)[O-])cc4)c4nc(c(-c5ccc(S(=O)(=O)[O-])cc5)c5ccc2[nH]5)C=C4)C=C3)cc1
REMARK SMILES IDX 5 1 4 2 3 3 2 4 1 5 26 6 27 7 85 8 28 9 84 10 29 11 30 12
REMARK SMILES IDX 31 13 78 14 32 15 83 16 77 17 79 18 33 19 82 20 76 21 75 22
REMARK SMILES IDX 34 24 64 25 45 26 63 27 46 28 49 29 62 30 80 31 47 32 48 33
REMARK SMILES IDX 61 35 81 36 50 37 35 38 36 39 44 40 37 41 43 42 38 43 39 44
REMARK SMILES IDX 40 45 41 46 42 47 65 48 66 49 74 50 67 51 73 52 68 53 69 54
REMARK SMILES IDX 70 55 71 56 72 57 51 58 52 59 60 60 53 61 59 62 54 63 55 64
REMARK SMILES IDX 56 65 57 66 58 67 6 68 7 69 8 70 9 71 10 72 11 73 12 74
REMARK SMILES IDX 17 75 13 76 15 77 14 78 16 79 18 80 19 81 20 82 21 83 24 85
REMARK SMILES IDX 23 86 22 87 25 89
REMARK H PARENT 79 23 49 34 25 90
REMARK Flexibility Score: 90.00
ROOT
ATOM      1  C   UNL     1       3.672  -0.687   2.213  1.00  0.00     0.274 C 
ENDROOT
BRANCH   1   2
ATOM      2  C   UNL     1       4.416   0.553   1.710  1.00  0.00     0.275 C 
BRANCH   2   3
ATOM      3  O   UNL     1       3.521   1.419   1.030  1.00  0.00    -0.458 OA
BRANCH   3   4
ATOM      4  C   UNL     1       3.022   1.126  -0.178  1.00  0.00     0.338 C 
ATOM      5  O   UNL     1       1.976   1.669  -0.533  1.00  0.00    -0.246 OA
BRANCH   4   6
ATOM      6  C   UNL     1       3.672   0.219  -1.180  1.00  0.00     0.060 A 
ATOM      7  C   UNL     1       4.534  -1.400  -1.020  1.00  0.00     0.016 A 
ATOM      8  C   UNL     1       3.074   0.732  -2.824  1.00  0.00     0.016 A 
ATOM      9  C   UNL     1       4.574  -2.541  -2.481  1.00  0.00     0.010 A 
ATOM     10  C   UNL     1       3.256  -0.317  -4.229  1.00  0.00     0.010 A 
ATOM     11  C   UNL     1       4.028  -1.915  -4.122  1.00  0.00    -0.014 A 
BRANCH  11  12
ATOM     12  C   UNL     1       4.584  -2.503  -5.377  1.00  0.00     0.031 A 
ATOM     13  C   UNL     1       5.530  -1.714  -6.242  1.00  0.00     0.074 A 
ATOM     14  C   UNL     1       4.444  -3.826  -5.525  1.00  0.00     0.049 A 
ATOM     15  N   UNL     1       6.330  -2.173  -7.166  1.00  0.00    -0.248 NA
ATOM     16  C   UNL     1       5.623  -0.253  -6.072  1.00  0.00     0.031 C 
ATOM     17  C   UNL     1       3.479  -4.588  -4.766  1.00  0.00     0.029 A 
ATOM     18  N   UNL     1       5.119  -4.769  -6.245  1.00  0.00    -0.354 N 
ATOM     19  C   UNL     1       6.967  -1.061  -7.700  1.00  0.00     0.074 A 
ATOM     20  C   UNL     1       6.530   0.093  -6.969  1.00  0.00     0.031 C 
ATOM     21  C   UNL     1       3.751  -5.889  -4.889  1.00  0.00     0.029 A 
ATOM     22  C   UNL     1       4.813  -6.059  -5.856  1.00  0.00     0.049 A 
ATOM     23  H   UNL     1       5.756  -4.553  -6.965  1.00  0.00     0.167 HD
ATOM     24  C   UNL     1       7.790  -1.015  -8.767  1.00  0.00     0.031 A 
ATOM     25  C   UNL     1       5.296  -7.250  -6.262  1.00  0.00     0.031 A 
ATOM     26  C   UNL     1       8.132  -2.189  -9.514  1.00  0.00     0.049 A 
ATOM     27  C   UNL     1       6.210  -7.173  -7.443  1.00  0.00     0.074 A 
ATOM     28  C   UNL     1       8.847  -2.282 -10.689  1.00  0.00     0.029 A 
ATOM     29  N   UNL     1       7.744  -3.477  -9.163  1.00  0.00    -0.354 N 
ATOM     30  N   UNL     1       6.766  -6.104  -7.965  1.00  0.00    -0.248 NA
ATOM     31  C   UNL     1       6.456  -8.416  -8.173  1.00  0.00     0.031 C 
ATOM     32  C   UNL     1       8.809  -3.617 -11.099  1.00  0.00     0.029 A 
ATOM     33  C   UNL     1       8.158  -4.369 -10.129  1.00  0.00     0.049 A 
ATOM     34  H   UNL     1       7.248  -3.716  -8.347  1.00  0.00     0.167 HD
ATOM     35  C   UNL     1       7.356  -6.528  -9.139  1.00  0.00     0.074 A 
ATOM     36  C   UNL     1       7.175  -7.970  -9.194  1.00  0.00     0.031 C 
ATOM     37  C   UNL     1       7.937  -5.793 -10.116  1.00  0.00     0.031 A 
BRANCH  24  38
ATOM     38  C   UNL     1       8.184   0.341  -9.280  1.00  0.00    -0.014 A 
ATOM     39  C   UNL     1       9.132   1.154  -8.635  1.00  0.00     0.010 A 
ATOM     40  C   UNL     1       7.566   0.809 -10.455  1.00  0.00     0.010 A 
ATOM     41  C   UNL     1       9.461   2.406  -9.166  1.00  0.00     0.020 A 
ATOM     42  C   UNL     1       7.909   2.046 -11.001  1.00  0.00     0.020 A 
ATOM     43  C   UNL     1       8.857   2.837 -10.354  1.00  0.00     0.054 A 
BRANCH  43  44
ATOM     44  S   UNL     1       9.367   4.423 -11.071  1.00  0.00     0.124 S 
ATOM     45  O   UNL     1       8.836   5.381 -10.104  1.00  0.00    -0.237 OA
ATOM     46  O   UNL     1      10.823   4.302 -11.101  1.00  0.00    -0.237 OA
ATOM     47  O   UNL     1       8.719   4.438 -12.380  1.00  0.00    -0.744 OA
ENDBRANCH  43  44
ENDBRANCH  24  38
BRANCH  25  48
ATOM     48  C   UNL     1       4.775  -8.542  -5.711  1.00  0.00    -0.014 A 
ATOM     49  C   UNL     1       5.621  -9.545  -5.203  1.00  0.00     0.010 A 
ATOM     50  C   UNL     1       3.385  -8.775  -5.676  1.00  0.00     0.010 A 
ATOM     51  C   UNL     1       5.085 -10.729  -4.666  1.00  0.00     0.020 A 
ATOM     52  C   UNL     1       2.843  -9.910  -5.075  1.00  0.00     0.020 A 
ATOM     53  C   UNL     1       3.698 -10.895  -4.593  1.00  0.00     0.054 A 
BRANCH  53  54
ATOM     54  S   UNL     1       3.001 -12.400  -3.859  1.00  0.00     0.124 S 
ATOM     55  O   UNL     1       3.220 -13.380  -4.918  1.00  0.00    -0.237 OA
ATOM     56  O   UNL     1       3.810 -12.572  -2.655  1.00  0.00    -0.237 OA
ATOM     57  O   UNL     1       1.605 -12.043  -3.614  1.00  0.00    -0.744 OA
ENDBRANCH  53  54
ENDBRANCH  25  48
BRANCH  37  58
ATOM     58  C   UNL     1       8.420  -6.558 -11.303  1.00  0.00    -0.014 A 
ATOM     59  C   UNL     1       7.516  -7.067 -12.249  1.00  0.00     0.010 A 
ATOM     60  C   UNL     1       9.803  -6.706 -11.492  1.00  0.00     0.010 A 
ATOM     61  C   UNL     1       7.995  -7.744 -13.367  1.00  0.00     0.020 A 
ATOM     62  C   UNL     1      10.284  -7.349 -12.626  1.00  0.00     0.020 A 
ATOM     63  C   UNL     1       9.377  -7.873 -13.550  1.00  0.00     0.054 A 
BRANCH  63  64
ATOM     64  S   UNL     1       9.977  -8.699 -15.042  1.00  0.00     0.124 S 
ATOM     65  O   UNL     1       9.609 -10.089 -14.785  1.00  0.00    -0.237 OA
ATOM     66  O   UNL     1       9.222  -8.031 -16.099  1.00  0.00    -0.237 OA
ATOM     67  O   UNL     1      11.412  -8.424 -15.037  1.00  0.00    -0.744 OA
ENDBRANCH  63  64
ENDBRANCH  37  58
ENDBRANCH  11  12
ENDBRANCH   4   6
ENDBRANCH   3   4
ENDBRANCH   2   3
ENDBRANCH   1   2
BRANCH   1  68
ATOM     68  O   UNL     1       3.320  -1.515   1.089  1.00  0.00    -0.462 OA
BRANCH  68  69
ATOM     69  C   UNL     1       2.119  -1.688   0.481  1.00  0.00     0.309 C 
ATOM     70  O   UNL     1       1.050  -1.348   0.959  1.00  0.00    -0.252 OA
BRANCH  69  71
ATOM     71  C   UNL     1       2.332  -2.426  -0.899  1.00  0.00     0.109 C 
BRANCH  71  72
ATOM     72  C   UNL     1       3.021  -1.336  -2.326  1.00  0.00     0.051 C 
BRANCH  72  73
ATOM     73  C   UNL     1       4.942  -0.485  -2.795  1.00  0.00    -0.044 A 
ATOM     74  C   UNL     1       5.525   0.898  -2.606  1.00  0.00     0.004 A 
ATOM     75  C   UNL     1       6.295  -1.267  -3.154  1.00  0.00     0.043 A 
ATOM     76  C   UNL     1       6.923   1.282  -2.617  1.00  0.00     0.003 A 
ATOM     77  C   UNL     1       7.642  -0.885  -3.122  1.00  0.00     0.123 A 
ATOM     78  C   UNL     1       7.969   0.395  -2.824  1.00  0.00     0.039 A 
ATOM     79  F   UNL     1       8.591  -1.806  -3.344  1.00  0.00    -0.207 F 
ENDBRANCH  72  73
ENDBRANCH  71  72
BRANCH  71  80
ATOM     80  C   UNL     1       2.885  -3.938  -0.627  1.00  0.00     0.032 C 
BRANCH  80  81
ATOM     81  C   UNL     1       3.219  -4.419   0.795  1.00  0.00     0.007 C 
BRANCH  81  82
ATOM     82  C   UNL     1       2.162  -5.222   1.515  1.00  0.00     0.000 C 
BRANCH  82  83
ATOM     83  C   UNL     1       2.430  -6.718   1.375  1.00  0.00     0.000 CG0
ATOM     84  G   UNL     1       2.600  -7.204  -0.059  1.00  0.00     0.000 G0
ENDBRANCH  82  83
ENDBRANCH  81  82
ENDBRANCH  80  81
BRANCH  80  85
ATOM     85  C   UNL     1       2.464  -5.101  -1.574  1.00  0.00     0.118 C 
BRANCH  85  86
ATOM     86  C   UNL     1       1.787  -6.402  -1.081  1.00  0.00     0.032 C 
BRANCH  86  87
ATOM     87  C   UNL     1       2.600  -7.204  -0.059  1.00  0.00     0.003 CG0
ATOM     88  G   UNL     1       2.430  -6.718   1.375  1.00  0.00     0.000 G0
ENDBRANCH  86  87
ENDBRANCH  85  86
BRANCH  85  89
ATOM     89  O   UNL     1       3.736  -5.524  -2.100  1.00  0.00    -0.393 OA
ATOM     90  H   UNL     1       4.284  -5.873  -1.379  1.00  0.00     0.210 HD
ENDBRANCH  85  89
ENDBRANCH  80  85
ENDBRANCH  71  80
ENDBRANCH  69  71
ENDBRANCH  68  69
ENDBRANCH   1  68
TORSDOF 18
