REMARK SMILES C[C@@H](NC(=O)C[C@H]1CCCCO1)C(=O)OCCOC(=O)c1ccc(-c2c3nc(c(-c4ccc(S(=O)(=O)[O-])cc4)c4ccc([nH]4)c(-c4ccc(S(=O)(=O)[O-])cc4)c4nc(c(-c5ccc(S(=O)(=O)[O-])cc5)c5ccc2[nH]5)C=C4)C=C3)cc1
REMARK SMILES IDX 16 1 15 2 13 3 14 4 2 5 1 6 3 7 4 8 5 10 6 11 7 12 8 13
REMARK SMILES IDX 12 14 9 15 11 16 10 17 17 18 18 19 19 20 20 21 21 22 22 23
REMARK SMILES IDX 80 24 23 25 79 26 24 27 25 28 26 29 73 30 27 31 78 32 72 33
REMARK SMILES IDX 74 34 28 35 77 36 71 37 70 38 29 40 59 41 40 42 58 43 41 44
REMARK SMILES IDX 44 45 57 46 75 47 42 48 43 49 56 51 76 52 45 53 30 54 31 55
REMARK SMILES IDX 39 56 32 57 38 58 33 59 34 60 35 61 36 62 37 63 60 64 61 65
REMARK SMILES IDX 69 66 62 67 68 68 63 69 64 70 65 71 66 72 67 73 46 74 47 75
REMARK SMILES IDX 55 76 48 77 54 78 49 79 50 80 51 81 52 82 53 83
REMARK H PARENT 3 9 74 39 44 50
REMARK Flexibility Score: inf
ROOT
ATOM      1  C   UNL     1      -0.441   1.642  -3.383  1.00  0.00     0.274 C 
ENDROOT
BRANCH   1   2
ATOM      2  O   UNL     1      -1.849   1.605  -3.048  1.00  0.00    -0.461 OA
BRANCH   2   3
ATOM      3  C   UNL     1      -2.195   1.869  -1.757  1.00  0.00     0.328 C 
ATOM      4  O   UNL     1      -1.397   2.203  -0.888  1.00  0.00    -0.250 OA
BRANCH   3   5
ATOM      5  C   UNL     1      -3.691   1.625  -1.480  1.00  0.00     0.189 C 
ATOM      6  C   UNL     1      -4.578   1.304  -2.680  1.00  0.00     0.043 C 
BRANCH   5   7
ATOM      7  N   UNL     1      -4.000   0.753  -0.336  1.00  0.00    -0.343 N 
ATOM      8  C   UNL     1      -3.564  -0.477   0.039  1.00  0.00     0.223 C 
ATOM      9  H   UNL     1      -4.659   1.141   0.285  1.00  0.00     0.164 HD
ATOM     10  O   UNL     1      -4.280  -1.109   0.823  1.00  0.00    -0.275 OA
BRANCH   8  11
ATOM     11  C   UNL     1      -2.189  -1.007  -0.313  1.00  0.00     0.132 C 
BRANCH  11  12
ATOM     12  C   UNL     1      -1.924  -1.370  -1.765  1.00  0.00     0.127 C 
ATOM     13  C   UNL     1      -0.906  -2.502  -1.927  1.00  0.00     0.033 C 
ATOM     14  O   UNL     1      -3.119  -1.712  -2.459  1.00  0.00    -0.378 OA
ATOM     15  C   UNL     1      -0.628  -2.740  -3.413  1.00  0.00     0.005 C 
ATOM     16  C   UNL     1      -2.908  -1.787  -3.871  1.00  0.00     0.160 C 
ATOM     17  C   UNL     1      -1.926  -2.900  -4.200  1.00  0.00     0.029 C 
ENDBRANCH  11  12
ENDBRANCH   8  11
ENDBRANCH   5   7
ENDBRANCH   3   5
ENDBRANCH   2   3
ENDBRANCH   1   2
BRANCH   1  18
ATOM     18  C   UNL     1      -0.210   2.433  -4.668  1.00  0.00     0.275 C 
BRANCH  18  19
ATOM     19  O   UNL     1      -0.515   3.810  -4.426  1.00  0.00    -0.458 OA
BRANCH  19  20
ATOM     20  C   UNL     1      -1.834   4.094  -4.534  1.00  0.00     0.338 C 
ATOM     21  O   UNL     1      -2.702   3.407  -5.041  1.00  0.00    -0.246 OA
BRANCH  20  22
ATOM     22  C   UNL     1      -2.115   5.283  -3.720  1.00  0.00     0.060 A 
ATOM     23  C   UNL     1      -3.226   5.232  -2.871  1.00  0.00     0.016 A 
ATOM     24  C   UNL     1      -1.335   6.435  -3.828  1.00  0.00     0.016 A 
ATOM     25  C   UNL     1      -3.610   6.365  -2.172  1.00  0.00     0.010 A 
ATOM     26  C   UNL     1      -1.728   7.577  -3.139  1.00  0.00     0.010 A 
ATOM     27  C   UNL     1      -2.896   7.553  -2.358  1.00  0.00    -0.014 A 
BRANCH  27  28
ATOM     28  C   UNL     1      -3.523   8.824  -1.954  1.00  0.00     0.031 A 
ATOM     29  C   UNL     1      -4.251   9.605  -3.012  1.00  0.00     0.074 A 
ATOM     30  C   UNL     1      -3.467   9.236  -0.679  1.00  0.00     0.049 A 
ATOM     31  N   UNL     1      -4.823  10.775  -2.931  1.00  0.00    -0.248 NA
ATOM     32  C   UNL     1      -4.338   8.983  -4.346  1.00  0.00     0.031 C 
ATOM     33  C   UNL     1      -2.842   8.503   0.422  1.00  0.00     0.029 A 
ATOM     34  N   UNL     1      -3.949  10.377  -0.099  1.00  0.00    -0.354 N 
ATOM     35  C   UNL     1      -5.307  11.043  -4.207  1.00  0.00     0.074 A 
ATOM     36  C   UNL     1      -4.950   9.924  -5.048  1.00  0.00     0.031 C 
ATOM     37  C   UNL     1      -2.979   9.218   1.552  1.00  0.00     0.029 A 
ATOM     38  C   UNL     1      -3.664  10.470   1.241  1.00  0.00     0.049 A 
ATOM     39  H   UNL     1      -4.452  11.064  -0.593  1.00  0.00     0.167 HD
ATOM     40  C   UNL     1      -5.985  12.133  -4.636  1.00  0.00     0.031 A 
ATOM     41  C   UNL     1      -3.916  11.471   2.105  1.00  0.00     0.031 A 
ATOM     42  C   UNL     1      -6.326  13.233  -3.777  1.00  0.00     0.049 A 
ATOM     43  C   UNL     1      -4.638  12.690   1.596  1.00  0.00     0.074 A 
ATOM     44  C   UNL     1      -7.013  14.392  -4.087  1.00  0.00     0.029 A 
ATOM     45  N   UNL     1      -6.003  13.303  -2.428  1.00  0.00    -0.354 N 
ATOM     46  N   UNL     1      -5.078  12.943   0.384  1.00  0.00    -0.248 NA
ATOM     47  C   UNL     1      -4.907  13.752   2.572  1.00  0.00     0.031 C 
ATOM     48  C   UNL     1      -7.064  15.184  -2.935  1.00  0.00     0.029 A 
ATOM     49  C   UNL     1      -6.465  14.491  -1.893  1.00  0.00     0.049 A 
ATOM     50  H   UNL     1      -5.517  12.609  -1.927  1.00  0.00     0.167 HD
ATOM     51  C   UNL     1      -5.711  14.178   0.461  1.00  0.00     0.074 A 
ATOM     52  C   UNL     1      -5.599  14.615   1.840  1.00  0.00     0.031 C 
ATOM     53  C   UNL     1      -6.336  14.888  -0.513  1.00  0.00     0.031 A 
BRANCH  40  54
ATOM     54  C   UNL     1      -6.338  12.200  -6.098  1.00  0.00    -0.014 A 
ATOM     55  C   UNL     1      -7.306  11.351  -6.665  1.00  0.00     0.010 A 
ATOM     56  C   UNL     1      -5.682  13.131  -6.924  1.00  0.00     0.010 A 
ATOM     57  C   UNL     1      -7.577  11.399  -8.036  1.00  0.00     0.020 A 
ATOM     58  C   UNL     1      -5.970  13.203  -8.290  1.00  0.00     0.020 A 
ATOM     59  C   UNL     1      -6.902  12.322  -8.841  1.00  0.00     0.054 A 
BRANCH  59  60
ATOM     60  S   UNL     1      -7.274  12.371 -10.616  1.00  0.00     0.124 S 
ATOM     61  O   UNL     1      -6.616  11.159 -11.095  1.00  0.00    -0.237 OA
ATOM     62  O   UNL     1      -8.735  12.343 -10.639  1.00  0.00    -0.237 OA
ATOM     63  O   UNL     1      -6.672  13.625 -11.062  1.00  0.00    -0.744 OA
ENDBRANCH  59  60
ENDBRANCH  40  54
BRANCH  41  64
ATOM     64  C   UNL     1      -3.489  11.353   3.525  1.00  0.00    -0.014 A 
ATOM     65  C   UNL     1      -4.441  11.198   4.547  1.00  0.00     0.010 A 
ATOM     66  C   UNL     1      -2.123  11.371   3.861  1.00  0.00     0.010 A 
ATOM     67  C   UNL     1      -4.037  11.080   5.881  1.00  0.00     0.020 A 
ATOM     68  C   UNL     1      -1.713  11.226   5.190  1.00  0.00     0.020 A 
ATOM     69  C   UNL     1      -2.675  11.092   6.193  1.00  0.00     0.054 A 
BRANCH  69  70
ATOM     70  S   UNL     1      -2.172  10.884   7.924  1.00  0.00     0.124 S 
ATOM     71  O   UNL     1      -2.529  12.176   8.501  1.00  0.00    -0.237 OA
ATOM     72  O   UNL     1      -2.986   9.751   8.355  1.00  0.00    -0.237 OA
ATOM     73  O   UNL     1      -0.739  10.613   7.834  1.00  0.00    -0.744 OA
ENDBRANCH  69  70
ENDBRANCH  41  64
BRANCH  53  74
ATOM     74  C   UNL     1      -6.996  16.174  -0.101  1.00  0.00    -0.014 A 
ATOM     75  C   UNL     1      -6.243  17.315   0.227  1.00  0.00     0.010 A 
ATOM     76  C   UNL     1      -8.401  16.245  -0.078  1.00  0.00     0.010 A 
ATOM     77  C   UNL     1      -6.886  18.491   0.619  1.00  0.00     0.020 A 
ATOM     78  C   UNL     1      -9.047  17.427   0.283  1.00  0.00     0.020 A 
ATOM     79  C   UNL     1      -8.284  18.538   0.650  1.00  0.00     0.054 A 
BRANCH  79  80
ATOM     80  S   UNL     1      -9.098  20.080   1.145  1.00  0.00     0.124 S 
ATOM     81  O   UNL     1      -8.903  20.072   2.592  1.00  0.00    -0.237 OA
ATOM     82  O   UNL     1      -8.341  21.093   0.414  1.00  0.00    -0.237 OA
ATOM     83  O   UNL     1     -10.478  19.901   0.700  1.00  0.00    -0.744 OA
ENDBRANCH  79  80
ENDBRANCH  53  74
ENDBRANCH  27  28
ENDBRANCH  20  22
ENDBRANCH  19  20
ENDBRANCH  18  19
ENDBRANCH   1  18
TORSDOF 17
