REMARK SMILES CCC[C@@](C)(NC(=O)N1CCN(C)C(=O)C1(C)C)C(=O)OCCOC(=O)c1ccc(-c2c3nc(c(-c4ccc(S(=O)(=O)[O-])cc4)c4ccc([nH]4)c(-c4ccc(S(=O)(=O)[O-])cc4)c4nc(c(-c5ccc(S(=O)(=O)[O-])cc5)c5ccc2[nH]5)C=C4)C=C3)cc1
REMARK SMILES IDX 23 1 22 2 21 3 19 4 20 5 4 6 5 7 3 8 2 9 1 10 6 11 7 12 8 14
REMARK SMILES IDX 9 15 10 16 16 17 11 18 14 19 17 20 18 21 12 22 15 23 13 24
REMARK SMILES IDX 24 25 25 26 26 27 27 28 28 29 86 30 29 31 85 32 30 33 31 34
REMARK SMILES IDX 32 35 79 36 33 37 84 38 78 39 80 40 34 41 83 42 77 43 76 44
REMARK SMILES IDX 35 46 65 47 46 48 64 49 47 50 50 51 63 52 81 53 48 54 49 55
REMARK SMILES IDX 62 57 82 58 51 59 36 60 37 61 45 62 38 63 44 64 39 65 40 66
REMARK SMILES IDX 41 67 42 68 43 69 66 70 67 71 75 72 68 73 74 74 69 75 70 76
REMARK SMILES IDX 71 77 72 78 73 79 52 80 53 81 61 82 54 83 60 84 55 85 56 86
REMARK SMILES IDX 57 87 58 88 59 89
REMARK H PARENT 6 13 80 45 50 56
REMARK Flexibility Score: inf
ROOT
ATOM      1  C   UNL     1       2.329   0.007   4.639  1.00  0.00     0.275 C 
ENDROOT
BRANCH   1   2
ATOM      2  C   UNL     1       0.713   0.484   4.033  1.00  0.00     0.274 C 
BRANCH   2   3
ATOM      3  O   UNL     1      -0.001  -0.457   3.034  1.00  0.00    -0.460 OA
BRANCH   3   4
ATOM      4  C   UNL     1      -0.273  -0.538   1.665  1.00  0.00     0.331 C 
ATOM      5  O   UNL     1      -0.725   0.427   1.062  1.00  0.00    -0.249 OA
BRANCH   4   6
ATOM      6  C   UNL     1      -0.183  -2.158   0.990  1.00  0.00     0.136 C 
ATOM      7  C   UNL     1      -1.611  -2.812   1.159  1.00  0.00     0.047 C 
BRANCH   6   8
ATOM      8  C   UNL     1      -0.073  -2.105  -0.601  1.00  0.00     0.040 C 
BRANCH   8   9
ATOM      9  C   UNL     1      -1.100  -1.374  -1.476  1.00  0.00    -0.000 C 
ATOM     10  C   UNL     1      -0.653   0.021  -1.893  1.00  0.00     0.004 C 
ENDBRANCH   8   9
ENDBRANCH   6   8
BRANCH   6  11
ATOM     11  N   UNL     1       0.955  -3.365   1.359  1.00  0.00    -0.322 N 
ATOM     12  C   UNL     1       1.911  -3.947   2.213  1.00  0.00     0.319 C 
ATOM     13  H   UNL     1       0.934  -3.962   0.577  1.00  0.00     0.166 HD
ATOM     14  O   UNL     1       2.360  -5.043   1.879  1.00  0.00    -0.249 OA
BRANCH  12  15
ATOM     15  N   UNL     1       2.366  -3.275   3.340  1.00  0.00    -0.309 N 
ATOM     16  C   UNL     1       4.030  -3.225   4.174  1.00  0.00     0.144 C 
ATOM     17  C   UNL     1       1.485  -2.062   3.593  1.00  0.00     0.118 C 
ATOM     18  C   UNL     1       5.061  -1.519   4.023  1.00  0.00     0.140 C 
ATOM     19  C   UNL     1       2.391  -0.486   2.580  1.00  0.00     0.247 C 
ATOM     20  C   UNL     1      -0.048  -2.644   3.786  1.00  0.00     0.045 C 
ATOM     21  C   UNL     1       1.556  -2.244   5.353  1.00  0.00     0.045 C 
ATOM     22  N   UNL     1       4.138  -0.122   3.097  1.00  0.00    -0.342 N 
ATOM     23  O   UNL     1       1.961   0.359   1.777  1.00  0.00    -0.272 OA
ATOM     24  C   UNL     1       4.703   1.217   2.981  1.00  0.00     0.146 C 
ENDBRANCH  12  15
ENDBRANCH   6  11
ENDBRANCH   4   6
ENDBRANCH   3   4
ENDBRANCH   2   3
ENDBRANCH   1   2
BRANCH   1  25
ATOM     25  O   UNL     1       3.208  -1.449   3.859  1.00  0.00    -0.458 OA
BRANCH  25  26
ATOM     26  C   UNL     1       3.872  -1.965   2.193  1.00  0.00     0.338 C 
ATOM     27  O   UNL     1       4.552  -3.007   2.036  1.00  0.00    -0.246 OA
BRANCH  26  28
ATOM     28  C   UNL     1       4.103  -1.224   0.815  1.00  0.00     0.060 A 
ATOM     29  C   UNL     1       3.297  -1.572  -0.260  1.00  0.00     0.016 A 
ATOM     30  C   UNL     1       5.318  -0.604   0.468  1.00  0.00     0.016 A 
ATOM     31  C   UNL     1       3.562  -1.183  -1.589  1.00  0.00     0.010 A 
ATOM     32  C   UNL     1       5.607  -0.197  -0.859  1.00  0.00     0.010 A 
ATOM     33  C   UNL     1       4.731  -0.491  -1.913  1.00  0.00    -0.014 A 
BRANCH  33  34
ATOM     34  C   UNL     1       5.102  -0.262  -3.348  1.00  0.00     0.031 A 
ATOM     35  C   UNL     1       6.187  -1.097  -3.994  1.00  0.00     0.074 A 
ATOM     36  C   UNL     1       4.448   0.627  -4.125  1.00  0.00     0.049 A 
ATOM     37  N   UNL     1       6.687  -1.019  -5.205  1.00  0.00    -0.248 NA
ATOM     38  C   UNL     1       6.774  -2.167  -3.173  1.00  0.00     0.031 C 
ATOM     39  C   UNL     1       3.321   1.457  -3.704  1.00  0.00     0.029 A 
ATOM     40  N   UNL     1       4.641   0.975  -5.446  1.00  0.00    -0.354 N 
ATOM     41  C   UNL     1       7.654  -2.016  -5.287  1.00  0.00     0.074 A 
ATOM     42  C   UNL     1       7.680  -2.676  -3.997  1.00  0.00     0.031 C 
ATOM     43  C   UNL     1       2.920   2.210  -4.744  1.00  0.00     0.029 A 
ATOM     44  C   UNL     1       3.786   1.955  -5.896  1.00  0.00     0.049 A 
ATOM     45  H   UNL     1       5.327   0.559  -6.016  1.00  0.00     0.167 HD
ATOM     46  C   UNL     1       8.450  -2.362  -6.330  1.00  0.00     0.031 A 
ATOM     47  C   UNL     1       3.715   2.599  -7.082  1.00  0.00     0.031 A 
ATOM     48  C   UNL     1       8.448  -1.732  -7.626  1.00  0.00     0.049 A 
ATOM     49  C   UNL     1       4.680   2.273  -8.195  1.00  0.00     0.074 A 
ATOM     50  C   UNL     1       9.245  -2.022  -8.722  1.00  0.00     0.029 A 
ATOM     51  N   UNL     1       7.617  -0.693  -8.006  1.00  0.00    -0.354 N 
ATOM     52  N   UNL     1       5.613   1.354  -8.236  1.00  0.00    -0.248 NA
ATOM     53  C   UNL     1       4.587   3.085  -9.421  1.00  0.00     0.031 C 
ATOM     54  C   UNL     1       8.927  -1.129  -9.751  1.00  0.00     0.029 A 
ATOM     55  C   UNL     1       7.900  -0.313  -9.310  1.00  0.00     0.049 A 
ATOM     56  H   UNL     1       6.927  -0.283  -7.436  1.00  0.00     0.167 HD
ATOM     57  C   UNL     1       6.204   1.467  -9.493  1.00  0.00     0.074 A 
ATOM     58  C   UNL     1       5.518   2.533 -10.190  1.00  0.00     0.031 C 
ATOM     59  C   UNL     1       7.227   0.747 -10.015  1.00  0.00     0.031 A 
BRANCH  46  60
ATOM     60  C   UNL     1       9.444  -3.468  -6.099  1.00  0.00    -0.014 A 
ATOM     61  C   UNL     1       9.046  -4.816  -6.082  1.00  0.00     0.010 A 
ATOM     62  C   UNL     1      10.806  -3.151  -5.944  1.00  0.00     0.010 A 
ATOM     63  C   UNL     1       9.988  -5.827  -5.872  1.00  0.00     0.020 A 
ATOM     64  C   UNL     1      11.754  -4.160  -5.754  1.00  0.00     0.020 A 
ATOM     65  C   UNL     1      11.335  -5.491  -5.700  1.00  0.00     0.054 A 
BRANCH  65  66
ATOM     66  S   UNL     1      12.542  -6.818  -5.429  1.00  0.00     0.124 S 
ATOM     67  O   UNL     1      12.294  -7.168  -4.032  1.00  0.00    -0.237 OA
ATOM     68  O   UNL     1      12.143  -7.825  -6.408  1.00  0.00    -0.237 OA
ATOM     69  O   UNL     1      13.828  -6.176  -5.690  1.00  0.00    -0.744 OA
ENDBRANCH  65  66
ENDBRANCH  46  60
BRANCH  47  70
ATOM     70  C   UNL     1       2.705   3.679  -7.278  1.00  0.00    -0.014 A 
ATOM     71  C   UNL     1       1.618   3.499  -8.151  1.00  0.00     0.010 A 
ATOM     72  C   UNL     1       2.847   4.906  -6.605  1.00  0.00     0.010 A 
ATOM     73  C   UNL     1       0.694   4.530  -8.351  1.00  0.00     0.020 A 
ATOM     74  C   UNL     1       1.912   5.929  -6.783  1.00  0.00     0.020 A 
ATOM     75  C   UNL     1       0.846   5.738  -7.664  1.00  0.00     0.054 A 
BRANCH  75  76
ATOM     76  S   UNL     1      -0.396   7.044  -7.886  1.00  0.00     0.124 S 
ATOM     77  O   UNL     1      -0.005   7.620  -9.168  1.00  0.00    -0.237 OA
ATOM     78  O   UNL     1      -1.651   6.296  -7.884  1.00  0.00    -0.237 OA
ATOM     79  O   UNL     1      -0.193   7.906  -6.723  1.00  0.00    -0.744 OA
ENDBRANCH  75  76
ENDBRANCH  47  70
BRANCH  59  80
ATOM     80  C   UNL     1       7.671   1.061 -11.421  1.00  0.00    -0.014 A 
ATOM     81  C   UNL     1       8.444   2.203 -11.700  1.00  0.00     0.010 A 
ATOM     82  C   UNL     1       7.370   0.170 -12.469  1.00  0.00     0.010 A 
ATOM     83  C   UNL     1       8.892   2.457 -13.002  1.00  0.00     0.020 A 
ATOM     84  C   UNL     1       7.831   0.411 -13.768  1.00  0.00     0.020 A 
ATOM     85  C   UNL     1       8.581   1.560 -14.029  1.00  0.00     0.054 A 
BRANCH  85  86
ATOM     86  S   UNL     1       9.219   1.879 -15.699  1.00  0.00     0.124 S 
ATOM     87  O   UNL     1       8.320   2.927 -16.174  1.00  0.00    -0.237 OA
ATOM     88  O   UNL     1      10.595   2.300 -15.446  1.00  0.00    -0.237 OA
ATOM     89  O   UNL     1       9.085   0.590 -16.373  1.00  0.00    -0.744 OA
ENDBRANCH  85  86
ENDBRANCH  59  80
ENDBRANCH  33  34
ENDBRANCH  26  28
ENDBRANCH  25  26
ENDBRANCH   1  25
TORSDOF 18
