REMARK SMILES CC[C@H](C)N1C(=O)c2ccccc2[C@@H](C(=O)OCCOC(=O)c2ccc(-c3c4nc(c(-c5ccc(S(=O)(=O)[O-])cc5)c5ccc([nH]5)c(-c5ccc(S(=O)(=O)[O-])cc5)c5nc(c(-c6ccc(S(=O)(=O)[O-])cc6)c6ccc3[nH]6)C=C5)C=C4)cc2)C12CCCCC2
REMARK SMILES IDX 19 1 18 2 17 3 15 4 16 5 14 6 5 7 6 8 83 9 7 10 8 11 84 12
REMARK SMILES IDX 88 13 9 14 13 15 85 16 87 17 10 18 12 19 86 20 11 21 3 22
REMARK SMILES IDX 4 23 2 24 1 25 20 26 21 27 22 28 23 29 24 30 82 31 25 32
REMARK SMILES IDX 81 33 26 34 27 35 28 36 75 37 29 38 80 39 74 40 76 41 30 42
REMARK SMILES IDX 79 43 73 44 72 45 31 47 61 48 42 49 60 50 43 51 46 52 59 53
REMARK SMILES IDX 77 54 44 55 45 56 58 58 78 59 47 60 32 61 33 62 41 63 34 64
REMARK SMILES IDX 40 65 35 66 36 67 37 68 38 69 39 70 62 71 63 72 71 73 64 74
REMARK SMILES IDX 70 75 65 76 66 77 67 78 68 79 69 80 48 81 49 82 57 83 50 84
REMARK SMILES IDX 56 85 51 86 52 87 53 88 54 89 55 90
REMARK H PARENT 76 46 46 57
REMARK Flexibility Score: inf
ROOT
ATOM      1  C   UNL     1       1.766   5.715   7.199  1.00  0.00     0.275 C 
ENDROOT
BRANCH   1   2
ATOM      2  C   UNL     1       0.841   6.494   6.253  1.00  0.00     0.274 C 
BRANCH   2   3
ATOM      3  O   UNL     1       0.579   5.815   5.003  1.00  0.00    -0.462 OA
BRANCH   3   4
ATOM      4  C   UNL     1       1.486   6.024   4.022  1.00  0.00     0.315 C 
ATOM      5  O   UNL     1       2.480   6.731   4.172  1.00  0.00    -0.251 OA
BRANCH   4   6
ATOM      6  C   UNL     1       1.104   5.466   2.642  1.00  0.00     0.156 C 
ATOM      7  N   UNL     1       0.144   3.783   1.076  1.00  0.00    -0.329 N 
ATOM      8  C   UNL     1      -0.857   4.652   0.608  1.00  0.00     0.254 C 
ATOM      9  C   UNL     1       0.595   3.963   2.525  1.00  0.00     0.061 C 
ATOM     10  O   UNL     1      -1.756   4.321  -0.158  1.00  0.00    -0.269 OA
ATOM     11  C   UNL     1      -0.703   6.084   0.976  1.00  0.00     0.044 A 
ATOM     12  C   UNL     1      -0.656   3.647   3.401  1.00  0.00     0.030 C 
ATOM     13  C   UNL     1       1.797   3.055   2.934  1.00  0.00     0.030 C 
ATOM     14  C   UNL     1      -1.439   7.043   0.261  1.00  0.00     0.014 A 
ATOM     15  C   UNL     1       0.278   6.491   1.882  1.00  0.00    -0.019 A 
ATOM     16  C   UNL     1      -0.389   2.967   4.738  1.00  0.00     0.002 C 
ATOM     17  C   UNL     1       1.542   1.713   3.622  1.00  0.00     0.002 C 
ATOM     18  C   UNL     1      -1.168   8.404   0.409  1.00  0.00     0.001 A 
ATOM     19  C   UNL     1       0.565   7.870   1.986  1.00  0.00     0.005 A 
ATOM     20  C   UNL     1       0.365   1.660   4.588  1.00  0.00     0.000 C 
ATOM     21  C   UNL     1      -0.152   8.816   1.260  1.00  0.00     0.000 A 
BRANCH   7  22
ATOM     22  C   UNL     1       0.486   2.596   0.241  1.00  0.00     0.082 C 
ATOM     23  C   UNL     1      -0.403   1.394   0.553  1.00  0.00     0.031 C 
BRANCH  22  24
ATOM     24  C   UNL     1       0.453   2.921  -1.282  1.00  0.00     0.021 C 
ATOM     25  C   UNL     1       1.343   2.020  -2.129  1.00  0.00     0.006 C 
ENDBRANCH  22  24
ENDBRANCH   7  22
ENDBRANCH   4   6
ENDBRANCH   3   4
ENDBRANCH   2   3
ENDBRANCH   1   2
BRANCH   1  26
ATOM     26  O   UNL     1       3.109   5.625   6.687  1.00  0.00    -0.458 OA
BRANCH  26  27
ATOM     27  C   UNL     1       3.434   4.442   6.123  1.00  0.00     0.338 C 
ATOM     28  O   UNL     1       2.737   3.436   6.077  1.00  0.00    -0.246 OA
BRANCH  27  29
ATOM     29  C   UNL     1       4.750   4.521   5.474  1.00  0.00     0.060 A 
ATOM     30  C   UNL     1       5.899   4.224   6.203  1.00  0.00     0.016 A 
ATOM     31  C   UNL     1       4.835   4.787   4.103  1.00  0.00     0.016 A 
ATOM     32  C   UNL     1       7.137   4.247   5.558  1.00  0.00     0.010 A 
ATOM     33  C   UNL     1       6.060   4.777   3.453  1.00  0.00     0.010 A 
ATOM     34  C   UNL     1       7.222   4.543   4.186  1.00  0.00    -0.014 A 
BRANCH  34  35
ATOM     35  C   UNL     1       8.531   4.669   3.520  1.00  0.00     0.031 A 
ATOM     36  C   UNL     1       9.063   6.035   3.202  1.00  0.00     0.074 A 
ATOM     37  C   UNL     1       9.218   3.562   3.190  1.00  0.00     0.049 A 
ATOM     38  N   UNL     1      10.253   6.369   2.779  1.00  0.00    -0.248 NA
ATOM     39  C   UNL     1       8.141   7.173   3.368  1.00  0.00     0.031 C 
ATOM     40  C   UNL     1       8.741   2.190   3.373  1.00  0.00     0.029 A 
ATOM     41  N   UNL     1      10.466   3.416   2.645  1.00  0.00    -0.354 N 
ATOM     42  C   UNL     1      10.232   7.753   2.660  1.00  0.00     0.074 A 
ATOM     43  C   UNL     1       8.894   8.192   2.980  1.00  0.00     0.031 C 
ATOM     44  C   UNL     1       9.704   1.339   2.982  1.00  0.00     0.029 A 
ATOM     45  C   UNL     1      10.863   2.106   2.529  1.00  0.00     0.049 A 
ATOM     46  H   UNL     1      11.025   4.177   2.364  1.00  0.00     0.167 HD
ATOM     47  C   UNL     1      11.255   8.581   2.352  1.00  0.00     0.031 A 
ATOM     48  C   UNL     1      12.043   1.586   2.138  1.00  0.00     0.031 A 
ATOM     49  C   UNL     1      12.577   8.119   2.033  1.00  0.00     0.049 A 
ATOM     50  C   UNL     1      13.175   2.522   1.815  1.00  0.00     0.074 A 
ATOM     51  C   UNL     1      13.708   8.869   1.772  1.00  0.00     0.029 A 
ATOM     52  N   UNL     1      12.942   6.785   1.925  1.00  0.00    -0.354 N 
ATOM     53  N   UNL     1      13.184   3.834   1.836  1.00  0.00    -0.248 NA
ATOM     54  C   UNL     1      14.461   1.915   1.446  1.00  0.00     0.031 C 
ATOM     55  C   UNL     1      14.745   7.989   1.453  1.00  0.00     0.029 A 
ATOM     56  C   UNL     1      14.275   6.689   1.573  1.00  0.00     0.049 A 
ATOM     57  H   UNL     1      12.341   6.020   2.076  1.00  0.00     0.167 HD
ATOM     58  C   UNL     1      14.479   4.212   1.500  1.00  0.00     0.074 A 
ATOM     59  C   UNL     1      15.229   2.988   1.295  1.00  0.00     0.031 C 
ATOM     60  C   UNL     1      14.999   5.457   1.373  1.00  0.00     0.031 A 
BRANCH  47  61
ATOM     61  C   UNL     1      11.001  10.063   2.383  1.00  0.00    -0.014 A 
ATOM     62  C   UNL     1      11.054  10.817   1.198  1.00  0.00     0.010 A 
ATOM     63  C   UNL     1      10.799  10.726   3.609  1.00  0.00     0.010 A 
ATOM     64  C   UNL     1      10.929  12.209   1.238  1.00  0.00     0.020 A 
ATOM     65  C   UNL     1      10.649  12.114   3.650  1.00  0.00     0.020 A 
ATOM     66  C   UNL     1      10.736  12.849   2.466  1.00  0.00     0.054 A 
BRANCH  66  67
ATOM     67  S   UNL     1      10.586  14.656   2.504  1.00  0.00     0.124 S 
ATOM     68  O   UNL     1      11.975  15.083   2.371  1.00  0.00    -0.237 OA
ATOM     69  O   UNL     1       9.726  14.932   1.355  1.00  0.00    -0.237 OA
ATOM     70  O   UNL     1       9.971  14.919   3.804  1.00  0.00    -0.744 OA
ENDBRANCH  66  67
ENDBRANCH  47  61
BRANCH  48  71
ATOM     71  C   UNL     1      12.214   0.108   2.134  1.00  0.00    -0.014 A 
ATOM     72  C   UNL     1      11.553  -0.682   1.175  1.00  0.00     0.010 A 
ATOM     73  C   UNL     1      12.956  -0.523   3.147  1.00  0.00     0.010 A 
ATOM     74  C   UNL     1      11.592  -2.077   1.257  1.00  0.00     0.020 A 
ATOM     75  C   UNL     1      13.015  -1.919   3.219  1.00  0.00     0.020 A 
ATOM     76  C   UNL     1      12.309  -2.686   2.290  1.00  0.00     0.054 A 
BRANCH  76  77
ATOM     77  S   UNL     1      12.300  -4.497   2.413  1.00  0.00     0.124 S 
ATOM     78  O   UNL     1      10.990  -4.748   3.010  1.00  0.00    -0.237 OA
ATOM     79  O   UNL     1      12.448  -4.915   1.022  1.00  0.00    -0.237 OA
ATOM     80  O   UNL     1      13.445  -4.786   3.273  1.00  0.00    -0.744 OA
ENDBRANCH  76  77
ENDBRANCH  48  71
BRANCH  60  81
ATOM     81  C   UNL     1      16.445   5.586   0.981  1.00  0.00    -0.014 A 
ATOM     82  C   UNL     1      17.375   6.090   1.909  1.00  0.00     0.010 A 
ATOM     83  C   UNL     1      16.847   5.363  -0.347  1.00  0.00     0.010 A 
ATOM     84  C   UNL     1      18.673   6.410   1.506  1.00  0.00     0.020 A 
ATOM     85  C   UNL     1      18.152   5.659  -0.748  1.00  0.00     0.020 A 
ATOM     86  C   UNL     1      19.048   6.207   0.175  1.00  0.00     0.054 A 
BRANCH  86  87
ATOM     87  S   UNL     1      20.720   6.677  -0.346  1.00  0.00     0.124 S 
ATOM     88  O   UNL     1      20.600   8.125  -0.492  1.00  0.00    -0.237 OA
ATOM     89  O   UNL     1      21.546   6.223   0.770  1.00  0.00    -0.237 OA
ATOM     90  O   UNL     1      20.910   5.936  -1.591  1.00  0.00    -0.744 OA
ENDBRANCH  86  87
ENDBRANCH  60  81
ENDBRANCH  34  35
ENDBRANCH  27  29
ENDBRANCH  26  27
ENDBRANCH   1  26
TORSDOF 16
