REMARK SMILES C[NH+]1CCN(C(=O)c2ccc3c(c2)N(CC(=O)OCCOC(=O)c2ccc(-c4c5nc(c(-c6ccc(S(=O)(=O)[O-])cc6)c6ccc([nH]6)c(-c6ccc(S(=O)(=O)[O-])cc6)c6nc(c(-c7ccc(S(=O)(=O)[O-])cc7)c7ccc4[nH]7)C=C6)C=C5)cc2)C(=O)CO3)CC1
REMARK SMILES IDX 20 1 19 2 18 3 16 4 17 5 15 6 14 7 8 8 9 9 13 10 10 11 12 12
REMARK SMILES IDX 11 13 87 14 84 15 86 16 85 17 6 18 1 19 2 20 3 21 89 22 4 24
REMARK SMILES IDX 88 25 5 26 7 27 21 28 22 29 23 30 24 31 25 32 83 33 26 34
REMARK SMILES IDX 82 35 27 36 28 37 29 38 76 39 30 40 81 41 75 42 77 43 31 44
REMARK SMILES IDX 80 45 74 46 73 47 32 49 62 50 43 51 61 52 44 53 47 54 60 55
REMARK SMILES IDX 78 56 45 57 46 58 59 60 79 61 48 62 33 63 34 64 42 65 35 66
REMARK SMILES IDX 41 67 36 68 37 69 38 70 39 71 40 72 63 73 64 74 72 75 65 76
REMARK SMILES IDX 71 77 66 78 67 79 68 80 69 81 70 82 49 83 50 84 58 85 51 86
REMARK SMILES IDX 57 87 52 88 53 89 54 90 55 91 56 92
REMARK H PARENT 2 23 77 48 47 59
REMARK Flexibility Score: inf
ROOT
ATOM      1  C   UNL     1       0.927  -4.572   1.032  1.00  0.00     0.275 C 
ENDROOT
BRANCH   1   2
ATOM      2  C   UNL     1      -0.010  -5.744   1.367  1.00  0.00     0.274 C 
BRANCH   2   3
ATOM      3  O   UNL     1      -1.320  -5.330   1.809  1.00  0.00    -0.461 OA
BRANCH   3   4
ATOM      4  C   UNL     1      -1.425  -5.112   3.150  1.00  0.00     0.326 C 
ATOM      5  O   UNL     1      -0.501  -5.281   3.943  1.00  0.00    -0.250 OA
BRANCH   4   6
ATOM      6  C   UNL     1      -2.741  -4.470   3.585  1.00  0.00     0.248 C 
BRANCH   6   7
ATOM      7  N   UNL     1      -3.889  -4.558   2.698  1.00  0.00    -0.295 N 
ATOM      8  C   UNL     1      -3.874  -1.440   0.576  1.00  0.00     0.042 A 
ATOM      9  C   UNL     1      -4.890  -1.737  -0.332  1.00  0.00     0.018 A 
ATOM     10  C   UNL     1      -3.593  -2.315   1.641  1.00  0.00     0.044 A 
ATOM     11  C   UNL     1      -5.597  -2.929  -0.194  1.00  0.00     0.049 A 
ATOM     12  C   UNL     1      -4.244  -3.553   1.747  1.00  0.00     0.087 A 
ATOM     13  C   UNL     1      -5.276  -3.826   0.831  1.00  0.00     0.143 A 
ATOM     14  O   UNL     1      -6.010  -4.985   0.839  1.00  0.00    -0.482 OA
ATOM     15  C   UNL     1      -4.654  -5.714   2.796  1.00  0.00     0.265 C 
ATOM     16  C   UNL     1      -6.001  -5.623   2.102  1.00  0.00     0.330 C 
ATOM     17  O   UNL     1      -4.336  -6.690   3.475  1.00  0.00    -0.270 OA
BRANCH   8  18
ATOM     18  C   UNL     1      -3.186  -0.131   0.474  1.00  0.00     0.254 C 
ATOM     19  C   UNL     1       1.785   0.560  -1.466  1.00  0.00     0.332 C 
ATOM     20  N   UNL     1       0.346   0.564  -1.765  1.00  0.00    -0.334 N 
ATOM     21  C   UNL     1      -0.328   1.599  -0.947  1.00  0.00     0.283 C 
ATOM     22  C   UNL     1      -0.212  -0.790  -1.551  1.00  0.00     0.283 C 
ATOM     23  H   UNL     1       0.185   0.802  -2.744  1.00  0.00     0.347 HD
ATOM     24  C   UNL     1      -1.863   1.481  -0.856  1.00  0.00     0.181 C 
ATOM     25  C   UNL     1      -1.755  -0.877  -1.496  1.00  0.00     0.181 C 
ATOM     26  N   UNL     1      -2.313   0.117  -0.581  1.00  0.00    -0.327 N 
ATOM     27  O   UNL     1      -3.473   0.703   1.329  1.00  0.00    -0.269 OA
ENDBRANCH   8  18
ENDBRANCH   6   7
ENDBRANCH   4   6
ENDBRANCH   3   4
ENDBRANCH   2   3
ENDBRANCH   1   2
BRANCH   1  28
ATOM     28  O   UNL     1       0.926  -3.538   2.037  1.00  0.00    -0.458 OA
BRANCH  28  29
ATOM     29  C   UNL     1      -0.032  -2.615   1.807  1.00  0.00     0.338 C 
ATOM     30  O   UNL     1      -0.819  -2.640   0.872  1.00  0.00    -0.246 OA
BRANCH  29  31
ATOM     31  C   UNL     1      -0.084  -1.519   2.786  1.00  0.00     0.060 A 
ATOM     32  C   UNL     1      -0.417  -1.719   4.123  1.00  0.00     0.016 A 
ATOM     33  C   UNL     1      -0.052  -0.228   2.264  1.00  0.00     0.016 A 
ATOM     34  C   UNL     1      -0.781  -0.616   4.909  1.00  0.00     0.010 A 
ATOM     35  C   UNL     1      -0.361   0.874   3.052  1.00  0.00     0.010 A 
ATOM     36  C   UNL     1      -0.740   0.691   4.382  1.00  0.00    -0.014 A 
BRANCH  36  37
ATOM     37  C   UNL     1      -0.851   1.890   5.248  1.00  0.00     0.031 A 
ATOM     38  C   UNL     1      -1.940   2.917   5.091  1.00  0.00     0.074 A 
ATOM     39  C   UNL     1       0.188   2.125   6.073  1.00  0.00     0.049 A 
ATOM     40  N   UNL     1      -2.085   4.062   5.713  1.00  0.00    -0.248 NA
ATOM     41  C   UNL     1      -2.981   2.647   4.091  1.00  0.00     0.031 C 
ATOM     42  C   UNL     1       1.362   1.256   6.211  1.00  0.00     0.029 A 
ATOM     43  N   UNL     1       0.444   3.168   6.920  1.00  0.00    -0.354 N 
ATOM     44  C   UNL     1      -3.215   4.661   5.162  1.00  0.00     0.074 A 
ATOM     45  C   UNL     1      -3.708   3.759   4.143  1.00  0.00     0.031 C 
ATOM     46  C   UNL     1       2.203   1.792   7.102  1.00  0.00     0.029 A 
ATOM     47  C   UNL     1       1.646   3.052   7.573  1.00  0.00     0.049 A 
ATOM     48  H   UNL     1      -0.171   3.925   7.048  1.00  0.00     0.167 HD
ATOM     49  C   UNL     1      -3.782   5.852   5.483  1.00  0.00     0.031 A 
ATOM     50  C   UNL     1       2.246   3.868   8.456  1.00  0.00     0.031 A 
ATOM     51  C   UNL     1      -3.281   6.731   6.513  1.00  0.00     0.049 A 
ATOM     52  C   UNL     1       1.550   5.123   8.867  1.00  0.00     0.074 A 
ATOM     53  C   UNL     1      -3.837   7.907   6.991  1.00  0.00     0.029 A 
ATOM     54  N   UNL     1      -2.105   6.533   7.222  1.00  0.00    -0.354 N 
ATOM     55  N   UNL     1       0.430   5.625   8.408  1.00  0.00    -0.248 NA
ATOM     56  C   UNL     1       2.185   5.909   9.931  1.00  0.00     0.031 C 
ATOM     57  C   UNL     1      -2.981   8.435   7.965  1.00  0.00     0.029 A 
ATOM     58  C   UNL     1      -1.912   7.568   8.122  1.00  0.00     0.049 A 
ATOM     59  H   UNL     1      -1.497   5.768   7.103  1.00  0.00     0.167 HD
ATOM     60  C   UNL     1       0.215   6.786   9.135  1.00  0.00     0.074 A 
ATOM     61  C   UNL     1       1.315   6.899  10.075  1.00  0.00     0.031 C 
ATOM     62  C   UNL     1      -0.801   7.676   9.033  1.00  0.00     0.031 A 
BRANCH  49  63
ATOM     63  C   UNL     1      -5.015   6.288   4.727  1.00  0.00    -0.014 A 
ATOM     64  C   UNL     1      -6.258   5.665   4.942  1.00  0.00     0.010 A 
ATOM     65  C   UNL     1      -4.955   7.401   3.866  1.00  0.00     0.010 A 
ATOM     66  C   UNL     1      -7.409   6.130   4.296  1.00  0.00     0.020 A 
ATOM     67  C   UNL     1      -6.108   7.882   3.233  1.00  0.00     0.020 A 
ATOM     68  C   UNL     1      -7.327   7.235   3.443  1.00  0.00     0.054 A 
BRANCH  68  69
ATOM     69  S   UNL     1      -8.844   7.855   2.660  1.00  0.00     0.124 S 
ATOM     70  O   UNL     1      -9.041   6.895   1.577  1.00  0.00    -0.237 OA
ATOM     71  O   UNL     1      -9.822   7.786   3.744  1.00  0.00    -0.237 OA
ATOM     72  O   UNL     1      -8.488   9.207   2.237  1.00  0.00    -0.744 OA
ENDBRANCH  68  69
ENDBRANCH  49  63
BRANCH  50  73
ATOM     73  C   UNL     1       3.544   3.452   9.037  1.00  0.00    -0.014 A 
ATOM     74  C   UNL     1       3.576   2.844  10.303  1.00  0.00     0.010 A 
ATOM     75  C   UNL     1       4.725   3.538   8.278  1.00  0.00     0.010 A 
ATOM     76  C   UNL     1       4.769   2.317  10.799  1.00  0.00     0.020 A 
ATOM     77  C   UNL     1       5.916   2.996   8.766  1.00  0.00     0.020 A 
ATOM     78  C   UNL     1       5.930   2.390  10.025  1.00  0.00     0.054 A 
BRANCH  78  79
ATOM     79  S   UNL     1       7.444   1.598  10.636  1.00  0.00     0.124 S 
ATOM     80  O   UNL     1       7.958   2.603  11.560  1.00  0.00    -0.237 OA
ATOM     81  O   UNL     1       6.939   0.372  11.251  1.00  0.00    -0.237 OA
ATOM     82  O   UNL     1       8.233   1.395   9.423  1.00  0.00    -0.744 OA
ENDBRANCH  78  79
ENDBRANCH  50  73
BRANCH  62  83
ATOM     83  C   UNL     1      -0.760   8.844   9.974  1.00  0.00    -0.014 A 
ATOM     84  C   UNL     1       0.127   9.913   9.755  1.00  0.00     0.010 A 
ATOM     85  C   UNL     1      -1.611   8.868  11.092  1.00  0.00     0.010 A 
ATOM     86  C   UNL     1       0.194  10.969  10.667  1.00  0.00     0.020 A 
ATOM     87  C   UNL     1      -1.560   9.932  11.996  1.00  0.00     0.020 A 
ATOM     88  C   UNL     1      -0.642  10.965  11.788  1.00  0.00     0.054 A 
BRANCH  88  89
ATOM     89  S   UNL     1      -0.544  12.345  12.960  1.00  0.00     0.124 S 
ATOM     90  O   UNL     1       0.634  11.990  13.746  1.00  0.00    -0.237 OA
ATOM     91  O   UNL     1      -0.388  13.505  12.085  1.00  0.00    -0.237 OA
ATOM     92  O   UNL     1      -1.816  12.280  13.676  1.00  0.00    -0.744 OA
ENDBRANCH  88  89
ENDBRANCH  62  83
ENDBRANCH  36  37
ENDBRANCH  29  31
ENDBRANCH  28  29
ENDBRANCH   1  28
TORSDOF 16
