REMARK SMILES C[C@H]([NH2+]CCc1ccc([N+](=O)[O-])cc1)[C@@H](C)C(=O)OCCOC(=O)c1ccc(-c2c3nc(c(-c4ccc(S(=O)(=O)[O-])cc4)c4ccc([nH]4)c(-c4ccc(S(=O)(=O)[O-])cc4)c4nc(c(-c5ccc(S(=O)(=O)[O-])cc5)c5ccc2[nH]5)C=C4)C=C3)cc1
REMARK SMILES IDX 19 1 17 2 18 3 15 4 16 5 2 6 1 7 3 8 4 11 5 12 6 13 7 14
REMARK SMILES IDX 14 15 8 16 13 17 9 18 10 19 11 20 12 21 20 22 21 23 22 24
REMARK SMILES IDX 23 25 24 26 25 27 26 28 84 29 27 30 83 31 28 32 29 33 30 34
REMARK SMILES IDX 77 35 31 36 82 37 76 38 78 39 32 40 81 41 75 42 74 43 33 45
REMARK SMILES IDX 63 46 44 47 62 48 45 49 48 50 61 51 79 52 46 53 47 54 60 56
REMARK SMILES IDX 80 57 49 58 34 59 35 60 43 61 36 62 42 63 37 64 38 65 39 66
REMARK SMILES IDX 40 67 41 68 64 69 65 70 73 71 66 72 72 73 67 74 68 75 69 76
REMARK SMILES IDX 70 77 71 78 50 79 51 80 59 81 52 82 58 83 53 84 54 85 55 86
REMARK SMILES IDX 56 87 57 88
REMARK H PARENT 3 9 3 10 78 44 48 55
REMARK Flexibility Score: inf
ROOT
ATOM      1  O   UNL     1      -0.808   0.821   3.811  1.00  0.00    -0.462 OA
ENDROOT
BRANCH   1   2
ATOM      2  C   UNL     1      -1.579   0.632   2.711  1.00  0.00     0.314 C 
ATOM      3  O   UNL     1      -2.792   0.820   2.677  1.00  0.00    -0.252 OA
BRANCH   2   4
ATOM      4  C   UNL     1      -0.827   0.125   1.494  1.00  0.00     0.154 C 
ATOM      5  C   UNL     1      -1.199  -1.355   1.337  1.00  0.00     0.026 C 
BRANCH   4   6
ATOM      6  C   UNL     1       0.707   0.376   1.423  1.00  0.00     0.193 C 
ATOM      7  C   UNL     1       1.082   1.845   1.673  1.00  0.00     0.076 C 
BRANCH   6   8
ATOM      8  N   UNL     1       1.168  -0.119   0.102  1.00  0.00    -0.343 N 
ATOM      9  H   UNL     1       0.433   0.087  -0.575  1.00  0.00     0.346 HD
ATOM     10  H   UNL     1       1.361  -1.110   0.248  1.00  0.00     0.346 HD
BRANCH   8  11
ATOM     11  C   UNL     1       2.418   0.431  -0.425  1.00  0.00     0.265 C 
BRANCH  11  12
ATOM     12  C   UNL     1       2.791  -0.217  -1.773  1.00  0.00     0.097 C 
BRANCH  12  13
ATOM     13  C   UNL     1       1.729  -0.109  -2.850  1.00  0.00    -0.042 A 
ATOM     14  C   UNL     1       1.153  -1.274  -3.380  1.00  0.00     0.011 A 
ATOM     15  C   UNL     1       1.306   1.140  -3.333  1.00  0.00     0.011 A 
ATOM     16  C   UNL     1       0.173  -1.200  -4.372  1.00  0.00     0.086 A 
ATOM     17  C   UNL     1       0.322   1.226  -4.323  1.00  0.00     0.086 A 
ATOM     18  C   UNL     1      -0.239   0.052  -4.842  1.00  0.00     0.269 A 
BRANCH  18  19
ATOM     19  N   UNL     1      -1.261   0.130  -5.894  1.00  0.00     0.062 N 
ATOM     20  O   UNL     1      -1.679  -0.938  -6.369  1.00  0.00    -0.258 OA
ATOM     21  O   UNL     1      -1.640   1.253  -6.249  1.00  0.00    -0.258 OA
ENDBRANCH  18  19
ENDBRANCH  12  13
ENDBRANCH  11  12
ENDBRANCH   8  11
ENDBRANCH   6   8
ENDBRANCH   4   6
ENDBRANCH   2   4
ENDBRANCH   1   2
BRANCH   1  22
ATOM     22  C   UNL     1      -1.485   1.466   4.910  1.00  0.00     0.274 C 
BRANCH  22  23
ATOM     23  C   UNL     1      -1.338   2.987   4.822  1.00  0.00     0.275 C 
BRANCH  23  24
ATOM     24  O   UNL     1      -1.853   3.462   3.565  1.00  0.00    -0.458 OA
BRANCH  24  25
ATOM     25  C   UNL     1      -1.122   4.421   2.949  1.00  0.00     0.338 C 
ATOM     26  O   UNL     1      -0.103   4.944   3.366  1.00  0.00    -0.246 OA
BRANCH  25  27
ATOM     27  C   UNL     1      -1.761   4.796   1.671  1.00  0.00     0.060 A 
ATOM     28  C   UNL     1      -2.208   3.832   0.762  1.00  0.00     0.016 A 
ATOM     29  C   UNL     1      -1.873   6.152   1.361  1.00  0.00     0.016 A 
ATOM     30  C   UNL     1      -2.754   4.221  -0.463  1.00  0.00     0.010 A 
ATOM     31  C   UNL     1      -2.478   6.540   0.164  1.00  0.00     0.010 A 
ATOM     32  C   UNL     1      -2.923   5.580  -0.761  1.00  0.00    -0.014 A 
BRANCH  32  33
ATOM     33  C   UNL     1      -3.604   6.029  -2.003  1.00  0.00     0.031 A 
ATOM     34  C   UNL     1      -2.862   6.851  -3.020  1.00  0.00     0.074 A 
ATOM     35  C   UNL     1      -4.917   5.775  -2.169  1.00  0.00     0.049 A 
ATOM     36  N   UNL     1      -3.331   7.526  -4.037  1.00  0.00    -0.248 NA
ATOM     37  C   UNL     1      -1.400   6.933  -2.864  1.00  0.00     0.031 C 
ATOM     38  C   UNL     1      -5.747   4.969  -1.270  1.00  0.00     0.029 A 
ATOM     39  N   UNL     1      -5.793   6.196  -3.140  1.00  0.00    -0.354 N 
ATOM     40  C   UNL     1      -2.232   8.143  -4.622  1.00  0.00     0.074 A 
ATOM     41  C   UNL     1      -1.071   7.766  -3.843  1.00  0.00     0.031 C 
ATOM     42  C   UNL     1      -7.009   4.960  -1.726  1.00  0.00     0.029 A 
ATOM     43  C   UNL     1      -7.093   5.815  -2.905  1.00  0.00     0.049 A 
ATOM     44  H   UNL     1      -5.517   6.718  -3.927  1.00  0.00     0.167 HD
ATOM     45  C   UNL     1      -2.198   8.957  -5.705  1.00  0.00     0.031 A 
ATOM     46  C   UNL     1      -8.237   6.157  -3.529  1.00  0.00     0.031 A 
ATOM     47  C   UNL     1      -3.356   9.322  -6.478  1.00  0.00     0.049 A 
ATOM     48  C   UNL     1      -8.183   7.114  -4.686  1.00  0.00     0.074 A 
ATOM     49  C   UNL     1      -3.420  10.114  -7.611  1.00  0.00     0.029 A 
ATOM     50  N   UNL     1      -4.654   8.924  -6.195  1.00  0.00    -0.354 N 
ATOM     51  N   UNL     1      -7.137   7.692  -5.226  1.00  0.00    -0.248 NA
ATOM     52  C   UNL     1      -9.464   7.479  -5.306  1.00  0.00     0.031 C 
ATOM     53  C   UNL     1      -4.763  10.236  -7.984  1.00  0.00     0.029 A 
ATOM     54  C   UNL     1      -5.530   9.480  -7.111  1.00  0.00     0.049 A 
ATOM     55  H   UNL     1      -4.914   8.333  -5.452  1.00  0.00     0.167 HD
ATOM     56  C   UNL     1      -7.633   8.482  -6.255  1.00  0.00     0.074 A 
ATOM     57  C   UNL     1      -9.070   8.296  -6.274  1.00  0.00     0.031 C 
ATOM     58  C   UNL     1      -6.958   9.293  -7.107  1.00  0.00     0.031 A 
BRANCH  45  59
ATOM     59  C   UNL     1      -0.868   9.541  -6.099  1.00  0.00    -0.014 A 
ATOM     60  C   UNL     1       0.120   8.758  -6.721  1.00  0.00     0.010 A 
ATOM     61  C   UNL     1      -0.622  10.911  -5.886  1.00  0.00     0.010 A 
ATOM     62  C   UNL     1       1.344   9.325  -7.090  1.00  0.00     0.020 A 
ATOM     63  C   UNL     1       0.592  11.486  -6.273  1.00  0.00     0.020 A 
ATOM     64  C   UNL     1       1.574  10.685  -6.857  1.00  0.00     0.054 A 
BRANCH  64  65
ATOM     65  S   UNL     1       3.165  11.400  -7.359  1.00  0.00     0.124 S 
ATOM     66  O   UNL     1       4.064  10.882  -6.329  1.00  0.00    -0.237 OA
ATOM     67  O   UNL     1       3.360  10.847  -8.696  1.00  0.00    -0.237 OA
ATOM     68  O   UNL     1       2.929  12.841  -7.312  1.00  0.00    -0.744 OA
ENDBRANCH  64  65
ENDBRANCH  45  59
BRANCH  46  69
ATOM     69  C   UNL     1      -9.535   5.632  -3.027  1.00  0.00    -0.014 A 
ATOM     70  C   UNL     1     -10.241   4.659  -3.754  1.00  0.00     0.010 A 
ATOM     71  C   UNL     1     -10.056   6.083  -1.800  1.00  0.00     0.010 A 
ATOM     72  C   UNL     1     -11.447   4.148  -3.264  1.00  0.00     0.020 A 
ATOM     73  C   UNL     1     -11.248   5.556  -1.295  1.00  0.00     0.020 A 
ATOM     74  C   UNL     1     -11.941   4.597  -2.036  1.00  0.00     0.054 A 
BRANCH  74  75
ATOM     75  S   UNL     1     -13.470   3.871  -1.384  1.00  0.00     0.124 S 
ATOM     76  O   UNL     1     -14.490   4.547  -2.179  1.00  0.00    -0.237 OA
ATOM     77  O   UNL     1     -13.291   2.448  -1.661  1.00  0.00    -0.237 OA
ATOM     78  O   UNL     1     -13.440   4.228   0.033  1.00  0.00    -0.744 OA
ENDBRANCH  74  75
ENDBRANCH  46  69
BRANCH  58  79
ATOM     79  C   UNL     1      -7.765  10.033  -8.138  1.00  0.00    -0.014 A 
ATOM     80  C   UNL     1      -8.523  11.162  -7.785  1.00  0.00     0.010 A 
ATOM     81  C   UNL     1      -7.713   9.631  -9.485  1.00  0.00     0.010 A 
ATOM     82  C   UNL     1      -9.230  11.870  -8.760  1.00  0.00     0.020 A 
ATOM     83  C   UNL     1      -8.402  10.348 -10.466  1.00  0.00     0.020 A 
ATOM     84  C   UNL     1      -9.164  11.458 -10.095  1.00  0.00     0.054 A 
BRANCH  84  85
ATOM     85  S   UNL     1     -10.042  12.428 -11.352  1.00  0.00     0.124 S 
ATOM     86  O   UNL     1     -11.428  12.026 -11.133  1.00  0.00    -0.237 OA
ATOM     87  O   UNL     1      -9.720  13.804 -10.981  1.00  0.00    -0.237 OA
ATOM     88  O   UNL     1      -9.453  11.976 -12.611  1.00  0.00    -0.744 OA
ENDBRANCH  84  85
ENDBRANCH  58  79
ENDBRANCH  32  33
ENDBRANCH  25  27
ENDBRANCH  24  25
ENDBRANCH  23  24
ENDBRANCH  22  23
ENDBRANCH   1  22
TORSDOF 20
