REMARK SMILES CC(C)(C)OC(=O)N[C@@H](Cc1c[nH]c2cccc(Cl)c12)C(=O)OCCOC(=O)c1ccc(-c2c3nc(c(-c4ccc(S(=O)(=O)[O-])cc4)c4ccc([nH]4)c(-c4ccc(S(=O)(=O)[O-])cc4)c4nc(c(-c5ccc(S(=O)(=O)[O-])cc5)c5ccc2[nH]5)C=C4)C=C3)cc1
REMARK SMILES IDX 24 1 23 2 21 3 22 4 9 5 8 6 6 7 7 8 5 10 2 11 1 12 3 13 4 14
REMARK SMILES IDX 10 15 11 16 12 17 20 18 13 19 14 20 18 21 15 23 17 24 19 25
REMARK SMILES IDX 16 26 25 27 26 28 27 29 28 30 29 31 30 32 88 33 31 34 87 35
REMARK SMILES IDX 32 36 33 37 34 38 81 39 35 40 86 41 80 42 82 43 36 44 85 45
REMARK SMILES IDX 79 46 78 47 37 49 67 50 48 51 66 52 49 53 52 54 65 55 83 56
REMARK SMILES IDX 50 57 51 58 64 60 84 61 53 62 38 63 39 64 47 65 40 66 46 67
REMARK SMILES IDX 41 68 42 69 43 70 44 71 45 72 68 73 69 74 77 75 70 76 76 77
REMARK SMILES IDX 71 78 72 79 73 80 74 81 75 82 54 83 55 84 63 85 56 86 62 87
REMARK SMILES IDX 57 88 58 89 59 90 60 91 61 92
REMARK H PARENT 8 9 13 22 82 48 52 59
REMARK Flexibility Score: inf
ROOT
ATOM      1  C   UNL     1       0.718   6.962  -4.641  1.00  0.00     0.274 C 
ENDROOT
BRANCH   1   2
ATOM      2  O   UNL     1       1.136   5.585  -4.528  1.00  0.00    -0.461 OA
BRANCH   2   3
ATOM      3  C   UNL     1       1.797   5.215  -3.387  1.00  0.00     0.329 C 
ATOM      4  O   UNL     1       2.064   5.977  -2.463  1.00  0.00    -0.250 OA
BRANCH   3   5
ATOM      5  C   UNL     1       2.314   3.770  -3.464  1.00  0.00     0.200 C 
BRANCH   5   6
ATOM      6  N   UNL     1       1.382   2.870  -4.152  1.00  0.00    -0.308 N 
ATOM      7  C   UNL     1       0.820   1.704  -3.717  1.00  0.00     0.408 C 
ATOM      8  O   UNL     1       0.104   1.053  -4.461  1.00  0.00    -0.225 OA
ATOM      9  H   UNL     1       1.124   3.147  -5.061  1.00  0.00     0.168 HD
BRANCH   7  10
ATOM     10  O   UNL     1       1.152   1.370  -2.443  1.00  0.00    -0.444 OA
BRANCH  10  11
ATOM     11  C   UNL     1       0.630   0.145  -1.836  1.00  0.00     0.106 C 
ATOM     12  C   UNL     1       1.100   0.193  -0.371  1.00  0.00     0.056 C 
ATOM     13  C   UNL     1       1.240  -1.093  -2.501  1.00  0.00     0.056 C 
ATOM     14  C   UNL     1      -0.904   0.068  -1.849  1.00  0.00     0.056 C 
ENDBRANCH  10  11
ENDBRANCH   7  10
ENDBRANCH   5   6
BRANCH   5  15
ATOM     15  C   UNL     1       3.695   3.800  -4.169  1.00  0.00     0.075 C 
BRANCH  15  16
ATOM     16  C   UNL     1       3.644   4.394  -5.562  1.00  0.00    -0.018 A 
ATOM     17  C   UNL     1       3.279   3.678  -6.688  1.00  0.00     0.087 A 
ATOM     18  C   UNL     1       3.791   5.777  -5.977  1.00  0.00     0.021 A 
ATOM     19  N   UNL     1       3.095   4.550  -7.720  1.00  0.00    -0.361 N 
ATOM     20  C   UNL     1       3.345   5.836  -7.307  1.00  0.00     0.047 A 
ATOM     21  C   UNL     1       4.144   7.015  -5.386  1.00  0.00     0.050 A 
ATOM     22  H   UNL     1       2.821   4.294  -8.630  1.00  0.00     0.166 HD
ATOM     23  C   UNL     1       3.185   7.040  -8.013  1.00  0.00     0.027 A 
ATOM     24  C   UNL     1       3.975   8.229  -6.061  1.00  0.00     0.021 A 
ATOM     25  Cl  UNL     1       4.805   7.011  -3.811  1.00  0.00    -0.084 Cl
ATOM     26  C   UNL     1       3.485   8.238  -7.360  1.00  0.00     0.004 A 
ENDBRANCH  15  16
ENDBRANCH   5  15
ENDBRANCH   3   5
ENDBRANCH   2   3
ENDBRANCH   1   2
BRANCH   1  27
ATOM     27  C   UNL     1      -0.749   7.138  -4.275  1.00  0.00     0.275 C 
BRANCH  27  28
ATOM     28  O   UNL     1      -0.938   6.829  -2.898  1.00  0.00    -0.458 OA
BRANCH  28  29
ATOM     29  C   UNL     1      -1.065   5.503  -2.687  1.00  0.00     0.338 C 
ATOM     30  O   UNL     1      -1.082   4.612  -3.521  1.00  0.00    -0.246 OA
BRANCH  29  31
ATOM     31  C   UNL     1      -1.275   5.239  -1.273  1.00  0.00     0.060 A 
ATOM     32  C   UNL     1      -0.897   3.969  -0.827  1.00  0.00     0.016 A 
ATOM     33  C   UNL     1      -2.277   5.998  -0.667  1.00  0.00     0.016 A 
ATOM     34  C   UNL     1      -1.732   3.333   0.056  1.00  0.00     0.010 A 
ATOM     35  C   UNL     1      -3.133   5.343   0.177  1.00  0.00     0.010 A 
ATOM     36  C   UNL     1      -2.905   3.988   0.425  1.00  0.00    -0.014 A 
BRANCH  36  37
ATOM     37  C   UNL     1      -3.949   3.185   1.017  1.00  0.00     0.031 A 
ATOM     38  C   UNL     1      -3.793   2.963   2.467  1.00  0.00     0.074 A 
ATOM     39  C   UNL     1      -5.020   2.815   0.292  1.00  0.00     0.049 A 
ATOM     40  N   UNL     1      -3.703   1.847   3.110  1.00  0.00    -0.248 NA
ATOM     41  C   UNL     1      -3.577   4.165   3.289  1.00  0.00     0.031 C 
ATOM     42  C   UNL     1      -5.404   3.269  -1.051  1.00  0.00     0.029 A 
ATOM     43  N   UNL     1      -6.087   2.075   0.682  1.00  0.00    -0.354 N 
ATOM     44  C   UNL     1      -3.561   2.206   4.444  1.00  0.00     0.074 A 
ATOM     45  C   UNL     1      -3.326   3.627   4.477  1.00  0.00     0.031 C 
ATOM     46  C   UNL     1      -6.721   3.023  -1.232  1.00  0.00     0.029 A 
ATOM     47  C   UNL     1      -7.227   2.299  -0.076  1.00  0.00     0.049 A 
ATOM     48  H   UNL     1      -6.055   1.438   1.433  1.00  0.00     0.167 HD
ATOM     49  C   UNL     1      -3.843   1.369   5.477  1.00  0.00     0.031 A 
ATOM     50  C   UNL     1      -8.498   2.031   0.316  1.00  0.00     0.031 A 
ATOM     51  C   UNL     1      -3.971   0.002   5.071  1.00  0.00     0.049 A 
ATOM     52  C   UNL     1      -8.411   1.090   1.467  1.00  0.00     0.074 A 
ATOM     53  C   UNL     1      -3.101  -0.934   4.551  1.00  0.00     0.029 A 
ATOM     54  N   UNL     1      -5.238  -0.466   4.812  1.00  0.00    -0.354 N 
ATOM     55  N   UNL     1      -7.955  -0.129   1.384  1.00  0.00    -0.248 NA
ATOM     56  C   UNL     1      -8.429   1.650   2.812  1.00  0.00     0.031 C 
ATOM     57  C   UNL     1      -3.874  -1.684   3.619  1.00  0.00     0.029 A 
ATOM     58  C   UNL     1      -5.178  -1.185   3.642  1.00  0.00     0.049 A 
ATOM     59  H   UNL     1      -6.040  -0.314   5.362  1.00  0.00     0.167 HD
ATOM     60  C   UNL     1      -7.271  -0.347   2.574  1.00  0.00     0.074 A 
ATOM     61  C   UNL     1      -7.680   0.747   3.450  1.00  0.00     0.031 C 
ATOM     62  C   UNL     1      -6.233  -1.231   2.649  1.00  0.00     0.031 A 
BRANCH  49  63
ATOM     63  C   UNL     1      -4.303   1.891   6.803  1.00  0.00    -0.014 A 
ATOM     64  C   UNL     1      -4.216   1.092   7.952  1.00  0.00     0.010 A 
ATOM     65  C   UNL     1      -5.021   3.105   6.903  1.00  0.00     0.010 A 
ATOM     66  C   UNL     1      -4.820   1.497   9.151  1.00  0.00     0.020 A 
ATOM     67  C   UNL     1      -5.580   3.541   8.100  1.00  0.00     0.020 A 
ATOM     68  C   UNL     1      -5.496   2.720   9.215  1.00  0.00     0.054 A 
BRANCH  68  69
ATOM     69  S   UNL     1      -6.349   3.189  10.740  1.00  0.00     0.124 S 
ATOM     70  O   UNL     1      -7.301   2.094  10.905  1.00  0.00    -0.237 OA
ATOM     71  O   UNL     1      -5.254   3.229  11.705  1.00  0.00    -0.237 OA
ATOM     72  O   UNL     1      -6.941   4.486  10.420  1.00  0.00    -0.744 OA
ENDBRANCH  68  69
ENDBRANCH  49  63
BRANCH  50  73
ATOM     73  C   UNL     1      -9.707   2.859   0.050  1.00  0.00    -0.014 A 
ATOM     74  C   UNL     1     -10.984   2.390   0.409  1.00  0.00     0.010 A 
ATOM     75  C   UNL     1      -9.588   4.221  -0.300  1.00  0.00     0.010 A 
ATOM     76  C   UNL     1     -12.080   3.266   0.493  1.00  0.00     0.020 A 
ATOM     77  C   UNL     1     -10.678   5.097  -0.234  1.00  0.00     0.020 A 
ATOM     78  C   UNL     1     -11.911   4.621   0.198  1.00  0.00     0.054 A 
BRANCH  78  79
ATOM     79  S   UNL     1     -13.283   5.775   0.489  1.00  0.00     0.124 S 
ATOM     80  O   UNL     1     -14.332   5.242  -0.377  1.00  0.00    -0.237 OA
ATOM     81  O   UNL     1     -13.510   5.627   1.923  1.00  0.00    -0.237 OA
ATOM     82  O   UNL     1     -12.740   7.069   0.079  1.00  0.00    -0.744 OA
ENDBRANCH  78  79
ENDBRANCH  50  73
BRANCH  62  83
ATOM     83  C   UNL     1      -6.001  -2.158   1.477  1.00  0.00    -0.014 A 
ATOM     84  C   UNL     1      -5.593  -1.704   0.207  1.00  0.00     0.010 A 
ATOM     85  C   UNL     1      -6.020  -3.542   1.721  1.00  0.00     0.010 A 
ATOM     86  C   UNL     1      -5.218  -2.614  -0.794  1.00  0.00     0.020 A 
ATOM     87  C   UNL     1      -5.635  -4.452   0.733  1.00  0.00     0.020 A 
ATOM     88  C   UNL     1      -5.232  -3.984  -0.519  1.00  0.00     0.054 A 
BRANCH  88  89
ATOM     89  S   UNL     1      -4.682  -5.153  -1.795  1.00  0.00     0.124 S 
ATOM     90  O   UNL     1      -5.595  -4.879  -2.901  1.00  0.00    -0.237 OA
ATOM     91  O   UNL     1      -3.292  -4.756  -2.011  1.00  0.00    -0.237 OA
ATOM     92  O   UNL     1      -4.853  -6.463  -1.166  1.00  0.00    -0.744 OA
ENDBRANCH  88  89
ENDBRANCH  62  83
ENDBRANCH  36  37
ENDBRANCH  29  31
ENDBRANCH  28  29
ENDBRANCH  27  28
ENDBRANCH   1  27
TORSDOF 19
