REMARK SMILES O=C(OCCOC(=O)[C@@H]1[C@H](C(=O)NCc2ccncc2)[C@H]2C=C[C@@H]1O2)c1ccc(-c2c3nc(c(-c4ccc(S(=O)(=O)[O-])cc4)c4ccc([nH]4)c(-c4ccc(S(=O)(=O)[O-])cc4)c4nc(c(-c5ccc(S(=O)(=O)[O-])cc5)c5ccc2[nH]5)C=C4)C=C3)cc1
REMARK SMILES IDX 4 1 3 2 2 3 1 4 26 5 27 6 85 7 28 8 84 9 29 10 30 11 31 12
REMARK SMILES IDX 78 13 32 14 83 15 77 16 79 17 33 18 82 19 76 20 75 21 34 23
REMARK SMILES IDX 64 24 45 25 63 26 46 27 49 28 62 29 80 30 47 31 48 32 61 34
REMARK SMILES IDX 81 35 50 36 35 37 36 38 44 39 37 40 43 41 38 42 39 43 40 44
REMARK SMILES IDX 41 45 42 46 65 47 66 48 74 49 67 50 73 51 68 52 69 53 70 54
REMARK SMILES IDX 71 55 72 56 51 57 52 58 60 59 53 60 59 61 54 62 55 63 56 64
REMARK SMILES IDX 57 65 58 66 5 67 6 68 7 69 8 70 9 71 10 72 24 73 21 74 23 75
REMARK SMILES IDX 25 76 22 77 11 78 12 79 13 80 14 82 15 83 16 84 20 85 17 86
REMARK SMILES IDX 19 87 18 88
REMARK H PARENT 79 22 49 33 13 81
REMARK Flexibility Score: inf
ROOT
ATOM      1  C   UNL     1       4.054  -1.448  -0.169  1.00  0.00     0.275 C 
ENDROOT
BRANCH   1   2
ATOM      2  O   UNL     1       2.845  -1.628   0.579  1.00  0.00    -0.458 OA
BRANCH   2   3
ATOM      3  C   UNL     1       2.467  -1.040   1.737  1.00  0.00     0.338 C 
ATOM      4  O   UNL     1       1.345  -1.276   2.182  1.00  0.00    -0.246 OA
BRANCH   3   5
ATOM      5  C   UNL     1       3.304  -0.020   2.440  1.00  0.00     0.060 A 
ATOM      6  C   UNL     1       4.695   0.094   2.338  1.00  0.00     0.016 A 
ATOM      7  C   UNL     1       2.616   0.910   3.239  1.00  0.00     0.016 A 
ATOM      8  C   UNL     1       5.368   1.192   2.865  1.00  0.00     0.010 A 
ATOM      9  C   UNL     1       3.296   1.967   3.846  1.00  0.00     0.010 A 
ATOM     10  C   UNL     1       4.671   2.131   3.622  1.00  0.00    -0.014 A 
BRANCH  10  11
ATOM     11  C   UNL     1       5.460   3.079   4.423  1.00  0.00     0.031 A 
ATOM     12  C   UNL     1       5.894   2.551   5.751  1.00  0.00     0.074 A 
ATOM     13  C   UNL     1       5.875   4.269   3.950  1.00  0.00     0.049 A 
ATOM     14  N   UNL     1       6.752   3.057   6.585  1.00  0.00    -0.248 NA
ATOM     15  C   UNL     1       5.362   1.230   6.143  1.00  0.00     0.031 C 
ATOM     16  C   UNL     1       5.666   4.766   2.595  1.00  0.00     0.029 A 
ATOM     17  N   UNL     1       6.569   5.285   4.551  1.00  0.00    -0.354 N 
ATOM     18  C   UNL     1       6.921   2.082   7.555  1.00  0.00     0.074 A 
ATOM     19  C   UNL     1       6.036   0.986   7.250  1.00  0.00     0.031 C 
ATOM     20  C   UNL     1       6.109   6.029   2.492  1.00  0.00     0.029 A 
ATOM     21  C   UNL     1       6.704   6.408   3.761  1.00  0.00     0.049 A 
ATOM     22  H   UNL     1       6.937   5.221   5.462  1.00  0.00     0.167 HD
ATOM     23  C   UNL     1       7.772   2.100   8.599  1.00  0.00     0.031 A 
ATOM     24  C   UNL     1       7.280   7.594   4.034  1.00  0.00     0.031 A 
ATOM     25  C   UNL     1       8.540   3.259   8.934  1.00  0.00     0.049 A 
ATOM     26  C   UNL     1       8.026   7.684   5.337  1.00  0.00     0.074 A 
ATOM     27  C   UNL     1       9.345   3.477  10.032  1.00  0.00     0.029 A 
ATOM     28  N   UNL     1       8.552   4.426   8.176  1.00  0.00    -0.354 N 
ATOM     29  N   UNL     1       8.193   6.750   6.247  1.00  0.00    -0.248 NA
ATOM     30  C   UNL     1       8.710   8.947   5.629  1.00  0.00     0.031 C 
ATOM     31  C   UNL     1       9.781   4.805   9.976  1.00  0.00     0.029 A 
ATOM     32  C   UNL     1       9.317   5.386   8.802  1.00  0.00     0.049 A 
ATOM     33  H   UNL     1       8.082   4.548   7.319  1.00  0.00     0.167 HD
ATOM     34  C   UNL     1       9.060   7.285   7.186  1.00  0.00     0.074 A 
ATOM     35  C   UNL     1       9.368   8.632   6.737  1.00  0.00     0.031 C 
ATOM     36  C   UNL     1       9.577   6.715   8.303  1.00  0.00     0.031 A 
BRANCH  23  37
ATOM     37  C   UNL     1       7.783   0.870   9.454  1.00  0.00    -0.014 A 
ATOM     38  C   UNL     1       8.335  -0.338   8.981  1.00  0.00     0.010 A 
ATOM     39  C   UNL     1       7.111   0.884  10.686  1.00  0.00     0.010 A 
ATOM     40  C   UNL     1       8.169  -1.520   9.706  1.00  0.00     0.020 A 
ATOM     41  C   UNL     1       6.963  -0.291  11.424  1.00  0.00     0.020 A 
ATOM     42  C   UNL     1       7.475  -1.489  10.920  1.00  0.00     0.054 A 
BRANCH  42  43
ATOM     43  S   UNL     1       7.250  -3.039  11.833  1.00  0.00     0.124 S 
ATOM     44  O   UNL     1       6.269  -3.737  11.006  1.00  0.00    -0.237 OA
ATOM     45  O   UNL     1       8.595  -3.609  11.828  1.00  0.00    -0.237 OA
ATOM     46  O   UNL     1       6.765  -2.603  13.140  1.00  0.00    -0.744 OA
ENDBRANCH  42  43
ENDBRANCH  23  37
BRANCH  24  47
ATOM     47  C   UNL     1       7.225   8.732   3.069  1.00  0.00    -0.014 A 
ATOM     48  C   UNL     1       8.382   9.202   2.422  1.00  0.00     0.010 A 
ATOM     49  C   UNL     1       6.002   9.382   2.811  1.00  0.00     0.010 A 
ATOM     50  C   UNL     1       8.326  10.316   1.572  1.00  0.00     0.020 A 
ATOM     51  C   UNL     1       5.936  10.483   1.947  1.00  0.00     0.020 A 
ATOM     52  C   UNL     1       7.103  10.954   1.345  1.00  0.00     0.054 A 
BRANCH  52  53
ATOM     53  S   UNL     1       7.059  12.397   0.241  1.00  0.00     0.124 S 
ATOM     54  O   UNL     1       7.804  13.391   1.008  1.00  0.00    -0.237 OA
ATOM     55  O   UNL     1       7.725  11.894  -0.958  1.00  0.00    -0.237 OA
ATOM     56  O   UNL     1       5.632  12.668   0.086  1.00  0.00    -0.744 OA
ENDBRANCH  52  53
ENDBRANCH  24  47
BRANCH  36  57
ATOM     57  C   UNL     1      10.562   7.536   9.080  1.00  0.00    -0.014 A 
ATOM     58  C   UNL     1      10.153   8.650   9.829  1.00  0.00     0.010 A 
ATOM     59  C   UNL     1      11.907   7.127   9.111  1.00  0.00     0.010 A 
ATOM     60  C   UNL     1      11.086   9.365  10.577  1.00  0.00     0.020 A 
ATOM     61  C   UNL     1      12.834   7.816   9.888  1.00  0.00     0.020 A 
ATOM     62  C   UNL     1      12.419   8.940  10.604  1.00  0.00     0.054 A 
BRANCH  62  63
ATOM     63  S   UNL     1      13.600   9.851  11.629  1.00  0.00     0.124 S 
ATOM     64  O   UNL     1      13.806  11.065  10.844  1.00  0.00    -0.237 OA
ATOM     65  O   UNL     1      12.867  10.026  12.881  1.00  0.00    -0.237 OA
ATOM     66  O   UNL     1      14.752   8.956  11.708  1.00  0.00    -0.744 OA
ENDBRANCH  62  63
ENDBRANCH  36  57
ENDBRANCH  10  11
ENDBRANCH   3   5
ENDBRANCH   2   3
ENDBRANCH   1   2
BRANCH   1  67
ATOM     67  C   UNL     1       4.200  -0.103  -0.874  1.00  0.00     0.274 C 
BRANCH  67  68
ATOM     68  O   UNL     1       3.612   1.042  -0.229  1.00  0.00    -0.462 OA
BRANCH  68  69
ATOM     69  C   UNL     1       2.466   1.550  -0.757  1.00  0.00     0.312 C 
ATOM     70  O   UNL     1       1.826   1.013  -1.659  1.00  0.00    -0.252 OA
BRANCH  69  71
ATOM     71  C   UNL     1       1.998   2.820  -0.084  1.00  0.00     0.147 C 
ATOM     72  C   UNL     1       1.683   4.033  -0.995  1.00  0.00     0.128 C 
ATOM     73  C   UNL     1       2.997   3.462   0.874  1.00  0.00     0.157 C 
ATOM     74  C   UNL     1       2.512   5.167  -0.371  1.00  0.00     0.155 C 
ATOM     75  C   UNL     1       2.301   4.445   1.773  1.00  0.00     0.004 C 
ATOM     76  O   UNL     1       3.679   4.406   0.007  1.00  0.00    -0.365 OA
ATOM     77  C   UNL     1       2.007   5.501   1.004  1.00  0.00     0.004 C 
BRANCH  72  78
ATOM     78  C   UNL     1       1.904   3.986  -2.495  1.00  0.00     0.227 C 
ATOM     79  O   UNL     1       0.955   4.290  -3.231  1.00  0.00    -0.275 OA
ATOM     80  N   UNL     1       3.064   3.717  -3.132  1.00  0.00    -0.352 N 
ATOM     81  H   UNL     1       2.995   3.847  -4.106  1.00  0.00     0.163 HD
BRANCH  80  82
ATOM     82  C   UNL     1       4.389   3.283  -2.727  1.00  0.00     0.151 C 
BRANCH  82  83
ATOM     83  C   UNL     1       4.825   2.016  -3.437  1.00  0.00    -0.026 A 
ATOM     84  C   UNL     1       3.909   1.120  -4.005  1.00  0.00     0.025 A 
ATOM     85  C   UNL     1       6.173   1.636  -3.412  1.00  0.00     0.025 A 
ATOM     86  C   UNL     1       4.357  -0.115  -4.454  1.00  0.00     0.111 A 
ATOM     87  C   UNL     1       6.528   0.386  -3.905  1.00  0.00     0.111 A 
ATOM     88  N   UNL     1       5.646  -0.506  -4.405  1.00  0.00    -0.265 NA
ENDBRANCH  82  83
ENDBRANCH  80  82
ENDBRANCH  72  78
ENDBRANCH  69  71
ENDBRANCH  68  69
ENDBRANCH  67  68
ENDBRANCH   1  67
TORSDOF 17
