REMARK SMILES O=C(CCCc1nc(-c2ccc(Cl)c(Cl)c2)c(-c2ccccc2)o1)OCCOC(=O)c1ccc(-c2c3nc(c(-c4ccc(S(=O)(=O)[O-])cc4)c4ccc([nH]4)c(-c4ccc(S(=O)(=O)[O-])cc4)c4nc(c(-c5ccc(S(=O)(=O)[O-])cc5)c5ccc2[nH]5)C=C4)C=C3)cc1
REMARK SMILES IDX 26 1 25 2 2 3 1 4 3 5 4 6 5 7 6 8 7 9 24 10 8 11 17 12 9 13
REMARK SMILES IDX 10 14 16 15 11 16 14 17 12 18 15 19 13 20 18 21 19 22 23 23
REMARK SMILES IDX 20 24 22 25 21 26 27 27 28 28 29 29 30 30 31 31 32 32 90 33
REMARK SMILES IDX 33 34 89 35 34 36 35 37 36 38 83 39 37 40 88 41 82 42 84 43
REMARK SMILES IDX 38 44 87 45 81 46 80 47 39 49 69 50 50 51 68 52 51 53 54 54
REMARK SMILES IDX 67 55 85 56 52 57 53 58 66 60 86 61 55 62 40 63 41 64 49 65
REMARK SMILES IDX 42 66 48 67 43 68 44 69 45 70 46 71 47 72 70 73 71 74 79 75
REMARK SMILES IDX 72 76 78 77 73 78 74 79 75 80 76 81 77 82 56 83 57 84 65 85
REMARK SMILES IDX 58 86 64 87 59 88 60 89 61 90 62 91 63 92
REMARK H PARENT 84 48 54 59
REMARK Flexibility Score: inf
ROOT
ATOM      1  C   UNL     1       3.799  -0.569  -1.482  1.00  0.00     0.274 C 
ENDROOT
BRANCH   1   2
ATOM      2  O   UNL     1       2.615  -0.819  -0.704  1.00  0.00    -0.462 OA
BRANCH   2   3
ATOM      3  C   UNL     1       2.687  -0.881   0.651  1.00  0.00     0.305 C 
ATOM      4  O   UNL     1       2.078  -1.746   1.274  1.00  0.00    -0.252 OA
BRANCH   3   5
ATOM      5  C   UNL     1       3.425   0.236   1.357  1.00  0.00     0.123 C 
BRANCH   5   6
ATOM      6  C   UNL     1       4.499  -0.224   2.342  1.00  0.00     0.021 C 
BRANCH   6   7
ATOM      7  C   UNL     1       5.777  -0.795   1.724  1.00  0.00     0.098 C 
BRANCH   7   8
ATOM      8  C   UNL     1       6.512   0.083   0.761  1.00  0.00     0.195 A 
ATOM      9  N   UNL     1       7.324  -0.315  -0.203  1.00  0.00    -0.213 NA
ATOM     10  O   UNL     1       6.253   1.433   0.759  1.00  0.00    -0.440 OA
ATOM     11  C   UNL     1       7.635   0.842  -0.870  1.00  0.00     0.117 A 
ATOM     12  C   UNL     1       6.941   1.906  -0.331  1.00  0.00     0.162 A 
BRANCH  11  13
ATOM     13  C   UNL     1       8.523   0.909  -2.007  1.00  0.00     0.006 A 
ATOM     14  C   UNL     1       8.243   0.173  -3.162  1.00  0.00     0.012 A 
ATOM     15  C   UNL     1       9.647   1.745  -1.972  1.00  0.00     0.032 A 
ATOM     16  C   UNL     1       9.066   0.295  -4.285  1.00  0.00     0.023 A 
ATOM     17  C   UNL     1      10.478   1.858  -3.090  1.00  0.00     0.060 A 
ATOM     18  C   UNL     1      10.183   1.137  -4.253  1.00  0.00     0.059 A 
ATOM     19  Cl  UNL     1      11.847   2.906  -2.971  1.00  0.00    -0.083 Cl
ATOM     20  Cl  UNL     1      11.152   1.243  -5.679  1.00  0.00    -0.083 Cl
ENDBRANCH  11  13
BRANCH  12  21
ATOM     21  C   UNL     1       6.753   3.297  -0.708  1.00  0.00     0.020 A 
ATOM     22  C   UNL     1       6.892   4.332   0.222  1.00  0.00     0.012 A 
ATOM     23  C   UNL     1       6.473   3.625  -2.046  1.00  0.00     0.012 A 
ATOM     24  C   UNL     1       6.783   5.665  -0.187  1.00  0.00     0.001 A 
ATOM     25  C   UNL     1       6.356   4.955  -2.452  1.00  0.00     0.001 A 
ATOM     26  C   UNL     1       6.519   5.976  -1.521  1.00  0.00     0.000 A 
ENDBRANCH  12  21
ENDBRANCH   7   8
ENDBRANCH   6   7
ENDBRANCH   5   6
ENDBRANCH   3   5
ENDBRANCH   2   3
ENDBRANCH   1   2
BRANCH   1  27
ATOM     27  C   UNL     1       3.726   0.728  -2.289  1.00  0.00     0.275 C 
BRANCH  27  28
ATOM     28  O   UNL     1       3.439   1.852  -1.442  1.00  0.00    -0.458 OA
BRANCH  28  29
ATOM     29  C   UNL     1       2.122   2.177  -1.375  1.00  0.00     0.338 C 
ATOM     30  O   UNL     1       1.241   1.735  -2.089  1.00  0.00    -0.246 OA
BRANCH  29  31
ATOM     31  C   UNL     1       1.848   3.039  -0.198  1.00  0.00     0.060 A 
ATOM     32  C   UNL     1       0.596   2.894   0.408  1.00  0.00     0.016 A 
ATOM     33  C   UNL     1       2.761   3.972   0.307  1.00  0.00     0.016 A 
ATOM     34  C   UNL     1       0.230   3.718   1.471  1.00  0.00     0.010 A 
ATOM     35  C   UNL     1       2.395   4.794   1.385  1.00  0.00     0.010 A 
ATOM     36  C   UNL     1       1.111   4.699   1.947  1.00  0.00    -0.014 A 
BRANCH  36  37
ATOM     37  C   UNL     1       0.598   5.679   2.941  1.00  0.00     0.031 A 
ATOM     38  C   UNL     1       0.142   7.037   2.473  1.00  0.00     0.074 A 
ATOM     39  C   UNL     1       0.422   5.327   4.228  1.00  0.00     0.049 A 
ATOM     40  N   UNL     1      -0.524   7.955   3.127  1.00  0.00    -0.248 NA
ATOM     41  C   UNL     1       0.471   7.405   1.087  1.00  0.00     0.031 C 
ATOM     42  C   UNL     1       0.814   4.047   4.818  1.00  0.00     0.029 A 
ATOM     43  N   UNL     1      -0.160   6.012   5.268  1.00  0.00    -0.354 N 
ATOM     44  C   UNL     1      -0.725   8.992   2.225  1.00  0.00     0.074 A 
ATOM     45  C   UNL     1      -0.057   8.618   0.997  1.00  0.00     0.031 C 
ATOM     46  C   UNL     1       0.449   4.034   6.112  1.00  0.00     0.029 A 
ATOM     47  C   UNL     1      -0.203   5.300   6.442  1.00  0.00     0.049 A 
ATOM     48  H   UNL     1      -0.512   6.927   5.179  1.00  0.00     0.167 HD
ATOM     49  C   UNL     1      -1.423  10.142   2.388  1.00  0.00     0.031 A 
ATOM     50  C   UNL     1      -0.724   5.621   7.644  1.00  0.00     0.031 A 
ATOM     51  C   UNL     1      -2.065  10.540   3.613  1.00  0.00     0.049 A 
ATOM     52  C   UNL     1      -1.454   6.928   7.817  1.00  0.00     0.074 A 
ATOM     53  C   UNL     1      -2.798  11.687   3.868  1.00  0.00     0.029 A 
ATOM     54  N   UNL     1      -2.046   9.809   4.790  1.00  0.00    -0.354 N 
ATOM     55  N   UNL     1      -1.687   7.867   6.932  1.00  0.00    -0.248 NA
ATOM     56  C   UNL     1      -2.014   7.202   9.149  1.00  0.00     0.031 C 
ATOM     57  C   UNL     1      -3.182  11.672   5.214  1.00  0.00     0.029 A 
ATOM     58  C   UNL     1      -2.734  10.491   5.781  1.00  0.00     0.049 A 
ATOM     59  H   UNL     1      -1.609   8.935   4.905  1.00  0.00     0.167 HD
ATOM     60  C   UNL     1      -2.438   8.834   7.596  1.00  0.00     0.074 A 
ATOM     61  C   UNL     1      -2.641   8.353   8.946  1.00  0.00     0.031 C 
ATOM     62  C   UNL     1      -2.918  10.013   7.128  1.00  0.00     0.031 A 
BRANCH  49  63
ATOM     63  C   UNL     1      -1.526  11.059   1.199  1.00  0.00    -0.014 A 
ATOM     64  C   UNL     1      -2.351  10.727   0.108  1.00  0.00     0.010 A 
ATOM     65  C   UNL     1      -0.829  12.279   1.187  1.00  0.00     0.010 A 
ATOM     66  C   UNL     1      -2.451  11.585  -0.989  1.00  0.00     0.020 A 
ATOM     67  C   UNL     1      -0.944  13.151   0.100  1.00  0.00     0.020 A 
ATOM     68  C   UNL     1      -1.743  12.791  -0.988  1.00  0.00     0.054 A 
BRANCH  68  69
ATOM     69  S   UNL     1      -1.907  13.897  -2.416  1.00  0.00     0.124 S 
ATOM     70  O   UNL     1      -1.119  13.198  -3.428  1.00  0.00    -0.237 OA
ATOM     71  O   UNL     1      -3.349  13.914  -2.646  1.00  0.00    -0.237 OA
ATOM     72  O   UNL     1      -1.339  15.158  -1.945  1.00  0.00    -0.744 OA
ENDBRANCH  68  69
ENDBRANCH  49  63
BRANCH  50  73
ATOM     73  C   UNL     1      -0.576   4.685   8.792  1.00  0.00    -0.014 A 
ATOM     74  C   UNL     1      -1.683   3.991   9.311  1.00  0.00     0.010 A 
ATOM     75  C   UNL     1       0.685   4.506   9.389  1.00  0.00     0.010 A 
ATOM     76  C   UNL     1      -1.537   3.157  10.424  1.00  0.00     0.020 A 
ATOM     77  C   UNL     1       0.840   3.654  10.485  1.00  0.00     0.020 A 
ATOM     78  C   UNL     1      -0.276   2.996  11.006  1.00  0.00     0.054 A 
BRANCH  78  79
ATOM     79  S   UNL     1      -0.097   1.885  12.429  1.00  0.00     0.124 S 
ATOM     80  O   UNL     1      -0.637   2.694  13.516  1.00  0.00    -0.237 OA
ATOM     81  O   UNL     1      -0.902   0.732  12.036  1.00  0.00    -0.237 OA
ATOM     82  O   UNL     1       1.343   1.637  12.486  1.00  0.00    -0.744 OA
ENDBRANCH  78  79
ENDBRANCH  50  73
BRANCH  62  83
ATOM     83  C   UNL     1      -3.720  10.861   8.082  1.00  0.00    -0.014 A 
ATOM     84  C   UNL     1      -3.103  11.527   9.157  1.00  0.00     0.010 A 
ATOM     85  C   UNL     1      -5.105  11.009   7.890  1.00  0.00     0.010 A 
ATOM     86  C   UNL     1      -3.866  12.284  10.052  1.00  0.00     0.020 A 
ATOM     87  C   UNL     1      -5.867  11.788   8.766  1.00  0.00     0.020 A 
ATOM     88  C   UNL     1      -5.245  12.403   9.855  1.00  0.00     0.054 A 
BRANCH  88  89
ATOM     89  S   UNL     1      -6.214  13.397  11.023  1.00  0.00     0.124 S 
ATOM     90  O   UNL     1      -6.320  12.499  12.170  1.00  0.00    -0.237 OA
ATOM     91  O   UNL     1      -5.373  14.574  11.223  1.00  0.00    -0.237 OA
ATOM     92  O   UNL     1      -7.464  13.647  10.309  1.00  0.00    -0.744 OA
ENDBRANCH  88  89
ENDBRANCH  62  83
ENDBRANCH  36  37
ENDBRANCH  29  31
ENDBRANCH  28  29
ENDBRANCH  27  28
ENDBRANCH   1  27
TORSDOF 19
