REMARK SMILES O=C(OCCOC(=O)c1cc(-c2ccc(Cl)cc2)nc2c3c(C4CC4)cc(C(F)(F)F)nc3nn12)c1ccc(-c2c3nc(c(-c4ccc(S(=O)(=O)[O-])cc4)c4ccc([nH]4)c(-c4ccc(S(=O)(=O)[O-])cc4)c4nc(c(-c5ccc(S(=O)(=O)[O-])cc5)c5ccc2[nH]5)C=C4)C=C3)cc1
REMARK SMILES IDX 4 1 3 2 2 3 1 4 36 5 37 6 95 7 38 8 94 9 39 10 40 11 41 12
REMARK SMILES IDX 88 13 42 14 93 15 87 16 89 17 43 18 92 19 86 20 85 21 44 23
REMARK SMILES IDX 74 24 55 25 73 26 56 27 59 28 72 29 90 30 57 31 58 32 71 34
REMARK SMILES IDX 91 35 60 36 45 37 46 38 54 39 47 40 53 41 48 42 49 43 50 44
REMARK SMILES IDX 51 45 52 46 75 47 76 48 84 49 77 50 83 51 78 52 79 53 80 54
REMARK SMILES IDX 81 55 82 56 61 57 62 58 70 59 63 60 69 61 64 62 65 63 66 64
REMARK SMILES IDX 67 65 68 66 5 67 6 68 7 69 8 70 9 71 10 72 35 73 11 74 20 75
REMARK SMILES IDX 34 76 19 77 21 78 33 79 22 80 32 81 26 82 27 83 12 84 13 85
REMARK SMILES IDX 18 86 14 87 17 88 15 89 16 90 23 91 24 92 25 93 28 94 29 95
REMARK SMILES IDX 30 96 31 97
REMARK H PARENT 89 22 59 33
REMARK Flexibility Score: inf
ROOT
ATOM      1  C   UNL     1       4.098   0.173   1.625  1.00  0.00     0.275 C 
ENDROOT
BRANCH   1   2
ATOM      2  O   UNL     1       2.933   0.536   0.859  1.00  0.00    -0.458 OA
BRANCH   2   3
ATOM      3  C   UNL     1       2.792   0.544  -0.488  1.00  0.00     0.338 C 
ATOM      4  O   UNL     1       1.674   0.700  -0.976  1.00  0.00    -0.246 OA
BRANCH   3   5
ATOM      5  C   UNL     1       3.941   0.385  -1.423  1.00  0.00     0.060 A 
ATOM      6  C   UNL     1       5.072  -0.393  -1.167  1.00  0.00     0.016 A 
ATOM      7  C   UNL     1       3.833   1.018  -2.671  1.00  0.00     0.016 A 
ATOM      8  C   UNL     1       6.115  -0.465  -2.066  1.00  0.00     0.010 A 
ATOM      9  C   UNL     1       4.874   0.938  -3.592  1.00  0.00     0.010 A 
ATOM     10  C   UNL     1       6.026   0.217  -3.268  1.00  0.00    -0.014 A 
BRANCH  10  11
ATOM     11  C   UNL     1       7.204   0.117  -4.128  1.00  0.00     0.031 A 
ATOM     12  C   UNL     1       6.913  -0.291  -5.522  1.00  0.00     0.074 A 
ATOM     13  C   UNL     1       8.309   0.804  -3.770  1.00  0.00     0.049 A 
ATOM     14  N   UNL     1       6.420   0.573  -6.355  1.00  0.00    -0.248 NA
ATOM     15  C   UNL     1       6.806  -1.675  -5.979  1.00  0.00     0.031 C 
ATOM     16  C   UNL     1       8.256   2.031  -2.951  1.00  0.00     0.029 A 
ATOM     17  N   UNL     1       9.610   0.739  -4.187  1.00  0.00    -0.354 N 
ATOM     18  C   UNL     1       5.886  -0.126  -7.414  1.00  0.00     0.074 A 
ATOM     19  C   UNL     1       6.175  -1.519  -7.157  1.00  0.00     0.031 C 
ATOM     20  C   UNL     1       9.408   2.709  -3.109  1.00  0.00     0.029 A 
ATOM     21  C   UNL     1      10.323   1.907  -3.908  1.00  0.00     0.049 A 
ATOM     22  H   UNL     1      10.001  -0.045  -4.636  1.00  0.00     0.167 HD
ATOM     23  C   UNL     1       5.216   0.510  -8.410  1.00  0.00     0.031 A 
ATOM     24  C   UNL     1      11.277   2.415  -4.734  1.00  0.00     0.031 A 
ATOM     25  C   UNL     1       5.074   1.928  -8.229  1.00  0.00     0.049 A 
ATOM     26  C   UNL     1      10.411   2.852  -5.903  1.00  0.00     0.074 A 
ATOM     27  C   UNL     1       4.102   2.793  -7.776  1.00  0.00     0.029 A 
ATOM     28  N   UNL     1       6.190   2.713  -8.408  1.00  0.00    -0.354 N 
ATOM     29  N   UNL     1       9.630   3.901  -5.937  1.00  0.00    -0.248 NA
ATOM     30  C   UNL     1      10.123   1.856  -6.940  1.00  0.00     0.031 C 
ATOM     31  C   UNL     1       4.808   3.938  -7.288  1.00  0.00     0.029 A 
ATOM     32  C   UNL     1       6.172   3.692  -7.445  1.00  0.00     0.049 A 
ATOM     33  H   UNL     1       6.878   2.595  -9.103  1.00  0.00     0.167 HD
ATOM     34  C   UNL     1       8.572   3.560  -6.786  1.00  0.00     0.074 A 
ATOM     35  C   UNL     1       8.952   2.296  -7.385  1.00  0.00     0.031 C 
ATOM     36  C   UNL     1       7.375   4.220  -6.826  1.00  0.00     0.031 A 
BRANCH  23  37
ATOM     37  C   UNL     1       4.825  -0.123  -9.683  1.00  0.00    -0.014 A 
ATOM     38  C   UNL     1       5.762  -0.059 -10.729  1.00  0.00     0.010 A 
ATOM     39  C   UNL     1       3.523  -0.571  -9.945  1.00  0.00     0.010 A 
ATOM     40  C   UNL     1       5.394  -0.380 -12.031  1.00  0.00     0.020 A 
ATOM     41  C   UNL     1       3.151  -0.910 -11.255  1.00  0.00     0.020 A 
ATOM     42  C   UNL     1       4.085  -0.789 -12.291  1.00  0.00     0.054 A 
BRANCH  42  43
ATOM     43  S   UNL     1       3.619  -1.075 -14.020  1.00  0.00     0.124 S 
ATOM     44  O   UNL     1       3.978   0.192 -14.653  1.00  0.00    -0.237 OA
ATOM     45  O   UNL     1       4.455  -2.217 -14.377  1.00  0.00    -0.237 OA
ATOM     46  O   UNL     1       2.186  -1.349 -13.952  1.00  0.00    -0.744 OA
ENDBRANCH  42  43
ENDBRANCH  23  37
BRANCH  24  47
ATOM     47  C   UNL     1      12.474   1.517  -4.877  1.00  0.00    -0.014 A 
ATOM     48  C   UNL     1      12.993   0.908  -3.708  1.00  0.00     0.010 A 
ATOM     49  C   UNL     1      13.089   1.202  -6.098  1.00  0.00     0.010 A 
ATOM     50  C   UNL     1      13.953  -0.103  -3.775  1.00  0.00     0.020 A 
ATOM     51  C   UNL     1      14.043   0.175  -6.176  1.00  0.00     0.020 A 
ATOM     52  C   UNL     1      14.435  -0.499  -5.019  1.00  0.00     0.054 A 
BRANCH  52  53
ATOM     53  S   UNL     1      15.534  -1.937  -5.095  1.00  0.00     0.124 S 
ATOM     54  O   UNL     1      16.586  -1.582  -4.146  1.00  0.00    -0.237 OA
ATOM     55  O   UNL     1      14.644  -3.016  -4.673  1.00  0.00    -0.237 OA
ATOM     56  O   UNL     1      15.947  -1.981  -6.495  1.00  0.00    -0.744 OA
ENDBRANCH  52  53
ENDBRANCH  24  47
BRANCH  36  57
ATOM     57  C   UNL     1       7.272   5.482  -6.025  1.00  0.00    -0.014 A 
ATOM     58  C   UNL     1       7.936   6.635  -6.468  1.00  0.00     0.010 A 
ATOM     59  C   UNL     1       6.425   5.568  -4.903  1.00  0.00     0.010 A 
ATOM     60  C   UNL     1       7.715   7.864  -5.842  1.00  0.00     0.020 A 
ATOM     61  C   UNL     1       6.190   6.798  -4.279  1.00  0.00     0.020 A 
ATOM     62  C   UNL     1       6.822   7.943  -4.769  1.00  0.00     0.054 A 
BRANCH  62  63
ATOM     63  S   UNL     1       6.472   9.575  -4.061  1.00  0.00     0.124 S 
ATOM     64  O   UNL     1       7.803  10.062  -3.706  1.00  0.00    -0.237 OA
ATOM     65  O   UNL     1       5.828  10.266  -5.175  1.00  0.00    -0.237 OA
ATOM     66  O   UNL     1       5.598   9.284  -2.926  1.00  0.00    -0.744 OA
ENDBRANCH  62  63
ENDBRANCH  36  57
ENDBRANCH  10  11
ENDBRANCH   3   5
ENDBRANCH   2   3
ENDBRANCH   1   2
BRANCH   1  67
ATOM     67  C   UNL     1       4.083  -1.328   1.973  1.00  0.00     0.275 C 
BRANCH  67  68
ATOM     68  O   UNL     1       3.760  -2.157   0.834  1.00  0.00    -0.457 OA
BRANCH  68  69
ATOM     69  C   UNL     1       2.455  -2.460   0.648  1.00  0.00     0.357 C 
ATOM     70  O   UNL     1       1.552  -2.215   1.444  1.00  0.00    -0.244 OA
BRANCH  69  71
ATOM     71  C   UNL     1       2.203  -2.996  -0.702  1.00  0.00     0.154 A 
ATOM     72  C   UNL     1       1.165  -2.448  -1.357  1.00  0.00     0.065 A 
ATOM     73  N   UNL     1       2.919  -4.046  -1.278  1.00  0.00    -0.205 N 
ATOM     74  C   UNL     1       0.855  -3.035  -2.688  1.00  0.00     0.075 A 
ATOM     75  C   UNL     1       2.481  -4.615  -2.497  1.00  0.00     0.166 A 
ATOM     76  N   UNL     1       4.008  -4.687  -0.784  1.00  0.00    -0.145 NA
ATOM     77  N   UNL     1       1.444  -4.069  -3.211  1.00  0.00    -0.228 NA
ATOM     78  C   UNL     1       3.265  -5.735  -2.683  1.00  0.00     0.069 A 
ATOM     79  C   UNL     1       4.219  -5.694  -1.624  1.00  0.00     0.184 A 
ATOM     80  C   UNL     1       3.161  -6.718  -3.682  1.00  0.00    -0.028 A 
ATOM     81  N   UNL     1       5.190  -6.627  -1.484  1.00  0.00    -0.222 NA
ATOM     82  C   UNL     1       4.189  -7.667  -3.502  1.00  0.00     0.038 A 
ATOM     83  C   UNL     1       5.145  -7.603  -2.448  1.00  0.00     0.147 A 
BRANCH  74  84
ATOM     84  C   UNL     1      -0.261  -2.379  -3.394  1.00  0.00     0.000 A 
ATOM     85  C   UNL     1      -1.540  -2.931  -3.284  1.00  0.00     0.012 A 
ATOM     86  C   UNL     1      -0.046  -1.198  -4.113  1.00  0.00     0.012 A 
ATOM     87  C   UNL     1      -2.621  -2.281  -3.881  1.00  0.00     0.021 A 
ATOM     88  C   UNL     1      -1.133  -0.557  -4.716  1.00  0.00     0.021 A 
ATOM     89  C   UNL     1      -2.415  -1.097  -4.590  1.00  0.00     0.041 A 
ATOM     90  Cl  UNL     1      -3.759  -0.293  -5.305  1.00  0.00    -0.084 Cl
ENDBRANCH  74  84
BRANCH  80  91
ATOM     91  C   UNL     1       2.066  -6.761  -4.705  1.00  0.00     0.020 C 
ATOM     92  C   UNL     1       1.942  -7.876  -5.721  1.00  0.00     0.009 C 
ATOM     93  C   UNL     1       0.992  -7.821  -4.564  1.00  0.00     0.009 C 
ENDBRANCH  80  91
BRANCH  83  94
ATOM     94  C   UNL     1       6.189  -8.715  -2.356  1.00  0.00     0.433 C 
ATOM     95  F   UNL     1       7.450  -8.293  -2.646  1.00  0.00    -0.165 F 
ATOM     96  F   UNL     1       6.253  -9.286  -1.118  1.00  0.00    -0.165 F 
ATOM     97  F   UNL     1       5.947  -9.755  -3.212  1.00  0.00    -0.165 F 
ENDBRANCH  83  94
ENDBRANCH  69  71
ENDBRANCH  68  69
ENDBRANCH  67  68
ENDBRANCH   1  67
TORSDOF 17
