REMARK SMILES O=C(OCCOC(=O)c1cn(C2CN(C(=O)Nc3ccsc3)C2)nn1)c1ccc(-c2c3nc(c(-c4ccc(S(=O)(=O)[O-])cc4)c4ccc([nH]4)c(-c4ccc(S(=O)(=O)[O-])cc4)c4nc(c(-c5ccc(S(=O)(=O)[O-])cc5)c5ccc2[nH]5)C=C4)C=C3)cc1
REMARK SMILES IDX 4 1 3 2 2 3 1 4 26 5 27 6 85 7 28 8 84 9 29 10 30 11 31 12
REMARK SMILES IDX 78 13 32 14 83 15 77 16 79 17 33 18 82 19 76 20 75 21 34 23
REMARK SMILES IDX 64 24 45 25 63 26 46 27 49 28 62 29 80 30 47 31 48 32 61 34
REMARK SMILES IDX 81 35 50 36 35 37 36 38 44 39 37 40 43 41 38 42 39 43 40 44
REMARK SMILES IDX 41 45 42 46 65 47 66 48 74 49 67 50 73 51 68 52 69 53 70 54
REMARK SMILES IDX 71 55 72 56 51 57 52 58 60 59 53 60 59 61 54 62 55 63 56 64
REMARK SMILES IDX 57 65 58 66 5 67 6 68 7 69 8 70 9 71 10 72 25 73 11 74 24 75
REMARK SMILES IDX 12 76 13 77 23 78 14 79 15 80 16 81 17 82 18 84 19 85 22 86
REMARK SMILES IDX 20 87 21 88
REMARK H PARENT 79 22 49 33 17 83
REMARK Flexibility Score: inf
ROOT
ATOM      1  C   UNL     1       4.608   0.869  -0.782  1.00  0.00     0.275 C 
ENDROOT
BRANCH   1   2
ATOM      2  O   UNL     1       3.300   0.595  -1.327  1.00  0.00    -0.458 OA
BRANCH   2   3
ATOM      3  C   UNL     1       2.286   0.131  -0.562  1.00  0.00     0.338 C 
ATOM      4  O   UNL     1       1.346   0.838  -0.227  1.00  0.00    -0.246 OA
BRANCH   3   5
ATOM      5  C   UNL     1       2.238  -1.349  -0.418  1.00  0.00     0.060 A 
ATOM      6  C   UNL     1       3.342  -2.180  -0.629  1.00  0.00     0.016 A 
ATOM      7  C   UNL     1       0.993  -1.919  -0.108  1.00  0.00     0.016 A 
ATOM      8  C   UNL     1       3.179  -3.558  -0.647  1.00  0.00     0.010 A 
ATOM      9  C   UNL     1       0.828  -3.297  -0.126  1.00  0.00     0.010 A 
ATOM     10  C   UNL     1       1.910  -4.109  -0.456  1.00  0.00    -0.014 A 
BRANCH  10  11
ATOM     11  C   UNL     1       1.770  -5.559  -0.516  1.00  0.00     0.031 A 
ATOM     12  C   UNL     1       2.498  -6.285   0.562  1.00  0.00     0.074 A 
ATOM     13  C   UNL     1       0.956  -6.178  -1.397  1.00  0.00     0.049 A 
ATOM     14  N   UNL     1       3.502  -7.090   0.446  1.00  0.00    -0.248 NA
ATOM     15  C   UNL     1       2.160  -5.955   1.958  1.00  0.00     0.031 C 
ATOM     16  C   UNL     1      -0.005  -5.564  -2.320  1.00  0.00     0.029 A 
ATOM     17  N   UNL     1       0.729  -7.509  -1.576  1.00  0.00    -0.354 N 
ATOM     18  C   UNL     1       3.773  -7.554   1.732  1.00  0.00     0.074 A 
ATOM     19  C   UNL     1       3.043  -6.695   2.629  1.00  0.00     0.031 C 
ATOM     20  C   UNL     1      -0.873  -6.506  -2.756  1.00  0.00     0.029 A 
ATOM     21  C   UNL     1      -0.444  -7.805  -2.268  1.00  0.00     0.049 A 
ATOM     22  H   UNL     1       1.342  -8.204  -1.244  1.00  0.00     0.167 HD
ATOM     23  C   UNL     1       4.370  -8.761   1.945  1.00  0.00     0.031 A 
ATOM     24  C   UNL     1      -1.048  -9.019  -2.378  1.00  0.00     0.031 A 
ATOM     25  C   UNL     1       5.013  -9.251   0.752  1.00  0.00     0.049 A 
ATOM     26  C   UNL     1      -0.022 -10.044  -2.066  1.00  0.00     0.074 A 
ATOM     27  C   UNL     1       6.023  -8.796  -0.070  1.00  0.00     0.029 A 
ATOM     28  N   UNL     1       4.341 -10.210   0.030  1.00  0.00    -0.354 N 
ATOM     29  N   UNL     1       1.026 -10.254  -2.812  1.00  0.00    -0.248 NA
ATOM     30  C   UNL     1       0.092 -10.494  -0.688  1.00  0.00     0.031 C 
ATOM     31  C   UNL     1       5.600  -9.136  -1.389  1.00  0.00     0.029 A 
ATOM     32  C   UNL     1       4.404  -9.850  -1.289  1.00  0.00     0.049 A 
ATOM     33  H   UNL     1       3.896 -11.009   0.396  1.00  0.00     0.167 HD
ATOM     34  C   UNL     1       2.067 -10.440  -1.915  1.00  0.00     0.074 A 
ATOM     35  C   UNL     1       1.417 -10.662  -0.622  1.00  0.00     0.031 C 
ATOM     36  C   UNL     1       3.353 -10.118  -2.246  1.00  0.00     0.031 A 
BRANCH  23  37
ATOM     37  C   UNL     1       3.986  -9.692   3.076  1.00  0.00    -0.014 A 
ATOM     38  C   UNL     1       4.604 -10.960   3.143  1.00  0.00     0.010 A 
ATOM     39  C   UNL     1       2.837  -9.504   3.872  1.00  0.00     0.010 A 
ATOM     40  C   UNL     1       4.030 -12.014   3.866  1.00  0.00     0.020 A 
ATOM     41  C   UNL     1       2.281 -10.536   4.632  1.00  0.00     0.020 A 
ATOM     42  C   UNL     1       2.857 -11.797   4.587  1.00  0.00     0.054 A 
BRANCH  42  43
ATOM     43  S   UNL     1       2.046 -13.195   5.400  1.00  0.00     0.124 S 
ATOM     44  O   UNL     1       1.644 -14.011   4.258  1.00  0.00    -0.237 OA
ATOM     45  O   UNL     1       3.124 -13.740   6.221  1.00  0.00    -0.237 OA
ATOM     46  O   UNL     1       0.955 -12.571   6.144  1.00  0.00    -0.744 OA
ENDBRANCH  42  43
ENDBRANCH  23  37
BRANCH  24  47
ATOM     47  C   UNL     1      -2.507  -9.320  -2.370  1.00  0.00    -0.014 A 
ATOM     48  C   UNL     1      -3.002 -10.592  -2.720  1.00  0.00     0.010 A 
ATOM     49  C   UNL     1      -3.398  -8.431  -1.735  1.00  0.00     0.010 A 
ATOM     50  C   UNL     1      -4.320 -10.976  -2.398  1.00  0.00     0.020 A 
ATOM     51  C   UNL     1      -4.710  -8.804  -1.414  1.00  0.00     0.020 A 
ATOM     52  C   UNL     1      -5.160 -10.083  -1.727  1.00  0.00     0.054 A 
BRANCH  52  53
ATOM     53  S   UNL     1      -6.798 -10.637  -1.155  1.00  0.00     0.124 S 
ATOM     54  O   UNL     1      -7.538 -10.767  -2.407  1.00  0.00    -0.237 OA
ATOM     55  O   UNL     1      -6.492 -11.889  -0.470  1.00  0.00    -0.237 OA
ATOM     56  O   UNL     1      -7.244  -9.551  -0.283  1.00  0.00    -0.744 OA
ENDBRANCH  52  53
ENDBRANCH  24  47
BRANCH  36  57
ATOM     57  C   UNL     1       3.672  -9.806  -3.690  1.00  0.00    -0.014 A 
ATOM     58  C   UNL     1       3.119  -8.725  -4.406  1.00  0.00     0.010 A 
ATOM     59  C   UNL     1       4.701 -10.551  -4.292  1.00  0.00     0.010 A 
ATOM     60  C   UNL     1       3.571  -8.418  -5.700  1.00  0.00     0.020 A 
ATOM     61  C   UNL     1       5.167 -10.240  -5.570  1.00  0.00     0.020 A 
ATOM     62  C   UNL     1       4.594  -9.181  -6.273  1.00  0.00     0.054 A 
BRANCH  62  63
ATOM     63  S   UNL     1       5.207  -8.762  -7.930  1.00  0.00     0.124 S 
ATOM     64  O   UNL     1       4.072  -9.098  -8.784  1.00  0.00    -0.237 OA
ATOM     65  O   UNL     1       5.508  -7.336  -7.814  1.00  0.00    -0.237 OA
ATOM     66  O   UNL     1       6.380  -9.620  -8.094  1.00  0.00    -0.744 OA
ENDBRANCH  62  63
ENDBRANCH  36  57
ENDBRANCH  10  11
ENDBRANCH   3   5
ENDBRANCH   2   3
ENDBRANCH   1   2
BRANCH   1  67
ATOM     67  C   UNL     1       4.670   1.558   0.579  1.00  0.00     0.275 C 
BRANCH  67  68
ATOM     68  O   UNL     1       4.259   0.648   1.607  1.00  0.00    -0.457 OA
BRANCH  68  69
ATOM     69  C   UNL     1       3.125   0.981   2.287  1.00  0.00     0.360 C 
ATOM     70  O   UNL     1       2.550   2.062   2.213  1.00  0.00    -0.244 OA
BRANCH  69  71
ATOM     71  C   UNL     1       2.675  -0.121   3.101  1.00  0.00     0.190 A 
ATOM     72  C   UNL     1       3.384  -0.783   4.084  1.00  0.00     0.147 A 
ATOM     73  N   UNL     1       1.427  -0.676   2.993  1.00  0.00    -0.123 NA
ATOM     74  N   UNL     1       2.482  -1.680   4.581  1.00  0.00    -0.245 N 
ATOM     75  N   UNL     1       1.343  -1.669   3.864  1.00  0.00    -0.066 NA
BRANCH  74  76
ATOM     76  C   UNL     1       2.502  -2.316   5.858  1.00  0.00     0.148 C 
ATOM     77  C   UNL     1       3.836  -2.636   6.537  1.00  0.00     0.150 C 
ATOM     78  C   UNL     1       2.337  -1.223   6.939  1.00  0.00     0.150 C 
ATOM     79  N   UNL     1       3.241  -2.021   7.731  1.00  0.00    -0.320 N 
ATOM     80  C   UNL     1       3.769  -1.966   8.978  1.00  0.00     0.322 C 
ATOM     81  O   UNL     1       4.769  -2.628   9.270  1.00  0.00    -0.248 OA
ATOM     82  N   UNL     1       3.316  -1.072   9.897  1.00  0.00    -0.307 N 
ATOM     83  H   UNL     1       3.931  -0.927  10.652  1.00  0.00     0.171 HD
BRANCH  82  84
ATOM     84  C   UNL     1       2.152  -0.330   9.969  1.00  0.00     0.053 A 
ATOM     85  C   UNL     1       0.843  -0.697   9.544  1.00  0.00     0.038 A 
ATOM     86  C   UNL     1       2.134   0.907  10.582  1.00  0.00     0.091 A 
ATOM     87  C   UNL     1      -0.054   0.346   9.629  1.00  0.00     0.067 A 
ATOM     88  S   UNL     1       0.633   1.709  10.395  1.00  0.00    -0.150 S 
ENDBRANCH  82  84
ENDBRANCH  74  76
ENDBRANCH  69  71
ENDBRANCH  68  69
ENDBRANCH  67  68
ENDBRANCH   1  67
TORSDOF 16
