REMARK SMILES O=C(Nc1c(F)cc(F)cc1F)N[C@H]1C=C[C@H](C(=O)OCCOC(=O)c2ccc(-c3c4nc(c(-c5ccc(S(=O)(=O)[O-])cc5)c5ccc([nH]5)c(-c5ccc(S(=O)(=O)[O-])cc5)c5nc(c(-c6ccc(S(=O)(=O)[O-])cc6)c6ccc3[nH]6)C=C5)C=C4)cc2)C1
REMARK SMILES IDX 22 1 21 2 20 3 18 4 19 5 17 6 14 7 15 8 86 9 16 10 13 11
REMARK SMILES IDX 1 12 2 13 3 14 4 17 5 18 11 19 6 20 7 21 10 22 12 23 8 24
REMARK SMILES IDX 9 25 23 26 24 27 25 28 26 29 27 30 85 31 28 32 84 33 29 34
REMARK SMILES IDX 30 35 31 36 78 37 32 38 83 39 77 40 79 41 33 42 82 43 76 44
REMARK SMILES IDX 75 45 34 47 64 48 45 49 63 50 46 51 49 52 62 53 80 54 47 55
REMARK SMILES IDX 48 56 61 58 81 59 50 60 35 61 36 62 44 63 37 64 43 65 38 66
REMARK SMILES IDX 39 67 40 68 41 69 42 70 65 71 66 72 74 73 67 74 73 75 68 76
REMARK SMILES IDX 69 77 70 78 71 79 72 80 51 81 52 82 60 83 53 84 59 85 54 86
REMARK SMILES IDX 55 87 56 88 57 89 58 90
REMARK H PARENT 3 15 13 16 79 46 49 57
REMARK Flexibility Score: inf
ROOT
ATOM      1  C   UNL     1      -0.827   3.694   5.662  1.00  0.00     0.275 C 
ENDROOT
BRANCH   1   2
ATOM      2  C   UNL     1       0.354   4.647   5.485  1.00  0.00     0.274 C 
BRANCH   2   3
ATOM      3  O   UNL     1       1.238   4.178   4.449  1.00  0.00    -0.462 OA
BRANCH   3   4
ATOM      4  C   UNL     1       2.351   3.519   4.870  1.00  0.00     0.312 C 
ATOM      5  O   UNL     1       2.685   3.415   6.045  1.00  0.00    -0.252 OA
BRANCH   4   6
ATOM      6  C   UNL     1       3.189   2.994   3.703  1.00  0.00     0.124 C 
ATOM      7  C   UNL     1       2.523   1.018   2.356  1.00  0.00     0.107 C 
ATOM      8  C   UNL     1       3.470   0.668   3.454  1.00  0.00    -0.006 C 
ATOM      9  C   UNL     1       2.404   2.548   2.455  1.00  0.00     0.048 C 
ATOM     10  C   UNL     1       3.885   1.737   4.137  1.00  0.00    -0.014 C 
BRANCH   7  11
ATOM     11  N   UNL     1       3.184   0.602   1.147  1.00  0.00    -0.332 N 
ATOM     12  O   UNL     1       1.373   0.588  -0.219  1.00  0.00    -0.248 OA
ATOM     13  C   UNL     1       2.573   0.398  -0.041  1.00  0.00     0.319 C 
ATOM     14  N   UNL     1       3.368   0.092  -1.108  1.00  0.00    -0.303 N 
ATOM     15  H   UNL     1       2.889   0.080  -1.968  1.00  0.00     0.172 HD
ATOM     16  H   UNL     1       4.156   0.455   1.188  1.00  0.00     0.165 HD
BRANCH  14  17
ATOM     17  C   UNL     1       4.744  -0.212  -1.219  1.00  0.00     0.115 A 
ATOM     18  C   UNL     1       5.554  -0.739  -0.206  1.00  0.00     0.152 A 
ATOM     19  C   UNL     1       5.351   0.045  -2.454  1.00  0.00     0.152 A 
ATOM     20  F   UNL     1       5.040  -1.096   0.978  1.00  0.00    -0.204 F 
ATOM     21  C   UNL     1       6.922  -0.928  -0.385  1.00  0.00     0.081 A 
ATOM     22  C   UNL     1       6.718  -0.127  -2.651  1.00  0.00     0.081 A 
ATOM     23  F   UNL     1       4.614   0.528  -3.467  1.00  0.00    -0.204 F 
ATOM     24  C   UNL     1       7.494  -0.602  -1.604  1.00  0.00     0.129 A 
ATOM     25  F   UNL     1       8.814  -0.747  -1.773  1.00  0.00    -0.207 F 
ENDBRANCH  14  17
ENDBRANCH   7  11
ENDBRANCH   4   6
ENDBRANCH   3   4
ENDBRANCH   2   3
ENDBRANCH   1   2
BRANCH   1  26
ATOM     26  O   UNL     1      -0.385   2.436   6.206  1.00  0.00    -0.458 OA
BRANCH  26  27
ATOM     27  C   UNL     1      -0.456   1.378   5.366  1.00  0.00     0.338 C 
ATOM     28  O   UNL     1      -0.859   1.370   4.216  1.00  0.00    -0.246 OA
BRANCH  27  29
ATOM     29  C   UNL     1       0.069   0.178   6.036  1.00  0.00     0.060 A 
ATOM     30  C   UNL     1       1.446   0.036   6.182  1.00  0.00     0.016 A 
ATOM     31  C   UNL     1      -0.788  -0.862   6.395  1.00  0.00     0.016 A 
ATOM     32  C   UNL     1       1.981  -1.179   6.606  1.00  0.00     0.010 A 
ATOM     33  C   UNL     1      -0.252  -2.051   6.906  1.00  0.00     0.010 A 
ATOM     34  C   UNL     1       1.140  -2.236   6.984  1.00  0.00    -0.014 A 
BRANCH  34  35
ATOM     35  C   UNL     1       1.721  -3.534   7.430  1.00  0.00     0.031 A 
ATOM     36  C   UNL     1       1.446  -4.800   6.657  1.00  0.00     0.074 A 
ATOM     37  C   UNL     1       2.522  -3.583   8.515  1.00  0.00     0.049 A 
ATOM     38  N   UNL     1       1.754  -6.036   6.961  1.00  0.00    -0.248 NA
ATOM     39  C   UNL     1       0.728  -4.660   5.379  1.00  0.00     0.031 C 
ATOM     40  C   UNL     1       2.912  -2.434   9.337  1.00  0.00     0.029 A 
ATOM     41  N   UNL     1       3.166  -4.643   9.106  1.00  0.00    -0.354 N 
ATOM     42  C   UNL     1       1.231  -6.822   5.940  1.00  0.00     0.074 A 
ATOM     43  C   UNL     1       0.584  -5.925   5.007  1.00  0.00     0.031 C 
ATOM     44  C   UNL     1       3.756  -2.845  10.296  1.00  0.00     0.029 A 
ATOM     45  C   UNL     1       3.912  -4.292  10.206  1.00  0.00     0.049 A 
ATOM     46  H   UNL     1       3.098  -5.567   8.773  1.00  0.00     0.167 HD
ATOM     47  C   UNL     1       1.283  -8.168   5.793  1.00  0.00     0.031 A 
ATOM     48  C   UNL     1       4.619  -5.048  11.068  1.00  0.00     0.031 A 
ATOM     49  C   UNL     1       1.955  -9.062   6.699  1.00  0.00     0.049 A 
ATOM     50  C   UNL     1       4.644  -6.540  10.894  1.00  0.00     0.074 A 
ATOM     51  C   UNL     1       2.039 -10.444   6.642  1.00  0.00     0.029 A 
ATOM     52  N   UNL     1       2.677  -8.664   7.812  1.00  0.00    -0.354 N 
ATOM     53  N   UNL     1       4.079  -7.269   9.962  1.00  0.00    -0.248 NA
ATOM     54  C   UNL     1       5.388  -7.312  11.899  1.00  0.00     0.031 C 
ATOM     55  C   UNL     1       2.797 -10.883   7.734  1.00  0.00     0.029 A 
ATOM     56  C   UNL     1       3.212  -9.771   8.449  1.00  0.00     0.049 A 
ATOM     57  H   UNL     1       2.793  -7.732   8.107  1.00  0.00     0.167 HD
ATOM     58  C   UNL     1       4.403  -8.585  10.267  1.00  0.00     0.074 A 
ATOM     59  C   UNL     1       5.234  -8.552  11.453  1.00  0.00     0.031 C 
ATOM     60  C   UNL     1       4.037  -9.722   9.627  1.00  0.00     0.031 A 
BRANCH  47  61
ATOM     61  C   UNL     1       0.568  -8.768   4.613  1.00  0.00    -0.014 A 
ATOM     62  C   UNL     1       1.121  -8.715   3.323  1.00  0.00     0.010 A 
ATOM     63  C   UNL     1      -0.649  -9.447   4.812  1.00  0.00     0.010 A 
ATOM     64  C   UNL     1       0.458  -9.310   2.245  1.00  0.00     0.020 A 
ATOM     65  C   UNL     1      -1.305 -10.060   3.741  1.00  0.00     0.020 A 
ATOM     66  C   UNL     1      -0.753  -9.976   2.461  1.00  0.00     0.054 A 
BRANCH  66  67
ATOM     67  S   UNL     1      -1.576 -10.776   1.055  1.00  0.00     0.124 S 
ATOM     68  O   UNL     1      -2.190  -9.637   0.378  1.00  0.00    -0.237 OA
ATOM     69  O   UNL     1      -0.466 -11.406   0.344  1.00  0.00    -0.237 OA
ATOM     70  O   UNL     1      -2.512 -11.704   1.685  1.00  0.00    -0.744 OA
ENDBRANCH  66  67
ENDBRANCH  47  61
BRANCH  48  71
ATOM     71  C   UNL     1       5.326  -4.411  12.211  1.00  0.00    -0.014 A 
ATOM     72  C   UNL     1       6.730  -4.339  12.232  1.00  0.00     0.010 A 
ATOM     73  C   UNL     1       4.595  -3.878  13.288  1.00  0.00     0.010 A 
ATOM     74  C   UNL     1       7.391  -3.763  13.321  1.00  0.00     0.020 A 
ATOM     75  C   UNL     1       5.251  -3.279  14.365  1.00  0.00     0.020 A 
ATOM     76  C   UNL     1       6.647  -3.239  14.383  1.00  0.00     0.054 A 
BRANCH  76  77
ATOM     77  S   UNL     1       7.511  -2.453  15.770  1.00  0.00     0.124 S 
ATOM     78  O   UNL     1       7.859  -3.602  16.599  1.00  0.00    -0.237 OA
ATOM     79  O   UNL     1       8.632  -1.782  15.116  1.00  0.00    -0.237 OA
ATOM     80  O   UNL     1       6.502  -1.556  16.330  1.00  0.00    -0.744 OA
ENDBRANCH  76  77
ENDBRANCH  48  71
BRANCH  60  81
ATOM     81  C   UNL     1       4.552 -11.018  10.185  1.00  0.00    -0.014 A 
ATOM     82  C   UNL     1       3.979 -11.585  11.337  1.00  0.00     0.010 A 
ATOM     83  C   UNL     1       5.601 -11.690   9.534  1.00  0.00     0.010 A 
ATOM     84  C   UNL     1       4.468 -12.790  11.847  1.00  0.00     0.020 A 
ATOM     85  C   UNL     1       6.081 -12.904  10.031  1.00  0.00     0.020 A 
ATOM     86  C   UNL     1       5.521 -13.439  11.194  1.00  0.00     0.054 A 
BRANCH  86  87
ATOM     87  S   UNL     1       6.125 -15.018  11.852  1.00  0.00     0.124 S 
ATOM     88  O   UNL     1       6.984 -14.581  12.948  1.00  0.00    -0.237 OA
ATOM     89  O   UNL     1       4.894 -15.697  12.250  1.00  0.00    -0.237 OA
ATOM     90  O   UNL     1       6.819 -15.621  10.716  1.00  0.00    -0.744 OA
ENDBRANCH  86  87
ENDBRANCH  60  81
ENDBRANCH  34  35
ENDBRANCH  27  29
ENDBRANCH  26  27
ENDBRANCH   1  26
TORSDOF 16
