REMARK SMILES CO[C@H](C)c1noc(C[C@](C)(C(=O)OCCOC(=O)c2ccc(-c3c4nc(c(-c5ccc(S(=O)(=O)[O-])cc5)c5ccc([nH]5)c(-c5ccc(S(=O)(=O)[O-])cc5)c5nc(c(-c6ccc(S(=O)(=O)[O-])cc6)c6ccc3[nH]6)C=C5)C=C4)cc2)c2ccccc2)n1
REMARK SMILES IDX 15 1 14 2 12 3 13 4 10 5 11 6 9 7 8 8 5 9 6 10 86 11 7 12
REMARK SMILES IDX 3 13 4 14 2 15 1 16 80 17 81 18 85 19 82 20 84 21 83 22
REMARK SMILES IDX 16 23 17 24 18 25 19 26 20 27 21 28 79 29 22 30 78 31 23 32
REMARK SMILES IDX 24 33 25 34 72 35 26 36 77 37 71 38 73 39 27 40 76 41 70 42
REMARK SMILES IDX 69 43 28 45 58 46 39 47 57 48 40 49 43 50 56 51 74 52 41 53
REMARK SMILES IDX 42 54 55 56 75 57 44 58 29 59 30 60 38 61 31 62 37 63 32 64
REMARK SMILES IDX 33 65 34 66 35 67 36 68 59 69 60 70 68 71 61 72 67 73 62 74
REMARK SMILES IDX 63 75 64 76 65 77 66 78 45 79 46 80 54 81 47 82 53 83 48 84
REMARK SMILES IDX 49 85 50 86 51 87 52 88
REMARK H PARENT 73 44 43 55
REMARK Flexibility Score: inf
ROOT
ATOM      1  C   UNL     1       9.417   5.197   0.796  1.00  0.00     0.274 C 
ENDROOT
BRANCH   1   2
ATOM      2  O   UNL     1       8.212   4.403   0.691  1.00  0.00    -0.461 OA
BRANCH   2   3
ATOM      3  C   UNL     1       7.697   3.933   1.868  1.00  0.00     0.316 C 
ATOM      4  O   UNL     1       8.148   4.253   2.958  1.00  0.00    -0.251 OA
BRANCH   3   5
ATOM      5  C   UNL     1       6.635   2.829   1.655  1.00  0.00     0.099 C 
ATOM      6  C   UNL     1       5.913   3.049   0.305  1.00  0.00     0.029 C 
BRANCH   5   7
ATOM      7  C   UNL     1       7.476   1.513   1.576  1.00  0.00     0.123 C 
BRANCH   7   8
ATOM      8  C   UNL     1       8.017   1.027   2.885  1.00  0.00     0.228 A 
ATOM      9  C   UNL     1       8.385   0.121   4.739  1.00  0.00     0.200 A 
ATOM     10  N   UNL     1       9.110   1.249   4.789  1.00  0.00    -0.060 NA
ATOM     11  N   UNL     1       7.750  -0.089   3.530  1.00  0.00    -0.193 NA
ATOM     12  O   UNL     1       8.880   1.838   3.554  1.00  0.00    -0.339 OA
BRANCH   9  13
ATOM     13  C   UNL     1       8.286  -0.835   5.901  1.00  0.00     0.186 C 
ATOM     14  C   UNL     1       9.534  -0.749   6.792  1.00  0.00     0.047 C 
BRANCH  13  15
ATOM     15  O   UNL     1       7.051  -0.622   6.611  1.00  0.00    -0.374 OA
ATOM     16  C   UNL     1       6.978  -1.185   7.911  1.00  0.00     0.195 C 
ENDBRANCH  13  15
ENDBRANCH   9  13
ENDBRANCH   7   8
ENDBRANCH   5   7
BRANCH   5  17
ATOM     17  C   UNL     1       5.524   2.822   2.733  1.00  0.00    -0.030 A 
ATOM     18  C   UNL     1       4.935   4.019   3.175  1.00  0.00     0.005 A 
ATOM     19  C   UNL     1       5.022   1.630   3.289  1.00  0.00     0.005 A 
ATOM     20  C   UNL     1       3.995   4.030   4.213  1.00  0.00     0.000 A 
ATOM     21  C   UNL     1       4.100   1.639   4.340  1.00  0.00     0.000 A 
ATOM     22  C   UNL     1       3.603   2.842   4.819  1.00  0.00     0.000 A 
ENDBRANCH   5  17
ENDBRANCH   3   5
ENDBRANCH   2   3
ENDBRANCH   1   2
BRANCH   1  23
ATOM     23  C   UNL     1       9.123   6.696   0.850  1.00  0.00     0.275 C 
BRANCH  23  24
ATOM     24  O   UNL     1       8.528   7.020   2.115  1.00  0.00    -0.458 OA
BRANCH  24  25
ATOM     25  C   UNL     1       7.528   7.932   2.097  1.00  0.00     0.338 C 
ATOM     26  O   UNL     1       7.147   8.575   1.135  1.00  0.00    -0.246 OA
BRANCH  25  27
ATOM     27  C   UNL     1       6.907   8.018   3.438  1.00  0.00     0.060 A 
ATOM     28  C   UNL     1       6.695   6.859   4.177  1.00  0.00     0.016 A 
ATOM     29  C   UNL     1       6.407   9.229   3.916  1.00  0.00     0.016 A 
ATOM     30  C   UNL     1       5.893   6.875   5.310  1.00  0.00     0.010 A 
ATOM     31  C   UNL     1       5.685   9.261   5.121  1.00  0.00     0.010 A 
ATOM     32  C   UNL     1       5.372   8.072   5.806  1.00  0.00    -0.014 A 
BRANCH  32  33
ATOM     33  C   UNL     1       4.428   8.036   6.962  1.00  0.00     0.031 A 
ATOM     34  C   UNL     1       3.034   8.597   6.813  1.00  0.00     0.074 A 
ATOM     35  C   UNL     1       4.751   7.391   8.104  1.00  0.00     0.049 A 
ATOM     36  N   UNL     1       2.120   8.790   7.730  1.00  0.00    -0.248 NA
ATOM     37  C   UNL     1       2.610   8.988   5.458  1.00  0.00     0.031 C 
ATOM     38  C   UNL     1       6.009   6.683   8.358  1.00  0.00     0.029 A 
ATOM     39  N   UNL     1       4.023   7.177   9.251  1.00  0.00    -0.354 N 
ATOM     40  C   UNL     1       1.043   9.378   7.076  1.00  0.00     0.074 A 
ATOM     41  C   UNL     1       1.409   9.503   5.683  1.00  0.00     0.031 C 
ATOM     42  C   UNL     1       5.923   6.034   9.529  1.00  0.00     0.029 A 
ATOM     43  C   UNL     1       4.666   6.388  10.177  1.00  0.00     0.049 A 
ATOM     44  H   UNL     1       3.125   7.553   9.396  1.00  0.00     0.167 HD
ATOM     45  C   UNL     1      -0.141   9.788   7.593  1.00  0.00     0.031 A 
ATOM     46  C   UNL     1       4.315   6.027  11.427  1.00  0.00     0.031 A 
ATOM     47  C   UNL     1      -0.519   9.629   8.971  1.00  0.00     0.049 A 
ATOM     48  C   UNL     1       3.043   6.578  12.008  1.00  0.00     0.074 A 
ATOM     49  C   UNL     1      -1.656  10.088   9.613  1.00  0.00     0.029 A 
ATOM     50  N   UNL     1       0.216   8.928   9.913  1.00  0.00    -0.354 N 
ATOM     51  N   UNL     1       2.106   7.285  11.422  1.00  0.00    -0.248 NA
ATOM     52  C   UNL     1       2.805   6.324  13.436  1.00  0.00     0.031 C 
ATOM     53  C   UNL     1      -1.591   9.692  10.954  1.00  0.00     0.029 A 
ATOM     54  C   UNL     1      -0.437   8.947  11.133  1.00  0.00     0.049 A 
ATOM     55  H   UNL     1       1.077   8.482   9.740  1.00  0.00     0.167 HD
ATOM     56  C   UNL     1       1.172   7.564  12.412  1.00  0.00     0.074 A 
ATOM     57  C   UNL     1       1.636   6.922  13.624  1.00  0.00     0.031 C 
ATOM     58  C   UNL     1       0.039   8.303  12.329  1.00  0.00     0.031 A 
BRANCH  45  59
ATOM     59  C   UNL     1      -1.084  10.515   6.674  1.00  0.00    -0.014 A 
ATOM     60  C   UNL     1      -1.867   9.831   5.729  1.00  0.00     0.010 A 
ATOM     61  C   UNL     1      -1.209  11.912   6.788  1.00  0.00     0.010 A 
ATOM     62  C   UNL     1      -2.739  10.537   4.893  1.00  0.00     0.020 A 
ATOM     63  C   UNL     1      -2.093  12.618   5.970  1.00  0.00     0.020 A 
ATOM     64  C   UNL     1      -2.842  11.927   5.016  1.00  0.00     0.054 A 
BRANCH  64  65
ATOM     65  S   UNL     1      -3.994  12.820   3.935  1.00  0.00     0.124 S 
ATOM     66  O   UNL     1      -3.283  12.805   2.659  1.00  0.00    -0.237 OA
ATOM     67  O   UNL     1      -5.197  11.993   3.993  1.00  0.00    -0.237 OA
ATOM     68  O   UNL     1      -4.114  14.133   4.565  1.00  0.00    -0.744 OA
ENDBRANCH  64  65
ENDBRANCH  45  59
BRANCH  46  69
ATOM     69  C   UNL     1       5.224   5.185  12.256  1.00  0.00    -0.014 A 
ATOM     70  C   UNL     1       4.831   3.906  12.688  1.00  0.00     0.010 A 
ATOM     71  C   UNL     1       6.487   5.675  12.640  1.00  0.00     0.010 A 
ATOM     72  C   UNL     1       5.675   3.143  13.503  1.00  0.00     0.020 A 
ATOM     73  C   UNL     1       7.347   4.902  13.423  1.00  0.00     0.020 A 
ATOM     74  C   UNL     1       6.927   3.647  13.866  1.00  0.00     0.054 A 
BRANCH  74  75
ATOM     75  S   UNL     1       8.027   2.636  14.896  1.00  0.00     0.124 S 
ATOM     76  O   UNL     1       7.476   2.854  16.229  1.00  0.00    -0.237 OA
ATOM     77  O   UNL     1       7.841   1.296  14.345  1.00  0.00    -0.237 OA
ATOM     78  O   UNL     1       9.345   3.220  14.659  1.00  0.00    -0.744 OA
ENDBRANCH  74  75
ENDBRANCH  46  69
BRANCH  58  79
ATOM     79  C   UNL     1      -0.785   8.438  13.579  1.00  0.00    -0.014 A 
ATOM     80  C   UNL     1      -0.374   9.280  14.627  1.00  0.00     0.010 A 
ATOM     81  C   UNL     1      -2.002   7.743  13.690  1.00  0.00     0.010 A 
ATOM     82  C   UNL     1      -1.153   9.401  15.780  1.00  0.00     0.020 A 
ATOM     83  C   UNL     1      -2.794   7.879  14.832  1.00  0.00     0.020 A 
ATOM     84  C   UNL     1      -2.357   8.696  15.877  1.00  0.00     0.054 A 
BRANCH  84  85
ATOM     85  S   UNL     1      -3.371   8.897  17.367  1.00  0.00     0.124 S 
ATOM     86  O   UNL     1      -2.654   8.073  18.336  1.00  0.00    -0.237 OA
ATOM     87  O   UNL     1      -3.316  10.338  17.604  1.00  0.00    -0.237 OA
ATOM     88  O   UNL     1      -4.681   8.389  16.964  1.00  0.00    -0.744 OA
ENDBRANCH  84  85
ENDBRANCH  58  79
ENDBRANCH  32  33
ENDBRANCH  25  27
ENDBRANCH  24  25
ENDBRANCH  23  24
ENDBRANCH   1  23
TORSDOF 19
