REMARK SMILES C[C@H](NC(=O)N(CC(=O)OCCOC(=O)c1ccc(-c2c3nc(c(-c4ccc(S(=O)(=O)[O-])cc4)c4ccc([nH]4)c(-c4ccc(S(=O)(=O)[O-])cc4)c4nc(c(-c5ccc(S(=O)(=O)[O-])cc5)c5ccc2[nH]5)C=C4)C=C3)cc1)CC(F)(F)F)[C@@H]1CCCO1
REMARK SMILES IDX 11 1 10 2 8 3 9 4 7 5 6 6 4 7 3 8 5 10 2 11 1 12 81 13 82 14
REMARK SMILES IDX 85 15 83 16 84 17 76 18 77 19 78 20 79 21 80 22 12 23 13 24
REMARK SMILES IDX 14 25 15 26 16 27 17 28 75 29 18 30 74 31 19 32 20 33 21 34
REMARK SMILES IDX 68 35 22 36 73 37 67 38 69 39 23 40 72 41 66 42 65 43 24 45
REMARK SMILES IDX 54 46 35 47 53 48 36 49 39 50 52 51 70 52 37 53 38 54 51 56
REMARK SMILES IDX 71 57 40 58 25 59 26 60 34 61 27 62 33 63 28 64 29 65 30 66
REMARK SMILES IDX 31 67 32 68 55 69 56 70 64 71 57 72 63 73 58 74 59 75 60 76
REMARK SMILES IDX 61 77 62 78 41 79 42 80 50 81 43 82 49 83 44 84 45 85 46 86
REMARK SMILES IDX 47 87 48 88
REMARK H PARENT 3 9 69 44 39 55
REMARK Flexibility Score: inf
ROOT
ATOM      1  C   UNL     1       4.694   1.533   3.473  1.00  0.00     0.274 C 
ENDROOT
BRANCH   1   2
ATOM      2  O   UNL     1       3.730   1.615   2.408  1.00  0.00    -0.461 OA
BRANCH   2   3
ATOM      3  C   UNL     1       2.442   1.811   2.782  1.00  0.00     0.325 C 
ATOM      4  O   UNL     1       2.064   1.866   3.948  1.00  0.00    -0.250 OA
BRANCH   3   5
ATOM      5  C   UNL     1       1.497   2.053   1.604  1.00  0.00     0.244 C 
BRANCH   5   6
ATOM      6  N   UNL     1       2.001   1.775   0.268  1.00  0.00    -0.305 N 
BRANCH   6   7
ATOM      7  C   UNL     1       1.864   0.620  -0.424  1.00  0.00     0.318 C 
ATOM      8  N   UNL     1       1.278  -0.497   0.021  1.00  0.00    -0.333 N 
ATOM      9  H   UNL     1       1.478  -1.228  -0.607  1.00  0.00     0.165 HD
ATOM     10  O   UNL     1       2.310   0.525  -1.573  1.00  0.00    -0.249 OA
BRANCH   8  11
ATOM     11  C   UNL     1       0.441  -1.031   1.111  1.00  0.00     0.109 C 
ATOM     12  C   UNL     1       1.026  -0.964   2.519  1.00  0.00     0.034 C 
BRANCH  11  13
ATOM     13  C   UNL     1      -1.057  -0.639   1.048  1.00  0.00     0.140 C 
ATOM     14  C   UNL     1      -1.866  -1.547   0.128  1.00  0.00     0.036 C 
ATOM     15  O   UNL     1      -1.285   0.700   0.572  1.00  0.00    -0.376 OA
ATOM     16  C   UNL     1      -3.052  -0.677  -0.197  1.00  0.00     0.031 C 
ATOM     17  C   UNL     1      -2.401   0.682  -0.333  1.00  0.00     0.160 C 
ENDBRANCH  11  13
ENDBRANCH   8  11
ENDBRANCH   6   7
BRANCH   6  18
ATOM     18  C   UNL     1       2.666   2.916  -0.421  1.00  0.00     0.237 C 
BRANCH  18  19
ATOM     19  C   UNL     1       4.153   2.794  -0.801  1.00  0.00     0.406 C 
ATOM     20  F   UNL     1       4.364   2.052  -1.909  1.00  0.00    -0.169 F 
ATOM     21  F   UNL     1       4.655   4.028  -1.079  1.00  0.00    -0.169 F 
ATOM     22  F   UNL     1       4.915   2.276   0.186  1.00  0.00    -0.169 F 
ENDBRANCH  18  19
ENDBRANCH   6  18
ENDBRANCH   5   6
ENDBRANCH   3   5
ENDBRANCH   2   3
ENDBRANCH   1   2
BRANCH   1  23
ATOM     23  C   UNL     1       5.372   2.882   3.728  1.00  0.00     0.275 C 
BRANCH  23  24
ATOM     24  O   UNL     1       4.443   3.873   4.206  1.00  0.00    -0.458 OA
BRANCH  24  25
ATOM     25  C   UNL     1       3.926   4.681   3.253  1.00  0.00     0.338 C 
ATOM     26  O   UNL     1       4.159   4.664   2.056  1.00  0.00    -0.246 OA
BRANCH  25  27
ATOM     27  C   UNL     1       2.899   5.553   3.837  1.00  0.00     0.060 A 
ATOM     28  C   UNL     1       1.573   5.123   3.806  1.00  0.00     0.016 A 
ATOM     29  C   UNL     1       3.215   6.838   4.275  1.00  0.00     0.016 A 
ATOM     30  C   UNL     1       0.547   5.982   4.169  1.00  0.00     0.010 A 
ATOM     31  C   UNL     1       2.185   7.686   4.696  1.00  0.00     0.010 A 
ATOM     32  C   UNL     1       0.844   7.267   4.630  1.00  0.00    -0.014 A 
BRANCH  32  33
ATOM     33  C   UNL     1      -0.264   8.165   5.027  1.00  0.00     0.031 A 
ATOM     34  C   UNL     1      -0.567   9.389   4.213  1.00  0.00     0.074 A 
ATOM     35  C   UNL     1      -1.017   7.853   6.098  1.00  0.00     0.049 A 
ATOM     36  N   UNL     1      -1.404  10.359   4.469  1.00  0.00    -0.248 NA
ATOM     37  C   UNL     1       0.168   9.542   2.946  1.00  0.00     0.031 C 
ATOM     38  C   UNL     1      -0.868   6.646   6.916  1.00  0.00     0.029 A 
ATOM     39  N   UNL     1      -2.067   8.518   6.676  1.00  0.00    -0.354 N 
ATOM     40  C   UNL     1      -1.262  11.264   3.425  1.00  0.00     0.074 A 
ATOM     41  C   UNL     1      -0.268  10.721   2.524  1.00  0.00     0.031 C 
ATOM     42  C   UNL     1      -1.811   6.644   7.871  1.00  0.00     0.029 A 
ATOM     43  C   UNL     1      -2.576   7.882   7.783  1.00  0.00     0.049 A 
ATOM     44  H   UNL     1      -2.422   9.369   6.332  1.00  0.00     0.167 HD
ATOM     45  C   UNL     1      -1.895  12.448   3.246  1.00  0.00     0.031 A 
ATOM     46  C   UNL     1      -3.523   8.272   8.655  1.00  0.00     0.031 A 
ATOM     47  C   UNL     1      -2.895  12.966   4.140  1.00  0.00     0.049 A 
ATOM     48  C   UNL     1      -4.161   9.618   8.475  1.00  0.00     0.074 A 
ATOM     49  C   UNL     1      -3.600  14.153   4.052  1.00  0.00     0.029 A 
ATOM     50  N   UNL     1      -3.335  12.323   5.288  1.00  0.00    -0.354 N 
ATOM     51  N   UNL     1      -3.976  10.492   7.514  1.00  0.00    -0.248 NA
ATOM     52  C   UNL     1      -5.112  10.043   9.509  1.00  0.00     0.031 C 
ATOM     53  C   UNL     1      -4.441  14.245   5.168  1.00  0.00     0.029 A 
ATOM     54  C   UNL     1      -4.285  13.098   5.931  1.00  0.00     0.049 A 
ATOM     55  H   UNL     1      -3.017  11.445   5.600  1.00  0.00     0.167 HD
ATOM     56  C   UNL     1      -4.789  11.573   7.827  1.00  0.00     0.074 A 
ATOM     57  C   UNL     1      -5.480  11.235   9.056  1.00  0.00     0.031 C 
ATOM     58  C   UNL     1      -4.947  12.742   7.160  1.00  0.00     0.031 A 
BRANCH  45  59
ATOM     59  C   UNL     1      -1.469  13.286   2.073  1.00  0.00    -0.014 A 
ATOM     60  C   UNL     1      -1.869  12.976   0.762  1.00  0.00     0.010 A 
ATOM     61  C   UNL     1      -0.651  14.409   2.295  1.00  0.00     0.010 A 
ATOM     62  C   UNL     1      -1.423  13.752  -0.313  1.00  0.00     0.020 A 
ATOM     63  C   UNL     1      -0.218  15.197   1.225  1.00  0.00     0.020 A 
ATOM     64  C   UNL     1      -0.591  14.851  -0.075  1.00  0.00     0.054 A 
BRANCH  64  65
ATOM     65  S   UNL     1      -0.018  15.842  -1.483  1.00  0.00     0.124 S 
ATOM     66  O   UNL     1       1.061  15.013  -2.013  1.00  0.00    -0.237 OA
ATOM     67  O   UNL     1      -1.210  15.934  -2.322  1.00  0.00    -0.237 OA
ATOM     68  O   UNL     1       0.405  17.099  -0.870  1.00  0.00    -0.744 OA
ENDBRANCH  64  65
ENDBRANCH  45  59
BRANCH  46  69
ATOM     69  C   UNL     1      -3.874   7.395   9.802  1.00  0.00    -0.014 A 
ATOM     70  C   UNL     1      -5.096   6.703   9.821  1.00  0.00     0.010 A 
ATOM     71  C   UNL     1      -2.962   7.207  10.857  1.00  0.00     0.010 A 
ATOM     72  C   UNL     1      -5.399   5.834  10.873  1.00  0.00     0.020 A 
ATOM     73  C   UNL     1      -3.252   6.322  11.899  1.00  0.00     0.020 A 
ATOM     74  C   UNL     1      -4.472   5.645  11.903  1.00  0.00     0.054 A 
BRANCH  74  75
ATOM     75  S   UNL     1      -4.842   4.445  13.214  1.00  0.00     0.124 S 
ATOM     76  O   UNL     1      -5.734   5.208  14.080  1.00  0.00    -0.237 OA
ATOM     77  O   UNL     1      -5.462   3.346  12.477  1.00  0.00    -0.237 OA
ATOM     78  O   UNL     1      -3.527   4.142  13.775  1.00  0.00    -0.744 OA
ENDBRANCH  74  75
ENDBRANCH  46  69
BRANCH  58  79
ATOM     79  C   UNL     1      -5.911  13.732   7.745  1.00  0.00    -0.014 A 
ATOM     80  C   UNL     1      -5.541  14.534   8.839  1.00  0.00     0.010 A 
ATOM     81  C   UNL     1      -7.182  13.892   7.168  1.00  0.00     0.010 A 
ATOM     82  C   UNL     1      -6.438  15.467   9.361  1.00  0.00     0.020 A 
ATOM     83  C   UNL     1      -8.076  14.837   7.677  1.00  0.00     0.020 A 
ATOM     84  C   UNL     1      -7.702  15.610   8.779  1.00  0.00     0.054 A 
BRANCH  84  85
ATOM     85  S   UNL     1      -8.838  16.859   9.441  1.00  0.00     0.124 S 
ATOM     86  O   UNL     1      -9.375  16.185  10.620  1.00  0.00    -0.237 OA
ATOM     87  O   UNL     1      -7.955  17.991   9.712  1.00  0.00    -0.237 OA
ATOM     88  O   UNL     1      -9.790  17.069   8.353  1.00  0.00    -0.744 OA
ENDBRANCH  84  85
ENDBRANCH  58  79
ENDBRANCH  32  33
ENDBRANCH  25  27
ENDBRANCH  24  25
ENDBRANCH  23  24
ENDBRANCH   1  23
TORSDOF 20
