REMARK SMILES COc1ccc(NC(=O)[C@H]2[C@@H](C(=O)OCCOC(=O)c3ccc(-c4c5nc(c(-c6ccc(S(=O)(=O)[O-])cc6)c6ccc([nH]6)c(-c6ccc(S(=O)(=O)[O-])cc6)c6nc(c(-c7ccc(S(=O)(=O)[O-])cc7)c7ccc4[nH]7)C=C6)C=C5)cc3)[C@H]3C=C[C@@H]2C3)c(C)c1
REMARK SMILES IDX 15 1 14 2 12 3 13 4 11 5 10 6 83 7 80 8 82 9 84 10 81 11
REMARK SMILES IDX 8 12 7 13 9 15 6 16 3 17 4 18 87 19 5 20 85 21 86 22 2 23
REMARK SMILES IDX 1 24 16 25 17 26 18 27 19 28 20 29 21 30 79 31 22 32 78 33
REMARK SMILES IDX 23 34 24 35 25 36 72 37 26 38 77 39 71 40 73 41 27 42 76 43
REMARK SMILES IDX 70 44 69 45 28 47 58 48 39 49 57 50 40 51 43 52 56 53 74 54
REMARK SMILES IDX 41 55 42 56 55 58 75 59 44 60 29 61 30 62 38 63 31 64 37 65
REMARK SMILES IDX 32 66 33 67 34 68 35 69 36 70 59 71 60 72 68 73 61 74 67 75
REMARK SMILES IDX 62 76 63 77 64 78 65 79 66 80 45 81 46 82 54 83 47 84 53 85
REMARK SMILES IDX 48 86 49 87 50 88 51 89 52 90
REMARK H PARENT 7 14 73 46 43 57
REMARK Flexibility Score: inf
ROOT
ATOM      1  C   UNL     1       5.369   1.119  -2.078  1.00  0.00     0.274 C 
ENDROOT
BRANCH   1   2
ATOM      2  O   UNL     1       4.358   2.031  -1.563  1.00  0.00    -0.462 OA
BRANCH   2   3
ATOM      3  C   UNL     1       4.832   3.001  -0.694  1.00  0.00     0.310 C 
ATOM      4  O   UNL     1       5.985   3.068  -0.363  1.00  0.00    -0.252 OA
BRANCH   3   5
ATOM      5  C   UNL     1       3.684   3.812  -0.052  1.00  0.00     0.119 C 
ATOM      6  C   UNL     1       3.651   5.390   0.177  1.00  0.00     0.100 C 
ATOM      7  C   UNL     1       3.790   5.529   1.706  1.00  0.00     0.025 C 
ATOM      8  C   UNL     1       3.567   3.315   1.436  1.00  0.00     0.027 C 
ATOM      9  C   UNL     1       5.052   4.887   2.218  1.00  0.00    -0.027 C 
ATOM     10  C   UNL     1       2.784   4.441   2.117  1.00  0.00     0.017 C 
ATOM     11  C   UNL     1       4.887   3.559   2.138  1.00  0.00    -0.027 C 
BRANCH   6  12
ATOM     12  C   UNL     1       4.278   6.483  -0.678  1.00  0.00     0.228 C 
ATOM     13  N   UNL     1       4.645   7.707  -0.153  1.00  0.00    -0.326 N 
ATOM     14  H   UNL     1       5.556   7.849   0.194  1.00  0.00     0.169 HD
ATOM     15  O   UNL     1       4.215   6.419  -1.902  1.00  0.00    -0.274 OA
BRANCH  13  16
ATOM     16  C   UNL     1       3.681   8.769  -0.122  1.00  0.00     0.044 A 
ATOM     17  C   UNL     1       1.647  10.722  -0.102  1.00  0.00     0.119 A 
ATOM     18  C   UNL     1       1.381   9.440   0.345  1.00  0.00     0.048 A 
ATOM     19  C   UNL     1       2.909  11.027  -0.603  1.00  0.00     0.052 A 
ATOM     20  C   UNL     1       2.391   8.485   0.343  1.00  0.00     0.030 A 
ATOM     21  C   UNL     1       3.954  10.074  -0.594  1.00  0.00    -0.024 A 
ATOM     22  C   UNL     1       5.249  10.549  -1.195  1.00  0.00     0.047 C 
BRANCH  17  23
ATOM     23  O   UNL     1       0.710  11.718  -0.098  1.00  0.00    -0.497 OA
ATOM     24  C   UNL     1       0.040  11.803   1.159  1.00  0.00     0.278 C 
ENDBRANCH  17  23
ENDBRANCH  13  16
ENDBRANCH   6  12
ENDBRANCH   3   5
ENDBRANCH   2   3
ENDBRANCH   1   2
BRANCH   1  25
ATOM     25  C   UNL     1       4.949   0.382  -3.378  1.00  0.00     0.275 C 
BRANCH  25  26
ATOM     26  O   UNL     1       5.028   1.128  -4.607  1.00  0.00    -0.458 OA
BRANCH  26  27
ATOM     27  C   UNL     1       4.407   2.338  -4.569  1.00  0.00     0.338 C 
ATOM     28  O   UNL     1       3.216   2.479  -4.338  1.00  0.00    -0.246 OA
BRANCH  27  29
ATOM     29  C   UNL     1       5.509   3.315  -4.366  1.00  0.00     0.060 A 
ATOM     30  C   UNL     1       5.279   4.304  -3.421  1.00  0.00     0.016 A 
ATOM     31  C   UNL     1       6.821   2.971  -4.716  1.00  0.00     0.016 A 
ATOM     32  C   UNL     1       6.350   4.802  -2.683  1.00  0.00     0.010 A 
ATOM     33  C   UNL     1       7.876   3.448  -3.955  1.00  0.00     0.010 A 
ATOM     34  C   UNL     1       7.632   4.334  -2.900  1.00  0.00    -0.014 A 
BRANCH  34  35
ATOM     35  C   UNL     1       8.756   5.034  -2.300  1.00  0.00     0.031 A 
ATOM     36  C   UNL     1       9.079   5.067  -0.845  1.00  0.00     0.074 A 
ATOM     37  C   UNL     1       9.346   5.848  -3.200  1.00  0.00     0.049 A 
ATOM     38  N   UNL     1       9.556   6.114  -0.247  1.00  0.00    -0.248 NA
ATOM     39  C   UNL     1       8.819   3.975   0.100  1.00  0.00     0.031 C 
ATOM     40  C   UNL     1      10.626   6.512  -3.139  1.00  0.00     0.029 A 
ATOM     41  N   UNL     1       8.733   6.365  -4.357  1.00  0.00    -0.354 N 
ATOM     42  C   UNL     1       9.981   5.706   1.006  1.00  0.00     0.074 A 
ATOM     43  C   UNL     1       9.319   4.454   1.250  1.00  0.00     0.031 C 
ATOM     44  C   UNL     1      10.633   7.495  -4.058  1.00  0.00     0.029 A 
ATOM     45  C   UNL     1       9.280   7.617  -4.596  1.00  0.00     0.049 A 
ATOM     46  H   UNL     1       8.042   5.919  -4.898  1.00  0.00     0.167 HD
ATOM     47  C   UNL     1      11.053   6.310   1.594  1.00  0.00     0.031 A 
ATOM     48  C   UNL     1       8.535   8.756  -4.684  1.00  0.00     0.031 A 
ATOM     49  C   UNL     1      11.599   7.326   0.711  1.00  0.00     0.049 A 
ATOM     50  C   UNL     1       9.028   9.772  -3.680  1.00  0.00     0.074 A 
ATOM     51  C   UNL     1      12.619   7.271  -0.225  1.00  0.00     0.029 A 
ATOM     52  N   UNL     1      10.880   8.473   0.454  1.00  0.00    -0.354 N 
ATOM     53  N   UNL     1       9.633   9.441  -2.572  1.00  0.00    -0.248 NA
ATOM     54  C   UNL     1       8.886  11.218  -3.820  1.00  0.00     0.031 C 
ATOM     55  C   UNL     1      12.537   8.433  -1.027  1.00  0.00     0.029 A 
ATOM     56  C   UNL     1      11.467   9.180  -0.572  1.00  0.00     0.049 A 
ATOM     57  H   UNL     1      10.065   8.748   0.934  1.00  0.00     0.167 HD
ATOM     58  C   UNL     1      10.107  10.569  -1.958  1.00  0.00     0.074 A 
ATOM     59  C   UNL     1       9.528  11.659  -2.720  1.00  0.00     0.031 C 
ATOM     60  C   UNL     1      10.967  10.498  -0.903  1.00  0.00     0.031 A 
BRANCH  47  61
ATOM     61  C   UNL     1      11.861   5.740   2.744  1.00  0.00    -0.014 A 
ATOM     62  C   UNL     1      13.261   5.944   2.745  1.00  0.00     0.010 A 
ATOM     63  C   UNL     1      11.341   4.993   3.816  1.00  0.00     0.010 A 
ATOM     64  C   UNL     1      14.112   5.347   3.680  1.00  0.00     0.020 A 
ATOM     65  C   UNL     1      12.190   4.381   4.766  1.00  0.00     0.020 A 
ATOM     66  C   UNL     1      13.573   4.542   4.674  1.00  0.00     0.054 A 
BRANCH  66  67
ATOM     67  S   UNL     1      14.717   3.710   5.809  1.00  0.00     0.124 S 
ATOM     68  O   UNL     1      15.517   2.889   4.902  1.00  0.00    -0.237 OA
ATOM     69  O   UNL     1      15.422   4.828   6.429  1.00  0.00    -0.237 OA
ATOM     70  O   UNL     1      13.836   2.960   6.702  1.00  0.00    -0.744 OA
ENDBRANCH  66  67
ENDBRANCH  47  61
BRANCH  48  71
ATOM     71  C   UNL     1       7.108   8.588  -5.109  1.00  0.00    -0.014 A 
ATOM     72  C   UNL     1       6.820   8.048  -6.381  1.00  0.00     0.010 A 
ATOM     73  C   UNL     1       6.058   8.661  -4.182  1.00  0.00     0.010 A 
ATOM     74  C   UNL     1       5.560   7.504  -6.671  1.00  0.00     0.020 A 
ATOM     75  C   UNL     1       4.780   8.150  -4.478  1.00  0.00     0.020 A 
ATOM     76  C   UNL     1       4.553   7.529  -5.705  1.00  0.00     0.054 A 
BRANCH  76  77
ATOM     77  S   UNL     1       3.042   6.555  -6.008  1.00  0.00     0.124 S 
ATOM     78  O   UNL     1       2.337   7.380  -6.987  1.00  0.00    -0.237 OA
ATOM     79  O   UNL     1       3.588   5.301  -6.527  1.00  0.00    -0.237 OA
ATOM     80  O   UNL     1       2.403   6.463  -4.699  1.00  0.00    -0.744 OA
ENDBRANCH  76  77
ENDBRANCH  48  71
BRANCH  60  81
ATOM     81  C   UNL     1      11.493  11.631  -0.066  1.00  0.00    -0.014 A 
ATOM     82  C   UNL     1      11.730  12.927  -0.532  1.00  0.00     0.010 A 
ATOM     83  C   UNL     1      11.862  11.350   1.276  1.00  0.00     0.010 A 
ATOM     84  C   UNL     1      12.227  13.915   0.332  1.00  0.00     0.020 A 
ATOM     85  C   UNL     1      12.375  12.314   2.136  1.00  0.00     0.020 A 
ATOM     86  C   UNL     1      12.528  13.605   1.663  1.00  0.00     0.054 A 
BRANCH  86  87
ATOM     87  S   UNL     1      13.127  14.902   2.768  1.00  0.00     0.124 S 
ATOM     88  O   UNL     1      14.255  15.453   2.022  1.00  0.00    -0.237 OA
ATOM     89  O   UNL     1      11.957  15.770   2.873  1.00  0.00    -0.237 OA
ATOM     90  O   UNL     1      13.482  14.188   3.992  1.00  0.00    -0.744 OA
ENDBRANCH  86  87
ENDBRANCH  60  81
ENDBRANCH  34  35
ENDBRANCH  27  29
ENDBRANCH  26  27
ENDBRANCH  25  26
ENDBRANCH   1  25
TORSDOF 17
