REMARK SMILES C[C@@](O)(CNC(=O)CC1([NH3+])CCC1)C(=O)OCCOC(=O)c1ccc(-c2c3nc(c(-c4ccc(S(=O)(=O)[O-])cc4)c4ccc([nH]4)c(-c4ccc(S(=O)(=O)[O-])cc4)c4nc(c(-c5ccc(S(=O)(=O)[O-])cc5)c5ccc2[nH]5)C=C4)C=C3)cc1
REMARK SMILES IDX 17 1 16 2 14 3 15 4 2 5 1 6 3 7 4 9 5 10 6 11 7 13 8 14 9 15
REMARK SMILES IDX 11 16 13 17 12 18 10 19 18 23 19 24 20 25 21 26 22 27 23 28
REMARK SMILES IDX 81 29 24 30 80 31 25 32 26 33 27 34 74 35 28 36 79 37 73 38
REMARK SMILES IDX 75 39 29 40 78 41 72 42 71 43 30 45 60 46 41 47 59 48 42 49
REMARK SMILES IDX 45 50 58 51 76 52 43 53 44 54 57 56 77 57 46 58 31 59 32 60
REMARK SMILES IDX 40 61 33 62 39 63 34 64 35 65 36 66 37 67 38 68 61 69 62 70
REMARK SMILES IDX 70 71 63 72 69 73 64 74 65 75 66 76 67 77 68 78 47 79 48 80
REMARK SMILES IDX 56 81 49 82 55 83 50 84 51 85 52 86 53 87 54 88
REMARK H PARENT 3 8 5 12 10 20 10 21 10 22 75 44 45 55
REMARK Flexibility Score: inf
ROOT
ATOM      1  C   UNL     1       2.486   2.014  -3.606  1.00  0.00     0.274 C 
ENDROOT
BRANCH   1   2
ATOM      2  O   UNL     1       1.460   1.153  -3.048  1.00  0.00    -0.460 OA
BRANCH   2   3
ATOM      3  C   UNL     1       1.844   0.274  -2.094  1.00  0.00     0.339 C 
ATOM      4  O   UNL     1       3.001   0.171  -1.692  1.00  0.00    -0.249 OA
BRANCH   3   5
ATOM      5  C   UNL     1       0.735  -0.694  -1.619  1.00  0.00     0.176 C 
ATOM      6  C   UNL     1       0.944  -1.066  -0.143  1.00  0.00     0.057 C 
BRANCH   5   7
ATOM      7  O   UNL     1       0.964  -1.909  -2.378  1.00  0.00    -0.377 OA
ATOM      8  H   UNL     1       0.300  -2.573  -2.134  1.00  0.00     0.212 HD
ENDBRANCH   5   7
BRANCH   5   9
ATOM      9  C   UNL     1      -0.740  -0.297  -1.851  1.00  0.00     0.162 C 
BRANCH   9  10
ATOM     10  N   UNL     1      -1.179   1.031  -1.464  1.00  0.00    -0.352 N 
ATOM     11  C   UNL     1      -2.293   1.697  -1.897  1.00  0.00     0.226 C 
ATOM     12  H   UNL     1      -0.610   1.507  -0.816  1.00  0.00     0.163 HD
ATOM     13  O   UNL     1      -2.612   2.741  -1.326  1.00  0.00    -0.275 OA
BRANCH  11  14
ATOM     14  C   UNL     1      -3.144   1.148  -3.027  1.00  0.00     0.168 C 
BRANCH  14  15
ATOM     15  C   UNL     1      -2.805   1.605  -4.446  1.00  0.00     0.103 C 
ATOM     16  C   UNL     1      -2.219   3.024  -4.729  1.00  0.00     0.069 C 
ATOM     17  C   UNL     1      -1.548   1.038  -5.175  1.00  0.00     0.069 C 
ATOM     18  C   UNL     1      -0.840   2.353  -4.815  1.00  0.00     0.013 C 
BRANCH  15  19
ATOM     19  N   UNL     1      -3.945   1.420  -5.366  1.00  0.00    -0.352 N 
ATOM     20  H   UNL     1      -4.795   1.778  -4.930  1.00  0.00     0.344 HD
ATOM     21  H   UNL     1      -4.059   0.427  -5.570  1.00  0.00     0.344 HD
ATOM     22  H   UNL     1      -3.767   1.927  -6.233  1.00  0.00     0.344 HD
ENDBRANCH  15  19
ENDBRANCH  14  15
ENDBRANCH  11  14
ENDBRANCH   9  10
ENDBRANCH   5   9
ENDBRANCH   3   5
ENDBRANCH   2   3
ENDBRANCH   1   2
BRANCH   1  23
ATOM     23  C   UNL     1       2.254   3.479  -3.235  1.00  0.00     0.275 C 
BRANCH  23  24
ATOM     24  O   UNL     1       2.357   3.612  -1.812  1.00  0.00    -0.458 OA
BRANCH  24  25
ATOM     25  C   UNL     1       1.218   3.933  -1.162  1.00  0.00     0.338 C 
ATOM     26  O   UNL     1       0.144   4.256  -1.642  1.00  0.00    -0.246 OA
BRANCH  25  27
ATOM     27  C   UNL     1       1.476   3.756   0.269  1.00  0.00     0.060 A 
ATOM     28  C   UNL     1       1.723   2.468   0.746  1.00  0.00     0.016 A 
ATOM     29  C   UNL     1       1.507   4.851   1.127  1.00  0.00     0.016 A 
ATOM     30  C   UNL     1       2.008   2.258   2.085  1.00  0.00     0.010 A 
ATOM     31  C   UNL     1       1.864   4.650   2.462  1.00  0.00     0.010 A 
ATOM     32  C   UNL     1       2.130   3.354   2.943  1.00  0.00    -0.014 A 
BRANCH  32  33
ATOM     33  C   UNL     1       2.591   3.143   4.333  1.00  0.00     0.031 A 
ATOM     34  C   UNL     1       1.664   3.416   5.478  1.00  0.00     0.074 A 
ATOM     35  C   UNL     1       3.848   2.705   4.545  1.00  0.00     0.049 A 
ATOM     36  N   UNL     1       1.922   3.431   6.758  1.00  0.00    -0.248 NA
ATOM     37  C   UNL     1       0.265   3.717   5.137  1.00  0.00     0.031 C 
ATOM     38  C   UNL     1       4.812   2.355   3.496  1.00  0.00     0.029 A 
ATOM     39  N   UNL     1       4.533   2.473   5.710  1.00  0.00    -0.354 N 
ATOM     40  C   UNL     1       0.730   3.784   7.377  1.00  0.00     0.074 A 
ATOM     41  C   UNL     1      -0.252   3.973   6.331  1.00  0.00     0.031 C 
ATOM     42  C   UNL     1       5.950   1.930   4.064  1.00  0.00     0.029 A 
ATOM     43  C   UNL     1       5.828   2.052   5.511  1.00  0.00     0.049 A 
ATOM     44  H   UNL     1       4.137   2.596   6.602  1.00  0.00     0.167 HD
ATOM     45  C   UNL     1       0.488   3.947   8.699  1.00  0.00     0.031 A 
ATOM     46  C   UNL     1       6.819   1.830   6.395  1.00  0.00     0.031 A 
ATOM     47  C   UNL     1       1.486   3.758   9.719  1.00  0.00     0.049 A 
ATOM     48  C   UNL     1       6.539   2.068   7.852  1.00  0.00     0.074 A 
ATOM     49  C   UNL     1       1.364   3.918  11.088  1.00  0.00     0.029 A 
ATOM     50  N   UNL     1       2.795   3.361   9.477  1.00  0.00    -0.354 N 
ATOM     51  N   UNL     1       5.419   2.449   8.421  1.00  0.00    -0.248 NA
ATOM     52  C   UNL     1       7.655   1.863   8.783  1.00  0.00     0.031 C 
ATOM     53  C   UNL     1       2.611   3.657  11.669  1.00  0.00     0.029 A 
ATOM     54  C   UNL     1       3.495   3.283  10.668  1.00  0.00     0.049 A 
ATOM     55  H   UNL     1       3.170   3.163   8.588  1.00  0.00     0.167 HD
ATOM     56  C   UNL     1       5.692   2.520   9.780  1.00  0.00     0.074 A 
ATOM     57  C   UNL     1       7.076   2.121   9.948  1.00  0.00     0.031 C 
ATOM     58  C   UNL     1       4.875   2.885  10.799  1.00  0.00     0.031 A 
BRANCH  45  59
ATOM     59  C   UNL     1      -0.887   4.409   9.099  1.00  0.00    -0.014 A 
ATOM     60  C   UNL     1      -2.002   3.555   9.018  1.00  0.00     0.010 A 
ATOM     61  C   UNL     1      -1.067   5.724   9.566  1.00  0.00     0.010 A 
ATOM     62  C   UNL     1      -3.277   4.021   9.354  1.00  0.00     0.020 A 
ATOM     63  C   UNL     1      -2.336   6.187   9.927  1.00  0.00     0.020 A 
ATOM     64  C   UNL     1      -3.437   5.338   9.799  1.00  0.00     0.054 A 
BRANCH  64  65
ATOM     65  S   UNL     1      -5.101   5.919  10.229  1.00  0.00     0.124 S 
ATOM     66  O   UNL     1      -5.710   6.090   8.912  1.00  0.00    -0.237 OA
ATOM     67  O   UNL     1      -5.631   4.817  11.027  1.00  0.00    -0.237 OA
ATOM     68  O   UNL     1      -4.856   7.157  10.966  1.00  0.00    -0.744 OA
ENDBRANCH  64  65
ENDBRANCH  45  59
BRANCH  46  69
ATOM     69  C   UNL     1       8.164   1.405   5.918  1.00  0.00    -0.014 A 
ATOM     70  C   UNL     1       8.642   0.110   6.180  1.00  0.00     0.010 A 
ATOM     71  C   UNL     1       8.962   2.287   5.165  1.00  0.00     0.010 A 
ATOM     72  C   UNL     1       9.895  -0.292   5.706  1.00  0.00     0.020 A 
ATOM     73  C   UNL     1      10.202   1.879   4.664  1.00  0.00     0.020 A 
ATOM     74  C   UNL     1      10.665   0.594   4.946  1.00  0.00     0.054 A 
BRANCH  74  75
ATOM     75  S   UNL     1      12.258   0.029   4.284  1.00  0.00     0.124 S 
ATOM     76  O   UNL     1      13.108   0.059   5.470  1.00  0.00    -0.237 OA
ATOM     77  O   UNL     1      11.935  -1.300   3.770  1.00  0.00    -0.237 OA
ATOM     78  O   UNL     1      12.573   1.024   3.260  1.00  0.00    -0.744 OA
ENDBRANCH  74  75
ENDBRANCH  46  69
BRANCH  58  79
ATOM     79  C   UNL     1       5.456   2.841  12.184  1.00  0.00    -0.014 A 
ATOM     80  C   UNL     1       6.361   3.822  12.623  1.00  0.00     0.010 A 
ATOM     81  C   UNL     1       5.051   1.827  13.070  1.00  0.00     0.010 A 
ATOM     82  C   UNL     1       6.875   3.773  13.921  1.00  0.00     0.020 A 
ATOM     83  C   UNL     1       5.545   1.789  14.376  1.00  0.00     0.020 A 
ATOM     84  C   UNL     1       6.465   2.756  14.788  1.00  0.00     0.054 A 
BRANCH  84  85
ATOM     85  S   UNL     1       7.111   2.737  16.482  1.00  0.00     0.124 S 
ATOM     86  O   UNL     1       8.466   2.231  16.284  1.00  0.00    -0.237 OA
ATOM     87  O   UNL     1       7.015   4.141  16.878  1.00  0.00    -0.237 OA
ATOM     88  O   UNL     1       6.204   1.835  17.188  1.00  0.00    -0.744 OA
ENDBRANCH  84  85
ENDBRANCH  58  79
ENDBRANCH  32  33
ENDBRANCH  25  27
ENDBRANCH  24  25
ENDBRANCH  23  24
ENDBRANCH   1  23
TORSDOF 20
