REMARK SMILES Cc1cc2nc(SCC(=O)OCCOC(=O)c3ccc(-c4c5nc(c(-c6ccc(S(=O)(=O)[O-])cc6)c6ccc([nH]6)c(-c6ccc(S(=O)(=O)[O-])cc6)c6nc(c(-c7ccc(S(=O)(=O)[O-])cc7)c7ccc4[nH]7)C=C6)C=C5)cc3)n(CC(C)C)c(=O)c2[nH]1
REMARK SMILES IDX 12 1 11 2 9 3 10 4 8 5 7 6 6 7 1 8 2 9 3 10 85 11 4 12 84 13
REMARK SMILES IDX 5 15 82 16 77 17 83 18 78 19 79 20 80 21 81 22 13 23 14 24
REMARK SMILES IDX 15 25 16 26 17 27 18 28 76 29 19 30 75 31 20 32 21 33 22 34
REMARK SMILES IDX 69 35 23 36 74 37 68 38 70 39 24 40 73 41 67 42 66 43 25 45
REMARK SMILES IDX 55 46 36 47 54 48 37 49 40 50 53 51 71 52 38 53 39 54 52 56
REMARK SMILES IDX 72 57 41 58 26 59 27 60 35 61 28 62 34 63 29 64 30 65 31 66
REMARK SMILES IDX 32 67 33 68 56 69 57 70 65 71 58 72 64 73 59 74 60 75 61 76
REMARK SMILES IDX 62 77 63 78 42 79 43 80 51 81 44 82 50 83 45 84 46 85 47 86
REMARK SMILES IDX 48 87 49 88
REMARK H PARENT 85 14 70 44 40 55
REMARK Flexibility Score: inf
ROOT
ATOM      1  C   UNL     1      -0.974   9.393  -4.410  1.00  0.00     0.274 C 
ENDROOT
BRANCH   1   2
ATOM      2  O   UNL     1      -0.027   9.488  -3.342  1.00  0.00    -0.461 OA
BRANCH   2   3
ATOM      3  C   UNL     1      -0.582   9.610  -2.110  1.00  0.00     0.316 C 
ATOM      4  O   UNL     1      -1.364  10.514  -1.849  1.00  0.00    -0.251 OA
BRANCH   3   5
ATOM      5  C   UNL     1      -0.115   8.511  -1.140  1.00  0.00     0.200 C 
BRANCH   5   6
ATOM      6  S   UNL     1       0.887   7.251  -2.013  1.00  0.00    -0.076 SA
BRANCH   6   7
ATOM      7  C   UNL     1       0.472   5.694  -1.327  1.00  0.00     0.172 A 
ATOM      8  C   UNL     1       1.897   0.613   0.893  1.00  0.00     0.064 C 
ATOM      9  C   UNL     1       1.243   1.940   0.785  1.00  0.00     0.014 A 
ATOM     10  C   UNL     1       1.591   3.259   1.099  1.00  0.00     0.052 A 
ATOM     11  N   UNL     1       0.071   2.018   0.071  1.00  0.00    -0.353 N 
ATOM     12  C   UNL     1       0.805   4.084   0.245  1.00  0.00     0.097 A 
ATOM     13  C   UNL     1       0.182   3.203  -0.578  1.00  0.00     0.131 A 
ATOM     14  H   UNL     1      -0.670   1.370   0.039  1.00  0.00     0.166 HD
ATOM     15  N   UNL     1       0.987   5.420  -0.153  1.00  0.00    -0.222 NA
ATOM     16  C   UNL     1       0.074   3.463  -1.955  1.00  0.00     0.278 A 
ATOM     17  N   UNL     1      -0.131   4.786  -2.222  1.00  0.00    -0.286 N 
ATOM     18  O   UNL     1       0.302   2.630  -2.816  1.00  0.00    -0.267 OA
BRANCH  17  19
ATOM     19  C   UNL     1      -1.292   5.001  -3.091  1.00  0.00     0.131 C 
BRANCH  19  20
ATOM     20  C   UNL     1      -1.383   4.614  -4.613  1.00  0.00     0.003 C 
ATOM     21  C   UNL     1      -1.720   3.142  -4.889  1.00  0.00     0.009 C 
ATOM     22  C   UNL     1      -2.520   5.313  -5.412  1.00  0.00     0.009 C 
ENDBRANCH  19  20
ENDBRANCH  17  19
ENDBRANCH   6   7
ENDBRANCH   5   6
ENDBRANCH   3   5
ENDBRANCH   2   3
ENDBRANCH   1   2
BRANCH   1  23
ATOM     23  C   UNL     1      -1.842   8.133  -4.306  1.00  0.00     0.275 C 
BRANCH  23  24
ATOM     24  O   UNL     1      -3.175   8.088  -3.654  1.00  0.00    -0.458 OA
BRANCH  24  25
ATOM     25  C   UNL     1      -3.434   7.702  -2.357  1.00  0.00     0.338 C 
ATOM     26  O   UNL     1      -3.280   8.473  -1.420  1.00  0.00    -0.246 OA
BRANCH  25  27
ATOM     27  C   UNL     1      -3.915   6.272  -2.061  1.00  0.00     0.060 A 
ATOM     28  C   UNL     1      -3.595   5.697  -0.809  1.00  0.00     0.016 A 
ATOM     29  C   UNL     1      -4.507   5.413  -2.987  1.00  0.00     0.016 A 
ATOM     30  C   UNL     1      -3.641   4.287  -0.586  1.00  0.00     0.010 A 
ATOM     31  C   UNL     1      -4.520   4.000  -2.775  1.00  0.00     0.010 A 
ATOM     32  C   UNL     1      -3.996   3.393  -1.612  1.00  0.00    -0.014 A 
BRANCH  32  33
ATOM     33  C   UNL     1      -4.097   1.907  -1.358  1.00  0.00     0.031 A 
ATOM     34  C   UNL     1      -5.477   1.577  -0.962  1.00  0.00     0.074 A 
ATOM     35  C   UNL     1      -3.305   0.807  -1.537  1.00  0.00     0.049 A 
ATOM     36  N   UNL     1      -5.940   1.483   0.238  1.00  0.00    -0.248 NA
ATOM     37  C   UNL     1      -6.486   1.556  -2.029  1.00  0.00     0.031 C 
ATOM     38  C   UNL     1      -2.049   0.708  -2.256  1.00  0.00     0.029 A 
ATOM     39  N   UNL     1      -3.487  -0.518  -1.153  1.00  0.00    -0.354 N 
ATOM     40  C   UNL     1      -7.282   1.194   0.062  1.00  0.00     0.074 A 
ATOM     41  C   UNL     1      -7.601   1.533  -1.304  1.00  0.00     0.031 C 
ATOM     42  C   UNL     1      -1.635  -0.573  -2.377  1.00  0.00     0.029 A 
ATOM     43  C   UNL     1      -2.574  -1.442  -1.700  1.00  0.00     0.049 A 
ATOM     44  H   UNL     1      -4.207  -0.792  -0.539  1.00  0.00     0.167 HD
ATOM     45  C   UNL     1      -7.978   0.408   0.924  1.00  0.00     0.031 A 
ATOM     46  C   UNL     1      -2.566  -2.811  -1.649  1.00  0.00     0.031 A 
ATOM     47  C   UNL     1      -7.267   0.145   2.144  1.00  0.00     0.049 A 
ATOM     48  C   UNL     1      -3.419  -3.204  -0.505  1.00  0.00     0.074 A 
ATOM     49  C   UNL     1      -6.681   0.936   3.114  1.00  0.00     0.029 A 
ATOM     50  N   UNL     1      -6.723  -1.109   2.302  1.00  0.00    -0.354 N 
ATOM     51  N   UNL     1      -3.104  -2.986   0.740  1.00  0.00    -0.248 NA
ATOM     52  C   UNL     1      -4.827  -3.445  -0.768  1.00  0.00     0.031 C 
ATOM     53  C   UNL     1      -5.486   0.253   3.478  1.00  0.00     0.029 A 
ATOM     54  C   UNL     1      -5.441  -0.946   2.765  1.00  0.00     0.049 A 
ATOM     55  H   UNL     1      -7.171  -1.965   2.116  1.00  0.00     0.167 HD
ATOM     56  C   UNL     1      -4.301  -2.625   1.340  1.00  0.00     0.074 A 
ATOM     57  C   UNL     1      -5.338  -2.994   0.379  1.00  0.00     0.031 C 
ATOM     58  C   UNL     1      -4.329  -1.812   2.434  1.00  0.00     0.031 A 
BRANCH  45  59
ATOM     59  C   UNL     1      -9.131  -0.424   0.451  1.00  0.00    -0.014 A 
ATOM     60  C   UNL     1     -10.073  -0.899   1.373  1.00  0.00     0.010 A 
ATOM     61  C   UNL     1      -9.200  -0.920  -0.872  1.00  0.00     0.010 A 
ATOM     62  C   UNL     1     -11.050  -1.822   0.980  1.00  0.00     0.020 A 
ATOM     63  C   UNL     1     -10.201  -1.790  -1.287  1.00  0.00     0.020 A 
ATOM     64  C   UNL     1     -11.111  -2.253  -0.350  1.00  0.00     0.054 A 
BRANCH  64  65
ATOM     65  S   UNL     1     -12.338  -3.491  -0.829  1.00  0.00     0.124 S 
ATOM     66  O   UNL     1     -11.994  -4.608   0.045  1.00  0.00    -0.237 OA
ATOM     67  O   UNL     1     -13.592  -2.808  -0.527  1.00  0.00    -0.237 OA
ATOM     68  O   UNL     1     -12.073  -3.704  -2.250  1.00  0.00    -0.744 OA
ENDBRANCH  64  65
ENDBRANCH  45  59
BRANCH  46  69
ATOM     69  C   UNL     1      -2.060  -3.820  -2.648  1.00  0.00    -0.014 A 
ATOM     70  C   UNL     1      -2.137  -5.217  -2.421  1.00  0.00     0.010 A 
ATOM     71  C   UNL     1      -1.734  -3.424  -3.960  1.00  0.00     0.010 A 
ATOM     72  C   UNL     1      -1.990  -6.153  -3.474  1.00  0.00     0.020 A 
ATOM     73  C   UNL     1      -1.569  -4.345  -5.009  1.00  0.00     0.020 A 
ATOM     74  C   UNL     1      -1.742  -5.704  -4.772  1.00  0.00     0.054 A 
BRANCH  74  75
ATOM     75  S   UNL     1      -1.770  -6.872  -6.171  1.00  0.00     0.124 S 
ATOM     76  O   UNL     1      -0.713  -7.817  -5.824  1.00  0.00    -0.237 OA
ATOM     77  O   UNL     1      -3.132  -7.396  -6.110  1.00  0.00    -0.237 OA
ATOM     78  O   UNL     1      -1.488  -6.028  -7.331  1.00  0.00    -0.744 OA
ENDBRANCH  74  75
ENDBRANCH  46  69
BRANCH  58  79
ATOM     79  C   UNL     1      -3.061  -1.584   3.223  1.00  0.00    -0.014 A 
ATOM     80  C   UNL     1      -1.932  -0.908   2.722  1.00  0.00     0.010 A 
ATOM     81  C   UNL     1      -3.108  -1.884   4.598  1.00  0.00     0.010 A 
ATOM     82  C   UNL     1      -0.893  -0.527   3.587  1.00  0.00     0.020 A 
ATOM     83  C   UNL     1      -2.079  -1.502   5.460  1.00  0.00     0.020 A 
ATOM     84  C   UNL     1      -0.977  -0.819   4.952  1.00  0.00     0.054 A 
BRANCH  84  85
ATOM     85  S   UNL     1       0.347  -0.266   6.066  1.00  0.00     0.124 S 
ATOM     86  O   UNL     1       1.530  -0.908   5.500  1.00  0.00    -0.237 OA
ATOM     87  O   UNL     1       0.291   1.187   5.929  1.00  0.00    -0.237 OA
ATOM     88  O   UNL     1      -0.064  -0.775   7.374  1.00  0.00    -0.744 OA
ENDBRANCH  84  85
ENDBRANCH  58  79
ENDBRANCH  32  33
ENDBRANCH  25  27
ENDBRANCH  24  25
ENDBRANCH  23  24
ENDBRANCH   1  23
TORSDOF 18
