REMARK SMILES NC(=O)[C@@H]1CCCCN1c1cncc(C(=O)OCCOC(=O)c2ccc(-c3c4nc(c(-c5ccc(S(=O)(=O)[O-])cc5)c5ccc([nH]5)c(-c5ccc(S(=O)(=O)[O-])cc5)c5nc(c(-c6ccc(S(=O)(=O)[O-])cc6)c6ccc3[nH]6)C=C5)C=C4)cc2)n1
REMARK SMILES IDX 19 1 18 2 17 3 15 4 16 5 14 6 10 7 11 8 83 9 12 10 13 11
REMARK SMILES IDX 9 12 4 13 5 14 6 15 8 16 7 17 2 18 1 19 3 22 20 23 21 24
REMARK SMILES IDX 22 25 23 26 24 27 82 28 25 29 81 30 26 31 27 32 28 33 75 34
REMARK SMILES IDX 29 35 80 36 74 37 76 38 30 39 79 40 73 41 72 42 31 44 61 45
REMARK SMILES IDX 42 46 60 47 43 48 46 49 59 50 77 51 44 52 45 53 58 55 78 56
REMARK SMILES IDX 47 57 32 58 33 59 41 60 34 61 40 62 35 63 36 64 37 65 38 66
REMARK SMILES IDX 39 67 62 68 63 69 71 70 64 71 70 72 65 73 66 74 67 75 68 76
REMARK SMILES IDX 69 77 48 78 49 79 57 80 50 81 56 82 51 83 52 84 53 85 54 86
REMARK SMILES IDX 55 87
REMARK H PARENT 1 20 1 21 76 43 46 54
REMARK Flexibility Score: inf
ROOT
ATOM      1  C   UNL     1       4.795   2.643   3.581  1.00  0.00     0.275 C 
ENDROOT
BRANCH   1   2
ATOM      2  C   UNL     1       3.718   1.653   3.133  1.00  0.00     0.275 C 
BRANCH   2   3
ATOM      3  O   UNL     1       3.239   1.951   1.805  1.00  0.00    -0.457 OA
BRANCH   3   4
ATOM      4  C   UNL     1       2.055   2.618   1.738  1.00  0.00     0.358 C 
ATOM      5  O   UNL     1       1.366   2.951   2.683  1.00  0.00    -0.244 OA
BRANCH   4   6
ATOM      6  C   UNL     1       1.716   2.962   0.335  1.00  0.00     0.169 A 
ATOM      7  C   UNL     1       1.561   2.371  -1.881  1.00  0.00     0.148 A 
ATOM      8  C   UNL     1       0.974   3.621  -2.128  1.00  0.00     0.157 A 
ATOM      9  N   UNL     1       1.990   2.053  -0.639  1.00  0.00    -0.220 NA
ATOM     10  N   UNL     1       0.708   4.535  -1.170  1.00  0.00    -0.258 NA
ATOM     11  C   UNL     1       1.054   4.153   0.077  1.00  0.00     0.147 A 
BRANCH   7  12
ATOM     12  N   UNL     1       1.644   1.428  -2.874  1.00  0.00    -0.343 N 
ATOM     13  C   UNL     1       1.178   0.038  -2.717  1.00  0.00     0.172 C 
ATOM     14  C   UNL     1       2.384  -0.902  -2.805  1.00  0.00     0.035 C 
ATOM     15  C   UNL     1       3.152  -0.659  -4.107  1.00  0.00     0.004 C 
ATOM     16  C   UNL     1       2.360   1.748  -4.103  1.00  0.00     0.119 C 
ATOM     17  C   UNL     1       3.561   0.810  -4.241  1.00  0.00     0.022 C 
BRANCH  13  18
ATOM     18  C   UNL     1       0.283  -0.266  -1.496  1.00  0.00     0.240 C 
ATOM     19  N   UNL     1       0.895  -0.372  -0.281  1.00  0.00    -0.368 N 
ATOM     20  H   UNL     1       0.362  -0.565   0.524  1.00  0.00     0.159 HD
ATOM     21  H   UNL     1       1.870  -0.256  -0.210  1.00  0.00     0.159 HD
ATOM     22  O   UNL     1      -0.931  -0.441  -1.587  1.00  0.00    -0.273 OA
ENDBRANCH  13  18
ENDBRANCH   7  12
ENDBRANCH   4   6
ENDBRANCH   3   4
ENDBRANCH   2   3
ENDBRANCH   1   2
BRANCH   1  23
ATOM     23  O   UNL     1       4.232   3.956   3.765  1.00  0.00    -0.458 OA
BRANCH  23  24
ATOM     24  C   UNL     1       4.602   4.879   2.849  1.00  0.00     0.338 C 
ATOM     25  O   UNL     1       5.375   4.729   1.917  1.00  0.00    -0.246 OA
BRANCH  24  26
ATOM     26  C   UNL     1       3.854   6.128   3.058  1.00  0.00     0.060 A 
ATOM     27  C   UNL     1       2.512   6.154   2.700  1.00  0.00     0.016 A 
ATOM     28  C   UNL     1       4.500   7.307   3.417  1.00  0.00     0.016 A 
ATOM     29  C   UNL     1       1.840   7.363   2.567  1.00  0.00     0.010 A 
ATOM     30  C   UNL     1       3.782   8.513   3.409  1.00  0.00     0.010 A 
ATOM     31  C   UNL     1       2.456   8.564   2.939  1.00  0.00    -0.014 A 
BRANCH  31  32
ATOM     32  C   UNL     1       1.722   9.858   2.802  1.00  0.00     0.031 A 
ATOM     33  C   UNL     1       2.315  10.989   1.994  1.00  0.00     0.074 A 
ATOM     34  C   UNL     1       0.514  10.026   3.381  1.00  0.00     0.049 A 
ATOM     35  N   UNL     1       1.926  12.236   1.910  1.00  0.00    -0.248 NA
ATOM     36  C   UNL     1       3.509  10.682   1.189  1.00  0.00     0.031 C 
ATOM     37  C   UNL     1      -0.212   9.010   4.149  1.00  0.00     0.029 A 
ATOM     38  N   UNL     1      -0.328  11.113   3.405  1.00  0.00    -0.354 N 
ATOM     39  C   UNL     1       2.863  12.875   1.105  1.00  0.00     0.074 A 
ATOM     40  C   UNL     1       3.839  11.878   0.722  1.00  0.00     0.031 C 
ATOM     41  C   UNL     1      -1.402   9.502   4.524  1.00  0.00     0.029 A 
ATOM     42  C   UNL     1      -1.485  10.900   4.119  1.00  0.00     0.049 A 
ATOM     43  H   UNL     1      -0.122  11.963   2.954  1.00  0.00     0.167 HD
ATOM     44  C   UNL     1       2.909  14.175   0.725  1.00  0.00     0.031 A 
ATOM     45  C   UNL     1      -2.481  11.739   4.462  1.00  0.00     0.031 A 
ATOM     46  C   UNL     1       1.905  15.152   1.060  1.00  0.00     0.049 A 
ATOM     47  C   UNL     1      -2.398  13.180   4.049  1.00  0.00     0.074 A 
ATOM     48  C   UNL     1       1.855  16.490   0.708  1.00  0.00     0.029 A 
ATOM     49  N   UNL     1       0.765  14.893   1.806  1.00  0.00    -0.354 N 
ATOM     50  N   UNL     1      -1.470  13.780   3.341  1.00  0.00    -0.248 NA
ATOM     51  C   UNL     1      -3.485  14.062   4.495  1.00  0.00     0.031 C 
ATOM     52  C   UNL     1       0.706  17.050   1.277  1.00  0.00     0.029 A 
ATOM     53  C   UNL     1       0.014  16.048   1.937  1.00  0.00     0.049 A 
ATOM     54  H   UNL     1       0.526  14.017   2.187  1.00  0.00     0.167 HD
ATOM     55  C   UNL     1      -1.868  15.107   3.248  1.00  0.00     0.074 A 
ATOM     56  C   UNL     1      -3.130  15.219   3.951  1.00  0.00     0.031 C 
ATOM     57  C   UNL     1      -1.241  16.143   2.638  1.00  0.00     0.031 A 
BRANCH  44  58
ATOM     58  C   UNL     1       4.110  14.638  -0.061  1.00  0.00    -0.014 A 
ATOM     59  C   UNL     1       4.292  14.288  -1.411  1.00  0.00     0.010 A 
ATOM     60  C   UNL     1       5.046  15.489   0.556  1.00  0.00     0.010 A 
ATOM     61  C   UNL     1       5.407  14.753  -2.117  1.00  0.00     0.020 A 
ATOM     62  C   UNL     1       6.147  15.977  -0.154  1.00  0.00     0.020 A 
ATOM     63  C   UNL     1       6.329  15.592  -1.483  1.00  0.00     0.054 A 
BRANCH  63  64
ATOM     64  S   UNL     1       7.751  16.204  -2.430  1.00  0.00     0.124 S 
ATOM     65  O   UNL     1       8.593  15.013  -2.512  1.00  0.00    -0.237 OA
ATOM     66  O   UNL     1       7.141  16.628  -3.688  1.00  0.00    -0.237 OA
ATOM     67  O   UNL     1       8.280  17.285  -1.603  1.00  0.00    -0.744 OA
ENDBRANCH  63  64
ENDBRANCH  44  58
BRANCH  45  68
ATOM     68  C   UNL     1      -3.610  11.246   5.301  1.00  0.00    -0.014 A 
ATOM     69  C   UNL     1      -4.907  11.134   4.771  1.00  0.00     0.010 A 
ATOM     70  C   UNL     1      -3.383  10.868   6.638  1.00  0.00     0.010 A 
ATOM     71  C   UNL     1      -5.957  10.662   5.566  1.00  0.00     0.020 A 
ATOM     72  C   UNL     1      -4.422  10.365   7.424  1.00  0.00     0.020 A 
ATOM     73  C   UNL     1      -5.707  10.278   6.886  1.00  0.00     0.054 A 
BRANCH  73  74
ATOM     74  S   UNL     1      -7.069   9.613   7.884  1.00  0.00     0.124 S 
ATOM     75  O   UNL     1      -7.805  10.823   8.235  1.00  0.00    -0.237 OA
ATOM     76  O   UNL     1      -7.738   8.712   6.949  1.00  0.00    -0.237 OA
ATOM     77  O   UNL     1      -6.386   8.950   8.993  1.00  0.00    -0.744 OA
ENDBRANCH  73  74
ENDBRANCH  45  68
BRANCH  57  78
ATOM     78  C   UNL     1      -1.929  17.480   2.672  1.00  0.00    -0.014 A 
ATOM     79  C   UNL     1      -1.964  18.251   3.847  1.00  0.00     0.010 A 
ATOM     80  C   UNL     1      -2.507  17.991   1.496  1.00  0.00     0.010 A 
ATOM     81  C   UNL     1      -2.594  19.498   3.853  1.00  0.00     0.020 A 
ATOM     82  C   UNL     1      -3.115  19.248   1.492  1.00  0.00     0.020 A 
ATOM     83  C   UNL     1      -3.167  19.988   2.675  1.00  0.00     0.054 A 
BRANCH  83  84
ATOM     84  S   UNL     1      -3.941  21.628   2.695  1.00  0.00     0.124 S 
ATOM     85  O   UNL     1      -5.195  21.363   3.396  1.00  0.00    -0.237 OA
ATOM     86  O   UNL     1      -2.969  22.434   3.430  1.00  0.00    -0.237 OA
ATOM     87  O   UNL     1      -4.077  21.964   1.280  1.00  0.00    -0.744 OA
ENDBRANCH  83  84
ENDBRANCH  57  78
ENDBRANCH  31  32
ENDBRANCH  24  26
ENDBRANCH  23  24
ENDBRANCH   1  23
TORSDOF 16
