REMARK SMILES Cc1nsc(NC(=O)CC[C@H](C)CC[NH3+])c1C(=O)OCCOC(=O)c1ccc(-c2c3nc(c(-c4ccc(S(=O)(=O)[O-])cc4)c4ccc([nH]4)c(-c4ccc(S(=O)(=O)[O-])cc4)c4nc(c(-c5ccc(S(=O)(=O)[O-])cc5)c5ccc2[nH]5)C=C4)C=C3)cc1
REMARK SMILES IDX 17 1 18 2 16 3 1 4 2 5 3 6 4 7 5 8 6 9 7 10 8 12 9 13 10 14
REMARK SMILES IDX 11 15 12 16 13 17 14 18 15 19 19 23 20 24 21 25 22 26 23 27
REMARK SMILES IDX 24 28 25 29 26 30 84 31 27 32 83 33 28 34 29 35 30 36 77 37
REMARK SMILES IDX 31 38 82 39 76 40 78 41 32 42 81 43 75 44 74 45 33 47 63 48
REMARK SMILES IDX 44 49 62 50 45 51 48 52 61 53 79 54 46 55 47 56 60 58 80 59
REMARK SMILES IDX 49 60 34 61 35 62 43 63 36 64 42 65 37 66 38 67 39 68 40 69
REMARK SMILES IDX 41 70 64 71 65 72 73 73 66 74 72 75 67 76 68 77 69 78 70 79
REMARK SMILES IDX 71 80 50 81 51 82 59 83 52 84 58 85 53 86 54 87 55 88 56 89
REMARK SMILES IDX 57 90
REMARK H PARENT 6 11 15 20 15 21 15 22 78 46 48 57
REMARK Flexibility Score: inf
ROOT
ATOM      1  C   UNL     1      -5.522  -1.414   7.581  1.00  0.00     0.343 C 
ATOM      2  O   UNL     1      -4.815  -2.057   8.355  1.00  0.00    -0.246 OA
ENDROOT
BRANCH   1   3
ATOM      3  C   UNL     1      -4.972  -0.397   6.709  1.00  0.00     0.117 A 
ATOM      4  C   UNL     1      -7.152   0.545   5.572  1.00  0.00     0.069 C 
ATOM      5  C   UNL     1      -5.697   0.564   5.912  1.00  0.00     0.068 A 
ATOM      6  N   UNL     1      -4.956   1.579   5.467  1.00  0.00    -0.195 NA
ATOM      7  S   UNL     1      -3.385   1.273   5.885  1.00  0.00    -0.017 S 
ATOM      8  C   UNL     1      -3.604  -0.301   6.426  1.00  0.00     0.130 A 
BRANCH   8   9
ATOM      9  N   UNL     1      -2.650  -1.273   6.681  1.00  0.00    -0.316 N 
ATOM     10  C   UNL     1      -1.393  -1.702   6.456  1.00  0.00     0.225 C 
ATOM     11  H   UNL     1      -3.070  -1.930   7.283  1.00  0.00     0.170 HD
ATOM     12  O   UNL     1      -1.178  -2.744   7.117  1.00  0.00    -0.275 OA
BRANCH  10  13
ATOM     13  C   UNL     1      -0.168  -1.209   5.669  1.00  0.00     0.101 C 
BRANCH  13  14
ATOM     14  C   UNL     1      -0.010  -0.961   4.160  1.00  0.00     0.013 C 
BRANCH  14  15
ATOM     15  C   UNL     1      -0.852   0.164   3.540  1.00  0.00    -0.008 C 
ATOM     16  C   UNL     1      -0.708   1.382   4.453  1.00  0.00     0.008 C 
BRANCH  15  17
ATOM     17  C   UNL     1      -2.163  -0.536   3.098  1.00  0.00     0.064 C 
BRANCH  17  18
ATOM     18  C   UNL     1      -3.447   0.132   2.622  1.00  0.00     0.259 C 
BRANCH  18  19
ATOM     19  N   UNL     1      -3.352   1.516   2.203  1.00  0.00    -0.358 N 
ATOM     20  H   UNL     1      -3.082   2.094   2.998  1.00  0.00     0.344 HD
ATOM     21  H   UNL     1      -4.256   1.827   1.847  1.00  0.00     0.344 HD
ATOM     22  H   UNL     1      -2.650   1.601   1.467  1.00  0.00     0.344 HD
ENDBRANCH  18  19
ENDBRANCH  17  18
ENDBRANCH  15  17
ENDBRANCH  14  15
ENDBRANCH  13  14
ENDBRANCH  10  13
ENDBRANCH   8   9
ENDBRANCH   1   3
BRANCH   1  23
ATOM     23  O   UNL     1      -6.866  -1.585   7.446  1.00  0.00    -0.458 OA
BRANCH  23  24
ATOM     24  C   UNL     1      -7.416  -2.754   8.072  1.00  0.00     0.275 C 
BRANCH  24  25
ATOM     25  C   UNL     1      -7.255  -3.969   7.174  1.00  0.00     0.275 C 
BRANCH  25  26
ATOM     26  O   UNL     1      -5.913  -4.442   7.225  1.00  0.00    -0.458 OA
BRANCH  26  27
ATOM     27  C   UNL     1      -5.113  -4.038   6.214  1.00  0.00     0.338 C 
ATOM     28  O   UNL     1      -5.290  -3.094   5.463  1.00  0.00    -0.246 OA
BRANCH  27  29
ATOM     29  C   UNL     1      -4.092  -5.058   5.998  1.00  0.00     0.060 A 
ATOM     30  C   UNL     1      -3.103  -4.779   5.049  1.00  0.00     0.016 A 
ATOM     31  C   UNL     1      -4.378  -6.357   6.438  1.00  0.00     0.016 A 
ATOM     32  C   UNL     1      -2.545  -5.836   4.372  1.00  0.00     0.010 A 
ATOM     33  C   UNL     1      -3.843  -7.404   5.747  1.00  0.00     0.010 A 
ATOM     34  C   UNL     1      -3.009  -7.119   4.668  1.00  0.00    -0.014 A 
BRANCH  34  35
ATOM     35  C   UNL     1      -2.556  -8.222   3.858  1.00  0.00     0.031 A 
ATOM     36  C   UNL     1      -1.150  -8.600   4.151  1.00  0.00     0.074 A 
ATOM     37  C   UNL     1      -3.448  -8.889   3.099  1.00  0.00     0.049 A 
ATOM     38  N   UNL     1      -0.157  -8.680   3.332  1.00  0.00    -0.248 NA
ATOM     39  C   UNL     1      -0.761  -8.730   5.571  1.00  0.00     0.031 C 
ATOM     40  C   UNL     1      -4.907  -8.713   3.048  1.00  0.00     0.029 A 
ATOM     41  N   UNL     1      -3.265  -9.998   2.347  1.00  0.00    -0.354 N 
ATOM     42  C   UNL     1       0.939  -9.065   4.101  1.00  0.00     0.074 A 
ATOM     43  C   UNL     1       0.555  -8.901   5.476  1.00  0.00     0.031 C 
ATOM     44  C   UNL     1      -5.471  -9.849   2.578  1.00  0.00     0.029 A 
ATOM     45  C   UNL     1      -4.413 -10.765   2.188  1.00  0.00     0.049 A 
ATOM     46  H   UNL     1      -2.398 -10.240   1.948  1.00  0.00     0.167 HD
ATOM     47  C   UNL     1       2.000  -9.719   3.555  1.00  0.00     0.031 A 
ATOM     48  C   UNL     1      -4.454 -12.094   1.899  1.00  0.00     0.031 A 
ATOM     49  C   UNL     1       2.006  -9.598   2.123  1.00  0.00     0.049 A 
ATOM     50  C   UNL     1      -3.099 -12.461   1.393  1.00  0.00     0.074 A 
ATOM     51  C   UNL     1       2.117  -8.532   1.254  1.00  0.00     0.029 A 
ATOM     52  N   UNL     1       1.449 -10.632   1.404  1.00  0.00    -0.354 N 
ATOM     53  N   UNL     1      -2.592 -11.978   0.290  1.00  0.00    -0.248 NA
ATOM     54  C   UNL     1      -2.119 -12.936   2.365  1.00  0.00     0.031 C 
ATOM     55  C   UNL     1       1.189  -8.817   0.214  1.00  0.00     0.029 A 
ATOM     56  C   UNL     1       0.627 -10.073   0.459  1.00  0.00     0.049 A 
ATOM     57  H   UNL     1       1.611 -11.593   1.543  1.00  0.00     0.167 HD
ATOM     58  C   UNL     1      -1.263 -11.699   0.591  1.00  0.00     0.074 A 
ATOM     59  C   UNL     1      -1.011 -12.381   1.862  1.00  0.00     0.031 C 
ATOM     60  C   UNL     1      -0.578 -10.700  -0.043  1.00  0.00     0.031 A 
BRANCH  47  61
ATOM     61  C   UNL     1       2.770 -10.797   4.272  1.00  0.00    -0.014 A 
ATOM     62  C   UNL     1       3.824 -11.430   3.584  1.00  0.00     0.010 A 
ATOM     63  C   UNL     1       2.315 -11.414   5.457  1.00  0.00     0.010 A 
ATOM     64  C   UNL     1       4.313 -12.675   3.996  1.00  0.00     0.020 A 
ATOM     65  C   UNL     1       2.825 -12.634   5.900  1.00  0.00     0.020 A 
ATOM     66  C   UNL     1       3.789 -13.280   5.138  1.00  0.00     0.054 A 
BRANCH  66  67
ATOM     67  S   UNL     1       4.311 -14.956   5.568  1.00  0.00     0.124 S 
ATOM     68  O   UNL     1       3.774 -15.731   4.453  1.00  0.00    -0.237 OA
ATOM     69  O   UNL     1       5.765 -14.825   5.609  1.00  0.00    -0.237 OA
ATOM     70  O   UNL     1       3.673 -15.192   6.861  1.00  0.00    -0.744 OA
ENDBRANCH  66  67
ENDBRANCH  47  61
BRANCH  48  71
ATOM     71  C   UNL     1      -5.427 -13.083   2.447  1.00  0.00    -0.014 A 
ATOM     72  C   UNL     1      -5.561 -14.375   1.906  1.00  0.00     0.010 A 
ATOM     73  C   UNL     1      -6.075 -12.831   3.677  1.00  0.00     0.010 A 
ATOM     74  C   UNL     1      -6.281 -15.379   2.587  1.00  0.00     0.020 A 
ATOM     75  C   UNL     1      -6.800 -13.818   4.356  1.00  0.00     0.020 A 
ATOM     76  C   UNL     1      -6.884 -15.097   3.817  1.00  0.00     0.054 A 
BRANCH  76  77
ATOM     77  S   UNL     1      -7.676 -16.429   4.770  1.00  0.00     0.124 S 
ATOM     78  O   UNL     1      -8.863 -16.720   3.972  1.00  0.00    -0.237 OA
ATOM     79  O   UNL     1      -6.650 -17.467   4.781  1.00  0.00    -0.237 OA
ATOM     80  O   UNL     1      -7.941 -15.812   6.070  1.00  0.00    -0.744 OA
ENDBRANCH  76  77
ENDBRANCH  48  71
BRANCH  60  81
ATOM     81  C   UNL     1      -1.214 -10.014  -1.231  1.00  0.00    -0.014 A 
ATOM     82  C   UNL     1      -2.376  -9.220  -1.147  1.00  0.00     0.010 A 
ATOM     83  C   UNL     1      -0.471  -9.986  -2.424  1.00  0.00     0.010 A 
ATOM     84  C   UNL     1      -2.785  -8.429  -2.233  1.00  0.00     0.020 A 
ATOM     85  C   UNL     1      -0.862  -9.188  -3.500  1.00  0.00     0.020 A 
ATOM     86  C   UNL     1      -2.021  -8.417  -3.403  1.00  0.00     0.054 A 
BRANCH  86  87
ATOM     87  S   UNL     1      -2.508  -7.343  -4.783  1.00  0.00     0.124 S 
ATOM     88  O   UNL     1      -3.720  -7.991  -5.275  1.00  0.00    -0.237 OA
ATOM     89  O   UNL     1      -2.705  -6.048  -4.135  1.00  0.00    -0.237 OA
ATOM     90  O   UNL     1      -1.363  -7.402  -5.691  1.00  0.00    -0.744 OA
ENDBRANCH  86  87
ENDBRANCH  60  81
ENDBRANCH  34  35
ENDBRANCH  27  29
ENDBRANCH  26  27
ENDBRANCH  25  26
ENDBRANCH  24  25
ENDBRANCH  23  24
ENDBRANCH   1  23
TORSDOF 21
