REMARK SMILES NC(=O)c1cc(-c2cc(C(=O)OCCOC(=O)c3ccc(-c4c5nc(c(-c6ccc(S(=O)(=O)[O-])cc6)c6ccc([nH]6)c(-c6ccc(S(=O)(=O)[O-])cc6)c6nc(c(-c7ccc(S(=O)(=O)[O-])cc7)c7ccc4[nH]7)C=C6)C=C5)cc3)cc([N+](=O)[O-])c2)ccc1Cl
REMARK SMILES IDX 14 1 13 2 12 3 10 4 11 5 9 6 7 7 8 8 83 9 79 10 78 11 6 12
REMARK SMILES IDX 4 13 5 14 86 15 85 16 87 17 84 18 2 19 1 20 3 23 80 24 81 25
REMARK SMILES IDX 82 26 15 27 16 28 17 29 18 30 19 31 77 32 20 33 76 34 21 35
REMARK SMILES IDX 22 36 23 37 70 38 24 39 75 40 69 41 71 42 25 43 74 44 68 45
REMARK SMILES IDX 67 46 26 48 56 49 37 50 55 51 38 52 41 53 54 54 72 55 39 56
REMARK SMILES IDX 40 57 53 59 73 60 42 61 27 62 28 63 36 64 29 65 35 66 30 67
REMARK SMILES IDX 31 68 32 69 33 70 34 71 57 72 58 73 66 74 59 75 65 76 60 77
REMARK SMILES IDX 61 78 62 79 63 80 64 81 43 82 44 83 52 84 45 85 51 86 46 87
REMARK SMILES IDX 47 88 48 89 49 90 50 91
REMARK H PARENT 1 21 1 22 71 47 41 58
REMARK Flexibility Score: inf
ROOT
ATOM      1  C   UNL     1      -2.473   2.875   8.625  1.00  0.00     0.275 C 
ENDROOT
BRANCH   1   2
ATOM      2  C   UNL     1      -1.516   3.982   9.073  1.00  0.00     0.275 C 
BRANCH   2   3
ATOM      3  O   UNL     1      -1.153   4.824   7.958  1.00  0.00    -0.458 OA
BRANCH   3   4
ATOM      4  C   UNL     1       0.126   4.729   7.512  1.00  0.00     0.338 C 
ATOM      5  O   UNL     1       1.016   4.048   7.976  1.00  0.00    -0.246 OA
BRANCH   4   6
ATOM      6  C   UNL     1       0.254   5.487   6.242  1.00  0.00     0.067 A 
ATOM      7  C   UNL     1       0.986   5.481   3.910  1.00  0.00    -0.011 A 
ATOM      8  C   UNL     1       0.982   4.912   5.189  1.00  0.00     0.025 A 
ATOM      9  C   UNL     1       0.374   6.729   3.738  1.00  0.00     0.094 A 
ATOM     10  C   UNL     1      -0.267   7.354   4.820  1.00  0.00     0.270 A 
ATOM     11  C   UNL     1      -0.364   6.723   6.067  1.00  0.00     0.101 A 
BRANCH   7  12
ATOM     12  C   UNL     1       1.538   4.746   2.767  1.00  0.00    -0.017 A 
ATOM     13  C   UNL     1       1.267   2.996   1.045  1.00  0.00     0.058 A 
ATOM     14  C   UNL     1       0.810   3.690   2.187  1.00  0.00     0.024 A 
ATOM     15  C   UNL     1       2.496   3.372   0.489  1.00  0.00     0.053 A 
ATOM     16  C   UNL     1       3.241   4.404   1.078  1.00  0.00     0.022 A 
ATOM     17  Cl  UNL     1       3.179   2.681  -0.941  1.00  0.00    -0.083 Cl
ATOM     18  C   UNL     1       2.767   5.087   2.202  1.00  0.00     0.010 A 
BRANCH  13  19
ATOM     19  C   UNL     1       0.344   1.947   0.516  1.00  0.00     0.250 C 
ATOM     20  N   UNL     1       0.793   1.073  -0.424  1.00  0.00    -0.366 N 
ATOM     21  H   UNL     1       0.192   0.379  -0.778  1.00  0.00     0.159 HD
ATOM     22  H   UNL     1       1.720   1.134  -0.750  1.00  0.00     0.159 HD
ATOM     23  O   UNL     1      -0.807   1.856   0.933  1.00  0.00    -0.269 OA
ENDBRANCH  13  19
ENDBRANCH   7  12
BRANCH  10  24
ATOM     24  N   UNL     1      -0.849   8.688   4.640  1.00  0.00     0.062 N 
ATOM     25  O   UNL     1      -1.467   9.181   5.596  1.00  0.00    -0.258 OA
ATOM     26  O   UNL     1      -0.666   9.257   3.555  1.00  0.00    -0.258 OA
ENDBRANCH  10  24
ENDBRANCH   4   6
ENDBRANCH   3   4
ENDBRANCH   2   3
ENDBRANCH   1   2
BRANCH   1  27
ATOM     27  O   UNL     1      -1.764   1.897   7.842  1.00  0.00    -0.458 OA
BRANCH  27  28
ATOM     28  C   UNL     1      -2.034   1.893   6.516  1.00  0.00     0.338 C 
ATOM     29  O   UNL     1      -2.844   2.580   5.920  1.00  0.00    -0.246 OA
BRANCH  28  30
ATOM     30  C   UNL     1      -1.082   0.995   5.845  1.00  0.00     0.060 A 
ATOM     31  C   UNL     1       0.200   1.479   5.618  1.00  0.00     0.016 A 
ATOM     32  C   UNL     1      -1.450  -0.254   5.358  1.00  0.00     0.016 A 
ATOM     33  C   UNL     1       1.093   0.775   4.819  1.00  0.00     0.010 A 
ATOM     34  C   UNL     1      -0.505  -1.022   4.659  1.00  0.00     0.010 A 
ATOM     35  C   UNL     1       0.769  -0.506   4.352  1.00  0.00    -0.014 A 
BRANCH  35  36
ATOM     36  C   UNL     1       1.782  -1.285   3.578  1.00  0.00     0.031 A 
ATOM     37  C   UNL     1       1.485  -1.787   2.186  1.00  0.00     0.074 A 
ATOM     38  C   UNL     1       2.999  -1.525   4.116  1.00  0.00     0.049 A 
ATOM     39  N   UNL     1       2.260  -2.471   1.379  1.00  0.00    -0.248 NA
ATOM     40  C   UNL     1       0.160  -1.486   1.623  1.00  0.00     0.031 C 
ATOM     41  C   UNL     1       3.440  -1.094   5.447  1.00  0.00     0.029 A 
ATOM     42  N   UNL     1       4.093  -2.188   3.612  1.00  0.00    -0.354 N 
ATOM     43  C   UNL     1       1.527  -2.659   0.213  1.00  0.00     0.074 A 
ATOM     44  C   UNL     1       0.221  -2.083   0.440  1.00  0.00     0.031 C 
ATOM     45  C   UNL     1       4.710  -1.477   5.640  1.00  0.00     0.029 A 
ATOM     46  C   UNL     1       5.151  -2.255   4.489  1.00  0.00     0.049 A 
ATOM     47  H   UNL     1       4.117  -2.579   2.708  1.00  0.00     0.167 HD
ATOM     48  C   UNL     1       1.913  -3.224  -0.956  1.00  0.00     0.031 A 
ATOM     49  C   UNL     1       6.328  -2.909   4.414  1.00  0.00     0.031 A 
ATOM     50  C   UNL     1       3.189  -3.845  -1.180  1.00  0.00     0.049 A 
ATOM     51  C   UNL     1       6.641  -3.720   3.191  1.00  0.00     0.074 A 
ATOM     52  C   UNL     1       3.671  -4.429  -2.339  1.00  0.00     0.029 A 
ATOM     53  N   UNL     1       4.171  -4.001  -0.216  1.00  0.00    -0.354 N 
ATOM     54  N   UNL     1       5.960  -3.819   2.076  1.00  0.00    -0.248 NA
ATOM     55  C   UNL     1       7.871  -4.524   3.223  1.00  0.00     0.031 C 
ATOM     56  C   UNL     1       4.915  -5.003  -2.054  1.00  0.00     0.029 A 
ATOM     57  C   UNL     1       5.229  -4.730  -0.732  1.00  0.00     0.049 A 
ATOM     58  H   UNL     1       4.124  -3.647   0.701  1.00  0.00     0.167 HD
ATOM     59  C   UNL     1       6.681  -4.692   1.270  1.00  0.00     0.074 A 
ATOM     60  C   UNL     1       7.861  -5.077   2.018  1.00  0.00     0.031 C 
ATOM     61  C   UNL     1       6.388  -5.133   0.022  1.00  0.00     0.031 A 
BRANCH  48  62
ATOM     62  C   UNL     1       0.929  -3.199  -2.092  1.00  0.00    -0.014 A 
ATOM     63  C   UNL     1       0.736  -2.025  -2.843  1.00  0.00     0.010 A 
ATOM     64  C   UNL     1       0.228  -4.365  -2.445  1.00  0.00     0.010 A 
ATOM     65  C   UNL     1      -0.169  -2.008  -3.906  1.00  0.00     0.020 A 
ATOM     66  C   UNL     1      -0.666  -4.356  -3.520  1.00  0.00     0.020 A 
ATOM     67  C   UNL     1      -0.869  -3.173  -4.235  1.00  0.00     0.054 A 
BRANCH  67  68
ATOM     68  S   UNL     1      -2.023  -3.127  -5.635  1.00  0.00     0.124 S 
ATOM     69  O   UNL     1      -3.125  -2.339  -5.090  1.00  0.00    -0.237 OA
ATOM     70  O   UNL     1      -1.236  -2.471  -6.676  1.00  0.00    -0.237 OA
ATOM     71  O   UNL     1      -2.326  -4.535  -5.881  1.00  0.00    -0.744 OA
ENDBRANCH  67  68
ENDBRANCH  48  62
BRANCH  49  72
ATOM     72  C   UNL     1       7.256  -2.893   5.580  1.00  0.00    -0.014 A 
ATOM     73  C   UNL     1       8.498  -2.243   5.511  1.00  0.00     0.010 A 
ATOM     74  C   UNL     1       6.882  -3.529   6.780  1.00  0.00     0.010 A 
ATOM     75  C   UNL     1       9.350  -2.227   6.622  1.00  0.00     0.020 A 
ATOM     76  C   UNL     1       7.715  -3.490   7.899  1.00  0.00     0.020 A 
ATOM     77  C   UNL     1       8.950  -2.847   7.810  1.00  0.00     0.054 A 
BRANCH  77  78
ATOM     78  S   UNL     1      10.037  -2.760   9.260  1.00  0.00     0.124 S 
ATOM     79  O   UNL     1      11.064  -3.742   8.928  1.00  0.00    -0.237 OA
ATOM     80  O   UNL     1      10.468  -1.364   9.250  1.00  0.00    -0.237 OA
ATOM     81  O   UNL     1       9.156  -3.123  10.368  1.00  0.00    -0.744 OA
ENDBRANCH  77  78
ENDBRANCH  49  72
BRANCH  61  82
ATOM     82  C   UNL     1       7.357  -6.087  -0.619  1.00  0.00    -0.014 A 
ATOM     83  C   UNL     1       7.429  -7.427  -0.201  1.00  0.00     0.010 A 
ATOM     84  C   UNL     1       8.171  -5.653  -1.680  1.00  0.00     0.010 A 
ATOM     85  C   UNL     1       8.314  -8.313  -0.820  1.00  0.00     0.020 A 
ATOM     86  C   UNL     1       9.038  -6.542  -2.319  1.00  0.00     0.020 A 
ATOM     87  C   UNL     1       9.113  -7.865  -1.877  1.00  0.00     0.054 A 
BRANCH  87  88
ATOM     88  S   UNL     1      10.217  -9.045  -2.700  1.00  0.00     0.124 S 
ATOM     89  O   UNL     1      11.301  -9.174  -1.730  1.00  0.00    -0.237 OA
ATOM     90  O   UNL     1       9.369 -10.225  -2.856  1.00  0.00    -0.237 OA
ATOM     91  O   UNL     1      10.573  -8.373  -3.947  1.00  0.00    -0.744 OA
ENDBRANCH  87  88
ENDBRANCH  61  82
ENDBRANCH  35  36
ENDBRANCH  28  30
ENDBRANCH  27  28
ENDBRANCH   1  27
TORSDOF 17
