REMARK SMILES CC(C)(C)OC(=O)N1[C@@H](C(=O)OCCOC(=O)c2ccc(-c3c4nc(c(-c5ccc(S(=O)(=O)[O-])cc5)c5ccc([nH]5)c(-c5ccc(S(=O)(=O)[O-])cc5)c5nc(c(-c6ccc(S(=O)(=O)[O-])cc6)c6ccc3[nH]6)C=C5)C=C4)cc2)C[C@H]2CCCC[C@@H]21
REMARK SMILES IDX 13 1 12 2 10 3 11 4 9 5 8 6 84 7 78 8 79 9 83 10 80 11 82 12
REMARK SMILES IDX 81 13 6 14 7 15 5 16 2 17 1 18 3 19 4 20 14 21 15 22 16 23
REMARK SMILES IDX 17 24 18 25 19 26 77 27 20 28 76 29 21 30 22 31 23 32 70 33
REMARK SMILES IDX 24 34 75 35 69 36 71 37 25 38 74 39 68 40 67 41 26 43 56 44
REMARK SMILES IDX 37 45 55 46 38 47 41 48 54 49 72 50 39 51 40 52 53 54 73 55
REMARK SMILES IDX 42 56 27 57 28 58 36 59 29 60 35 61 30 62 31 63 32 64 33 65
REMARK SMILES IDX 34 66 57 67 58 68 66 69 59 70 65 71 60 72 61 73 62 74 63 75
REMARK SMILES IDX 64 76 43 77 44 78 52 79 45 80 51 81 46 82 47 83 48 84 49 85
REMARK SMILES IDX 50 86
REMARK H PARENT 71 42 41 53
REMARK Flexibility Score: inf
ROOT
ATOM      1  C   UNL     1       5.522   4.738   3.752  1.00  0.00     0.274 C 
ENDROOT
BRANCH   1   2
ATOM      2  O   UNL     1       4.678   3.569   3.878  1.00  0.00    -0.461 OA
BRANCH   2   3
ATOM      3  C   UNL     1       3.400   3.817   4.282  1.00  0.00     0.329 C 
ATOM      4  O   UNL     1       2.986   4.939   4.559  1.00  0.00    -0.250 OA
BRANCH   3   5
ATOM      5  C   UNL     1       2.591   2.520   4.529  1.00  0.00     0.199 C 
ATOM      6  N   UNL     1       1.167   2.629   4.136  1.00  0.00    -0.291 N 
ATOM      7  C   UNL     1       0.426   3.244   5.223  1.00  0.00     0.092 C 
ATOM      8  C   UNL     1       2.536   2.394   6.074  1.00  0.00     0.043 C 
ATOM      9  C   UNL     1       1.053   2.547   6.431  1.00  0.00     0.014 C 
ATOM     10  C   UNL     1      -1.095   3.136   5.330  1.00  0.00     0.025 C 
ATOM     11  C   UNL     1       0.703   3.312   7.698  1.00  0.00     0.006 C 
ATOM     12  C   UNL     1      -1.576   3.792   6.632  1.00  0.00     0.002 C 
ATOM     13  C   UNL     1      -0.822   3.311   7.877  1.00  0.00     0.000 C 
BRANCH   6  14
ATOM     14  C   UNL     1       0.576   2.271   2.943  1.00  0.00     0.411 C 
ATOM     15  O   UNL     1      -0.577   2.585   2.677  1.00  0.00    -0.224 OA
BRANCH  14  16
ATOM     16  O   UNL     1       1.357   1.517   2.126  1.00  0.00    -0.444 OA
BRANCH  16  17
ATOM     17  C   UNL     1       0.876   1.065   0.811  1.00  0.00     0.106 C 
ATOM     18  C   UNL     1       1.483  -0.327   0.592  1.00  0.00     0.056 C 
ATOM     19  C   UNL     1       1.431   2.007  -0.256  1.00  0.00     0.056 C 
ATOM     20  C   UNL     1      -0.649   0.938   0.625  1.00  0.00     0.056 C 
ENDBRANCH  16  17
ENDBRANCH  14  16
ENDBRANCH   6  14
ENDBRANCH   3   5
ENDBRANCH   2   3
ENDBRANCH   1   2
BRANCH   1  21
ATOM     21  C   UNL     1       5.616   5.238   2.308  1.00  0.00     0.275 C 
BRANCH  21  22
ATOM     22  O   UNL     1       4.361   5.776   1.852  1.00  0.00    -0.458 OA
BRANCH  22  23
ATOM     23  C   UNL     1       3.579   4.872   1.222  1.00  0.00     0.338 C 
ATOM     24  O   UNL     1       3.862   3.708   0.990  1.00  0.00    -0.246 OA
BRANCH  23  25
ATOM     25  C   UNL     1       2.256   5.433   0.912  1.00  0.00     0.060 A 
ATOM     26  C   UNL     1       1.246   5.281   1.856  1.00  0.00     0.016 A 
ATOM     27  C   UNL     1       1.944   5.844  -0.382  1.00  0.00     0.016 A 
ATOM     28  C   UNL     1      -0.085   5.417   1.487  1.00  0.00     0.010 A 
ATOM     29  C   UNL     1       0.604   6.073  -0.726  1.00  0.00     0.010 A 
ATOM     30  C   UNL     1      -0.430   5.814   0.193  1.00  0.00    -0.014 A 
BRANCH  30  31
ATOM     31  C   UNL     1      -1.865   5.902  -0.192  1.00  0.00     0.031 A 
ATOM     32  C   UNL     1      -2.410   5.050  -1.310  1.00  0.00     0.074 A 
ATOM     33  C   UNL     1      -2.696   6.714   0.493  1.00  0.00     0.049 A 
ATOM     34  N   UNL     1      -3.581   5.098  -1.894  1.00  0.00    -0.248 NA
ATOM     35  C   UNL     1      -1.524   4.005  -1.845  1.00  0.00     0.031 C 
ATOM     36  C   UNL     1      -2.329   7.515   1.666  1.00  0.00     0.029 A 
ATOM     37  N   UNL     1      -4.024   7.001   0.303  1.00  0.00    -0.354 N 
ATOM     38  C   UNL     1      -3.558   4.115  -2.879  1.00  0.00     0.074 A 
ATOM     39  C   UNL     1      -2.257   3.486  -2.819  1.00  0.00     0.031 C 
ATOM     40  C   UNL     1      -3.406   8.184   2.099  1.00  0.00     0.029 A 
ATOM     41  C   UNL     1      -4.509   7.946   1.176  1.00  0.00     0.049 A 
ATOM     42  H   UNL     1      -4.576   6.572  -0.390  1.00  0.00     0.167 HD
ATOM     43  C   UNL     1      -4.528   3.779  -3.763  1.00  0.00     0.031 A 
ATOM     44  C   UNL     1      -5.684   8.603   1.199  1.00  0.00     0.031 A 
ATOM     45  C   UNL     1      -5.815   4.422  -3.820  1.00  0.00     0.049 A 
ATOM     46  C   UNL     1      -6.698   8.308   0.131  1.00  0.00     0.074 A 
ATOM     47  C   UNL     1      -6.856   4.190  -4.702  1.00  0.00     0.029 A 
ATOM     48  N   UNL     1      -6.236   5.423  -2.957  1.00  0.00    -0.354 N 
ATOM     49  N   UNL     1      -6.637   7.429  -0.840  1.00  0.00    -0.248 NA
ATOM     50  C   UNL     1      -7.932   9.103   0.152  1.00  0.00     0.031 C 
ATOM     51  C   UNL     1      -7.882   5.095  -4.412  1.00  0.00     0.029 A 
ATOM     52  C   UNL     1      -7.510   5.840  -3.304  1.00  0.00     0.049 A 
ATOM     53  H   UNL     1      -5.708   5.784  -2.209  1.00  0.00     0.167 HD
ATOM     54  C   UNL     1      -7.837   7.545  -1.531  1.00  0.00     0.074 A 
ATOM     55  C   UNL     1      -8.607   8.574  -0.860  1.00  0.00     0.031 C 
ATOM     56  C   UNL     1      -8.263   6.860  -2.619  1.00  0.00     0.031 A 
BRANCH  43  57
ATOM     57  C   UNL     1      -4.213   2.721  -4.789  1.00  0.00    -0.014 A 
ATOM     58  C   UNL     1      -4.124   1.360  -4.447  1.00  0.00     0.010 A 
ATOM     59  C   UNL     1      -4.049   3.098  -6.136  1.00  0.00     0.010 A 
ATOM     60  C   UNL     1      -3.848   0.401  -5.428  1.00  0.00     0.020 A 
ATOM     61  C   UNL     1      -3.798   2.140  -7.122  1.00  0.00     0.020 A 
ATOM     62  C   UNL     1      -3.685   0.797  -6.759  1.00  0.00     0.054 A 
BRANCH  62  63
ATOM     63  S   UNL     1      -3.350  -0.469  -8.015  1.00  0.00     0.124 S 
ATOM     64  O   UNL     1      -1.977  -0.854  -7.697  1.00  0.00    -0.237 OA
ATOM     65  O   UNL     1      -4.366  -1.479  -7.731  1.00  0.00    -0.237 OA
ATOM     66  O   UNL     1      -3.518   0.241  -9.280  1.00  0.00    -0.744 OA
ENDBRANCH  62  63
ENDBRANCH  43  57
BRANCH  44  67
ATOM     67  C   UNL     1      -5.920   9.662   2.219  1.00  0.00    -0.014 A 
ATOM     68  C   UNL     1      -6.892   9.498   3.220  1.00  0.00     0.010 A 
ATOM     69  C   UNL     1      -5.148  10.840   2.204  1.00  0.00     0.010 A 
ATOM     70  C   UNL     1      -7.095  10.496   4.178  1.00  0.00     0.020 A 
ATOM     71  C   UNL     1      -5.324  11.824   3.180  1.00  0.00     0.020 A 
ATOM     72  C   UNL     1      -6.307  11.651   4.154  1.00  0.00     0.054 A 
BRANCH  72  73
ATOM     73  S   UNL     1      -6.551  12.909   5.438  1.00  0.00     0.124 S 
ATOM     74  O   UNL     1      -7.807  13.526   5.022  1.00  0.00    -0.237 OA
ATOM     75  O   UNL     1      -6.611  12.110   6.658  1.00  0.00    -0.237 OA
ATOM     76  O   UNL     1      -5.367  13.757   5.316  1.00  0.00    -0.744 OA
ENDBRANCH  72  73
ENDBRANCH  44  67
BRANCH  56  77
ATOM     77  C   UNL     1      -9.648   7.156  -3.125  1.00  0.00    -0.014 A 
ATOM     78  C   UNL     1      -9.939   8.348  -3.811  1.00  0.00     0.010 A 
ATOM     79  C   UNL     1     -10.658   6.190  -2.963  1.00  0.00     0.010 A 
ATOM     80  C   UNL     1     -11.225   8.577  -4.306  1.00  0.00     0.020 A 
ATOM     81  C   UNL     1     -11.936   6.404  -3.482  1.00  0.00     0.020 A 
ATOM     82  C   UNL     1     -12.215   7.602  -4.141  1.00  0.00     0.054 A 
BRANCH  82  83
ATOM     83  S   UNL     1     -13.860   7.899  -4.844  1.00  0.00     0.124 S 
ATOM     84  O   UNL     1     -14.403   8.902  -3.933  1.00  0.00    -0.237 OA
ATOM     85  O   UNL     1     -13.551   8.374  -6.191  1.00  0.00    -0.237 OA
ATOM     86  O   UNL     1     -14.504   6.589  -4.785  1.00  0.00    -0.744 OA
ENDBRANCH  82  83
ENDBRANCH  56  77
ENDBRANCH  30  31
ENDBRANCH  23  25
ENDBRANCH  22  23
ENDBRANCH  21  22
ENDBRANCH   1  21
TORSDOF 17
