REMARK SMILES Cc1cccc(-c2cc(C(=O)OCCOC(=O)c3ccc(-c4c5nc(c(-c6ccc(S(=O)(=O)[O-])cc6)c6ccc([nH]6)c(-c6ccc(S(=O)(=O)[O-])cc6)c6nc(c(-c7ccc(S(=O)(=O)[O-])cc7)c7ccc4[nH]7)C=C6)C=C5)cc3)ccn2)c1
REMARK SMILES IDX 14 1 13 2 12 3 10 4 11 5 9 6 7 7 8 8 80 9 79 10 78 11 6 12
REMARK SMILES IDX 1 13 2 14 3 15 81 16 4 17 5 18 15 19 16 20 17 21 18 22 19 23
REMARK SMILES IDX 77 24 20 25 76 26 21 27 22 28 23 29 70 30 24 31 75 32 69 33
REMARK SMILES IDX 71 34 25 35 74 36 68 37 67 38 26 40 56 41 37 42 55 43 38 44
REMARK SMILES IDX 41 45 54 46 72 47 39 48 40 49 53 51 73 52 42 53 27 54 28 55
REMARK SMILES IDX 36 56 29 57 35 58 30 59 31 60 32 61 33 62 34 63 57 64 58 65
REMARK SMILES IDX 66 66 59 67 65 68 60 69 61 70 62 71 63 72 64 73 43 74 44 75
REMARK SMILES IDX 52 76 45 77 51 78 46 79 47 80 48 81 49 82 50 83
REMARK H PARENT 71 39 41 50
REMARK Flexibility Score: inf
ROOT
ATOM      1  C   UNL     1      -3.198   5.593  -5.870  1.00  0.00     0.275 C 
ENDROOT
BRANCH   1   2
ATOM      2  C   UNL     1      -2.679   6.668  -4.930  1.00  0.00     0.275 C 
BRANCH   2   3
ATOM      3  O   UNL     1      -3.288   6.326  -3.706  1.00  0.00    -0.458 OA
BRANCH   3   4
ATOM      4  C   UNL     1      -2.564   6.683  -2.647  1.00  0.00     0.338 C 
ATOM      5  O   UNL     1      -2.232   7.825  -2.409  1.00  0.00    -0.246 OA
BRANCH   4   6
ATOM      6  C   UNL     1      -2.341   5.447  -1.773  1.00  0.00     0.063 A 
ATOM      7  C   UNL     1      -1.427   2.721  -0.234  1.00  0.00     0.071 A 
ATOM      8  C   UNL     1      -1.094   3.858  -1.575  1.00  0.00     0.044 A 
ATOM      9  N   UNL     1      -2.746   2.989   0.806  1.00  0.00    -0.256 NA
ATOM     10  C   UNL     1      -3.791   4.336   0.642  1.00  0.00     0.112 A 
ATOM     11  C   UNL     1      -3.674   5.558  -0.563  1.00  0.00     0.036 A 
BRANCH   7  12
ATOM     12  C   UNL     1      -0.778   1.422  -0.095  1.00  0.00     0.000 A 
ATOM     13  C   UNL     1       2.678  -0.193   0.009  1.00  0.00     0.044 C 
ATOM     14  C   UNL     1       1.188  -0.018  -0.005  1.00  0.00    -0.050 A 
ATOM     15  C   UNL     1       0.357  -1.145   0.020  1.00  0.00     0.003 A 
ATOM     16  C   UNL     1       0.612   1.260  -0.059  1.00  0.00     0.013 A 
ATOM     17  C   UNL     1      -1.027  -0.997   0.030  1.00  0.00     0.001 A 
ATOM     18  C   UNL     1      -1.586   0.278  -0.014  1.00  0.00     0.010 A 
ENDBRANCH   7  12
ENDBRANCH   4   6
ENDBRANCH   3   4
ENDBRANCH   2   3
ENDBRANCH   1   2
BRANCH   1  19
ATOM     19  O   UNL     1      -3.410   4.180  -5.391  1.00  0.00    -0.458 OA
BRANCH  19  20
ATOM     20  C   UNL     1      -3.615   3.587  -4.166  1.00  0.00     0.338 C 
ATOM     21  O   UNL     1      -4.502   2.765  -3.974  1.00  0.00    -0.246 OA
BRANCH  20  22
ATOM     22  C   UNL     1      -2.581   3.770  -3.115  1.00  0.00     0.060 A 
ATOM     23  C   UNL     1      -2.942   3.717  -1.334  1.00  0.00     0.016 A 
ATOM     24  C   UNL     1      -1.167   4.629  -3.654  1.00  0.00     0.016 A 
ATOM     25  C   UNL     1      -1.748   4.804  -0.100  1.00  0.00     0.010 A 
ATOM     26  C   UNL     1      -0.178   5.602  -2.607  1.00  0.00     0.010 A 
ATOM     27  C   UNL     1      -0.432   5.755  -0.872  1.00  0.00    -0.014 A 
BRANCH  27  28
ATOM     28  C   UNL     1       0.545   6.671  -0.338  1.00  0.00     0.031 A 
ATOM     29  C   UNL     1       1.873   6.108  -0.097  1.00  0.00     0.074 A 
ATOM     30  C   UNL     1       0.386   7.985  -0.612  1.00  0.00     0.049 A 
ATOM     31  N   UNL     1       2.781   6.661   0.621  1.00  0.00    -0.248 NA
ATOM     32  C   UNL     1       2.263   4.799  -0.613  1.00  0.00     0.031 C 
ATOM     33  C   UNL     1       1.413   8.972  -0.936  1.00  0.00     0.029 A 
ATOM     34  N   UNL     1      -0.768   8.727  -0.682  1.00  0.00    -0.354 N 
ATOM     35  C   UNL     1       3.943   5.974   0.352  1.00  0.00     0.074 A 
ATOM     36  C   UNL     1       3.526   4.714  -0.200  1.00  0.00     0.031 C 
ATOM     37  C   UNL     1       0.857  10.200  -0.989  1.00  0.00     0.029 A 
ATOM     38  C   UNL     1      -0.538  10.093  -0.582  1.00  0.00     0.049 A 
ATOM     39  H   UNL     1      -1.663   8.332  -0.792  1.00  0.00     0.167 HD
ATOM     40  C   UNL     1       5.133   6.635   0.385  1.00  0.00     0.031 A 
ATOM     41  C   UNL     1      -1.127  10.780   0.443  1.00  0.00     0.031 A 
ATOM     42  C   UNL     1       4.917   8.056   0.692  1.00  0.00     0.049 A 
ATOM     43  C   UNL     1      -0.142  10.950   1.585  1.00  0.00     0.074 A 
ATOM     44  C   UNL     1       4.922   9.198  -0.093  1.00  0.00     0.029 A 
ATOM     45  N   UNL     1       4.262   8.401   1.869  1.00  0.00    -0.354 N 
ATOM     46  N   UNL     1       1.070  10.462   1.548  1.00  0.00    -0.248 NA
ATOM     47  C   UNL     1      -0.385  11.676   2.829  1.00  0.00     0.031 C 
ATOM     48  C   UNL     1       4.163  10.198   0.586  1.00  0.00     0.029 A 
ATOM     49  C   UNL     1       3.733   9.679   1.796  1.00  0.00     0.049 A 
ATOM     50  H   UNL     1       4.184   7.812   2.654  1.00  0.00     0.167 HD
ATOM     51  C   UNL     1       1.732  10.709   2.707  1.00  0.00     0.074 A 
ATOM     52  C   UNL     1       0.789  11.506   3.473  1.00  0.00     0.031 C 
ATOM     53  C   UNL     1       2.984  10.213   2.936  1.00  0.00     0.031 A 
BRANCH  40  54
ATOM     54  C   UNL     1       6.436   6.070  -0.139  1.00  0.00    -0.014 A 
ATOM     55  C   UNL     1       7.537   6.928  -0.322  1.00  0.00     0.010 A 
ATOM     56  C   UNL     1       6.660   4.714  -0.459  1.00  0.00     0.010 A 
ATOM     57  C   UNL     1       8.769   6.465  -0.815  1.00  0.00     0.020 A 
ATOM     58  C   UNL     1       7.870   4.240  -0.981  1.00  0.00     0.020 A 
ATOM     59  C   UNL     1       8.926   5.121  -1.146  1.00  0.00     0.054 A 
BRANCH  59  60
ATOM     60  S   UNL     1      10.528   4.526  -1.740  1.00  0.00     0.124 S 
ATOM     61  O   UNL     1      10.733   5.328  -2.943  1.00  0.00    -0.237 OA
ATOM     62  O   UNL     1      11.409   4.831  -0.617  1.00  0.00    -0.237 OA
ATOM     63  O   UNL     1      10.302   3.101  -1.980  1.00  0.00    -0.744 OA
ENDBRANCH  59  60
ENDBRANCH  40  54
BRANCH  41  64
ATOM     64  C   UNL     1      -2.615  10.557   0.484  1.00  0.00    -0.014 A 
ATOM     65  C   UNL     1      -3.362  11.274  -0.477  1.00  0.00     0.010 A 
ATOM     66  C   UNL     1      -3.173   9.361   0.974  1.00  0.00     0.010 A 
ATOM     67  C   UNL     1      -4.468  10.697  -1.115  1.00  0.00     0.020 A 
ATOM     68  C   UNL     1      -4.310   8.793   0.347  1.00  0.00     0.020 A 
ATOM     69  C   UNL     1      -4.890   9.417  -0.767  1.00  0.00     0.054 A 
BRANCH  69  70
ATOM     70  S   UNL     1      -6.066   8.574  -1.915  1.00  0.00     0.124 S 
ATOM     71  O   UNL     1      -7.328   8.687  -1.196  1.00  0.00    -0.237 OA
ATOM     72  O   UNL     1      -5.964   9.357  -3.145  1.00  0.00    -0.237 OA
ATOM     73  O   UNL     1      -5.562   7.215  -2.049  1.00  0.00    -0.744 OA
ENDBRANCH  69  70
ENDBRANCH  41  64
BRANCH  53  74
ATOM     74  C   UNL     1       3.662  10.213   4.279  1.00  0.00    -0.014 A 
ATOM     75  C   UNL     1       2.973  10.261   5.497  1.00  0.00     0.010 A 
ATOM     76  C   UNL     1       5.063  10.018   4.330  1.00  0.00     0.010 A 
ATOM     77  C   UNL     1       3.663  10.218   6.712  1.00  0.00     0.020 A 
ATOM     78  C   UNL     1       5.751   9.897   5.533  1.00  0.00     0.020 A 
ATOM     79  C   UNL     1       5.049  10.047   6.720  1.00  0.00     0.054 A 
BRANCH  79  80
ATOM     80  S   UNL     1       5.926  10.014   8.296  1.00  0.00     0.124 S 
ATOM     81  O   UNL     1       6.013  11.438   8.613  1.00  0.00    -0.237 OA
ATOM     82  O   UNL     1       5.031   9.235   9.148  1.00  0.00    -0.237 OA
ATOM     83  O   UNL     1       7.194   9.366   7.974  1.00  0.00    -0.744 OA
ENDBRANCH  79  80
ENDBRANCH  53  74
ENDBRANCH  27  28
ENDBRANCH  20  22
ENDBRANCH  19  20
ENDBRANCH   1  19
TORSDOF 15
