REMARK SMILES Cc1ccc(-c2cc(OCC(=O)OCCOC(=O)c3ccc(-c4c5nc(c(-c6ccc(S(=O)(=O)[O-])cc6)c6ccc([nH]6)c(-c6ccc(S(=O)(=O)[O-])cc6)c6nc(c(-c7ccc(S(=O)(=O)[O-])cc7)c7ccc4[nH]7)C=C6)C=C5)cc3)nc(NCc3ccc4c(c3)OCO4)n2)cc1
REMARK SMILES IDX 14 1 13 2 11 3 12 4 10 5 9 6 8 7 6 8 7 9 92 10 80 11 79 12
REMARK SMILES IDX 5 13 1 14 2 15 3 16 94 17 4 18 93 19 81 20 82 22 83 23 84 24
REMARK SMILES IDX 88 25 85 26 87 27 86 28 89 29 91 30 90 31 15 32 16 33 17 34
REMARK SMILES IDX 18 35 19 36 20 37 78 38 21 39 77 40 22 41 23 42 24 43 71 44
REMARK SMILES IDX 25 45 76 46 70 47 72 48 26 49 75 50 69 51 68 52 27 54 57 55
REMARK SMILES IDX 38 56 56 57 39 58 42 59 55 60 73 61 40 62 41 63 54 65 74 66
REMARK SMILES IDX 43 67 28 68 29 69 37 70 30 71 36 72 31 73 32 74 33 75 34 76
REMARK SMILES IDX 35 77 58 78 59 79 67 80 60 81 66 82 61 83 62 84 63 85 64 86
REMARK SMILES IDX 65 87 44 88 45 89 53 90 46 91 52 92 47 93 48 94 49 95 50 96
REMARK SMILES IDX 51 97
REMARK H PARENT 81 21 72 53 42 64
REMARK Flexibility Score: inf
ROOT
ATOM      1  C   UNL     1      -3.276   5.810  -0.817  1.00  0.00     0.274 C 
ENDROOT
BRANCH   1   2
ATOM      2  O   UNL     1      -4.416   5.181  -1.451  1.00  0.00    -0.460 OA
BRANCH   2   3
ATOM      3  C   UNL     1      -4.135   3.959  -2.194  1.00  0.00     0.344 C 
ATOM      4  O   UNL     1      -2.918   4.061  -2.534  1.00  0.00    -0.248 OA
BRANCH   3   5
ATOM      5  C   UNL     1      -5.535   2.300  -2.430  1.00  0.00     0.353 C 
BRANCH   5   6
ATOM      6  O   UNL     1      -5.598   0.719  -2.210  1.00  0.00    -0.466 OA
BRANCH   6   7
ATOM      7  C   UNL     1      -5.184   0.057  -1.049  1.00  0.00     0.219 A 
ATOM      8  C   UNL     1      -3.354  -0.766   0.140  1.00  0.00     0.080 A 
ATOM      9  C   UNL     1      -3.931  -0.526  -1.087  1.00  0.00     0.097 A 
ATOM     10  N   UNL     1      -4.084  -0.770   1.262  1.00  0.00    -0.213 NA
ATOM     11  C   UNL     1      -5.374  -0.426   1.174  1.00  0.00     0.226 A 
ATOM     12  N   UNL     1      -5.953   0.081   0.061  1.00  0.00    -0.177 NA
BRANCH   8  13
ATOM     13  C   UNL     1      -1.895  -0.771   0.329  1.00  0.00     0.000 A 
ATOM     14  C   UNL     1       2.397  -0.292   0.125  1.00  0.00     0.044 C 
ATOM     15  C   UNL     1       0.927  -0.508   0.319  1.00  0.00    -0.051 A 
ATOM     16  C   UNL     1       0.313  -1.699  -0.090  1.00  0.00     0.004 A 
ATOM     17  C   UNL     1       0.133   0.506   0.848  1.00  0.00     0.004 A 
ATOM     18  C   UNL     1      -1.084  -1.822  -0.102  1.00  0.00     0.010 A 
ATOM     19  C   UNL     1      -1.256   0.361   0.869  1.00  0.00     0.010 A 
ENDBRANCH   8  13
BRANCH  11  20
ATOM     20  N   UNL     1      -6.153  -0.630   2.293  1.00  0.00    -0.350 N 
ATOM     21  H   UNL     1      -6.997  -0.137   2.407  1.00  0.00     0.164 HD
BRANCH  20  22
ATOM     22  C   UNL     1      -5.718  -1.579   3.303  1.00  0.00     0.152 C 
BRANCH  22  23
ATOM     23  C   UNL     1      -6.068  -3.023   2.961  1.00  0.00    -0.025 A 
ATOM     24  C   UNL     1      -5.416  -4.087   3.642  1.00  0.00     0.009 A 
ATOM     25  C   UNL     1      -6.992  -3.332   1.950  1.00  0.00     0.056 A 
ATOM     26  C   UNL     1      -5.612  -5.424   3.264  1.00  0.00     0.051 A 
ATOM     27  C   UNL     1      -7.122  -4.645   1.566  1.00  0.00     0.166 A 
ATOM     28  C   UNL     1      -6.439  -5.663   2.191  1.00  0.00     0.165 A 
ATOM     29  O   UNL     1      -7.846  -5.087   0.501  1.00  0.00    -0.454 OA
ATOM     30  O   UNL     1      -6.640  -6.861   1.572  1.00  0.00    -0.454 OA
ATOM     31  C   UNL     1      -7.268  -6.396   0.355  1.00  0.00     0.468 C 
ENDBRANCH  22  23
ENDBRANCH  20  22
ENDBRANCH  11  20
ENDBRANCH   6   7
ENDBRANCH   5   6
ENDBRANCH   3   5
ENDBRANCH   2   3
ENDBRANCH   1   2
BRANCH   1  32
ATOM     32  C   UNL     1      -2.880   5.020   0.444  1.00  0.00     0.275 C 
BRANCH  32  33
ATOM     33  O   UNL     1      -2.577   3.640   0.157  1.00  0.00    -0.458 OA
BRANCH  33  34
ATOM     34  C   UNL     1      -3.577   2.784   0.489  1.00  0.00     0.338 C 
ATOM     35  O   UNL     1      -4.064   2.645   1.597  1.00  0.00    -0.246 OA
BRANCH  34  36
ATOM     36  C   UNL     1      -4.323   2.528  -0.750  1.00  0.00     0.060 A 
ATOM     37  C   UNL     1      -3.504   1.996  -2.290  1.00  0.00     0.016 A 
ATOM     38  C   UNL     1      -5.756   3.601  -0.822  1.00  0.00     0.016 A 
ATOM     39  C   UNL     1      -4.032   2.672  -3.881  1.00  0.00     0.010 A 
ATOM     40  C   UNL     1      -6.230   4.313  -2.413  1.00  0.00     0.010 A 
ATOM     41  C   UNL     1      -5.313   3.917  -3.905  1.00  0.00    -0.014 A 
BRANCH  41  42
ATOM     42  C   UNL     1      -5.229   5.081  -4.800  1.00  0.00     0.031 A 
ATOM     43  C   UNL     1      -6.495   5.544  -5.391  1.00  0.00     0.074 A 
ATOM     44  C   UNL     1      -4.108   5.854  -4.776  1.00  0.00     0.049 A 
ATOM     45  N   UNL     1      -6.573   6.448  -6.294  1.00  0.00    -0.248 NA
ATOM     46  C   UNL     1      -7.806   4.982  -5.051  1.00  0.00     0.031 C 
ATOM     47  C   UNL     1      -3.962   7.286  -5.062  1.00  0.00     0.029 A 
ATOM     48  N   UNL     1      -2.793   5.510  -4.502  1.00  0.00    -0.354 N 
ATOM     49  C   UNL     1      -7.887   6.853  -6.351  1.00  0.00     0.074 A 
ATOM     50  C   UNL     1      -8.633   5.824  -5.678  1.00  0.00     0.031 C 
ATOM     51  C   UNL     1      -2.655   7.585  -5.217  1.00  0.00     0.029 A 
ATOM     52  C   UNL     1      -1.915   6.336  -5.183  1.00  0.00     0.049 A 
ATOM     53  H   UNL     1      -2.520   4.778  -3.903  1.00  0.00     0.167 HD
ATOM     54  C   UNL     1      -8.141   8.108  -6.809  1.00  0.00     0.031 A 
ATOM     55  C   UNL     1      -1.115   5.851  -6.179  1.00  0.00     0.031 A 
ATOM     56  C   UNL     1      -6.906   8.714  -7.317  1.00  0.00     0.049 A 
ATOM     57  C   UNL     1      -1.592   6.351  -7.527  1.00  0.00     0.074 A 
ATOM     58  C   UNL     1      -6.019   9.638  -6.793  1.00  0.00     0.029 A 
ATOM     59  N   UNL     1      -6.232   8.063  -8.343  1.00  0.00    -0.354 N 
ATOM     60  N   UNL     1      -2.761   6.901  -7.714  1.00  0.00    -0.248 NA
ATOM     61  C   UNL     1      -0.802   6.312  -8.750  1.00  0.00     0.031 C 
ATOM     62  C   UNL     1      -4.776   9.480  -7.478  1.00  0.00     0.029 A 
ATOM     63  C   UNL     1      -4.920   8.487  -8.434  1.00  0.00     0.049 A 
ATOM     64  H   UNL     1      -6.638   7.386  -8.931  1.00  0.00     0.167 HD
ATOM     65  C   UNL     1      -2.897   7.307  -9.008  1.00  0.00     0.074 A 
ATOM     66  C   UNL     1      -1.633   6.922  -9.616  1.00  0.00     0.031 C 
ATOM     67  C   UNL     1      -4.040   7.911  -9.455  1.00  0.00     0.031 A 
BRANCH  54  68
ATOM     68  C   UNL     1      -9.418   8.882  -6.584  1.00  0.00    -0.014 A 
ATOM     69  C   UNL     1      -9.395  10.277  -6.785  1.00  0.00     0.010 A 
ATOM     70  C   UNL     1     -10.644   8.338  -6.150  1.00  0.00     0.010 A 
ATOM     71  C   UNL     1     -10.515  11.085  -6.556  1.00  0.00     0.020 A 
ATOM     72  C   UNL     1     -11.776   9.137  -5.912  1.00  0.00     0.020 A 
ATOM     73  C   UNL     1     -11.705  10.508  -6.125  1.00  0.00     0.054 A 
BRANCH  73  74
ATOM     74  S   UNL     1     -13.149  11.573  -5.888  1.00  0.00     0.124 S 
ATOM     75  O   UNL     1     -12.684  12.510  -4.869  1.00  0.00    -0.237 OA
ATOM     76  O   UNL     1     -13.342  12.136  -7.221  1.00  0.00    -0.237 OA
ATOM     77  O   UNL     1     -14.193  10.649  -5.448  1.00  0.00    -0.744 OA
ENDBRANCH  73  74
ENDBRANCH  54  68
BRANCH  55  78
ATOM     78  C   UNL     1      -0.507   4.519  -5.881  1.00  0.00    -0.014 A 
ATOM     79  C   UNL     1       0.449   4.487  -4.842  1.00  0.00     0.010 A 
ATOM     80  C   UNL     1      -1.124   3.312  -6.262  1.00  0.00     0.010 A 
ATOM     81  C   UNL     1       0.649   3.329  -4.088  1.00  0.00     0.020 A 
ATOM     82  C   UNL     1      -0.903   2.136  -5.518  1.00  0.00     0.020 A 
ATOM     83  C   UNL     1      -0.057   2.170  -4.406  1.00  0.00     0.054 A 
BRANCH  83  84
ATOM     84  S   UNL     1      -0.028   0.828  -3.183  1.00  0.00     0.124 S 
ATOM     85  O   UNL     1       1.336   0.322  -3.292  1.00  0.00    -0.237 OA
ATOM     86  O   UNL     1      -0.328   1.565  -1.960  1.00  0.00    -0.237 OA
ATOM     87  O   UNL     1      -1.083  -0.080  -3.633  1.00  0.00    -0.744 OA
ENDBRANCH  83  84
ENDBRANCH  55  78
BRANCH  67  88
ATOM     88  C   UNL     1      -4.440   8.057 -10.909  1.00  0.00    -0.014 A 
ATOM     89  C   UNL     1      -3.728   7.507 -11.981  1.00  0.00     0.010 A 
ATOM     90  C   UNL     1      -5.662   8.701 -11.234  1.00  0.00     0.010 A 
ATOM     91  C   UNL     1      -4.152   7.670 -13.302  1.00  0.00     0.020 A 
ATOM     92  C   UNL     1      -6.141   8.797 -12.539  1.00  0.00     0.020 A 
ATOM     93  C   UNL     1      -5.356   8.315 -13.572  1.00  0.00     0.054 A 
BRANCH  93  94
ATOM     94  S   UNL     1      -5.871   8.506 -15.288  1.00  0.00     0.124 S 
ATOM     95  O   UNL     1      -4.928   9.512 -15.770  1.00  0.00    -0.237 OA
ATOM     96  O   UNL     1      -5.683   7.160 -15.825  1.00  0.00    -0.237 OA
ATOM     97  O   UNL     1      -7.260   8.946 -15.189  1.00  0.00    -0.744 OA
ENDBRANCH  93  94
ENDBRANCH  67  88
ENDBRANCH  41  42
ENDBRANCH  34  36
ENDBRANCH  33  34
ENDBRANCH  32  33
ENDBRANCH   1  32
TORSDOF 20
