REMARK SMILES Cc1ncccc1C(=O)Nc1ccccc1C(=O)OCCOC(=O)c1ccc(-c2c3nc(c(-c4ccc(S(=O)(=O)[O-])cc4)c4ccc([nH]4)c(-c4ccc(S(=O)(=O)[O-])cc4)c4nc(c(-c5ccc(S(=O)(=O)[O-])cc5)c5ccc2[nH]5)C=C4)C=C3)cc1
REMARK SMILES IDX 21 1 20 2 19 3 17 4 18 5 16 6 11 7 12 8 13 9 15 10 14 11
REMARK SMILES IDX 10 12 8 13 9 14 7 16 1 17 2 18 3 19 4 20 6 21 5 22 22 23
REMARK SMILES IDX 23 24 24 25 25 26 26 27 84 28 27 29 83 30 28 31 29 32 30 33
REMARK SMILES IDX 77 34 31 35 82 36 76 37 78 38 32 39 81 40 75 41 74 42 33 44
REMARK SMILES IDX 63 45 44 46 62 47 45 48 48 49 61 50 79 51 46 52 47 53 60 55
REMARK SMILES IDX 80 56 49 57 34 58 35 59 43 60 36 61 42 62 37 63 38 64 39 65
REMARK SMILES IDX 40 66 41 67 64 68 65 69 73 70 66 71 72 72 67 73 68 74 69 75
REMARK SMILES IDX 70 76 71 77 50 78 51 79 59 80 52 81 58 82 53 83 54 84 55 85
REMARK SMILES IDX 56 86 57 87
REMARK H PARENT 10 15 78 43 48 54
REMARK Flexibility Score: inf
ROOT
ATOM      1  C   UNL     1      -0.021  -1.534   4.280  1.00  0.00     0.275 C 
ENDROOT
BRANCH   1   2
ATOM      2  C   UNL     1      -0.042  -1.944   2.805  1.00  0.00     0.275 C 
BRANCH   2   3
ATOM      3  O   UNL     1       1.268  -2.048   2.207  1.00  0.00    -0.458 OA
BRANCH   3   4
ATOM      4  C   UNL     1       1.691  -0.909   1.609  1.00  0.00     0.340 C 
ATOM      5  O   UNL     1       1.094   0.152   1.607  1.00  0.00    -0.246 OA
BRANCH   4   6
ATOM      6  C   UNL     1       2.970  -1.069   0.896  1.00  0.00     0.083 A 
ATOM      7  C   UNL     1       3.126  -1.907  -0.211  1.00  0.00     0.056 A 
ATOM      8  C   UNL     1       4.391  -1.990  -0.826  1.00  0.00     0.027 A 
ATOM      9  C   UNL     1       5.434  -1.142  -0.451  1.00  0.00     0.002 A 
ATOM     10  C   UNL     1       4.046  -0.256   1.298  1.00  0.00     0.018 A 
ATOM     11  C   UNL     1       5.256  -0.260   0.604  1.00  0.00     0.001 A 
BRANCH   7  12
ATOM     12  N   UNL     1       2.122  -2.660  -0.840  1.00  0.00    -0.321 N 
ATOM     13  C   UNL     1       0.780  -2.465  -1.055  1.00  0.00     0.257 C 
ATOM     14  O   UNL     1       0.127  -3.447  -1.424  1.00  0.00    -0.269 OA
ATOM     15  H   UNL     1       2.452  -3.513  -1.205  1.00  0.00     0.170 HD
BRANCH  13  16
ATOM     16  C   UNL     1       0.063  -1.165  -0.953  1.00  0.00     0.061 A 
ATOM     17  C   UNL     1       1.857   0.403  -1.933  1.00  0.00     0.067 C 
ATOM     18  C   UNL     1       0.512   0.100  -1.353  1.00  0.00     0.050 A 
ATOM     19  N   UNL     1      -0.259   1.219  -1.214  1.00  0.00    -0.261 NA
ATOM     20  C   UNL     1      -1.492   1.095  -0.684  1.00  0.00     0.111 A 
ATOM     21  C   UNL     1      -1.259  -1.254  -0.476  1.00  0.00     0.017 A 
ATOM     22  C   UNL     1      -2.042  -0.115  -0.323  1.00  0.00     0.021 A 
ENDBRANCH  13  16
ENDBRANCH   7  12
ENDBRANCH   4   6
ENDBRANCH   3   4
ENDBRANCH   2   3
ENDBRANCH   1   2
BRANCH   1  23
ATOM     23  O   UNL     1       0.401  -0.170   4.461  1.00  0.00    -0.458 OA
BRANCH  23  24
ATOM     24  C   UNL     1       1.726  -0.027   4.671  1.00  0.00     0.338 C 
ATOM     25  O   UNL     1       2.560  -0.917   4.755  1.00  0.00    -0.246 OA
BRANCH  24  26
ATOM     26  C   UNL     1       2.109   1.388   4.745  1.00  0.00     0.060 A 
ATOM     27  C   UNL     1       2.495   2.039   3.575  1.00  0.00     0.016 A 
ATOM     28  C   UNL     1       2.360   1.969   5.984  1.00  0.00     0.016 A 
ATOM     29  C   UNL     1       3.275   3.180   3.632  1.00  0.00     0.010 A 
ATOM     30  C   UNL     1       3.033   3.191   6.035  1.00  0.00     0.010 A 
ATOM     31  C   UNL     1       3.548   3.775   4.863  1.00  0.00    -0.014 A 
BRANCH  31  32
ATOM     32  C   UNL     1       4.430   4.963   4.928  1.00  0.00     0.031 A 
ATOM     33  C   UNL     1       5.689   4.903   5.748  1.00  0.00     0.074 A 
ATOM     34  C   UNL     1       4.113   6.079   4.242  1.00  0.00     0.049 A 
ATOM     35  N   UNL     1       6.474   5.875   6.130  1.00  0.00    -0.248 NA
ATOM     36  C   UNL     1       6.107   3.571   6.220  1.00  0.00     0.031 C 
ATOM     37  C   UNL     1       2.974   6.226   3.330  1.00  0.00     0.029 A 
ATOM     38  N   UNL     1       4.723   7.304   4.206  1.00  0.00    -0.354 N 
ATOM     39  C   UNL     1       7.437   5.285   6.941  1.00  0.00     0.074 A 
ATOM     40  C   UNL     1       7.131   3.873   7.004  1.00  0.00     0.031 C 
ATOM     41  C   UNL     1       2.986   7.458   2.804  1.00  0.00     0.029 A 
ATOM     42  C   UNL     1       4.062   8.220   3.423  1.00  0.00     0.049 A 
ATOM     43  H   UNL     1       5.554   7.510   4.694  1.00  0.00     0.167 HD
ATOM     44  C   UNL     1       8.476   5.877   7.578  1.00  0.00     0.031 A 
ATOM     45  C   UNL     1       4.262   9.540   3.266  1.00  0.00     0.031 A 
ATOM     46  C   UNL     1       8.766   7.284   7.479  1.00  0.00     0.049 A 
ATOM     47  C   UNL     1       5.365  10.193   4.047  1.00  0.00     0.074 A 
ATOM     48  C   UNL     1       9.783   8.001   8.083  1.00  0.00     0.029 A 
ATOM     49  N   UNL     1       8.039   8.186   6.713  1.00  0.00    -0.354 N 
ATOM     50  N   UNL     1       6.226   9.644   4.871  1.00  0.00    -0.248 NA
ATOM     51  C   UNL     1       5.516  11.643   3.886  1.00  0.00     0.031 C 
ATOM     52  C   UNL     1       9.637   9.346   7.725  1.00  0.00     0.029 A 
ATOM     53  C   UNL     1       8.574   9.457   6.842  1.00  0.00     0.049 A 
ATOM     54  H   UNL     1       7.258   7.956   6.160  1.00  0.00     0.167 HD
ATOM     55  C   UNL     1       7.045  10.679   5.306  1.00  0.00     0.074 A 
ATOM     56  C   UNL     1       6.579  11.882   4.643  1.00  0.00     0.031 C 
ATOM     57  C   UNL     1       8.090  10.638   6.169  1.00  0.00     0.031 A 
BRANCH  44  58
ATOM     58  C   UNL     1       9.321   5.013   8.481  1.00  0.00    -0.014 A 
ATOM     59  C   UNL     1      10.147   3.993   7.973  1.00  0.00     0.010 A 
ATOM     60  C   UNL     1       9.280   5.222   9.872  1.00  0.00     0.010 A 
ATOM     61  C   UNL     1      10.863   3.162   8.840  1.00  0.00     0.020 A 
ATOM     62  C   UNL     1      10.022   4.416  10.741  1.00  0.00     0.020 A 
ATOM     63  C   UNL     1      10.790   3.374  10.220  1.00  0.00     0.054 A 
BRANCH  63  64
ATOM     64  S   UNL     1      11.719   2.273  11.322  1.00  0.00     0.124 S 
ATOM     65  O   UNL     1      10.951   1.034  11.227  1.00  0.00    -0.237 OA
ATOM     66  O   UNL     1      13.041   2.240  10.702  1.00  0.00    -0.237 OA
ATOM     67  O   UNL     1      11.658   2.945  12.617  1.00  0.00    -0.744 OA
ENDBRANCH  63  64
ENDBRANCH  44  58
BRANCH  45  68
ATOM     68  C   UNL     1       3.376  10.320   2.360  1.00  0.00    -0.014 A 
ATOM     69  C   UNL     1       3.879  10.851   1.161  1.00  0.00     0.010 A 
ATOM     70  C   UNL     1       2.012  10.496   2.666  1.00  0.00     0.010 A 
ATOM     71  C   UNL     1       3.038  11.546   0.287  1.00  0.00     0.020 A 
ATOM     72  C   UNL     1       1.161  11.162   1.780  1.00  0.00     0.020 A 
ATOM     73  C   UNL     1       1.683  11.690   0.598  1.00  0.00     0.054 A 
BRANCH  73  74
ATOM     74  S   UNL     1       0.602  12.538  -0.586  1.00  0.00     0.124 S 
ATOM     75  O   UNL     1       1.042  13.924  -0.460  1.00  0.00    -0.237 OA
ATOM     76  O   UNL     1       0.938  11.879  -1.846  1.00  0.00    -0.237 OA
ATOM     77  O   UNL     1      -0.742  12.260  -0.085  1.00  0.00    -0.744 OA
ENDBRANCH  73  74
ENDBRANCH  45  68
BRANCH  57  78
ATOM     78  C   UNL     1       8.835  11.924   6.400  1.00  0.00    -0.014 A 
ATOM     79  C   UNL     1       8.269  12.980   7.137  1.00  0.00     0.010 A 
ATOM     80  C   UNL     1      10.144  12.056   5.903  1.00  0.00     0.010 A 
ATOM     81  C   UNL     1       8.990  14.159   7.342  1.00  0.00     0.020 A 
ATOM     82  C   UNL     1      10.879  13.219   6.135  1.00  0.00     0.020 A 
ATOM     83  C   UNL     1      10.291  14.270   6.841  1.00  0.00     0.054 A 
BRANCH  83  84
ATOM     84  S   UNL     1      11.221  15.793   7.160  1.00  0.00     0.124 S 
ATOM     85  O   UNL     1      10.553  16.747   6.279  1.00  0.00    -0.237 OA
ATOM     86  O   UNL     1      11.010  16.002   8.590  1.00  0.00    -0.237 OA
ATOM     87  O   UNL     1      12.590  15.449   6.782  1.00  0.00    -0.744 OA
ENDBRANCH  83  84
ENDBRANCH  57  78
ENDBRANCH  31  32
ENDBRANCH  24  26
ENDBRANCH  23  24
ENDBRANCH   1  23
TORSDOF 16
