REMARK SMILES NS(=O)(=O)c1ccc(-n2nc(C(=O)OCCOC(=O)c3ccc(-c4c5nc(c(-c6ccc(S(=O)(=O)[O-])cc6)c6ccc([nH]6)c(-c6ccc(S(=O)(=O)[O-])cc6)c6nc(c(-c7ccc(S(=O)(=O)[O-])cc7)c7ccc4[nH]7)C=C6)C=C5)cc3)c(Cl)c2-c2ccc(Cl)cc2)cc1
REMARK SMILES IDX 15 1 14 2 12 3 13 4 11 5 9 6 10 7 82 8 80 9 81 10 8 11 5 12
REMARK SMILES IDX 6 13 91 14 7 15 90 16 2 17 3 18 4 19 1 20 83 23 84 24 89 25
REMARK SMILES IDX 85 26 88 27 86 28 87 29 16 30 17 31 18 32 19 33 20 34 21 35
REMARK SMILES IDX 79 36 22 37 78 38 23 39 24 40 25 41 72 42 26 43 77 44 71 45
REMARK SMILES IDX 73 46 27 47 76 48 70 49 69 50 28 52 58 53 39 54 57 55 40 56
REMARK SMILES IDX 43 57 56 58 74 59 41 60 42 61 55 63 75 64 44 65 29 66 30 67
REMARK SMILES IDX 38 68 31 69 37 70 32 71 33 72 34 73 35 74 36 75 59 76 60 77
REMARK SMILES IDX 68 78 61 79 67 80 62 81 63 82 64 83 65 84 66 85 45 86 46 87
REMARK SMILES IDX 54 88 47 89 53 90 48 91 49 92 50 93 51 94 52 95
REMARK H PARENT 1 21 1 22 73 51 43 62
REMARK Flexibility Score: inf
ROOT
ATOM      1  C   UNL     1       4.154   9.850   7.632  1.00  0.00     0.275 C 
ENDROOT
BRANCH   1   2
ATOM      2  O   UNL     1       3.244   9.127   6.792  1.00  0.00    -0.457 OA
BRANCH   2   3
ATOM      3  C   UNL     1       3.735   8.165   5.951  1.00  0.00     0.360 C 
ATOM      4  O   UNL     1       4.930   8.025   5.711  1.00  0.00    -0.244 OA
BRANCH   3   5
ATOM      5  C   UNL     1       2.660   7.332   5.375  1.00  0.00     0.190 A 
ATOM      6  N   UNL     1       1.677   5.840   4.178  1.00  0.00    -0.231 N 
ATOM      7  N   UNL     1       2.901   6.246   4.601  1.00  0.00    -0.159 NA
ATOM      8  C   UNL     1       0.663   6.655   4.640  1.00  0.00     0.094 A 
ATOM      9  C   UNL     1       1.265   7.537   5.511  1.00  0.00     0.102 A 
ATOM     10  Cl  UNL     1       0.446   8.707   6.452  1.00  0.00    -0.079 Cl
BRANCH   6  11
ATOM     11  C   UNL     1       1.559   4.861   3.161  1.00  0.00     0.065 A 
ATOM     12  C   UNL     1       1.046   2.944   1.210  1.00  0.00     0.082 A 
ATOM     13  C   UNL     1       1.514   2.542   2.468  1.00  0.00     0.024 A 
ATOM     14  C   UNL     1       0.870   4.301   0.916  1.00  0.00     0.024 A 
ATOM     15  C   UNL     1       1.794   3.509   3.447  1.00  0.00     0.030 A 
ATOM     16  C   UNL     1       1.110   5.260   1.897  1.00  0.00     0.030 A 
BRANCH  12  17
ATOM     17  S   UNL     1       0.653   1.786  -0.069  1.00  0.00     0.238 S 
ATOM     18  O   UNL     1       1.354   2.186  -1.273  1.00  0.00    -0.207 OA
ATOM     19  O   UNL     1      -0.769   1.555  -0.050  1.00  0.00    -0.207 OA
BRANCH  17  20
ATOM     20  N   UNL     1       1.367   0.343   0.396  1.00  0.00    -0.225 NA
ATOM     21  H   UNL     1       1.176  -0.372  -0.305  1.00  0.00     0.137 HD
ATOM     22  H   UNL     1       0.984   0.049   1.294  1.00  0.00     0.137 HD
ENDBRANCH  17  20
ENDBRANCH  12  17
ENDBRANCH   6  11
BRANCH   8  23
ATOM     23  C   UNL     1      -0.747   6.599   4.276  1.00  0.00     0.002 A 
ATOM     24  C   UNL     1      -1.322   7.740   3.693  1.00  0.00     0.012 A 
ATOM     25  C   UNL     1      -1.557   5.513   4.616  1.00  0.00     0.012 A 
ATOM     26  C   UNL     1      -2.698   7.819   3.499  1.00  0.00     0.021 A 
ATOM     27  C   UNL     1      -2.938   5.589   4.412  1.00  0.00     0.021 A 
ATOM     28  C   UNL     1      -3.502   6.746   3.871  1.00  0.00     0.041 A 
ATOM     29  Cl  UNL     1      -5.208   6.869   3.688  1.00  0.00    -0.084 Cl
ENDBRANCH   8  23
ENDBRANCH   3   5
ENDBRANCH   2   3
ENDBRANCH   1   2
BRANCH   1  30
ATOM     30  C   UNL     1       4.383   9.118   8.945  1.00  0.00     0.275 C 
BRANCH  30  31
ATOM     31  O   UNL     1       5.180   7.958   8.735  1.00  0.00    -0.458 OA
BRANCH  31  32
ATOM     32  C   UNL     1       4.489   6.814   8.532  1.00  0.00     0.338 C 
ATOM     33  O   UNL     1       3.301   6.701   8.280  1.00  0.00    -0.246 OA
BRANCH  32  34
ATOM     34  C   UNL     1       5.355   5.683   8.857  1.00  0.00     0.060 A 
ATOM     35  C   UNL     1       4.930   4.402   8.496  1.00  0.00     0.016 A 
ATOM     36  C   UNL     1       6.413   5.897   9.750  1.00  0.00     0.016 A 
ATOM     37  C   UNL     1       5.472   3.322   9.161  1.00  0.00     0.010 A 
ATOM     38  C   UNL     1       6.928   4.827  10.432  1.00  0.00     0.010 A 
ATOM     39  C   UNL     1       6.405   3.562  10.176  1.00  0.00    -0.014 A 
BRANCH  39  40
ATOM     40  C   UNL     1       6.982   2.442  10.888  1.00  0.00     0.031 A 
ATOM     41  C   UNL     1       7.992   1.738  10.065  1.00  0.00     0.074 A 
ATOM     42  C   UNL     1       6.739   2.227  12.196  1.00  0.00     0.049 A 
ATOM     43  N   UNL     1       7.880   0.580   9.506  1.00  0.00    -0.248 NA
ATOM     44  C   UNL     1       9.167   2.509   9.610  1.00  0.00     0.031 C 
ATOM     45  C   UNL     1       5.976   3.076  13.119  1.00  0.00     0.029 A 
ATOM     46  N   UNL     1       7.228   1.259  13.014  1.00  0.00    -0.354 N 
ATOM     47  C   UNL     1       9.092   0.374   8.856  1.00  0.00     0.074 A 
ATOM     48  C   UNL     1       9.708   1.667   8.730  1.00  0.00     0.031 C 
ATOM     49  C   UNL     1       6.256   2.717  14.394  1.00  0.00     0.029 A 
ATOM     50  C   UNL     1       7.101   1.535  14.374  1.00  0.00     0.049 A 
ATOM     51  H   UNL     1       7.637   0.430  12.675  1.00  0.00     0.167 HD
ATOM     52  C   UNL     1       9.652  -0.866   8.803  1.00  0.00     0.031 A 
ATOM     53  C   UNL     1       7.699   0.864  15.393  1.00  0.00     0.031 A 
ATOM     54  C   UNL     1       8.694  -1.879   9.168  1.00  0.00     0.049 A 
ATOM     55  C   UNL     1       8.106  -0.456  14.854  1.00  0.00     0.074 A 
ATOM     56  C   UNL     1       7.519  -2.365   8.639  1.00  0.00     0.029 A 
ATOM     57  N   UNL     1       8.723  -2.240  10.493  1.00  0.00    -0.354 N 
ATOM     58  N   UNL     1       7.254  -1.360  14.463  1.00  0.00    -0.248 NA
ATOM     59  C   UNL     1       9.460  -0.615  14.345  1.00  0.00     0.031 C 
ATOM     60  C   UNL     1       6.718  -2.722   9.762  1.00  0.00     0.029 A 
ATOM     61  C   UNL     1       7.455  -2.507  10.930  1.00  0.00     0.049 A 
ATOM     62  H   UNL     1       9.536  -2.299  11.047  1.00  0.00     0.167 HD
ATOM     63  C   UNL     1       7.831  -1.922  13.335  1.00  0.00     0.074 A 
ATOM     64  C   UNL     1       9.238  -1.534  13.399  1.00  0.00     0.031 C 
ATOM     65  C   UNL     1       7.049  -2.389  12.317  1.00  0.00     0.031 A 
BRANCH  52  66
ATOM     66  C   UNL     1      11.142  -1.106   8.948  1.00  0.00    -0.014 A 
ATOM     67  C   UNL     1      11.612  -2.434   8.917  1.00  0.00     0.010 A 
ATOM     68  C   UNL     1      12.049  -0.124   9.399  1.00  0.00     0.010 A 
ATOM     69  C   UNL     1      12.894  -2.765   9.375  1.00  0.00     0.020 A 
ATOM     70  C   UNL     1      13.343  -0.436   9.819  1.00  0.00     0.020 A 
ATOM     71  C   UNL     1      13.748  -1.761   9.832  1.00  0.00     0.054 A 
BRANCH  71  72
ATOM     72  S   UNL     1      15.370  -2.203  10.495  1.00  0.00     0.124 S 
ATOM     73  O   UNL     1      15.011  -2.965  11.687  1.00  0.00    -0.237 OA
ATOM     74  O   UNL     1      15.950  -2.973   9.398  1.00  0.00    -0.237 OA
ATOM     75  O   UNL     1      16.002  -0.909  10.744  1.00  0.00    -0.744 OA
ENDBRANCH  71  72
ENDBRANCH  52  66
BRANCH  53  76
ATOM     76  C   UNL     1       8.213   1.374  16.691  1.00  0.00    -0.014 A 
ATOM     77  C   UNL     1       8.546   0.494  17.741  1.00  0.00     0.010 A 
ATOM     78  C   UNL     1       8.666   2.705  16.789  1.00  0.00     0.010 A 
ATOM     79  C   UNL     1       9.357   0.913  18.813  1.00  0.00     0.020 A 
ATOM     80  C   UNL     1       9.472   3.130  17.855  1.00  0.00     0.020 A 
ATOM     81  C   UNL     1       9.834   2.225  18.851  1.00  0.00     0.054 A 
BRANCH  81  82
ATOM     82  S   UNL     1      11.029   2.710  20.137  1.00  0.00     0.124 S 
ATOM     83  O   UNL     1      10.205   2.716  21.342  1.00  0.00    -0.237 OA
ATOM     84  O   UNL     1      12.029   1.649  20.061  1.00  0.00    -0.237 OA
ATOM     85  O   UNL     1      11.492   4.025  19.697  1.00  0.00    -0.744 OA
ENDBRANCH  81  82
ENDBRANCH  53  76
BRANCH  65  86
ATOM     86  C   UNL     1       5.594  -2.661  12.619  1.00  0.00    -0.014 A 
ATOM     87  C   UNL     1       4.647  -1.674  12.958  1.00  0.00     0.010 A 
ATOM     88  C   UNL     1       5.152  -3.982  12.434  1.00  0.00     0.010 A 
ATOM     89  C   UNL     1       3.295  -2.014  13.131  1.00  0.00     0.020 A 
ATOM     90  C   UNL     1       3.809  -4.322  12.585  1.00  0.00     0.020 A 
ATOM     91  C   UNL     1       2.886  -3.339  12.944  1.00  0.00     0.054 A 
BRANCH  91  92
ATOM     92  S   UNL     1       1.136  -3.778  13.135  1.00  0.00     0.124 S 
ATOM     93  O   UNL     1       0.921  -3.613  14.570  1.00  0.00    -0.237 OA
ATOM     94  O   UNL     1       0.461  -2.803  12.281  1.00  0.00    -0.237 OA
ATOM     95  O   UNL     1       1.068  -5.158  12.655  1.00  0.00    -0.744 OA
ENDBRANCH  91  92
ENDBRANCH  65  86
ENDBRANCH  39  40
ENDBRANCH  32  34
ENDBRANCH  31  32
ENDBRANCH  30  31
ENDBRANCH   1  30
TORSDOF 18
