REMARK SMILES CC[C@](C)(NS(=O)(=O)c1ccc(C(=O)OC)cc1)C(=O)OCCOC(=O)c1ccc(-c2c3nc(c(-c4ccc(S(=O)(=O)[O-])cc4)c4ccc([nH]4)c(-c4ccc(S(=O)(=O)[O-])cc4)c4nc(c(-c5ccc(S(=O)(=O)[O-])cc5)c5ccc2[nH]5)C=C4)C=C3)cc1
REMARK SMILES IDX 22 1 21 2 19 3 20 4 3 5 4 6 2 7 1 8 5 9 6 11 7 12 8 13 9 14
REMARK SMILES IDX 10 15 18 16 11 17 17 18 12 19 13 20 14 21 15 22 16 23 23 24
REMARK SMILES IDX 24 25 25 26 26 27 27 28 28 29 86 30 29 31 85 32 30 33 31 34
REMARK SMILES IDX 32 35 79 36 33 37 84 38 78 39 80 40 34 41 83 42 77 43 76 44
REMARK SMILES IDX 35 46 65 47 46 48 64 49 47 50 50 51 63 52 81 53 48 54 49 55
REMARK SMILES IDX 62 57 82 58 51 59 36 60 37 61 45 62 38 63 44 64 39 65 40 66
REMARK SMILES IDX 41 67 42 68 43 69 66 70 67 71 75 72 68 73 74 74 69 75 70 76
REMARK SMILES IDX 71 77 72 78 73 79 52 80 53 81 61 82 54 83 60 84 55 85 56 86
REMARK SMILES IDX 57 87 58 88 59 89
REMARK H PARENT 5 10 80 45 50 56
REMARK Flexibility Score: inf
ROOT
ATOM      1  C   UNL     1       4.716   2.600   1.082  1.00  0.00     0.274 C 
ENDROOT
BRANCH   1   2
ATOM      2  O   UNL     1       3.369   2.885   1.520  1.00  0.00    -0.461 OA
BRANCH   2   3
ATOM      3  C   UNL     1       2.378   2.223   0.874  1.00  0.00     0.327 C 
ATOM      4  O   UNL     1       2.596   1.406  -0.017  1.00  0.00    -0.250 OA
BRANCH   3   5
ATOM      5  C   UNL     1       0.958   2.638   1.299  1.00  0.00     0.127 C 
ATOM      6  C   UNL     1       0.072   1.363   1.337  1.00  0.00     0.042 C 
BRANCH   5   7
ATOM      7  C   UNL     1       0.396   3.591   0.214  1.00  0.00     0.032 C 
ATOM      8  C   UNL     1       0.316   3.018  -1.206  1.00  0.00     0.006 C 
ENDBRANCH   5   7
BRANCH   5   9
ATOM      9  N   UNL     1       0.805   3.190   2.675  1.00  0.00    -0.194 NA
ATOM     10  H   UNL     1       1.420   2.611   3.246  1.00  0.00     0.142 HD
BRANCH   9  11
ATOM     11  S   UNL     1       1.059   4.732   3.237  1.00  0.00     0.241 S 
ATOM     12  O   UNL     1       0.777   5.684   2.192  1.00  0.00    -0.207 OA
ATOM     13  O   UNL     1       0.369   4.801   4.511  1.00  0.00    -0.207 OA
BRANCH  11  14
ATOM     14  C   UNL     1       2.786   4.817   3.621  1.00  0.00     0.082 A 
ATOM     15  C   UNL     1       3.348   3.861   4.472  1.00  0.00     0.022 A 
ATOM     16  C   UNL     1       3.576   5.818   3.049  1.00  0.00     0.022 A 
ATOM     17  C   UNL     1       4.730   3.851   4.673  1.00  0.00     0.017 A 
ATOM     18  C   UNL     1       4.957   5.806   3.255  1.00  0.00     0.017 A 
ATOM     19  C   UNL     1       5.544   4.795   4.030  1.00  0.00     0.060 A 
BRANCH  19  20
ATOM     20  C   UNL     1       7.017   4.596   4.071  1.00  0.00     0.337 C 
ATOM     21  O   UNL     1       7.542   3.548   4.411  1.00  0.00    -0.246 OA
BRANCH  20  22
ATOM     22  O   UNL     1       7.662   5.693   3.602  1.00  0.00    -0.465 OA
ATOM     23  C   UNL     1       9.071   5.517   3.446  1.00  0.00     0.282 C 
ENDBRANCH  20  22
ENDBRANCH  19  20
ENDBRANCH  11  14
ENDBRANCH   9  11
ENDBRANCH   5   9
ENDBRANCH   3   5
ENDBRANCH   2   3
ENDBRANCH   1   2
BRANCH   1  24
ATOM     24  C   UNL     1       5.428   1.570   1.962  1.00  0.00     0.275 C 
BRANCH  24  25
ATOM     25  O   UNL     1       4.824   0.274   1.866  1.00  0.00    -0.458 OA
BRANCH  25  26
ATOM     26  C   UNL     1       3.901  -0.001   2.814  1.00  0.00     0.338 C 
ATOM     27  O   UNL     1       3.508   0.716   3.718  1.00  0.00    -0.246 OA
BRANCH  26  28
ATOM     28  C   UNL     1       3.332  -1.318   2.534  1.00  0.00     0.060 A 
ATOM     29  C   UNL     1       2.237  -1.390   1.678  1.00  0.00     0.016 A 
ATOM     30  C   UNL     1       3.826  -2.456   3.163  1.00  0.00     0.016 A 
ATOM     31  C   UNL     1       1.580  -2.591   1.483  1.00  0.00     0.010 A 
ATOM     32  C   UNL     1       3.219  -3.684   2.898  1.00  0.00     0.010 A 
ATOM     33  C   UNL     1       2.087  -3.755   2.065  1.00  0.00    -0.014 A 
BRANCH  33  34
ATOM     34  C   UNL     1       1.433  -5.051   1.787  1.00  0.00     0.031 A 
ATOM     35  C   UNL     1       0.807  -5.819   2.912  1.00  0.00     0.074 A 
ATOM     36  C   UNL     1       1.418  -5.520   0.524  1.00  0.00     0.049 A 
ATOM     37  N   UNL     1       0.352  -7.043   2.919  1.00  0.00    -0.248 NA
ATOM     38  C   UNL     1       0.696  -5.125   4.206  1.00  0.00     0.031 C 
ATOM     39  C   UNL     1       1.955  -4.818  -0.648  1.00  0.00     0.029 A 
ATOM     40  N   UNL     1       0.935  -6.694   0.011  1.00  0.00    -0.354 N 
ATOM     41  C   UNL     1      -0.045  -7.288   4.228  1.00  0.00     0.074 A 
ATOM     42  C   UNL     1       0.222  -6.086   4.986  1.00  0.00     0.031 C 
ATOM     43  C   UNL     1       1.746  -5.563  -1.743  1.00  0.00     0.029 A 
ATOM     44  C   UNL     1       1.145  -6.827  -1.342  1.00  0.00     0.049 A 
ATOM     45  H   UNL     1       0.480  -7.376   0.556  1.00  0.00     0.167 HD
ATOM     46  C   UNL     1      -0.574  -8.423   4.742  1.00  0.00     0.031 A 
ATOM     47  C   UNL     1       0.923  -7.873  -2.159  1.00  0.00     0.031 A 
ATOM     48  C   UNL     1      -0.841  -9.597   3.952  1.00  0.00     0.049 A 
ATOM     49  C   UNL     1       0.361  -9.130  -1.560  1.00  0.00     0.074 A 
ATOM     50  C   UNL     1      -1.371 -10.808   4.356  1.00  0.00     0.029 A 
ATOM     51  N   UNL     1      -0.604  -9.697   2.587  1.00  0.00    -0.354 N 
ATOM     52  N   UNL     1       0.034  -9.368  -0.311  1.00  0.00    -0.248 NA
ATOM     53  C   UNL     1       0.150 -10.260  -2.470  1.00  0.00     0.031 C 
ATOM     54  C   UNL     1      -1.416 -11.654   3.242  1.00  0.00     0.029 A 
ATOM     55  C   UNL     1      -0.967 -10.952   2.134  1.00  0.00     0.049 A 
ATOM     56  H   UNL     1      -0.232  -8.979   2.024  1.00  0.00     0.167 HD
ATOM     57  C   UNL     1      -0.438 -10.673  -0.286  1.00  0.00     0.074 A 
ATOM     58  C   UNL     1      -0.370 -11.164  -1.650  1.00  0.00     0.031 C 
ATOM     59  C   UNL     1      -0.883 -11.404   0.766  1.00  0.00     0.031 A 
BRANCH  46  60
ATOM     60  C   UNL     1      -0.836  -8.460   6.225  1.00  0.00    -0.014 A 
ATOM     61  C   UNL     1      -1.865  -7.702   6.812  1.00  0.00     0.010 A 
ATOM     62  C   UNL     1      -0.036  -9.275   7.048  1.00  0.00     0.010 A 
ATOM     63  C   UNL     1      -2.057  -7.721   8.198  1.00  0.00     0.020 A 
ATOM     64  C   UNL     1      -0.243  -9.319   8.430  1.00  0.00     0.020 A 
ATOM     65  C   UNL     1      -1.239  -8.524   8.999  1.00  0.00     0.054 A 
BRANCH  65  66
ATOM     66  S   UNL     1      -1.510  -8.532  10.793  1.00  0.00     0.124 S 
ATOM     67  O   UNL     1      -0.970  -7.232  11.184  1.00  0.00    -0.237 OA
ATOM     68  O   UNL     1      -2.961  -8.666  10.898  1.00  0.00    -0.237 OA
ATOM     69  O   UNL     1      -0.746  -9.688  11.255  1.00  0.00    -0.744 OA
ENDBRANCH  65  66
ENDBRANCH  46  60
BRANCH  47  70
ATOM     70  C   UNL     1       1.273  -7.776  -3.603  1.00  0.00    -0.014 A 
ATOM     71  C   UNL     1       0.267  -7.735  -4.582  1.00  0.00     0.010 A 
ATOM     72  C   UNL     1       2.619  -7.673  -4.003  1.00  0.00     0.010 A 
ATOM     73  C   UNL     1       0.599  -7.597  -5.934  1.00  0.00     0.020 A 
ATOM     74  C   UNL     1       2.954  -7.505  -5.350  1.00  0.00     0.020 A 
ATOM     75  C   UNL     1       1.940  -7.477  -6.309  1.00  0.00     0.054 A 
BRANCH  75  76
ATOM     76  S   UNL     1       2.344  -7.229  -8.061  1.00  0.00     0.124 S 
ATOM     77  O   UNL     1       2.112  -8.558  -8.617  1.00  0.00    -0.237 OA
ATOM     78  O   UNL     1       1.388  -6.199  -8.463  1.00  0.00    -0.237 OA
ATOM     79  O   UNL     1       3.739  -6.795  -8.033  1.00  0.00    -0.744 OA
ENDBRANCH  75  76
ENDBRANCH  47  70
BRANCH  59  80
ATOM     80  C   UNL     1      -1.363 -12.796   0.468  1.00  0.00    -0.014 A 
ATOM     81  C   UNL     1      -0.458 -13.832   0.182  1.00  0.00     0.010 A 
ATOM     82  C   UNL     1      -2.740 -13.075   0.525  1.00  0.00     0.010 A 
ATOM     83  C   UNL     1      -0.926 -15.122  -0.072  1.00  0.00     0.020 A 
ATOM     84  C   UNL     1      -3.209 -14.370   0.299  1.00  0.00     0.020 A 
ATOM     85  C   UNL     1      -2.299 -15.382  -0.012  1.00  0.00     0.054 A 
BRANCH  85  86
ATOM     86  S   UNL     1      -2.879 -17.075  -0.301  1.00  0.00     0.124 S 
ATOM     87  O   UNL     1      -2.738 -17.201  -1.749  1.00  0.00    -0.237 OA
ATOM     88  O   UNL     1      -1.949 -17.873   0.494  1.00  0.00    -0.237 OA
ATOM     89  O   UNL     1      -4.254 -17.058   0.193  1.00  0.00    -0.744 OA
ENDBRANCH  85  86
ENDBRANCH  59  80
ENDBRANCH  33  34
ENDBRANCH  26  28
ENDBRANCH  25  26
ENDBRANCH  24  25
ENDBRANCH   1  24
TORSDOF 20
