REMARK SMILES C[C@@H](C(=O)OCCOC(=O)c1ccc(-c2c3nc(c(-c4ccc(S(=O)(=O)[O-])cc4)c4ccc([nH]4)c(-c4ccc(S(=O)(=O)[O-])cc4)c4nc(c(-c5ccc(S(=O)(=O)[O-])cc5)c5ccc2[nH]5)C=C4)C=C3)cc1)[C@H](C)[N@@H+]1C[C@H]2C[NH2+]C[C@@H]2[C@@H]1C
REMARK SMILES IDX 7 1 6 2 5 3 3 4 4 5 2 6 1 7 71 8 72 9 73 10 74 11 80 12
REMARK SMILES IDX 75 14 79 15 81 16 76 17 78 18 77 19 8 22 9 23 10 24 11 25
REMARK SMILES IDX 12 26 70 27 13 28 69 29 14 30 15 31 16 32 63 33 17 34 68 35
REMARK SMILES IDX 62 36 64 37 18 38 67 39 61 40 60 41 19 43 49 44 30 45 48 46
REMARK SMILES IDX 31 47 34 48 47 49 65 50 32 51 33 52 46 54 66 55 35 56 20 57
REMARK SMILES IDX 21 58 29 59 22 60 28 61 23 62 24 63 25 64 26 65 27 66 50 67
REMARK SMILES IDX 51 68 59 69 52 70 58 71 53 72 54 73 55 74 56 75 57 76 36 77
REMARK SMILES IDX 37 78 45 79 38 80 44 81 39 82 40 83 41 84 42 85 43 86
REMARK H PARENT 73 13 77 20 77 21 64 42 34 53
REMARK Flexibility Score: inf
ROOT
ATOM      1  C   UNL     1      -2.095   3.237   1.417  1.00  0.00     0.275 C 
ENDROOT
BRANCH   1   2
ATOM      2  C   UNL     1      -1.376   3.382   0.077  1.00  0.00     0.274 C 
BRANCH   2   3
ATOM      3  O   UNL     1      -1.807   2.345  -0.832  1.00  0.00    -0.462 OA
BRANCH   3   4
ATOM      4  C   UNL     1      -0.933   1.327  -1.069  1.00  0.00     0.314 C 
ATOM      5  O   UNL     1       0.195   1.280  -0.591  1.00  0.00    -0.252 OA
BRANCH   4   6
ATOM      6  C   UNL     1      -1.495   0.260  -2.028  1.00  0.00     0.154 C 
ATOM      7  C   UNL     1      -2.986   0.483  -2.292  1.00  0.00     0.026 C 
BRANCH   6   8
ATOM      8  C   UNL     1      -1.030  -1.165  -1.505  1.00  0.00     0.195 C 
ATOM      9  C   UNL     1       0.432  -1.343  -1.995  1.00  0.00     0.076 C 
BRANCH   8  10
ATOM     10  N   UNL     1      -1.881  -2.339  -1.835  1.00  0.00    -0.329 N 
ATOM     11  C   UNL     1      -3.225  -2.288  -1.176  1.00  0.00     0.272 C 
ATOM     12  C   UNL     1      -1.340  -3.747  -1.622  1.00  0.00     0.190 C 
ATOM     13  H   UNL     1      -1.920  -2.212  -2.847  1.00  0.00     0.348 HD
ATOM     14  C   UNL     1      -3.268  -3.503  -0.305  1.00  0.00     0.114 C 
ATOM     15  C   UNL     1      -2.575  -4.516  -1.166  1.00  0.00     0.116 C 
ATOM     16  C   UNL     1      -0.145  -3.986  -0.701  1.00  0.00     0.076 C 
ATOM     17  C   UNL     1      -4.532  -4.241   0.045  1.00  0.00     0.270 C 
ATOM     18  C   UNL     1      -2.656  -5.717  -0.249  1.00  0.00     0.271 C 
ATOM     19  N   UNL     1      -4.019  -5.600   0.340  1.00  0.00    -0.345 N 
ATOM     20  H   UNL     1      -4.636  -6.300  -0.073  1.00  0.00     0.346 HD
ATOM     21  H   UNL     1      -3.984  -5.754   1.348  1.00  0.00     0.346 HD
ENDBRANCH   8  10
ENDBRANCH   6   8
ENDBRANCH   4   6
ENDBRANCH   3   4
ENDBRANCH   2   3
ENDBRANCH   1   2
BRANCH   1  22
ATOM     22  O   UNL     1      -1.657   2.021   2.040  1.00  0.00    -0.458 OA
BRANCH  22  23
ATOM     23  C   UNL     1      -2.605   1.291   2.676  1.00  0.00     0.338 C 
ATOM     24  O   UNL     1      -3.766   1.608   2.863  1.00  0.00    -0.246 OA
BRANCH  23  25
ATOM     25  C   UNL     1      -2.020  -0.002   3.102  1.00  0.00     0.060 A 
ATOM     26  C   UNL     1      -1.042  -0.620   2.328  1.00  0.00     0.016 A 
ATOM     27  C   UNL     1      -2.504  -0.651   4.239  1.00  0.00     0.016 A 
ATOM     28  C   UNL     1      -0.627  -1.916   2.630  1.00  0.00     0.010 A 
ATOM     29  C   UNL     1      -2.011  -1.919   4.588  1.00  0.00     0.010 A 
ATOM     30  C   UNL     1      -1.098  -2.597   3.761  1.00  0.00    -0.014 A 
BRANCH  30  31
ATOM     31  C   UNL     1      -0.691  -4.015   4.035  1.00  0.00     0.031 A 
ATOM     32  C   UNL     1      -1.743  -5.071   4.304  1.00  0.00     0.074 A 
ATOM     33  C   UNL     1       0.604  -4.403   4.012  1.00  0.00     0.049 A 
ATOM     34  N   UNL     1      -1.599  -6.275   4.802  1.00  0.00    -0.248 NA
ATOM     35  C   UNL     1      -3.137  -4.719   3.994  1.00  0.00     0.031 C 
ATOM     36  C   UNL     1       1.752  -3.550   3.700  1.00  0.00     0.029 A 
ATOM     37  N   UNL     1       1.172  -5.637   4.237  1.00  0.00    -0.354 N 
ATOM     38  C   UNL     1      -2.886  -6.783   4.950  1.00  0.00     0.074 A 
ATOM     39  C   UNL     1      -3.796  -5.764   4.474  1.00  0.00     0.031 C 
ATOM     40  C   UNL     1       2.866  -4.295   3.672  1.00  0.00     0.029 A 
ATOM     41  C   UNL     1       2.540  -5.654   4.090  1.00  0.00     0.049 A 
ATOM     42  H   UNL     1       0.648  -6.434   4.481  1.00  0.00     0.167 HD
ATOM     43  C   UNL     1      -3.278  -7.983   5.445  1.00  0.00     0.031 A 
ATOM     44  C   UNL     1       3.449  -6.623   4.316  1.00  0.00     0.031 A 
ATOM     45  C   UNL     1      -2.378  -9.038   5.832  1.00  0.00     0.049 A 
ATOM     46  C   UNL     1       3.001  -7.941   4.880  1.00  0.00     0.074 A 
ATOM     47  C   UNL     1      -2.684 -10.288   6.345  1.00  0.00     0.029 A 
ATOM     48  N   UNL     1      -0.999  -8.985   5.711  1.00  0.00    -0.354 N 
ATOM     49  N   UNL     1       1.785  -8.355   5.141  1.00  0.00    -0.248 NA
ATOM     50  C   UNL     1       4.055  -8.910   5.218  1.00  0.00     0.031 C 
ATOM     51  C   UNL     1      -1.487 -10.980   6.560  1.00  0.00     0.029 A 
ATOM     52  C   UNL     1      -0.439 -10.176   6.144  1.00  0.00     0.049 A 
ATOM     53  H   UNL     1      -0.492  -8.214   5.368  1.00  0.00     0.167 HD
ATOM     54  C   UNL     1       1.928  -9.629   5.678  1.00  0.00     0.074 A 
ATOM     55  C   UNL     1       3.345  -9.931   5.678  1.00  0.00     0.031 C 
ATOM     56  C   UNL     1       0.970 -10.467   6.142  1.00  0.00     0.031 A 
BRANCH  43  57
ATOM     57  C   UNL     1      -4.753  -8.203   5.654  1.00  0.00    -0.014 A 
ATOM     58  C   UNL     1      -5.627  -8.459   4.584  1.00  0.00     0.010 A 
ATOM     59  C   UNL     1      -5.264  -8.189   6.967  1.00  0.00     0.010 A 
ATOM     60  C   UNL     1      -6.992  -8.656   4.820  1.00  0.00     0.020 A 
ATOM     61  C   UNL     1      -6.622  -8.410   7.208  1.00  0.00     0.020 A 
ATOM     62  C   UNL     1      -7.482  -8.623   6.130  1.00  0.00     0.054 A 
BRANCH  62  63
ATOM     63  S   UNL     1      -9.253  -8.895   6.414  1.00  0.00     0.124 S 
ATOM     64  O   UNL     1      -9.820  -7.603   6.033  1.00  0.00    -0.237 OA
ATOM     65  O   UNL     1      -9.560 -10.004   5.515  1.00  0.00    -0.237 OA
ATOM     66  O   UNL     1      -9.331  -9.213   7.838  1.00  0.00    -0.744 OA
ENDBRANCH  62  63
ENDBRANCH  43  57
BRANCH  44  67
ATOM     67  C   UNL     1       4.894  -6.355   4.080  1.00  0.00    -0.014 A 
ATOM     68  C   UNL     1       5.573  -6.982   3.022  1.00  0.00     0.010 A 
ATOM     69  C   UNL     1       5.595  -5.455   4.906  1.00  0.00     0.010 A 
ATOM     70  C   UNL     1       6.927  -6.715   2.792  1.00  0.00     0.020 A 
ATOM     71  C   UNL     1       6.938  -5.163   4.661  1.00  0.00     0.020 A 
ATOM     72  C   UNL     1       7.599  -5.803   3.611  1.00  0.00     0.054 A 
BRANCH  72  73
ATOM     73  S   UNL     1       9.334  -5.405   3.256  1.00  0.00     0.124 S 
ATOM     74  O   UNL     1      10.033  -6.531   3.866  1.00  0.00    -0.237 OA
ATOM     75  O   UNL     1       9.360  -5.359   1.796  1.00  0.00    -0.237 OA
ATOM     76  O   UNL     1       9.526  -4.114   3.913  1.00  0.00    -0.744 OA
ENDBRANCH  72  73
ENDBRANCH  44  67
BRANCH  56  77
ATOM     77  C   UNL     1       1.419 -11.801   6.670  1.00  0.00    -0.014 A 
ATOM     78  C   UNL     1       2.016 -11.912   7.938  1.00  0.00     0.010 A 
ATOM     79  C   UNL     1       1.206 -12.961   5.905  1.00  0.00     0.010 A 
ATOM     80  C   UNL     1       2.418 -13.160   8.421  1.00  0.00     0.020 A 
ATOM     81  C   UNL     1       1.589 -14.213   6.393  1.00  0.00     0.020 A 
ATOM     82  C   UNL     1       2.206 -14.303   7.644  1.00  0.00     0.054 A 
BRANCH  82  83
ATOM     83  S   UNL     1       2.700 -15.919   8.305  1.00  0.00     0.124 S 
ATOM     84  O   UNL     1       4.145 -15.904   8.092  1.00  0.00    -0.237 OA
ATOM     85  O   UNL     1       2.270 -15.845   9.699  1.00  0.00    -0.237 OA
ATOM     86  O   UNL     1       1.958 -16.870   7.481  1.00  0.00    -0.744 OA
ENDBRANCH  82  83
ENDBRANCH  56  77
ENDBRANCH  30  31
ENDBRANCH  23  25
ENDBRANCH  22  23
ENDBRANCH   1  22
TORSDOF 16
