REMARK SMILES O=C(CCCNC(=O)N1CC[C@@H](C(=O)OCCOC(=O)c2ccc(-c3c4nc(c(-c5ccc(S(=O)(=O)[O-])cc5)c5ccc([nH]5)c(-c5ccc(S(=O)(=O)[O-])cc5)c5nc(c(-c6ccc(S(=O)(=O)[O-])cc6)c6ccc3[nH]6)C=C5)C=C4)cc2)C1)NC1CC1
REMARK SMILES IDX 15 1 13 2 14 3 12 4 9 5 10 6 81 7 11 8 7 9 6 10 8 12 5 13
REMARK SMILES IDX 4 14 3 15 2 16 1 17 82 18 83 20 84 21 85 22 16 23 17 24
REMARK SMILES IDX 18 25 19 26 20 27 21 28 22 29 80 30 23 31 79 32 24 33 25 34
REMARK SMILES IDX 26 35 73 36 27 37 78 38 72 39 74 40 28 41 77 42 71 43 70 44
REMARK SMILES IDX 29 46 59 47 40 48 58 49 41 50 44 51 57 52 75 53 42 54 43 55
REMARK SMILES IDX 56 57 76 58 45 59 30 60 31 61 39 62 32 63 38 64 33 65 34 66
REMARK SMILES IDX 35 67 36 68 37 69 60 70 61 71 69 72 62 73 68 74 63 75 64 76
REMARK SMILES IDX 65 77 66 78 67 79 46 80 47 81 55 82 48 83 54 84 49 85 50 86
REMARK SMILES IDX 51 87 52 88 53 89
REMARK H PARENT 6 11 82 19 74 45 44 56
REMARK Flexibility Score: inf
ROOT
ATOM      1  O   UNL     1      11.476  -0.002  -3.323  1.00  0.00    -0.462 OA
ENDROOT
BRANCH   1   2
ATOM      2  C   UNL     1      10.335   0.732  -3.219  1.00  0.00     0.310 C 
ATOM      3  O   UNL     1      10.283   1.954  -3.247  1.00  0.00    -0.252 OA
BRANCH   2   4
ATOM      4  C   UNL     1       9.124  -0.169  -3.122  1.00  0.00     0.120 C 
ATOM      5  N   UNL     1       7.726  -0.181  -1.215  1.00  0.00    -0.324 N 
ATOM      6  C   UNL     1       7.414   1.022  -1.956  1.00  0.00     0.122 C 
ATOM      7  C   UNL     1       8.966  -0.755  -1.716  1.00  0.00     0.136 C 
ATOM      8  C   UNL     1       7.825   0.627  -3.355  1.00  0.00     0.039 C 
BRANCH   5   9
ATOM      9  C   UNL     1       7.066  -0.712  -0.156  1.00  0.00     0.317 C 
ATOM     10  N   UNL     1       5.721  -0.549  -0.064  1.00  0.00    -0.338 N 
ATOM     11  H   UNL     1       5.345  -0.561   0.846  1.00  0.00     0.165 HD
ATOM     12  O   UNL     1       7.628  -1.387   0.706  1.00  0.00    -0.249 OA
BRANCH  10  13
ATOM     13  C   UNL     1       4.768  -0.360  -1.149  1.00  0.00     0.118 C 
BRANCH  13  14
ATOM     14  C   UNL     1       3.610  -1.357  -1.109  1.00  0.00     0.031 C 
BRANCH  14  15
ATOM     15  C   UNL     1       2.768  -1.344   0.165  1.00  0.00     0.102 C 
BRANCH  15  16
ATOM     16  C   UNL     1       1.880  -0.124   0.284  1.00  0.00     0.220 C 
ATOM     17  O   UNL     1       0.676  -0.182   0.053  1.00  0.00    -0.275 OA
ATOM     18  N   UNL     1       2.541   1.020   0.680  1.00  0.00    -0.353 N 
ATOM     19  H   UNL     1       3.507   0.968   0.863  1.00  0.00     0.163 HD
BRANCH  18  20
ATOM     20  C   UNL     1       1.882   2.277   0.837  1.00  0.00     0.082 C 
ATOM     21  C   UNL     1       2.477   3.520   0.229  1.00  0.00     0.027 C 
ATOM     22  C   UNL     1       1.196   2.960  -0.312  1.00  0.00     0.027 C 
ENDBRANCH  18  20
ENDBRANCH  15  16
ENDBRANCH  14  15
ENDBRANCH  13  14
ENDBRANCH  10  13
ENDBRANCH   5   9
ENDBRANCH   2   4
ENDBRANCH   1   2
BRANCH   1  23
ATOM     23  C   UNL     1      12.682   0.747  -3.568  1.00  0.00     0.274 C 
BRANCH  23  24
ATOM     24  C   UNL     1      13.128   0.624  -5.029  1.00  0.00     0.275 C 
BRANCH  24  25
ATOM     25  O   UNL     1      12.215   1.277  -5.933  1.00  0.00    -0.458 OA
BRANCH  25  26
ATOM     26  C   UNL     1      11.286   0.468  -6.497  1.00  0.00     0.338 C 
ATOM     27  O   UNL     1      11.154  -0.731  -6.322  1.00  0.00    -0.246 OA
BRANCH  26  28
ATOM     28  C   UNL     1      10.305   1.275  -7.244  1.00  0.00     0.060 A 
ATOM     29  C   UNL     1       9.002   1.304  -6.747  1.00  0.00     0.016 A 
ATOM     30  C   UNL     1      10.610   1.911  -8.447  1.00  0.00     0.016 A 
ATOM     31  C   UNL     1       7.996   1.987  -7.426  1.00  0.00     0.010 A 
ATOM     32  C   UNL     1       9.594   2.584  -9.143  1.00  0.00     0.010 A 
ATOM     33  C   UNL     1       8.279   2.624  -8.639  1.00  0.00    -0.014 A 
BRANCH  33  34
ATOM     34  C   UNL     1       7.173   3.246  -9.412  1.00  0.00     0.031 A 
ATOM     35  C   UNL     1       6.644   2.555 -10.639  1.00  0.00     0.074 A 
ATOM     36  C   UNL     1       6.596   4.387  -8.988  1.00  0.00     0.049 A 
ATOM     37  N   UNL     1       5.757   2.973 -11.505  1.00  0.00    -0.248 NA
ATOM     38  C   UNL     1       7.177   1.212 -10.922  1.00  0.00     0.031 C 
ATOM     39  C   UNL     1       6.945   5.112  -7.766  1.00  0.00     0.029 A 
ATOM     40  N   UNL     1       5.581   5.132  -9.539  1.00  0.00    -0.354 N 
ATOM     41  C   UNL     1       5.643   1.959 -12.450  1.00  0.00     0.074 A 
ATOM     42  C   UNL     1       6.556   0.908 -12.053  1.00  0.00     0.031 C 
ATOM     43  C   UNL     1       6.151   6.191  -7.654  1.00  0.00     0.029 A 
ATOM     44  C   UNL     1       5.277   6.265  -8.822  1.00  0.00     0.049 A 
ATOM     45  H   UNL     1       5.116   4.878 -10.368  1.00  0.00     0.167 HD
ATOM     46  C   UNL     1       4.852   1.908 -13.548  1.00  0.00     0.031 A 
ATOM     47  C   UNL     1       4.417   7.267  -9.092  1.00  0.00     0.031 A 
ATOM     48  C   UNL     1       3.941   2.949 -13.943  1.00  0.00     0.049 A 
ATOM     49  C   UNL     1       3.616   7.232 -10.368  1.00  0.00     0.074 A 
ATOM     50  C   UNL     1       3.130   3.006 -15.064  1.00  0.00     0.029 A 
ATOM     51  N   UNL     1       3.709   4.110 -13.223  1.00  0.00    -0.354 N 
ATOM     52  N   UNL     1       3.575   6.299 -11.289  1.00  0.00    -0.248 NA
ATOM     53  C   UNL     1       2.756   8.392 -10.645  1.00  0.00     0.031 C 
ATOM     54  C   UNL     1       2.431   4.218 -15.038  1.00  0.00     0.029 A 
ATOM     55  C   UNL     1       2.774   4.894 -13.878  1.00  0.00     0.049 A 
ATOM     56  H   UNL     1       4.145   4.344 -12.372  1.00  0.00     0.167 HD
ATOM     57  C   UNL     1       2.672   6.753 -12.245  1.00  0.00     0.074 A 
ATOM     58  C   UNL     1       2.179   8.034 -11.783  1.00  0.00     0.031 C 
ATOM     59  C   UNL     1       2.288   6.163 -13.404  1.00  0.00     0.031 A 
BRANCH  46  60
ATOM     60  C   UNL     1       4.970   0.694 -14.428  1.00  0.00    -0.014 A 
ATOM     61  C   UNL     1       4.401  -0.535 -14.052  1.00  0.00     0.010 A 
ATOM     62  C   UNL     1       5.633   0.796 -15.665  1.00  0.00     0.010 A 
ATOM     63  C   UNL     1       4.523  -1.652 -14.884  1.00  0.00     0.020 A 
ATOM     64  C   UNL     1       5.738  -0.313 -16.508  1.00  0.00     0.020 A 
ATOM     65  C   UNL     1       5.197  -1.535 -16.104  1.00  0.00     0.054 A 
BRANCH  65  66
ATOM     66  S   UNL     1       5.330  -2.995 -17.173  1.00  0.00     0.124 S 
ATOM     67  O   UNL     1       6.363  -3.771 -16.493  1.00  0.00    -0.237 OA
ATOM     68  O   UNL     1       3.983  -3.559 -17.118  1.00  0.00    -0.237 OA
ATOM     69  O   UNL     1       5.717  -2.441 -18.468  1.00  0.00    -0.744 OA
ENDBRANCH  65  66
ENDBRANCH  46  60
BRANCH  47  70
ATOM     70  C   UNL     1       4.299   8.426  -8.165  1.00  0.00    -0.014 A 
ATOM     71  C   UNL     1       3.123   8.634  -7.423  1.00  0.00     0.010 A 
ATOM     72  C   UNL     1       5.356   9.346  -8.044  1.00  0.00     0.010 A 
ATOM     73  C   UNL     1       2.999   9.752  -6.592  1.00  0.00     0.020 A 
ATOM     74  C   UNL     1       5.247  10.450  -7.195  1.00  0.00     0.020 A 
ATOM     75  C   UNL     1       4.062  10.655  -6.486  1.00  0.00     0.054 A 
BRANCH  75  76
ATOM     76  S   UNL     1       3.900  12.082  -5.377  1.00  0.00     0.124 S 
ATOM     77  O   UNL     1       3.092  12.996  -6.177  1.00  0.00    -0.237 OA
ATOM     78  O   UNL     1       3.238  11.506  -4.209  1.00  0.00    -0.237 OA
ATOM     79  O   UNL     1       5.284  12.496  -5.156  1.00  0.00    -0.744 OA
ENDBRANCH  75  76
ENDBRANCH  47  70
BRANCH  59  80
ATOM     80  C   UNL     1       1.259   6.878 -14.235  1.00  0.00    -0.014 A 
ATOM     81  C   UNL     1       1.600   8.004 -15.005  1.00  0.00     0.010 A 
ATOM     82  C   UNL     1      -0.058   6.386 -14.283  1.00  0.00     0.010 A 
ATOM     83  C   UNL     1       0.634   8.643 -15.787  1.00  0.00     0.020 A 
ATOM     84  C   UNL     1      -1.021   7.009 -15.081  1.00  0.00     0.020 A 
ATOM     85  C   UNL     1      -0.672   8.143 -15.817  1.00  0.00     0.054 A 
BRANCH  85  86
ATOM     86  S   UNL     1      -1.900   8.961 -16.873  1.00  0.00     0.124 S 
ATOM     87  O   UNL     1      -2.243  10.140 -16.082  1.00  0.00    -0.237 OA
ATOM     88  O   UNL     1      -1.150   9.223 -18.099  1.00  0.00    -0.237 OA
ATOM     89  O   UNL     1      -2.962   7.966 -17.002  1.00  0.00    -0.744 OA
ENDBRANCH  85  86
ENDBRANCH  59  80
ENDBRANCH  33  34
ENDBRANCH  26  28
ENDBRANCH  25  26
ENDBRANCH  24  25
ENDBRANCH  23  24
ENDBRANCH   1  23
TORSDOF 20
