REMARK SMILES Cc1cc(Br)cc2c1O[C@H](C(F)(F)F)C(C(=O)OCCOC(=O)c1ccc(-c3c4nc(c(-c5ccc(S(=O)(=O)[O-])cc5)c5ccc([nH]5)c(-c5ccc(S(=O)(=O)[O-])cc5)c5nc(c(-c6ccc(S(=O)(=O)[O-])cc6)c6ccc3[nH]6)C=C5)C=C4)cc1)=C2
REMARK SMILES IDX 20 1 19 2 18 3 16 4 17 5 15 6 1 7 2 8 3 9 8 10 4 11 7 12
REMARK SMILES IDX 9 13 5 14 6 15 84 16 10 17 11 18 12 19 13 20 14 21 21 22
REMARK SMILES IDX 22 23 23 24 24 25 25 26 83 27 26 28 82 29 27 30 28 31 29 32
REMARK SMILES IDX 76 33 30 34 81 35 75 36 77 37 31 38 80 39 74 40 73 41 32 43
REMARK SMILES IDX 62 44 43 45 61 46 44 47 47 48 60 49 78 50 45 51 46 52 59 54
REMARK SMILES IDX 79 55 48 56 33 57 34 58 42 59 35 60 41 61 36 62 37 63 38 64
REMARK SMILES IDX 39 65 40 66 63 67 64 68 72 69 65 70 71 71 66 72 67 73 68 74
REMARK SMILES IDX 69 75 70 76 49 77 50 78 58 79 51 80 57 81 52 82 53 83 54 84
REMARK SMILES IDX 55 85 56 86
REMARK H PARENT 77 42 47 53
REMARK Flexibility Score: inf
ROOT
ATOM      1  C   UNL     1      -2.437  -0.786   8.532  1.00  0.00     0.275 C 
ENDROOT
BRANCH   1   2
ATOM      2  C   UNL     1      -3.092  -1.290   7.246  1.00  0.00     0.275 C 
BRANCH   2   3
ATOM      3  O   UNL     1      -2.251  -1.056   6.094  1.00  0.00    -0.459 OA
BRANCH   3   4
ATOM      4  C   UNL     1      -2.614  -0.013   5.314  1.00  0.00     0.338 C 
ATOM      5  O   UNL     1      -3.587   0.709   5.473  1.00  0.00    -0.246 OA
BRANCH   4   6
ATOM      6  C   UNL     1      -1.658   0.172   4.206  1.00  0.00     0.087 C 
ATOM      7  C   UNL     1       1.103  -0.281  -0.141  1.00  0.00     0.048 C 
ATOM      8  C   UNL     1       0.711   0.814   0.809  1.00  0.00    -0.007 A 
ATOM      9  C   UNL     1       1.113   2.128   0.509  1.00  0.00     0.023 A 
ATOM     10  C   UNL     1      -0.042   0.574   1.969  1.00  0.00     0.130 A 
ATOM     11  C   UNL     1       0.781   3.181   1.359  1.00  0.00     0.019 A 
ATOM     12  C   UNL     1      -0.377   1.640   2.808  1.00  0.00     0.019 A 
ATOM     13  O   UNL     1      -0.404  -0.719   2.242  1.00  0.00    -0.475 OA
ATOM     14  Br  UNL     1       1.321   4.942   0.938  1.00  0.00    -0.051 Br
ATOM     15  C   UNL     1       0.042   2.943   2.511  1.00  0.00     0.027 A 
ATOM     16  C   UNL     1      -1.194   1.404   3.979  1.00  0.00     0.027 C 
ATOM     17  C   UNL     1      -1.372  -0.983   3.296  1.00  0.00     0.316 C 
BRANCH  17  18
ATOM     18  C   UNL     1      -2.666  -1.522   2.664  1.00  0.00     0.430 C 
ATOM     19  F   UNL     1      -2.412  -2.552   1.821  1.00  0.00    -0.167 F 
ATOM     20  F   UNL     1      -3.517  -2.001   3.605  1.00  0.00    -0.167 F 
ATOM     21  F   UNL     1      -3.329  -0.577   1.961  1.00  0.00    -0.167 F 
ENDBRANCH  17  18
ENDBRANCH   4   6
ENDBRANCH   3   4
ENDBRANCH   2   3
ENDBRANCH   1   2
BRANCH   1  22
ATOM     22  O   UNL     1      -2.343   0.650   8.525  1.00  0.00    -0.458 OA
BRANCH  22  23
ATOM     23  C   UNL     1      -1.116   1.136   8.233  1.00  0.00     0.338 C 
ATOM     24  O   UNL     1      -0.101   0.495   8.015  1.00  0.00    -0.246 OA
BRANCH  23  25
ATOM     25  C   UNL     1      -1.157   2.600   8.108  1.00  0.00     0.060 A 
ATOM     26  C   UNL     1      -1.770   3.145   6.988  1.00  0.00     0.016 A 
ATOM     27  C   UNL     1      -0.395   3.406   8.947  1.00  0.00     0.016 A 
ATOM     28  C   UNL     1      -1.464   4.442   6.592  1.00  0.00     0.010 A 
ATOM     29  C   UNL     1      -0.232   4.762   8.634  1.00  0.00     0.010 A 
ATOM     30  C   UNL     1      -0.708   5.284   7.417  1.00  0.00    -0.014 A 
BRANCH  30  31
ATOM     31  C   UNL     1      -0.391   6.681   6.992  1.00  0.00     0.031 A 
ATOM     32  C   UNL     1       1.039   7.171   6.987  1.00  0.00     0.074 A 
ATOM     33  C   UNL     1      -1.375   7.514   6.588  1.00  0.00     0.049 A 
ATOM     34  N   UNL     1       1.494   8.392   6.853  1.00  0.00    -0.248 NA
ATOM     35  C   UNL     1       2.096   6.161   7.171  1.00  0.00     0.031 C 
ATOM     36  C   UNL     1      -2.794   7.166   6.469  1.00  0.00     0.029 A 
ATOM     37  N   UNL     1      -1.331   8.827   6.184  1.00  0.00    -0.354 N 
ATOM     38  C   UNL     1       2.876   8.304   6.997  1.00  0.00     0.074 A 
ATOM     39  C   UNL     1       3.186   6.913   7.242  1.00  0.00     0.031 C 
ATOM     40  C   UNL     1      -3.468   8.209   5.964  1.00  0.00     0.029 A 
ATOM     41  C   UNL     1      -2.561   9.341   5.844  1.00  0.00     0.049 A 
ATOM     42  H   UNL     1      -0.497   9.350   6.142  1.00  0.00     0.167 HD
ATOM     43  C   UNL     1       3.801   9.292   6.928  1.00  0.00     0.031 A 
ATOM     44  C   UNL     1      -2.942  10.594   5.527  1.00  0.00     0.031 A 
ATOM     45  C   UNL     1       3.487  10.668   6.638  1.00  0.00     0.049 A 
ATOM     46  C   UNL     1      -1.914  11.687   5.539  1.00  0.00     0.074 A 
ATOM     47  C   UNL     1       4.350  11.747   6.548  1.00  0.00     0.029 A 
ATOM     48  N   UNL     1       2.215  11.152   6.371  1.00  0.00    -0.354 N 
ATOM     49  N   UNL     1      -0.624  11.600   5.756  1.00  0.00    -0.248 NA
ATOM     50  C   UNL     1      -2.396  13.051   5.288  1.00  0.00     0.031 C 
ATOM     51  C   UNL     1       3.593  12.891   6.281  1.00  0.00     0.029 A 
ATOM     52  C   UNL     1       2.266  12.516   6.140  1.00  0.00     0.049 A 
ATOM     53  H   UNL     1       1.397  10.605   6.348  1.00  0.00     0.167 HD
ATOM     54  C   UNL     1      -0.137  12.897   5.658  1.00  0.00     0.074 A 
ATOM     55  C   UNL     1      -1.267  13.745   5.335  1.00  0.00     0.031 C 
ATOM     56  C   UNL     1       1.131  13.346   5.827  1.00  0.00     0.031 A 
BRANCH  43  57
ATOM     57  C   UNL     1       5.241   8.936   7.204  1.00  0.00    -0.014 A 
ATOM     58  C   UNL     1       6.002   8.181   6.294  1.00  0.00     0.010 A 
ATOM     59  C   UNL     1       5.862   9.420   8.373  1.00  0.00     0.010 A 
ATOM     60  C   UNL     1       7.343   7.889   6.562  1.00  0.00     0.020 A 
ATOM     61  C   UNL     1       7.211   9.156   8.630  1.00  0.00     0.020 A 
ATOM     62  C   UNL     1       7.940   8.379   7.729  1.00  0.00     0.054 A 
BRANCH  62  63
ATOM     63  S   UNL     1       9.690   8.008   8.033  1.00  0.00     0.124 S 
ATOM     64  O   UNL     1       9.653   6.570   8.290  1.00  0.00    -0.237 OA
ATOM     65  O   UNL     1      10.322   8.405   6.778  1.00  0.00    -0.237 OA
ATOM     66  O   UNL     1      10.027   8.836   9.188  1.00  0.00    -0.744 OA
ENDBRANCH  62  63
ENDBRANCH  43  57
BRANCH  44  67
ATOM     67  C   UNL     1      -4.374  10.882   5.230  1.00  0.00    -0.014 A 
ATOM     68  C   UNL     1      -4.772  11.255   3.935  1.00  0.00     0.010 A 
ATOM     69  C   UNL     1      -5.354  10.749   6.233  1.00  0.00     0.010 A 
ATOM     70  C   UNL     1      -6.121  11.491   3.650  1.00  0.00     0.020 A 
ATOM     71  C   UNL     1      -6.706  10.949   5.943  1.00  0.00     0.020 A 
ATOM     72  C   UNL     1      -7.080  11.327   4.654  1.00  0.00     0.054 A 
BRANCH  72  73
ATOM     73  S   UNL     1      -8.829  11.574   4.239  1.00  0.00     0.124 S 
ATOM     74  O   UNL     1      -8.890  13.016   4.025  1.00  0.00    -0.237 OA
ATOM     75  O   UNL     1      -8.987  10.749   3.044  1.00  0.00    -0.237 OA
ATOM     76  O   UNL     1      -9.534  11.086   5.422  1.00  0.00    -0.744 OA
ENDBRANCH  72  73
ENDBRANCH  44  67
BRANCH  56  77
ATOM     77  C   UNL     1       1.369  14.821   5.651  1.00  0.00    -0.014 A 
ATOM     78  C   UNL     1       0.922  15.747   6.610  1.00  0.00     0.010 A 
ATOM     79  C   UNL     1       2.100  15.281   4.540  1.00  0.00     0.010 A 
ATOM     80  C   UNL     1       1.180  17.110   6.448  1.00  0.00     0.020 A 
ATOM     81  C   UNL     1       2.386  16.640   4.390  1.00  0.00     0.020 A 
ATOM     82  C   UNL     1       1.914  17.547   5.341  1.00  0.00     0.054 A 
BRANCH  82  83
ATOM     83  S   UNL     1       2.274  19.317   5.183  1.00  0.00     0.124 S 
ATOM     84  O   UNL     1       0.956  19.871   4.886  1.00  0.00    -0.237 OA
ATOM     85  O   UNL     1       2.814  19.650   6.499  1.00  0.00    -0.237 OA
ATOM     86  O   UNL     1       3.237  19.380   4.086  1.00  0.00    -0.744 OA
ENDBRANCH  82  83
ENDBRANCH  56  77
ENDBRANCH  30  31
ENDBRANCH  23  25
ENDBRANCH  22  23
ENDBRANCH   1  22
TORSDOF 15
