REMARK SMILES Cc1ccc(Nc2c(F)cccc2I)c(CC(=O)OCCOC(=O)c2ccc(-c3c4nc(c(-c5ccc(S(=O)(=O)[O-])cc5)c5ccc([nH]5)c(-c5ccc(S(=O)(=O)[O-])cc5)c5nc(c(-c6ccc(S(=O)(=O)[O-])cc6)c6ccc3[nH]6)C=C5)C=C4)cc2)c1
REMARK SMILES IDX 20 1 19 2 17 3 18 4 16 5 15 6 1 7 2 8 3 9 85 10 4 11 5 12
REMARK SMILES IDX 6 13 7 15 8 16 13 17 9 18 10 19 12 20 14 21 11 22 21 23
REMARK SMILES IDX 22 24 23 25 24 26 25 27 26 28 84 29 27 30 83 31 28 32 29 33
REMARK SMILES IDX 30 34 77 35 31 36 82 37 76 38 78 39 32 40 81 41 75 42 74 43
REMARK SMILES IDX 33 45 63 46 44 47 62 48 45 49 48 50 61 51 79 52 46 53 47 54
REMARK SMILES IDX 60 56 80 57 49 58 34 59 35 60 43 61 36 62 42 63 37 64 38 65
REMARK SMILES IDX 39 66 40 67 41 68 64 69 65 70 73 71 66 72 72 73 67 74 68 75
REMARK SMILES IDX 69 76 70 77 71 78 50 79 51 80 59 81 52 82 58 83 53 84 54 85
REMARK SMILES IDX 55 86 56 87 57 88
REMARK H PARENT 6 14 78 44 48 55
REMARK Flexibility Score: inf
ROOT
ATOM      1  C   UNL     1      -2.764   1.005  -3.997  1.00  0.00     0.274 C 
ENDROOT
BRANCH   1   2
ATOM      2  O   UNL     1      -1.862   1.552  -3.036  1.00  0.00    -0.462 OA
BRANCH   2   3
ATOM      3  C   UNL     1      -0.973   0.661  -2.516  1.00  0.00     0.310 C 
ATOM      4  O   UNL     1      -0.514  -0.273  -3.114  1.00  0.00    -0.252 OA
BRANCH   3   5
ATOM      5  C   UNL     1      -0.692   1.070  -1.076  1.00  0.00     0.160 C 
BRANCH   5   6
ATOM      6  C   UNL     1      -0.092  -0.075  -0.304  1.00  0.00    -0.013 A 
ATOM      7  C   UNL     1       3.477  -1.014   0.523  1.00  0.00     0.044 C 
ATOM      8  C   UNL     1       1.985  -1.087   0.431  1.00  0.00    -0.051 A 
ATOM      9  C   UNL     1       1.289  -2.273   0.679  1.00  0.00     0.005 A 
ATOM     10  C   UNL     1       1.283   0.012  -0.046  1.00  0.00     0.009 A 
ATOM     11  C   UNL     1      -0.096  -2.346   0.486  1.00  0.00     0.026 A 
ATOM     12  C   UNL     1      -0.819  -1.251   0.011  1.00  0.00     0.042 A 
BRANCH  12  13
ATOM     13  N   UNL     1      -2.182  -1.374  -0.322  1.00  0.00    -0.352 N 
ATOM     14  H   UNL     1      -2.522  -0.636  -0.877  1.00  0.00     0.167 HD
BRANCH  13  15
ATOM     15  C   UNL     1      -3.160  -2.357  -0.011  1.00  0.00     0.088 A 
ATOM     16  C   UNL     1      -3.637  -2.490   1.302  1.00  0.00     0.147 A 
ATOM     17  C   UNL     1      -3.928  -2.954  -1.030  1.00  0.00     0.040 A 
ATOM     18  F   UNL     1      -2.953  -1.955   2.327  1.00  0.00    -0.205 F 
ATOM     19  C   UNL     1      -4.835  -3.149   1.589  1.00  0.00     0.041 A 
ATOM     20  C   UNL     1      -5.165  -3.558  -0.758  1.00  0.00     0.017 A 
ATOM     21  I   UNL     1      -3.186  -3.166  -2.987  1.00  0.00    -0.042 I 
ATOM     22  C   UNL     1      -5.621  -3.648   0.554  1.00  0.00     0.004 A 
ENDBRANCH  13  15
ENDBRANCH  12  13
ENDBRANCH   5   6
ENDBRANCH   3   5
ENDBRANCH   2   3
ENDBRANCH   1   2
BRANCH   1  23
ATOM     23  C   UNL     1      -4.059   0.491  -3.327  1.00  0.00     0.275 C 
BRANCH  23  24
ATOM     24  O   UNL     1      -4.043   0.364  -1.864  1.00  0.00    -0.458 OA
BRANCH  24  25
ATOM     25  C   UNL     1      -4.229   1.266  -0.843  1.00  0.00     0.338 C 
ATOM     26  O   UNL     1      -4.199   0.871   0.321  1.00  0.00    -0.246 OA
BRANCH  25  27
ATOM     27  C   UNL     1      -4.005   2.704  -1.105  1.00  0.00     0.060 A 
ATOM     28  C   UNL     1      -3.365   3.543  -0.170  1.00  0.00     0.016 A 
ATOM     29  C   UNL     1      -4.157   3.145  -2.389  1.00  0.00     0.016 A 
ATOM     30  C   UNL     1      -2.770   4.734  -0.610  1.00  0.00     0.010 A 
ATOM     31  C   UNL     1      -3.227   4.014  -2.866  1.00  0.00     0.010 A 
ATOM     32  C   UNL     1      -2.666   4.930  -1.988  1.00  0.00    -0.014 A 
BRANCH  32  33
ATOM     33  C   UNL     1      -2.312   6.157  -2.691  1.00  0.00     0.031 A 
ATOM     34  C   UNL     1      -0.975   6.736  -2.629  1.00  0.00     0.074 A 
ATOM     35  C   UNL     1      -3.287   6.665  -3.488  1.00  0.00     0.049 A 
ATOM     36  N   UNL     1      -0.729   7.952  -2.284  1.00  0.00    -0.248 NA
ATOM     37  C   UNL     1       0.208   5.971  -3.019  1.00  0.00     0.031 C 
ATOM     38  C   UNL     1      -3.278   7.797  -4.388  1.00  0.00     0.029 A 
ATOM     39  N   UNL     1      -4.622   6.234  -3.538  1.00  0.00    -0.354 N 
ATOM     40  C   UNL     1       0.537   8.216  -2.764  1.00  0.00     0.074 A 
ATOM     41  C   UNL     1       1.145   6.928  -3.032  1.00  0.00     0.031 C 
ATOM     42  C   UNL     1      -4.560   8.169  -4.598  1.00  0.00     0.029 A 
ATOM     43  C   UNL     1      -5.439   7.317  -3.795  1.00  0.00     0.049 A 
ATOM     44  H   UNL     1      -4.927   5.307  -3.410  1.00  0.00     0.167 HD
ATOM     45  C   UNL     1       0.863   9.455  -3.231  1.00  0.00     0.031 A 
ATOM     46  C   UNL     1      -6.334   7.677  -2.827  1.00  0.00     0.031 A 
ATOM     47  C   UNL     1      -0.332  10.290  -3.364  1.00  0.00     0.049 A 
ATOM     48  C   UNL     1      -5.849   8.921  -2.127  1.00  0.00     0.074 A 
ATOM     49  C   UNL     1      -1.087  10.631  -4.476  1.00  0.00     0.029 A 
ATOM     50  N   UNL     1      -1.123  10.580  -2.256  1.00  0.00    -0.354 N 
ATOM     51  N   UNL     1      -4.644   9.400  -2.270  1.00  0.00    -0.248 NA
ATOM     52  C   UNL     1      -6.665   9.735  -1.236  1.00  0.00     0.031 C 
ATOM     53  C   UNL     1      -2.372  11.036  -4.034  1.00  0.00     0.029 A 
ATOM     54  C   UNL     1      -2.393  10.965  -2.653  1.00  0.00     0.049 A 
ATOM     55  H   UNL     1      -0.822  10.519  -1.321  1.00  0.00     0.167 HD
ATOM     56  C   UNL     1      -4.528  10.580  -1.599  1.00  0.00     0.074 A 
ATOM     57  C   UNL     1      -5.820  10.744  -0.952  1.00  0.00     0.031 C 
ATOM     58  C   UNL     1      -3.393  11.336  -1.660  1.00  0.00     0.031 A 
BRANCH  45  59
ATOM     59  C   UNL     1       2.175   9.726  -3.933  1.00  0.00    -0.014 A 
ATOM     60  C   UNL     1       2.232  10.590  -5.043  1.00  0.00     0.010 A 
ATOM     61  C   UNL     1       3.397   9.160  -3.509  1.00  0.00     0.010 A 
ATOM     62  C   UNL     1       3.422  10.825  -5.744  1.00  0.00     0.020 A 
ATOM     63  C   UNL     1       4.596   9.373  -4.214  1.00  0.00     0.020 A 
ATOM     64  C   UNL     1       4.599  10.205  -5.332  1.00  0.00     0.054 A 
BRANCH  64  65
ATOM     65  S   UNL     1       6.117  10.511  -6.276  1.00  0.00     0.124 S 
ATOM     66  O   UNL     1       5.721  10.157  -7.637  1.00  0.00    -0.237 OA
ATOM     67  O   UNL     1       6.351  11.933  -6.039  1.00  0.00    -0.237 OA
ATOM     68  O   UNL     1       7.093   9.610  -5.665  1.00  0.00    -0.744 OA
ENDBRANCH  64  65
ENDBRANCH  45  59
BRANCH  46  69
ATOM     69  C   UNL     1      -7.091   6.527  -2.211  1.00  0.00    -0.014 A 
ATOM     70  C   UNL     1      -8.044   5.892  -3.040  1.00  0.00     0.010 A 
ATOM     71  C   UNL     1      -6.650   5.825  -1.068  1.00  0.00     0.010 A 
ATOM     72  C   UNL     1      -8.430   4.562  -2.831  1.00  0.00     0.020 A 
ATOM     73  C   UNL     1      -7.045   4.486  -0.849  1.00  0.00     0.020 A 
ATOM     74  C   UNL     1      -7.883   3.847  -1.769  1.00  0.00     0.054 A 
BRANCH  74  75
ATOM     75  S   UNL     1      -8.088   2.035  -1.777  1.00  0.00     0.124 S 
ATOM     76  O   UNL     1      -9.509   1.872  -1.497  1.00  0.00    -0.237 OA
ATOM     77  O   UNL     1      -7.659   1.689  -3.132  1.00  0.00    -0.237 OA
ATOM     78  O   UNL     1      -7.178   1.589  -0.729  1.00  0.00    -0.744 OA
ENDBRANCH  74  75
ENDBRANCH  46  69
BRANCH  58  79
ATOM     79  C   UNL     1      -3.141  12.591  -0.876  1.00  0.00    -0.014 A 
ATOM     80  C   UNL     1      -3.707  12.861   0.375  1.00  0.00     0.010 A 
ATOM     81  C   UNL     1      -2.172  13.501  -1.367  1.00  0.00     0.010 A 
ATOM     82  C   UNL     1      -3.367  14.023   1.077  1.00  0.00     0.020 A 
ATOM     83  C   UNL     1      -1.788  14.631  -0.652  1.00  0.00     0.020 A 
ATOM     84  C   UNL     1      -2.411  14.899   0.558  1.00  0.00     0.054 A 
BRANCH  84  85
ATOM     85  S   UNL     1      -1.926  16.363   1.499  1.00  0.00     0.124 S 
ATOM     86  O   UNL     1      -2.892  17.352   1.027  1.00  0.00    -0.237 OA
ATOM     87  O   UNL     1      -2.095  15.933   2.885  1.00  0.00    -0.237 OA
ATOM     88  O   UNL     1      -0.543  16.589   1.089  1.00  0.00    -0.744 OA
ENDBRANCH  84  85
ENDBRANCH  58  79
ENDBRANCH  32  33
ENDBRANCH  25  27
ENDBRANCH  24  25
ENDBRANCH  23  24
ENDBRANCH   1  23
TORSDOF 17
