REMARK SMILES NS(=O)(=O)c1ccc(-c2coc(=O)n2-c2ccc(C(=O)OCCOC(=O)c3ccc(-c4c5nc(c(-c6ccc(S(=O)(=O)[O-])cc6)c6ccc([nH]6)c(-c6ccc(S(=O)(=O)[O-])cc6)c6nc(c(-c7ccc(S(=O)(=O)[O-])cc7)c7ccc4[nH]7)C=C6)C=C5)cc3)cc2)cc1
REMARK SMILES IDX 22 1 21 2 19 3 20 4 18 5 15 6 16 7 88 8 17 9 87 10 14 11
REMARK SMILES IDX 9 12 10 13 11 14 12 15 13 16 8 17 5 18 6 19 90 20 7 21 89 22
REMARK SMILES IDX 2 23 3 24 4 25 1 26 23 29 24 30 25 31 26 32 27 33 28 34
REMARK SMILES IDX 86 35 29 36 85 37 30 38 31 39 32 40 79 41 33 42 84 43 78 44
REMARK SMILES IDX 80 45 34 46 83 47 77 48 76 49 35 51 65 52 46 53 64 54 47 55
REMARK SMILES IDX 50 56 63 57 81 58 48 59 49 60 62 62 82 63 51 64 36 65 37 66
REMARK SMILES IDX 45 67 38 68 44 69 39 70 40 71 41 72 42 73 43 74 66 75 67 76
REMARK SMILES IDX 75 77 68 78 74 79 69 80 70 81 71 82 72 83 73 84 52 85 53 86
REMARK SMILES IDX 61 87 54 88 60 89 55 90 56 91 57 92 58 93 59 94
REMARK H PARENT 1 27 1 28 80 50 50 61
REMARK Flexibility Score: inf
ROOT
ATOM      1  C   UNL     1       9.143   2.590   0.987  1.00  0.00     0.275 C 
ENDROOT
BRANCH   1   2
ATOM      2  O   UNL     1       7.909   3.324   1.069  1.00  0.00    -0.458 OA
BRANCH   2   3
ATOM      3  C   UNL     1       7.237   3.235   2.248  1.00  0.00     0.338 C 
ATOM      4  O   UNL     1       7.473   2.460   3.161  1.00  0.00    -0.246 OA
BRANCH   3   5
ATOM      5  C   UNL     1       6.197   4.291   2.331  1.00  0.00     0.060 A 
ATOM      6  C   UNL     1       4.092   6.122   2.557  1.00  0.00     0.053 A 
ATOM      7  C   UNL     1       4.754   5.686   3.707  1.00  0.00     0.028 A 
ATOM      8  C   UNL     1       4.560   5.722   1.296  1.00  0.00     0.028 A 
ATOM      9  C   UNL     1       5.784   4.745   3.594  1.00  0.00     0.018 A 
ATOM     10  C   UNL     1       5.619   4.826   1.179  1.00  0.00     0.018 A 
BRANCH   6  11
ATOM     11  N   UNL     1       2.886   6.848   2.648  1.00  0.00    -0.242 N 
ATOM     12  C   UNL     1       1.713   6.586   1.993  1.00  0.00     0.095 A 
ATOM     13  C   UNL     1       0.867   7.542   2.354  1.00  0.00     0.228 A 
ATOM     14  O   UNL     1       1.396   8.465   3.254  1.00  0.00    -0.415 OA
ATOM     15  C   UNL     1       2.685   7.963   3.459  1.00  0.00     0.424 A 
ATOM     16  O   UNL     1       3.472   8.481   4.237  1.00  0.00    -0.223 OA
BRANCH  12  17
ATOM     17  C   UNL     1       1.405   5.360   1.256  1.00  0.00     0.002 A 
ATOM     18  C   UNL     1       0.871   2.971  -0.109  1.00  0.00     0.082 A 
ATOM     19  C   UNL     1       1.335   2.921   1.204  1.00  0.00     0.022 A 
ATOM     20  C   UNL     1       0.670   4.202  -0.745  1.00  0.00     0.022 A 
ATOM     21  C   UNL     1       1.594   4.113   1.881  1.00  0.00     0.012 A 
ATOM     22  C   UNL     1       0.931   5.394  -0.059  1.00  0.00     0.012 A 
BRANCH  18  23
ATOM     23  S   UNL     1       0.552   1.491  -1.021  1.00  0.00     0.238 S 
ATOM     24  O   UNL     1       1.273   1.556  -2.269  1.00  0.00    -0.207 OA
ATOM     25  O   UNL     1      -0.865   1.215  -0.952  1.00  0.00    -0.207 OA
BRANCH  23  26
ATOM     26  N   UNL     1       1.299   0.271  -0.139  1.00  0.00    -0.225 NA
ATOM     27  H   UNL     1       1.156  -0.623  -0.607  1.00  0.00     0.137 HD
ATOM     28  H   UNL     1       0.895   0.233   0.797  1.00  0.00     0.137 HD
ENDBRANCH  23  26
ENDBRANCH  18  23
ENDBRANCH  12  17
ENDBRANCH   6  11
ENDBRANCH   3   5
ENDBRANCH   2   3
ENDBRANCH   1   2
BRANCH   1  29
ATOM     29  C   UNL     1      10.320   3.424   1.479  1.00  0.00     0.275 C 
BRANCH  29  30
ATOM     30  O   UNL     1      10.237   3.630   2.886  1.00  0.00    -0.458 OA
BRANCH  30  31
ATOM     31  C   UNL     1       9.604   4.766   3.258  1.00  0.00     0.338 C 
ATOM     32  O   UNL     1       8.957   5.515   2.546  1.00  0.00    -0.246 OA
BRANCH  31  33
ATOM     33  C   UNL     1       9.973   5.092   4.637  1.00  0.00     0.060 A 
ATOM     34  C   UNL     1       9.372   6.223   5.202  1.00  0.00     0.016 A 
ATOM     35  C   UNL     1      11.130   4.511   5.173  1.00  0.00     0.016 A 
ATOM     36  C   UNL     1      10.067   6.913   6.170  1.00  0.00     0.010 A 
ATOM     37  C   UNL     1      11.830   5.212   6.118  1.00  0.00     0.010 A 
ATOM     38  C   UNL     1      11.333   6.449   6.528  1.00  0.00    -0.014 A 
BRANCH  38  39
ATOM     39  C   UNL     1      12.173   7.292   7.348  1.00  0.00     0.031 A 
ATOM     40  C   UNL     1      11.837   7.265   8.788  1.00  0.00     0.074 A 
ATOM     41  C   UNL     1      13.265   7.879   6.823  1.00  0.00     0.049 A 
ATOM     42  N   UNL     1      11.506   8.249   9.553  1.00  0.00    -0.248 NA
ATOM     43  C   UNL     1      11.727   5.940   9.422  1.00  0.00     0.031 C 
ATOM     44  C   UNL     1      13.837   7.695   5.483  1.00  0.00     0.029 A 
ATOM     45  N   UNL     1      14.189   8.652   7.445  1.00  0.00    -0.354 N 
ATOM     46  C   UNL     1      11.313   7.693  10.814  1.00  0.00     0.074 A 
ATOM     47  C   UNL     1      11.290   6.265  10.635  1.00  0.00     0.031 C 
ATOM     48  C   UNL     1      15.119   8.123   5.488  1.00  0.00     0.029 A 
ATOM     49  C   UNL     1      15.406   8.723   6.781  1.00  0.00     0.049 A 
ATOM     50  H   UNL     1      14.012   9.122   8.292  1.00  0.00     0.167 HD
ATOM     51  C   UNL     1      11.410   8.426  11.955  1.00  0.00     0.031 A 
ATOM     52  C   UNL     1      16.581   9.145   7.311  1.00  0.00     0.031 A 
ATOM     53  C   UNL     1      11.338   9.838  11.699  1.00  0.00     0.049 A 
ATOM     54  C   UNL     1      16.252   9.928   8.531  1.00  0.00     0.074 A 
ATOM     55  C   UNL     1      10.367  10.677  11.190  1.00  0.00     0.029 A 
ATOM     56  N   UNL     1      12.525  10.526  11.601  1.00  0.00    -0.354 N 
ATOM     57  N   UNL     1      15.591  11.053   8.507  1.00  0.00    -0.248 NA
ATOM     58  C   UNL     1      16.245   9.236   9.812  1.00  0.00     0.031 C 
ATOM     59  C   UNL     1      11.075  11.622  10.394  1.00  0.00     0.029 A 
ATOM     60  C   UNL     1      12.440  11.342  10.500  1.00  0.00     0.049 A 
ATOM     61  H   UNL     1      13.295  10.447  12.209  1.00  0.00     0.167 HD
ATOM     62  C   UNL     1      14.752  11.005   9.613  1.00  0.00     0.074 A 
ATOM     63  C   UNL     1      15.273   9.912  10.433  1.00  0.00     0.031 C 
ATOM     64  C   UNL     1      13.553  11.663   9.627  1.00  0.00     0.031 A 
BRANCH  51  65
ATOM     65  C   UNL     1      11.931   7.853  13.246  1.00  0.00    -0.014 A 
ATOM     66  C   UNL     1      11.890   8.635  14.414  1.00  0.00     0.010 A 
ATOM     67  C   UNL     1      12.697   6.667  13.294  1.00  0.00     0.010 A 
ATOM     68  C   UNL     1      12.626   8.275  15.552  1.00  0.00     0.020 A 
ATOM     69  C   UNL     1      13.393   6.274  14.436  1.00  0.00     0.020 A 
ATOM     70  C   UNL     1      13.385   7.102  15.547  1.00  0.00     0.054 A 
BRANCH  70  71
ATOM     71  S   UNL     1      14.431   6.710  16.969  1.00  0.00     0.124 S 
ATOM     72  O   UNL     1      15.424   7.778  16.914  1.00  0.00    -0.237 OA
ATOM     73  O   UNL     1      13.486   6.777  18.079  1.00  0.00    -0.237 OA
ATOM     74  O   UNL     1      14.934   5.371  16.665  1.00  0.00    -0.744 OA
ENDBRANCH  70  71
ENDBRANCH  51  65
BRANCH  52  75
ATOM     75  C   UNL     1      17.928   8.579   7.042  1.00  0.00    -0.014 A 
ATOM     76  C   UNL     1      19.098   9.250   7.441  1.00  0.00     0.010 A 
ATOM     77  C   UNL     1      18.058   7.239   6.616  1.00  0.00     0.010 A 
ATOM     78  C   UNL     1      20.341   8.590   7.458  1.00  0.00     0.020 A 
ATOM     79  C   UNL     1      19.291   6.578   6.622  1.00  0.00     0.020 A 
ATOM     80  C   UNL     1      20.425   7.251   7.065  1.00  0.00     0.054 A 
BRANCH  80  81
ATOM     81  S   UNL     1      21.997   6.356   7.247  1.00  0.00     0.124 S 
ATOM     82  O   UNL     1      22.826   6.969   6.213  1.00  0.00    -0.237 OA
ATOM     83  O   UNL     1      22.377   6.660   8.624  1.00  0.00    -0.237 OA
ATOM     84  O   UNL     1      21.631   4.962   7.003  1.00  0.00    -0.744 OA
ENDBRANCH  80  81
ENDBRANCH  52  75
BRANCH  64  85
ATOM     85  C   UNL     1      13.251  12.616   8.486  1.00  0.00    -0.014 A 
ATOM     86  C   UNL     1      13.101  12.191   7.149  1.00  0.00     0.010 A 
ATOM     87  C   UNL     1      12.931  13.947   8.801  1.00  0.00     0.010 A 
ATOM     88  C   UNL     1      12.659  13.078   6.155  1.00  0.00     0.020 A 
ATOM     89  C   UNL     1      12.474  14.831   7.818  1.00  0.00     0.020 A 
ATOM     90  C   UNL     1      12.346  14.395   6.498  1.00  0.00     0.054 A 
BRANCH  90  91
ATOM     91  S   UNL     1      11.709  15.521   5.223  1.00  0.00     0.124 S 
ATOM     92  O   UNL     1      12.884  15.751   4.386  1.00  0.00    -0.237 OA
ATOM     93  O   UNL     1      10.639  14.744   4.604  1.00  0.00    -0.237 OA
ATOM     94  O   UNL     1      11.256  16.686   5.983  1.00  0.00    -0.744 OA
ENDBRANCH  90  91
ENDBRANCH  64  85
ENDBRANCH  38  39
ENDBRANCH  31  33
ENDBRANCH  30  31
ENDBRANCH  29  30
ENDBRANCH   1  29
TORSDOF 18
