REMARK SMILES Cc1ccc([C@@]23C[C@@H]4C[C@@H](C[C@@](C(=O)N5CCC(C(=O)OCCOC(=O)c6ccc(-c7c8nc(c(-c9ccc(S(=O)(=O)[O-])cc9)c9ccc([nH]9)c(-c9ccc(S(=O)(=O)[O-])cc9)c9nc(c(-c%10ccc(S(=O)(=O)[O-])cc%10)c%10ccc7[nH]%10)C=C9)C=C8)cc6)CC5)(C4)C2)C3)cc1
REMARK SMILES IDX 23 1 22 2 21 3 19 4 20 5 18 6 13 7 14 8 15 9 16 10 88 11
REMARK SMILES IDX 17 12 87 13 12 14 6 15 7 16 90 17 91 18 8 19 10 20 9 21
REMARK SMILES IDX 89 22 11 23 5 24 1 25 2 26 3 27 93 28 4 29 92 30 24 31 25 32
REMARK SMILES IDX 26 33 27 34 28 35 86 36 29 37 85 38 30 39 31 40 32 41 79 42
REMARK SMILES IDX 33 43 84 44 78 45 80 46 34 47 83 48 77 49 76 50 35 52 65 53
REMARK SMILES IDX 46 54 64 55 47 56 50 57 63 58 81 59 48 60 49 61 62 63 82 64
REMARK SMILES IDX 51 65 36 66 37 67 45 68 38 69 44 70 39 71 40 72 41 73 42 74
REMARK SMILES IDX 43 75 66 76 67 77 75 78 68 79 74 80 69 81 70 82 71 83 72 84
REMARK SMILES IDX 73 85 52 86 53 87 61 88 54 89 60 90 55 91 56 92 57 93 58 94
REMARK SMILES IDX 59 95
REMARK H PARENT 80 51 50 62
REMARK Flexibility Score: inf
ROOT
ATOM      1  C   UNL     1      -8.829  -2.302  -7.284  1.00  0.00     0.275 C 
ENDROOT
BRANCH   1   2
ATOM      2  C   UNL     1      -9.243  -2.531  -5.818  1.00  0.00     0.274 C 
BRANCH   2   3
ATOM      3  O   UNL     1      -8.060  -2.673  -5.029  1.00  0.00    -0.462 OA
BRANCH   3   4
ATOM      4  C   UNL     1      -8.231  -3.007  -3.726  1.00  0.00     0.309 C 
ATOM      5  O   UNL     1      -9.301  -2.944  -3.136  1.00  0.00    -0.252 OA
BRANCH   4   6
ATOM      6  C   UNL     1      -6.897  -3.427  -3.140  1.00  0.00     0.103 C 
ATOM      7  C   UNL     1      -5.712  -1.971   0.051  1.00  0.00     0.228 C 
ATOM      8  O   UNL     1      -6.479  -2.401   0.918  1.00  0.00    -0.274 OA
ATOM      9  N   UNL     1      -5.245  -2.804  -0.968  1.00  0.00    -0.342 N 
ATOM     10  C   UNL     1      -5.749  -4.165  -0.989  1.00  0.00     0.120 C 
ATOM     11  C   UNL     1      -4.768  -2.393  -2.284  1.00  0.00     0.120 C 
ATOM     12  C   UNL     1      -7.043  -4.151  -1.786  1.00  0.00     0.037 C 
ATOM     13  C   UNL     1      -5.982  -2.205  -3.171  1.00  0.00     0.037 C 
BRANCH   7  14
ATOM     14  C   UNL     1      -5.206  -0.522   0.141  1.00  0.00     0.051 C 
ATOM     15  C   UNL     1      -3.005   0.777   0.314  1.00  0.00    -0.003 C 
ATOM     16  C   UNL     1      -3.501   1.611  -0.906  1.00  0.00     0.015 C 
ATOM     17  C   UNL     1      -3.682  -0.603   0.247  1.00  0.00     0.028 C 
ATOM     18  C   UNL     1      -3.521   1.458   1.609  1.00  0.00     0.015 C 
ATOM     19  C   UNL     1      -5.034   1.775  -0.894  1.00  0.00    -0.009 C 
ATOM     20  C   UNL     1      -5.064   1.559   1.598  1.00  0.00    -0.009 C 
ATOM     21  C   UNL     1      -5.497   2.427   0.409  1.00  0.00     0.007 C 
ATOM     22  C   UNL     1      -5.671   0.391  -1.010  1.00  0.00     0.020 C 
ATOM     23  C   UNL     1      -5.691   0.156   1.454  1.00  0.00     0.020 C 
BRANCH  15  24
ATOM     24  C   UNL     1      -1.474   0.617   0.293  1.00  0.00    -0.042 A 
ATOM     25  C   UNL     1       2.827   0.149  -0.034  1.00  0.00     0.044 C 
ATOM     26  C   UNL     1       1.347   0.331   0.099  1.00  0.00    -0.051 A 
ATOM     27  C   UNL     1       0.532  -0.792   0.190  1.00  0.00     0.004 A 
ATOM     28  C   UNL     1       0.755   1.597   0.122  1.00  0.00     0.004 A 
ATOM     29  C   UNL     1      -0.850  -0.648   0.295  1.00  0.00     0.004 A 
ATOM     30  C   UNL     1      -0.636   1.738   0.222  1.00  0.00     0.004 A 
ENDBRANCH  15  24
ENDBRANCH   7  14
ENDBRANCH   4   6
ENDBRANCH   3   4
ENDBRANCH   2   3
ENDBRANCH   1   2
BRANCH   1  31
ATOM     31  O   UNL     1      -8.115  -3.390  -7.919  1.00  0.00    -0.458 OA
BRANCH  31  32
ATOM     32  C   UNL     1      -6.988  -3.847  -7.293  1.00  0.00     0.338 C 
ATOM     33  O   UNL     1      -6.010  -3.159  -7.050  1.00  0.00    -0.246 OA
BRANCH  32  34
ATOM     34  C   UNL     1      -7.338  -5.143  -6.630  1.00  0.00     0.060 A 
ATOM     35  C   UNL     1      -6.512  -5.675  -5.632  1.00  0.00     0.016 A 
ATOM     36  C   UNL     1      -8.660  -5.577  -6.734  1.00  0.00     0.016 A 
ATOM     37  C   UNL     1      -7.068  -6.475  -4.621  1.00  0.00     0.010 A 
ATOM     38  C   UNL     1      -9.231  -6.249  -5.680  1.00  0.00     0.010 A 
ATOM     39  C   UNL     1      -8.450  -6.678  -4.601  1.00  0.00    -0.014 A 
BRANCH  39  40
ATOM     40  C   UNL     1      -9.157  -7.572  -3.691  1.00  0.00     0.031 A 
ATOM     41  C   UNL     1      -9.568  -7.242  -2.310  1.00  0.00     0.074 A 
ATOM     42  C   UNL     1      -9.514  -8.728  -4.286  1.00  0.00     0.049 A 
ATOM     43  N   UNL     1      -9.596  -8.094  -1.338  1.00  0.00    -0.248 NA
ATOM     44  C   UNL     1      -9.969  -5.902  -1.893  1.00  0.00     0.031 C 
ATOM     45  C   UNL     1     -10.418  -9.763  -3.831  1.00  0.00     0.029 A 
ATOM     46  N   UNL     1      -8.927  -9.263  -5.439  1.00  0.00    -0.354 N 
ATOM     47  C   UNL     1     -10.269  -7.489  -0.288  1.00  0.00     0.074 A 
ATOM     48  C   UNL     1     -10.321  -6.087  -0.614  1.00  0.00     0.031 C 
ATOM     49  C   UNL     1     -10.097 -10.900  -4.478  1.00  0.00     0.029 A 
ATOM     50  C   UNL     1      -8.879 -10.636  -5.242  1.00  0.00     0.049 A 
ATOM     51  H   UNL     1      -8.612  -8.767  -6.229  1.00  0.00     0.167 HD
ATOM     52  C   UNL     1     -10.940  -8.233   0.637  1.00  0.00     0.031 A 
ATOM     53  C   UNL     1      -7.688 -11.292  -5.125  1.00  0.00     0.031 A 
ATOM     54  C   UNL     1     -10.927  -9.635   0.256  1.00  0.00     0.049 A 
ATOM     55  C   UNL     1      -7.635 -12.005  -3.800  1.00  0.00     0.074 A 
ATOM     56  C   UNL     1     -11.838 -10.372  -0.482  1.00  0.00     0.029 A 
ATOM     57  N   UNL     1      -9.752 -10.366   0.305  1.00  0.00    -0.354 N 
ATOM     58  N   UNL     1      -8.177 -11.549  -2.703  1.00  0.00    -0.248 NA
ATOM     59  C   UNL     1      -7.040 -13.325  -3.642  1.00  0.00     0.031 C 
ATOM     60  C   UNL     1     -11.172 -11.523  -0.960  1.00  0.00     0.029 A 
ATOM     61  C   UNL     1      -9.872 -11.492  -0.484  1.00  0.00     0.049 A 
ATOM     62  H   UNL     1      -8.953 -10.120   0.825  1.00  0.00     0.167 HD
ATOM     63  C   UNL     1      -8.137 -12.540  -1.754  1.00  0.00     0.074 A 
ATOM     64  C   UNL     1      -7.371 -13.609  -2.372  1.00  0.00     0.031 C 
ATOM     65  C   UNL     1      -8.797 -12.461  -0.563  1.00  0.00     0.031 A 
BRANCH  52  66
ATOM     66  C   UNL     1     -11.926  -7.672   1.641  1.00  0.00    -0.014 A 
ATOM     67  C   UNL     1     -13.077  -8.424   1.968  1.00  0.00     0.010 A 
ATOM     68  C   UNL     1     -11.783  -6.433   2.296  1.00  0.00     0.010 A 
ATOM     69  C   UNL     1     -14.074  -7.940   2.824  1.00  0.00     0.020 A 
ATOM     70  C   UNL     1     -12.786  -5.928   3.151  1.00  0.00     0.020 A 
ATOM     71  C   UNL     1     -13.934  -6.681   3.397  1.00  0.00     0.054 A 
BRANCH  71  72
ATOM     72  S   UNL     1     -15.274  -6.064   4.454  1.00  0.00     0.124 S 
ATOM     73  O   UNL     1     -16.417  -6.062   3.542  1.00  0.00    -0.237 OA
ATOM     74  O   UNL     1     -15.325  -7.063   5.518  1.00  0.00    -0.237 OA
ATOM     75  O   UNL     1     -14.813  -4.740   4.866  1.00  0.00    -0.744 OA
ENDBRANCH  71  72
ENDBRANCH  52  66
BRANCH  53  76
ATOM     76  C   UNL     1      -6.516 -10.645  -5.803  1.00  0.00    -0.014 A 
ATOM     77  C   UNL     1      -6.575 -10.463  -7.205  1.00  0.00     0.010 A 
ATOM     78  C   UNL     1      -5.541  -9.928  -5.086  1.00  0.00     0.010 A 
ATOM     79  C   UNL     1      -5.774  -9.514  -7.852  1.00  0.00     0.020 A 
ATOM     80  C   UNL     1      -4.718  -8.988  -5.736  1.00  0.00     0.020 A 
ATOM     81  C   UNL     1      -4.869  -8.759  -7.107  1.00  0.00     0.054 A 
BRANCH  81  82
ATOM     82  S   UNL     1      -4.033  -7.364  -7.929  1.00  0.00     0.124 S 
ATOM     83  O   UNL     1      -3.124  -8.043  -8.846  1.00  0.00    -0.237 OA
ATOM     84  O   UNL     1      -5.152  -6.661  -8.556  1.00  0.00    -0.237 OA
ATOM     85  O   UNL     1      -3.399  -6.651  -6.823  1.00  0.00    -0.744 OA
ENDBRANCH  81  82
ENDBRANCH  53  76
BRANCH  65  86
ATOM     86  C   UNL     1      -8.614 -13.382   0.615  1.00  0.00    -0.014 A 
ATOM     87  C   UNL     1      -7.463 -14.153   0.821  1.00  0.00     0.010 A 
ATOM     88  C   UNL     1      -9.575 -13.362   1.657  1.00  0.00     0.010 A 
ATOM     89  C   UNL     1      -7.305 -14.916   1.983  1.00  0.00     0.020 A 
ATOM     90  C   UNL     1      -9.403 -14.078   2.841  1.00  0.00     0.020 A 
ATOM     91  C   UNL     1      -8.275 -14.874   2.985  1.00  0.00     0.054 A 
BRANCH  91  92
ATOM     92  S   UNL     1      -8.015 -15.803   4.513  1.00  0.00     0.124 S 
ATOM     93  O   UNL     1      -8.538 -17.118   4.154  1.00  0.00    -0.237 OA
ATOM     94  O   UNL     1      -6.566 -15.733   4.693  1.00  0.00    -0.237 OA
ATOM     95  O   UNL     1      -8.795 -15.064   5.502  1.00  0.00    -0.744 OA
ENDBRANCH  91  92
ENDBRANCH  65  86
ENDBRANCH  39  40
ENDBRANCH  32  34
ENDBRANCH  31  32
ENDBRANCH   1  31
TORSDOF 16
