REMARK SMILES COc1ccccc1C(=O)N/C(=C/c1ccc2c(c1)OCO2)C(=O)Nc1ccc(C(=O)OCCOC(=O)c2ccc(-c3c4nc(c(-c5ccc(S(=O)(=O)[O-])cc5)c5ccc([nH]5)c(-c5ccc(S(=O)(=O)[O-])cc5)c5nc(c(-c6ccc(S(=O)(=O)[O-])cc6)c6ccc3[nH]6)C=C5)C=C4)cc2)cc1
REMARK SMILES IDX 33 1 32 2 30 3 31 4 29 5 26 6 27 7 99 8 28 9 98 10 25 11
REMARK SMILES IDX 23 12 24 13 12 15 13 16 11 17 9 18 10 19 8 21 3 22 4 23 5 24
REMARK SMILES IDX 7 25 6 26 2 27 1 28 14 29 15 30 19 31 16 32 18 33 17 34
REMARK SMILES IDX 20 35 22 36 21 37 34 38 35 39 36 40 37 41 38 42 39 43 97 44
REMARK SMILES IDX 40 45 96 46 41 47 42 48 43 49 90 50 44 51 95 52 89 53 91 54
REMARK SMILES IDX 45 55 94 56 88 57 87 58 46 60 76 61 57 62 75 63 58 64 61 65
REMARK SMILES IDX 74 66 92 67 59 68 60 69 73 71 93 72 62 73 47 74 48 75 56 76
REMARK SMILES IDX 49 77 55 78 50 79 51 80 52 81 53 82 54 83 77 84 78 85 86 86
REMARK SMILES IDX 79 87 85 88 80 89 81 90 82 91 83 92 84 93 63 94 64 95 72 96
REMARK SMILES IDX 65 97 71 98 66 99 67 100 68 101 69 102 70 103
REMARK H PARENT 25 14 11 20 91 59 61 70
REMARK Flexibility Score: inf
ROOT
ATOM      1  C   UNL     1      -3.316   2.412  -6.950  1.00  0.00     0.275 C 
ENDROOT
BRANCH   1   2
ATOM      2  O   UNL     1      -2.889   1.795  -5.719  1.00  0.00    -0.458 OA
BRANCH   2   3
ATOM      3  C   UNL     1      -2.304   2.631  -4.830  1.00  0.00     0.338 C 
ATOM      4  O   UNL     1      -2.034   3.808  -4.999  1.00  0.00    -0.246 OA
BRANCH   3   5
ATOM      5  C   UNL     1      -2.085   1.954  -3.546  1.00  0.00     0.060 A 
ATOM      6  C   UNL     1      -1.575   0.270  -0.263  1.00  0.00     0.041 A 
ATOM      7  C   UNL     1      -1.467   2.033  -0.335  1.00  0.00     0.027 A 
ATOM      8  C   UNL     1      -1.980  -0.608  -1.733  1.00  0.00     0.027 A 
ATOM      9  C   UNL     1      -1.681   2.967  -2.112  1.00  0.00     0.018 A 
ATOM     10  C   UNL     1      -2.234   0.204  -3.310  1.00  0.00     0.018 A 
BRANCH   6  11
ATOM     11  N   UNL     1      -0.674  -0.245   0.687  1.00  0.00    -0.321 N 
ATOM     12  C   UNL     1       0.304   0.613   1.194  1.00  0.00     0.272 C 
ATOM     13  O   UNL     1       0.277   1.012   2.357  1.00  0.00    -0.267 OA
ATOM     14  H   UNL     1      -0.732  -1.181   0.986  1.00  0.00     0.170 HD
BRANCH  12  15
ATOM     15  C   UNL     1       1.508   0.942   0.297  1.00  0.00     0.108 C 
ATOM     16  C   UNL     1       1.515   1.839  -0.735  1.00  0.00     0.040 C 
BRANCH  15  17
ATOM     17  N   UNL     1       2.701   0.276   0.561  1.00  0.00    -0.317 N 
ATOM     18  C   UNL     1       3.118  -0.646   1.504  1.00  0.00     0.259 C 
ATOM     19  O   UNL     1       4.251  -1.120   1.385  1.00  0.00    -0.269 OA
ATOM     20  H   UNL     1       3.415   0.517  -0.072  1.00  0.00     0.170 HD
BRANCH  18  21
ATOM     21  C   UNL     1       2.349  -1.038   2.702  1.00  0.00     0.082 A 
ATOM     22  C   UNL     1       1.195  -1.833   2.731  1.00  0.00     0.131 A 
ATOM     23  C   UNL     1       0.500  -1.964   3.947  1.00  0.00     0.047 A 
ATOM     24  C   UNL     1       1.004  -1.431   5.134  1.00  0.00     0.004 A 
ATOM     25  C   UNL     1       2.887  -0.562   3.915  1.00  0.00     0.018 A 
ATOM     26  C   UNL     1       2.223  -0.767   5.126  1.00  0.00     0.001 A 
BRANCH  22  27
ATOM     27  O   UNL     1       0.567  -2.487   1.707  1.00  0.00    -0.496 OA
ATOM     28  C   UNL     1       1.332  -2.840   0.565  1.00  0.00     0.278 C 
ENDBRANCH  22  27
ENDBRANCH  18  21
ENDBRANCH  15  17
BRANCH  16  29
ATOM     29  C   UNL     1       0.320   2.529  -1.313  1.00  0.00    -0.019 A 
ATOM     30  C   UNL     1      -0.822   1.296  -1.955  1.00  0.00     0.012 A 
ATOM     31  C   UNL     1      -0.364   3.958  -0.507  1.00  0.00     0.058 A 
ATOM     32  C   UNL     1      -2.797   1.516  -1.573  1.00  0.00     0.051 A 
ATOM     33  C   UNL     1      -2.107   4.141  -0.232  1.00  0.00     0.166 A 
ATOM     34  C   UNL     1      -3.301   2.991  -0.701  1.00  0.00     0.165 A 
ATOM     35  O   UNL     1      -2.667   4.873   0.785  1.00  0.00    -0.454 OA
ATOM     36  O   UNL     1      -4.382   3.142   0.112  1.00  0.00    -0.454 OA
ATOM     37  C   UNL     1      -3.859   4.077   1.120  1.00  0.00     0.468 C 
ENDBRANCH  16  29
ENDBRANCH  12  15
ENDBRANCH   6  11
ENDBRANCH   3   5
ENDBRANCH   2   3
ENDBRANCH   1   2
BRANCH   1  38
ATOM     38  C   UNL     1      -4.829   2.640  -6.959  1.00  0.00     0.275 C 
BRANCH  38  39
ATOM     39  O   UNL     1      -5.228   3.594  -5.955  1.00  0.00    -0.458 OA
BRANCH  39  40
ATOM     40  C   UNL     1      -5.808   3.055  -4.856  1.00  0.00     0.338 C 
ATOM     41  O   UNL     1      -6.012   1.872  -4.638  1.00  0.00    -0.246 OA
BRANCH  40  42
ATOM     42  C   UNL     1      -6.133   4.102  -3.873  1.00  0.00     0.060 A 
ATOM     43  C   UNL     1      -5.134   4.512  -3.009  1.00  0.00     0.016 A 
ATOM     44  C   UNL     1      -7.449   4.514  -3.653  1.00  0.00     0.016 A 
ATOM     45  C   UNL     1      -5.474   5.217  -1.853  1.00  0.00     0.010 A 
ATOM     46  C   UNL     1      -7.763   5.296  -2.522  1.00  0.00     0.010 A 
ATOM     47  C   UNL     1      -6.793   5.597  -1.552  1.00  0.00    -0.014 A 
BRANCH  47  48
ATOM     48  C   UNL     1      -7.124   6.203  -0.206  1.00  0.00     0.031 A 
ATOM     49  C   UNL     1      -8.255   5.655   0.656  1.00  0.00     0.074 A 
ATOM     50  C   UNL     1      -6.365   7.189   0.328  1.00  0.00     0.049 A 
ATOM     51  N   UNL     1      -8.742   6.125   1.783  1.00  0.00    -0.248 NA
ATOM     52  C   UNL     1      -8.930   4.432   0.194  1.00  0.00     0.031 C 
ATOM     53  C   UNL     1      -5.202   7.811  -0.308  1.00  0.00     0.029 A 
ATOM     54  N   UNL     1      -6.431   7.817   1.555  1.00  0.00    -0.354 N 
ATOM     55  C   UNL     1      -9.822   5.309   2.115  1.00  0.00     0.074 A 
ATOM     56  C   UNL     1      -9.917   4.309   1.073  1.00  0.00     0.031 C 
ATOM     57  C   UNL     1      -4.609   8.642   0.561  1.00  0.00     0.029 A 
ATOM     58  C   UNL     1      -5.421   8.729   1.768  1.00  0.00     0.049 A 
ATOM     59  H   UNL     1      -7.135   7.629   2.217  1.00  0.00     0.167 HD
ATOM     60  C   UNL     1     -10.663   5.376   3.180  1.00  0.00     0.031 A 
ATOM     61  C   UNL     1      -5.180   9.585   2.782  1.00  0.00     0.031 A 
ATOM     62  C   UNL     1     -10.546   6.318   4.267  1.00  0.00     0.049 A 
ATOM     63  C   UNL     1      -6.137   9.665   3.937  1.00  0.00     0.074 A 
ATOM     64  C   UNL     1     -11.359   6.449   5.383  1.00  0.00     0.029 A 
ATOM     65  N   UNL     1      -9.547   7.268   4.396  1.00  0.00    -0.354 N 
ATOM     66  N   UNL     1      -7.208   8.947   4.171  1.00  0.00    -0.248 NA
ATOM     67  C   UNL     1      -5.862  10.691   4.954  1.00  0.00     0.031 C 
ATOM     68  C   UNL     1     -10.876   7.506   6.163  1.00  0.00     0.029 A 
ATOM     69  C   UNL     1      -9.729   7.995   5.564  1.00  0.00     0.049 A 
ATOM     70  H   UNL     1      -8.815   7.407   3.753  1.00  0.00     0.167 HD
ATOM     71  C   UNL     1      -7.732   9.433   5.365  1.00  0.00     0.074 A 
ATOM     72  C   UNL     1      -6.843  10.480   5.821  1.00  0.00     0.031 C 
ATOM     73  C   UNL     1      -8.856   9.047   6.017  1.00  0.00     0.031 A 
BRANCH  60  74
ATOM     74  C   UNL     1     -11.839   4.427   3.210  1.00  0.00    -0.014 A 
ATOM     75  C   UNL     1     -11.685   3.057   3.485  1.00  0.00     0.010 A 
ATOM     76  C   UNL     1     -13.137   4.939   3.014  1.00  0.00     0.010 A 
ATOM     77  C   UNL     1     -12.800   2.211   3.519  1.00  0.00     0.020 A 
ATOM     78  C   UNL     1     -14.256   4.104   3.077  1.00  0.00     0.020 A 
ATOM     79  C   UNL     1     -14.079   2.740   3.309  1.00  0.00     0.054 A 
BRANCH  79  80
ATOM     80  S   UNL     1     -15.510   1.625   3.370  1.00  0.00     0.124 S 
ATOM     81  O   UNL     1     -15.381   0.900   2.108  1.00  0.00    -0.237 OA
ATOM     82  O   UNL     1     -15.254   0.838   4.574  1.00  0.00    -0.237 OA
ATOM     83  O   UNL     1     -16.653   2.530   3.454  1.00  0.00    -0.744 OA
ENDBRANCH  79  80
ENDBRANCH  60  74
BRANCH  61  84
ATOM     84  C   UNL     1      -4.006  10.504   2.715  1.00  0.00    -0.014 A 
ATOM     85  C   UNL     1      -2.934  10.374   3.614  1.00  0.00     0.010 A 
ATOM     86  C   UNL     1      -3.958  11.517   1.738  1.00  0.00     0.010 A 
ATOM     87  C   UNL     1      -1.840  11.243   3.541  1.00  0.00     0.020 A 
ATOM     88  C   UNL     1      -2.851  12.361   1.637  1.00  0.00     0.020 A 
ATOM     89  C   UNL     1      -1.803  12.227   2.549  1.00  0.00     0.054 A 
BRANCH  89  90
ATOM     90  S   UNL     1      -0.346  13.301   2.423  1.00  0.00     0.124 S 
ATOM     91  O   UNL     1      -0.562  14.234   3.524  1.00  0.00    -0.237 OA
ATOM     92  O   UNL     1       0.758  12.361   2.596  1.00  0.00    -0.237 OA
ATOM     93  O   UNL     1      -0.461  13.874   1.084  1.00  0.00    -0.744 OA
ENDBRANCH  89  90
ENDBRANCH  61  84
BRANCH  73  94
ATOM     94  C   UNL     1      -9.170   9.743   7.316  1.00  0.00    -0.014 A 
ATOM     95  C   UNL     1      -9.595  11.085   7.344  1.00  0.00     0.010 A 
ATOM     96  C   UNL     1      -9.030   9.047   8.530  1.00  0.00     0.010 A 
ATOM     97  C   UNL     1      -9.817  11.733   8.563  1.00  0.00     0.020 A 
ATOM     98  C   UNL     1      -9.278   9.683   9.750  1.00  0.00     0.020 A 
ATOM     99  C   UNL     1      -9.647  11.030   9.760  1.00  0.00     0.054 A 
BRANCH  99 100
ATOM    100  S   UNL     1      -9.931  11.892  11.331  1.00  0.00     0.124 S 
ATOM    101  O   UNL     1      -8.728  12.711  11.450  1.00  0.00    -0.237 OA
ATOM    102  O   UNL     1     -11.168  12.626  11.078  1.00  0.00    -0.237 OA
ATOM    103  O   UNL     1     -10.046  10.808  12.304  1.00  0.00    -0.744 OA
ENDBRANCH  99 100
ENDBRANCH  73  94
ENDBRANCH  47  48
ENDBRANCH  40  42
ENDBRANCH  39  40
ENDBRANCH  38  39
ENDBRANCH   1  38
TORSDOF 20
