REMARK SMILES C[C@H]1[C@H](C)CC[C@@]2(C(=O)OCCOC(=O)c3ccc(-c4c5nc(c(-c6ccc(S(=O)(=O)[O-])cc6)c6ccc([nH]6)c(-c6ccc(S(=O)(=O)[O-])cc6)c6nc(c(-c7ccc(S(=O)(=O)[O-])cc7)c7ccc4[nH]7)C=C6)C=C5)cc3)CC[C@@]3(C)C(=CC[C@@H]4[C@@]5(C)CC[C@H](O)C(C)(C)[C@@H]5CC[C@]43C)[C@H]12
REMARK SMILES IDX 12 1 11 2 10 3 8 4 9 5 7 6 1 7 2 8 3 9 98 10 4 11 5 12 80 13
REMARK SMILES IDX 6 14 76 15 78 16 81 17 77 18 79 19 96 20 82 21 83 22 95 23
REMARK SMILES IDX 97 24 84 25 94 26 85 27 86 28 93 29 87 30 90 31 88 32 91 33
REMARK SMILES IDX 92 34 89 35 13 37 14 38 15 39 16 40 17 41 75 42 18 43 74 44
REMARK SMILES IDX 19 45 20 46 21 47 68 48 22 49 73 50 67 51 69 52 23 53 72 54
REMARK SMILES IDX 66 55 65 56 24 58 54 59 35 60 53 61 36 62 39 63 52 64 70 65
REMARK SMILES IDX 37 66 38 67 51 69 71 70 40 71 25 72 26 73 34 74 27 75 33 76
REMARK SMILES IDX 28 77 29 78 30 79 31 80 32 81 55 82 56 83 64 84 57 85 63 86
REMARK SMILES IDX 58 87 59 88 60 89 61 90 62 91 41 92 42 93 50 94 43 95 49 96
REMARK SMILES IDX 44 97 45 98 46 99 47 100 48 101
REMARK H PARENT 89 36 69 57 39 68
REMARK Flexibility Score: inf
ROOT
ATOM      1  C   UNL     1       1.737   2.338  -4.646  1.00  0.00     0.275 C 
ENDROOT
BRANCH   1   2
ATOM      2  C   UNL     1       1.531   1.530  -3.353  1.00  0.00     0.274 C 
BRANCH   2   3
ATOM      3  O   UNL     1       0.766   2.152  -2.297  1.00  0.00    -0.462 OA
BRANCH   3   4
ATOM      4  C   UNL     1       1.502   2.963  -1.490  1.00  0.00     0.312 C 
ATOM      5  O   UNL     1       2.563   3.418  -1.858  1.00  0.00    -0.252 OA
BRANCH   4   6
ATOM      6  C   UNL     1       1.013   3.075  -0.028  1.00  0.00     0.075 C 
ATOM      7  C   UNL     1       0.975  -0.631   1.280  1.00  0.00     0.008 C 
ATOM      8  C   UNL     1       0.624   0.559   0.372  1.00  0.00    -0.003 C 
ATOM      9  C   UNL     1      -0.913   0.842   0.459  1.00  0.00    -0.011 C 
ATOM     10  C   UNL     1       1.502   1.813   0.744  1.00  0.00     0.036 C 
ATOM     11  C   UNL     1      -1.758  -0.321  -0.085  1.00  0.00     0.008 C 
ATOM     12  C   UNL     1      -1.353   2.103  -0.287  1.00  0.00     0.005 C 
ATOM     13  C   UNL     1       3.056   1.761   0.525  1.00  0.00    -0.063 C 
ATOM     14  C   UNL     1      -0.504   3.310   0.050  1.00  0.00     0.020 C 
ATOM     15  C   UNL     1       1.670   4.306   0.665  1.00  0.00     0.020 C 
ATOM     16  C   UNL     1       3.900   2.963   1.085  1.00  0.00    -0.006 C 
ATOM     17  C   UNL     1       3.599   0.877  -0.338  1.00  0.00    -0.027 C 
ATOM     18  C   UNL     1       3.203   4.309   0.699  1.00  0.00     0.013 C 
ATOM     19  C   UNL     1       3.869   2.895   2.634  1.00  0.00     0.017 C 
ATOM     20  C   UNL     1       5.476   2.942   0.547  1.00  0.00    -0.020 C 
ATOM     21  C   UNL     1       4.921   1.056  -1.037  1.00  0.00     0.032 C 
ATOM     22  C   UNL     1       5.457   2.504  -0.962  1.00  0.00     0.006 C 
ATOM     23  C   UNL     1       6.163   4.328   0.658  1.00  0.00     0.008 C 
ATOM     24  C   UNL     1       6.322   1.967   1.409  1.00  0.00     0.012 C 
ATOM     25  C   UNL     1       6.718   2.810  -1.897  1.00  0.00    -0.025 C 
ATOM     26  C   UNL     1       7.488   4.465  -0.106  1.00  0.00     0.005 C 
ATOM     27  C   UNL     1       7.797   1.721  -1.748  1.00  0.00     0.012 C 
ATOM     28  C   UNL     1       6.241   2.800  -3.388  1.00  0.00     0.010 C 
ATOM     29  C   UNL     1       7.241   4.265  -1.611  1.00  0.00     0.003 C 
ATOM     30  C   UNL     1       7.272   3.307  -4.397  1.00  0.00     0.033 C 
ATOM     31  C   UNL     1       8.368   4.812  -2.577  1.00  0.00    -0.006 C 
ATOM     32  C   UNL     1       7.858   4.674  -4.045  1.00  0.00     0.120 C 
ATOM     33  C   UNL     1       9.744   4.142  -2.391  1.00  0.00     0.014 C 
ATOM     34  C   UNL     1       8.617   6.326  -2.312  1.00  0.00     0.014 C 
BRANCH  32  35
ATOM     35  O   UNL     1       8.865   5.000  -5.004  1.00  0.00    -0.393 OA
ATOM     36  H   UNL     1       9.583   4.350  -4.952  1.00  0.00     0.210 HD
ENDBRANCH  32  35
ENDBRANCH   4   6
ENDBRANCH   3   4
ENDBRANCH   2   3
ENDBRANCH   1   2
BRANCH   1  37
ATOM     37  O   UNL     1       2.491   3.548  -4.470  1.00  0.00    -0.458 OA
BRANCH  37  38
ATOM     38  C   UNL     1       1.764   4.643  -4.115  1.00  0.00     0.338 C 
ATOM     39  O   UNL     1       0.543   4.727  -4.137  1.00  0.00    -0.246 OA
BRANCH  38  40
ATOM     40  C   UNL     1       2.645   5.657  -3.472  1.00  0.00     0.060 A 
ATOM     41  C   UNL     1       2.146   6.386  -2.376  1.00  0.00     0.016 A 
ATOM     42  C   UNL     1       3.967   5.832  -3.863  1.00  0.00     0.016 A 
ATOM     43  C   UNL     1       2.963   7.281  -1.665  1.00  0.00     0.010 A 
ATOM     44  C   UNL     1       4.773   6.734  -3.163  1.00  0.00     0.010 A 
ATOM     45  C   UNL     1       4.284   7.479  -2.069  1.00  0.00    -0.014 A 
BRANCH  45  46
ATOM     46  C   UNL     1       5.087   8.662  -1.643  1.00  0.00     0.031 A 
ATOM     47  C   UNL     1       5.204   9.766  -2.661  1.00  0.00     0.074 A 
ATOM     48  C   UNL     1       5.776   8.750  -0.488  1.00  0.00     0.049 A 
ATOM     49  N   UNL     1       5.994  10.805  -2.679  1.00  0.00    -0.248 NA
ATOM     50  C   UNL     1       4.319   9.655  -3.837  1.00  0.00     0.031 C 
ATOM     51  C   UNL     1       5.723   7.807   0.622  1.00  0.00     0.029 A 
ATOM     52  N   UNL     1       6.712   9.675  -0.079  1.00  0.00    -0.354 N 
ATOM     53  C   UNL     1       5.696  11.465  -3.863  1.00  0.00     0.074 A 
ATOM     54  C   UNL     1       4.745  10.655  -4.587  1.00  0.00     0.031 C 
ATOM     55  C   UNL     1       6.660   8.132   1.534  1.00  0.00     0.029 A 
ATOM     56  C   UNL     1       7.354   9.338   1.094  1.00  0.00     0.049 A 
ATOM     57  H   UNL     1       6.904  10.501  -0.579  1.00  0.00     0.167 HD
ATOM     58  C   UNL     1       6.112  12.678  -4.288  1.00  0.00     0.031 A 
ATOM     59  C   UNL     1       8.378   9.940   1.735  1.00  0.00     0.031 A 
ATOM     60  C   UNL     1       7.026  13.507  -3.564  1.00  0.00     0.049 A 
ATOM     61  C   UNL     1       8.909  11.249   1.199  1.00  0.00     0.074 A 
ATOM     62  C   UNL     1       7.471  14.776  -3.878  1.00  0.00     0.029 A 
ATOM     63  N   UNL     1       7.625  13.148  -2.368  1.00  0.00    -0.354 N 
ATOM     64  N   UNL     1       8.553  11.904   0.119  1.00  0.00    -0.248 NA
ATOM     65  C   UNL     1       9.940  11.931   1.999  1.00  0.00     0.031 C 
ATOM     66  C   UNL     1       8.361  15.180  -2.878  1.00  0.00     0.029 A 
ATOM     67  C   UNL     1       8.437  14.174  -1.926  1.00  0.00     0.049 A 
ATOM     68  H   UNL     1       7.493  12.290  -1.903  1.00  0.00     0.167 HD
ATOM     69  C   UNL     1       9.254  13.106   0.156  1.00  0.00     0.074 A 
ATOM     70  C   UNL     1      10.072  13.079   1.349  1.00  0.00     0.031 C 
ATOM     71  C   UNL     1       9.205  14.149  -0.709  1.00  0.00     0.031 A 
BRANCH  58  72
ATOM     72  C   UNL     1       5.512  13.175  -5.570  1.00  0.00    -0.014 A 
ATOM     73  C   UNL     1       4.151  13.534  -5.617  1.00  0.00     0.010 A 
ATOM     74  C   UNL     1       6.285  13.243  -6.739  1.00  0.00     0.010 A 
ATOM     75  C   UNL     1       3.557  13.894  -6.825  1.00  0.00     0.020 A 
ATOM     76  C   UNL     1       5.700  13.634  -7.946  1.00  0.00     0.020 A 
ATOM     77  C   UNL     1       4.335  13.934  -7.985  1.00  0.00     0.054 A 
BRANCH  77  78
ATOM     78  S   UNL     1       3.538  14.406  -9.542  1.00  0.00     0.124 S 
ATOM     79  O   UNL     1       2.792  13.196  -9.877  1.00  0.00    -0.237 OA
ATOM     80  O   UNL     1       2.725  15.556  -9.151  1.00  0.00    -0.237 OA
ATOM     81  O   UNL     1       4.660  14.713 -10.425  1.00  0.00    -0.744 OA
ENDBRANCH  77  78
ENDBRANCH  58  72
BRANCH  59  82
ATOM     82  C   UNL     1       8.957   9.369   2.987  1.00  0.00    -0.014 A 
ATOM     83  C   UNL     1       8.715   9.985   4.229  1.00  0.00     0.010 A 
ATOM     84  C   UNL     1       9.830   8.267   2.936  1.00  0.00     0.010 A 
ATOM     85  C   UNL     1       9.372   9.546   5.385  1.00  0.00     0.020 A 
ATOM     86  C   UNL     1      10.474   7.811   4.095  1.00  0.00     0.020 A 
ATOM     87  C   UNL     1      10.257   8.467   5.308  1.00  0.00     0.054 A 
BRANCH  87  88
ATOM     88  S   UNL     1      11.112   7.930   6.819  1.00  0.00     0.124 S 
ATOM     89  O   UNL     1      12.073   9.009   7.024  1.00  0.00    -0.237 OA
ATOM     90  O   UNL     1      10.023   7.860   7.790  1.00  0.00    -0.237 OA
ATOM     91  O   UNL     1      11.688   6.641   6.446  1.00  0.00    -0.744 OA
ENDBRANCH  87  88
ENDBRANCH  59  82
BRANCH  71  92
ATOM     92  C   UNL     1       9.973  15.393  -0.359  1.00  0.00    -0.014 A 
ATOM     93  C   UNL     1      11.369  15.457  -0.495  1.00  0.00     0.010 A 
ATOM     94  C   UNL     1       9.262  16.549   0.017  1.00  0.00     0.010 A 
ATOM     95  C   UNL     1      12.043  16.656  -0.249  1.00  0.00     0.020 A 
ATOM     96  C   UNL     1       9.929  17.754   0.238  1.00  0.00     0.020 A 
ATOM     97  C   UNL     1      11.319  17.798   0.111  1.00  0.00     0.054 A 
BRANCH  97  98
ATOM     98  S   UNL     1      12.207  19.363   0.342  1.00  0.00     0.124 S 
ATOM     99  O   UNL     1      12.827  19.169   1.650  1.00  0.00    -0.237 OA
ATOM    100  O   UNL     1      13.126  19.382  -0.793  1.00  0.00    -0.237 OA
ATOM    101  O   UNL     1      11.150  20.371   0.296  1.00  0.00    -0.744 OA
ENDBRANCH  97  98
ENDBRANCH  71  92
ENDBRANCH  45  46
ENDBRANCH  38  40
ENDBRANCH  37  38
ENDBRANCH   1  37
TORSDOF 15
