REMARK SMILES C=C(C)COc1ccc2c(C)c(CC(=O)OCCOC(=O)c3ccc(-c4c5nc(c(-c6ccc(S(=O)(=O)[O-])cc6)c6ccc([nH]6)c(-c6ccc(S(=O)(=O)[O-])cc6)c6nc(c(-c7ccc(S(=O)(=O)[O-])cc7)c7ccc4[nH]7)C=C6)C=C5)cc3)c(=O)oc2c1
REMARK SMILES IDX 17 1 16 2 14 3 15 4 13 5 12 6 6 7 7 8 86 9 8 10 85 11 9 12
REMARK SMILES IDX 84 13 10 14 82 15 11 16 83 17 5 18 4 19 2 20 1 21 3 22 18 23
REMARK SMILES IDX 19 24 20 25 21 26 22 27 23 28 81 29 24 30 80 31 25 32 26 33
REMARK SMILES IDX 27 34 74 35 28 36 79 37 73 38 75 39 29 40 78 41 72 42 71 43
REMARK SMILES IDX 30 45 60 46 41 47 59 48 42 49 45 50 58 51 76 52 43 53 44 54
REMARK SMILES IDX 57 56 77 57 46 58 31 59 32 60 40 61 33 62 39 63 34 64 35 65
REMARK SMILES IDX 36 66 37 67 38 68 61 69 62 70 70 71 63 72 69 73 64 74 65 75
REMARK SMILES IDX 66 76 67 77 68 78 47 79 48 80 56 81 49 82 55 83 50 84 51 85
REMARK SMILES IDX 52 86 53 87 54 88
REMARK H PARENT 75 44 45 55
REMARK Flexibility Score: inf
ROOT
ATOM      1  C   UNL     1       0.143  -4.051   8.999  1.00  0.00     0.274 C 
ENDROOT
BRANCH   1   2
ATOM      2  O   UNL     1      -0.511  -3.176   8.059  1.00  0.00    -0.462 OA
BRANCH   2   3
ATOM      3  C   UNL     1      -1.838  -2.960   8.266  1.00  0.00     0.310 C 
ATOM      4  O   UNL     1      -2.508  -3.509   9.134  1.00  0.00    -0.252 OA
BRANCH   3   5
ATOM      5  C   UNL     1      -2.426  -1.887   7.361  1.00  0.00     0.166 C 
BRANCH   5   6
ATOM      6  C   UNL     1      -1.467  -1.317   6.343  1.00  0.00     0.052 A 
ATOM      7  C   UNL     1       1.492   1.047   3.019  1.00  0.00     0.123 A 
ATOM      8  C   UNL     1       1.525   1.847   4.156  1.00  0.00     0.047 A 
ATOM      9  C   UNL     1       0.834  -0.175   3.039  1.00  0.00     0.094 A 
ATOM     10  C   UNL     1       0.799   1.466   5.290  1.00  0.00     0.016 A 
ATOM     11  C   UNL     1       0.115  -0.534   4.174  1.00  0.00     0.142 A 
ATOM     12  C   UNL     1       0.041   0.283   5.299  1.00  0.00     0.021 A 
ATOM     13  O   UNL     1      -0.540  -1.770   4.117  1.00  0.00    -0.422 OA
ATOM     14  C   UNL     1      -0.856  -0.112   6.402  1.00  0.00    -0.029 A 
ATOM     15  C   UNL     1      -1.264  -2.241   5.193  1.00  0.00     0.340 A 
ATOM     16  C   UNL     1      -1.055   0.902   7.498  1.00  0.00     0.046 C 
ATOM     17  O   UNL     1      -1.758  -3.365   5.176  1.00  0.00    -0.246 OA
BRANCH   7  18
ATOM     18  O   UNL     1       2.128   1.459   1.880  1.00  0.00    -0.489 OA
BRANCH  18  19
ATOM     19  C   UNL     1       1.205   2.153   1.018  1.00  0.00     0.260 C 
BRANCH  19  20
ATOM     20  C   UNL     1       0.473   1.198   0.096  1.00  0.00    -0.043 C 
ATOM     21  C   UNL     1       1.112   0.256  -0.619  1.00  0.00     0.011 C 
ATOM     22  C   UNL     1      -1.022   1.335   0.064  1.00  0.00     0.042 C 
ENDBRANCH  19  20
ENDBRANCH  18  19
ENDBRANCH   7  18
ENDBRANCH   5   6
ENDBRANCH   3   5
ENDBRANCH   2   3
ENDBRANCH   1   2
BRANCH   1  23
ATOM     23  C   UNL     1       1.033  -3.224   9.923  1.00  0.00     0.275 C 
BRANCH  23  24
ATOM     24  O   UNL     1       0.230  -2.211  10.554  1.00  0.00    -0.458 OA
BRANCH  24  25
ATOM     25  C   UNL     1       0.796  -0.987  10.652  1.00  0.00     0.338 C 
ATOM     26  O   UNL     1       1.948  -0.689  10.370  1.00  0.00    -0.246 OA
BRANCH  25  27
ATOM     27  C   UNL     1      -0.197  -0.004  11.142  1.00  0.00     0.060 A 
ATOM     28  C   UNL     1      -1.545  -0.100  10.789  1.00  0.00     0.016 A 
ATOM     29  C   UNL     1       0.243   1.087  11.895  1.00  0.00     0.016 A 
ATOM     30  C   UNL     1      -2.430   0.929  11.118  1.00  0.00     0.010 A 
ATOM     31  C   UNL     1      -0.669   2.065  12.310  1.00  0.00     0.010 A 
ATOM     32  C   UNL     1      -2.013   2.014  11.905  1.00  0.00    -0.014 A 
BRANCH  32  33
ATOM     33  C   UNL     1      -2.980   3.073  12.322  1.00  0.00     0.031 A 
ATOM     34  C   UNL     1      -2.734   4.526  11.995  1.00  0.00     0.074 A 
ATOM     35  C   UNL     1      -4.082   2.736  13.024  1.00  0.00     0.049 A 
ATOM     36  N   UNL     1      -3.393   5.584  12.400  1.00  0.00    -0.248 NA
ATOM     37  C   UNL     1      -1.593   4.835  11.117  1.00  0.00     0.031 C 
ATOM     38  C   UNL     1      -4.453   1.375  13.423  1.00  0.00     0.029 A 
ATOM     39  N   UNL     1      -5.095   3.514  13.529  1.00  0.00    -0.354 N 
ATOM     40  C   UNL     1      -2.715   6.682  11.880  1.00  0.00     0.074 A 
ATOM     41  C   UNL     1      -1.595   6.162  11.123  1.00  0.00     0.031 C 
ATOM     42  C   UNL     1      -5.627   1.409  14.070  1.00  0.00     0.029 A 
ATOM     43  C   UNL     1      -6.055   2.797  14.204  1.00  0.00     0.049 A 
ATOM     44  H   UNL     1      -5.131   4.491  13.418  1.00  0.00     0.167 HD
ATOM     45  C   UNL     1      -2.993   8.001  12.024  1.00  0.00     0.031 A 
ATOM     46  C   UNL     1      -7.143   3.199  14.889  1.00  0.00     0.031 A 
ATOM     47  C   UNL     1      -4.133   8.525  12.731  1.00  0.00     0.049 A 
ATOM     48  C   UNL     1      -7.442   4.663  15.012  1.00  0.00     0.074 A 
ATOM     49  C   UNL     1      -4.517   9.848  12.880  1.00  0.00     0.029 A 
ATOM     50  N   UNL     1      -5.076   7.760  13.396  1.00  0.00    -0.354 N 
ATOM     51  N   UNL     1      -6.776   5.681  14.524  1.00  0.00    -0.248 NA
ATOM     52  C   UNL     1      -8.633   5.031  15.790  1.00  0.00     0.031 C 
ATOM     53  C   UNL     1      -5.676   9.884  13.664  1.00  0.00     0.029 A 
ATOM     54  C   UNL     1      -6.032   8.582  13.971  1.00  0.00     0.049 A 
ATOM     55  H   UNL     1      -5.068   6.777  13.453  1.00  0.00     0.167 HD
ATOM     56  C   UNL     1      -7.463   6.813  14.945  1.00  0.00     0.074 A 
ATOM     57  C   UNL     1      -8.612   6.354  15.698  1.00  0.00     0.031 C 
ATOM     58  C   UNL     1      -7.159   8.117  14.735  1.00  0.00     0.031 A 
BRANCH  45  59
ATOM     59  C   UNL     1      -2.028   8.989  11.427  1.00  0.00    -0.014 A 
ATOM     60  C   UNL     1      -2.012   9.256  10.047  1.00  0.00     0.010 A 
ATOM     61  C   UNL     1      -1.172   9.715  12.277  1.00  0.00     0.010 A 
ATOM     62  C   UNL     1      -1.138  10.214   9.524  1.00  0.00     0.020 A 
ATOM     63  C   UNL     1      -0.311  10.687  11.760  1.00  0.00     0.020 A 
ATOM     64  C   UNL     1      -0.290  10.921  10.383  1.00  0.00     0.054 A 
BRANCH  64  65
ATOM     65  S   UNL     1       0.807  12.187   9.687  1.00  0.00     0.124 S 
ATOM     66  O   UNL     1       1.876  11.373   9.113  1.00  0.00    -0.237 OA
ATOM     67  O   UNL     1      -0.053  12.864   8.720  1.00  0.00    -0.237 OA
ATOM     68  O   UNL     1       1.188  12.990  10.846  1.00  0.00    -0.744 OA
ENDBRANCH  64  65
ENDBRANCH  45  59
BRANCH  46  69
ATOM     69  C   UNL     1      -8.003   2.187  15.555  1.00  0.00    -0.014 A 
ATOM     70  C   UNL     1      -9.262   1.861  15.025  1.00  0.00     0.010 A 
ATOM     71  C   UNL     1      -7.543   1.516  16.703  1.00  0.00     0.010 A 
ATOM     72  C   UNL     1     -10.050   0.879  15.633  1.00  0.00     0.020 A 
ATOM     73  C   UNL     1      -8.317   0.517  17.298  1.00  0.00     0.020 A 
ATOM     74  C   UNL     1      -9.570   0.211  16.764  1.00  0.00     0.054 A 
BRANCH  74  75
ATOM     75  S   UNL     1     -10.562  -1.121  17.494  1.00  0.00     0.124 S 
ATOM     76  O   UNL     1     -11.481  -0.379  18.349  1.00  0.00    -0.237 OA
ATOM     77  O   UNL     1     -11.160  -1.758  16.323  1.00  0.00    -0.237 OA
ATOM     78  O   UNL     1      -9.569  -1.934  18.193  1.00  0.00    -0.744 OA
ENDBRANCH  74  75
ENDBRANCH  46  69
BRANCH  58  79
ATOM     79  C   UNL     1      -8.090   9.135  15.331  1.00  0.00    -0.014 A 
ATOM     80  C   UNL     1      -8.062   9.412  16.709  1.00  0.00     0.010 A 
ATOM     81  C   UNL     1      -8.995   9.825  14.507  1.00  0.00     0.010 A 
ATOM     82  C   UNL     1      -8.954  10.335  17.261  1.00  0.00     0.020 A 
ATOM     83  C   UNL     1      -9.876  10.762  15.053  1.00  0.00     0.020 A 
ATOM     84  C   UNL     1      -9.863  10.997  16.430  1.00  0.00     0.054 A 
BRANCH  84  85
ATOM     85  S   UNL     1     -11.010  12.198  17.160  1.00  0.00     0.124 S 
ATOM     86  O   UNL     1     -12.049  11.330  17.707  1.00  0.00    -0.237 OA
ATOM     87  O   UNL     1     -10.179  12.883  18.148  1.00  0.00    -0.237 OA
ATOM     88  O   UNL     1     -11.417  13.019  16.022  1.00  0.00    -0.744 OA
ENDBRANCH  84  85
ENDBRANCH  58  79
ENDBRANCH  32  33
ENDBRANCH  25  27
ENDBRANCH  24  25
ENDBRANCH  23  24
ENDBRANCH   1  23
TORSDOF 18
