REMARK SMILES CC(C)COc1cccc(N2C[C@@H](C(=O)OCCOC(=O)c3ccc(-c4c5nc(c(-c6ccc(S(=O)(=O)[O-])cc6)c6ccc([nH]6)c(-c6ccc(S(=O)(=O)[O-])cc6)c6nc(c(-c7ccc(S(=O)(=O)[O-])cc7)c7ccc4[nH]7)C=C6)C=C5)cc3)CC2=O)c1
REMARK SMILES IDX 17 1 16 2 14 3 15 4 13 5 11 6 12 7 83 8 82 9 84 10 10 11
REMARK SMILES IDX 6 12 7 13 85 14 8 15 9 16 5 17 4 18 2 19 1 20 3 21 18 22
REMARK SMILES IDX 19 23 20 24 21 25 22 26 23 27 81 28 24 29 80 30 25 31 26 32
REMARK SMILES IDX 27 33 74 34 28 35 79 36 73 37 75 38 29 39 78 40 72 41 71 42
REMARK SMILES IDX 30 44 60 45 41 46 59 47 42 48 45 49 58 50 76 51 43 52 44 53
REMARK SMILES IDX 57 55 77 56 46 57 31 58 32 59 40 60 33 61 39 62 34 63 35 64
REMARK SMILES IDX 36 65 37 66 38 67 61 68 62 69 70 70 63 71 69 72 64 73 65 74
REMARK SMILES IDX 66 75 67 76 68 77 47 78 48 79 56 80 49 81 55 82 50 83 51 84
REMARK SMILES IDX 52 85 53 86 54 87
REMARK H PARENT 75 43 45 54
REMARK Flexibility Score: inf
ROOT
ATOM      1  C   UNL     1       5.575  -1.063  -5.031  1.00  0.00     0.274 C 
ENDROOT
BRANCH   1   2
ATOM      2  O   UNL     1       4.855  -1.545  -3.879  1.00  0.00    -0.462 OA
BRANCH   2   3
ATOM      3  C   UNL     1       3.793  -2.353  -4.112  1.00  0.00     0.311 C 
ATOM      4  O   UNL     1       3.308  -2.571  -5.216  1.00  0.00    -0.252 OA
BRANCH   3   5
ATOM      5  C   UNL     1       3.285  -3.030  -2.865  1.00  0.00     0.128 C 
ATOM      6  N   UNL     1       1.520  -2.917  -1.341  1.00  0.00    -0.311 N 
ATOM      7  C   UNL     1       1.791  -2.828  -2.756  1.00  0.00     0.141 C 
ATOM      8  C   UNL     1       2.693  -2.776  -0.589  1.00  0.00     0.227 C 
ATOM      9  C   UNL     1       3.835  -2.541  -1.540  1.00  0.00     0.117 C 
ATOM     10  O   UNL     1       2.829  -2.771   0.625  1.00  0.00    -0.274 OA
BRANCH   6  11
ATOM     11  C   UNL     1       0.199  -2.779  -0.847  1.00  0.00     0.047 A 
ATOM     12  C   UNL     1      -1.281  -1.565   0.614  1.00  0.00     0.121 A 
ATOM     13  C   UNL     1      -2.390  -1.948  -0.131  1.00  0.00     0.046 A 
ATOM     14  C   UNL     1      -0.021  -2.084   0.340  1.00  0.00     0.072 A 
ATOM     15  C   UNL     1      -2.206  -2.773  -1.236  1.00  0.00     0.006 A 
ATOM     16  C   UNL     1      -0.913  -3.148  -1.619  1.00  0.00     0.026 A 
BRANCH  12  17
ATOM     17  O   UNL     1      -1.393  -0.602   1.581  1.00  0.00    -0.493 OA
BRANCH  17  18
ATOM     18  C   UNL     1      -1.148   0.715   1.028  1.00  0.00     0.232 C 
BRANCH  18  19
ATOM     19  C   UNL     1       0.357   1.072   0.957  1.00  0.00     0.020 C 
ATOM     20  C   UNL     1       0.930   0.926  -0.463  1.00  0.00     0.011 C 
ATOM     21  C   UNL     1       0.604   2.509   1.421  1.00  0.00     0.011 C 
ENDBRANCH  18  19
ENDBRANCH  17  18
ENDBRANCH  12  17
ENDBRANCH   6  11
ENDBRANCH   3   5
ENDBRANCH   2   3
ENDBRANCH   1   2
BRANCH   1  22
ATOM     22  C   UNL     1       6.936  -1.758  -5.132  1.00  0.00     0.275 C 
BRANCH  22  23
ATOM     23  O   UNL     1       6.794  -3.158  -5.441  1.00  0.00    -0.458 OA
BRANCH  23  24
ATOM     24  C   UNL     1       6.682  -3.969  -4.365  1.00  0.00     0.338 C 
ATOM     25  O   UNL     1       6.691  -3.642  -3.188  1.00  0.00    -0.246 OA
BRANCH  24  26
ATOM     26  C   UNL     1       6.411  -5.344  -4.795  1.00  0.00     0.060 A 
ATOM     27  C   UNL     1       5.116  -5.839  -4.636  1.00  0.00     0.016 A 
ATOM     28  C   UNL     1       7.443  -6.182  -5.211  1.00  0.00     0.016 A 
ATOM     29  C   UNL     1       4.854  -7.189  -4.816  1.00  0.00     0.010 A 
ATOM     30  C   UNL     1       7.167  -7.532  -5.451  1.00  0.00     0.010 A 
ATOM     31  C   UNL     1       5.877  -8.049  -5.227  1.00  0.00    -0.014 A 
BRANCH  31  32
ATOM     32  C   UNL     1       5.597  -9.495  -5.388  1.00  0.00     0.031 A 
ATOM     33  C   UNL     1       6.230 -10.489  -4.456  1.00  0.00     0.074 A 
ATOM     34  C   UNL     1       4.753  -9.909  -6.352  1.00  0.00     0.049 A 
ATOM     35  N   UNL     1       6.218 -11.795  -4.514  1.00  0.00    -0.248 NA
ATOM     36  C   UNL     1       6.977  -9.942  -3.312  1.00  0.00     0.031 C 
ATOM     37  C   UNL     1       4.022  -9.034  -7.273  1.00  0.00     0.029 A 
ATOM     38  N   UNL     1       4.364 -11.172  -6.714  1.00  0.00    -0.354 N 
ATOM     39  C   UNL     1       6.990 -12.227  -3.442  1.00  0.00     0.074 A 
ATOM     40  C   UNL     1       7.454 -11.044  -2.750  1.00  0.00     0.031 C 
ATOM     41  C   UNL     1       3.263  -9.787  -8.083  1.00  0.00     0.029 A 
ATOM     42  C   UNL     1       3.505 -11.195  -7.786  1.00  0.00     0.049 A 
ATOM     43  H   UNL     1       4.670 -11.985  -6.251  1.00  0.00     0.167 HD
ATOM     44  C   UNL     1       7.288 -13.496  -3.075  1.00  0.00     0.031 A 
ATOM     45  C   UNL     1       2.999 -12.232  -8.480  1.00  0.00     0.031 A 
ATOM     46  C   UNL     1       6.809 -14.667  -3.761  1.00  0.00     0.049 A 
ATOM     47  C   UNL     1       3.385 -13.629  -8.087  1.00  0.00     0.074 A 
ATOM     48  C   UNL     1       7.062 -15.997  -3.478  1.00  0.00     0.029 A 
ATOM     49  N   UNL     1       5.967 -14.645  -4.863  1.00  0.00    -0.354 N 
ATOM     50  N   UNL     1       4.161 -14.021  -7.105  1.00  0.00    -0.248 NA
ATOM     51  C   UNL     1       2.838 -14.721  -8.902  1.00  0.00     0.031 C 
ATOM     52  C   UNL     1       6.401 -16.780  -4.431  1.00  0.00     0.029 A 
ATOM     53  C   UNL     1       5.701 -15.938  -5.281  1.00  0.00     0.049 A 
ATOM     54  H   UNL     1       5.611 -13.831  -5.286  1.00  0.00     0.167 HD
ATOM     55  C   UNL     1       4.186 -15.408  -7.176  1.00  0.00     0.074 A 
ATOM     56  C   UNL     1       3.337 -15.786  -8.288  1.00  0.00     0.031 C 
ATOM     57  C   UNL     1       4.854 -16.290  -6.392  1.00  0.00     0.031 A 
BRANCH  44  58
ATOM     58  C   UNL     1       8.221 -13.675  -1.909  1.00  0.00    -0.014 A 
ATOM     59  C   UNL     1       7.793 -13.458  -0.587  1.00  0.00     0.010 A 
ATOM     60  C   UNL     1       9.548 -14.079  -2.143  1.00  0.00     0.010 A 
ATOM     61  C   UNL     1       8.689 -13.600   0.477  1.00  0.00     0.020 A 
ATOM     62  C   UNL     1      10.441 -14.242  -1.080  1.00  0.00     0.020 A 
ATOM     63  C   UNL     1      10.010 -13.982   0.222  1.00  0.00     0.054 A 
BRANCH  63  64
ATOM     64  S   UNL     1      11.158 -14.159   1.617  1.00  0.00     0.124 S 
ATOM     65  O   UNL     1      11.485 -12.767   1.914  1.00  0.00    -0.237 OA
ATOM     66  O   UNL     1      10.345 -14.842   2.621  1.00  0.00    -0.237 OA
ATOM     67  O   UNL     1      12.253 -14.952   1.063  1.00  0.00    -0.744 OA
ENDBRANCH  63  64
ENDBRANCH  44  58
BRANCH  45  68
ATOM     68  C   UNL     1       2.108 -11.975  -9.642  1.00  0.00    -0.014 A 
ATOM     69  C   UNL     1       0.732 -12.243  -9.561  1.00  0.00     0.010 A 
ATOM     70  C   UNL     1       2.632 -11.422 -10.826  1.00  0.00     0.010 A 
ATOM     71  C   UNL     1      -0.107 -11.964 -10.644  1.00  0.00     0.020 A 
ATOM     72  C   UNL     1       1.794 -11.121 -11.901  1.00  0.00     0.020 A 
ATOM     73  C   UNL     1       0.429 -11.402 -11.807  1.00  0.00     0.054 A 
BRANCH  73  74
ATOM     74  S   UNL     1      -0.685 -10.976 -13.174  1.00  0.00     0.124 S 
ATOM     75  O   UNL     1      -0.906 -12.275 -13.800  1.00  0.00    -0.237 OA
ATOM     76  O   UNL     1      -1.836 -10.401 -12.482  1.00  0.00    -0.237 OA
ATOM     77  O   UNL     1       0.095 -10.023 -13.963  1.00  0.00    -0.744 OA
ENDBRANCH  73  74
ENDBRANCH  45  68
BRANCH  57  78
ATOM     78  C   UNL     1       4.669 -17.750  -6.694  1.00  0.00    -0.014 A 
ATOM     79  C   UNL     1       5.323 -18.352  -7.783  1.00  0.00     0.010 A 
ATOM     80  C   UNL     1       3.868 -18.537  -5.848  1.00  0.00     0.010 A 
ATOM     81  C   UNL     1       5.159 -19.716  -8.034  1.00  0.00     0.020 A 
ATOM     82  C   UNL     1       3.718 -19.904  -6.085  1.00  0.00     0.020 A 
ATOM     83  C   UNL     1       4.354 -20.483  -7.185  1.00  0.00     0.054 A 
BRANCH  83  84
ATOM     84  S   UNL     1       4.190 -22.262  -7.503  1.00  0.00     0.124 S 
ATOM     85  O   UNL     1       3.231 -22.285  -8.603  1.00  0.00    -0.237 OA
ATOM     86  O   UNL     1       5.553 -22.657  -7.849  1.00  0.00    -0.237 OA
ATOM     87  O   UNL     1       3.698 -22.794  -6.234  1.00  0.00    -0.744 OA
ENDBRANCH  83  84
ENDBRANCH  57  78
ENDBRANCH  31  32
ENDBRANCH  24  26
ENDBRANCH  23  24
ENDBRANCH  22  23
ENDBRANCH   1  22
TORSDOF 18
