REMARK SMILES Cc1c(CC(=O)OCCOC(=O)c2ccc(-c3c4nc(c(-c5ccc(S(=O)(=O)[O-])cc5)c5ccc([nH]5)c(-c5ccc(S(=O)(=O)[O-])cc5)c5nc(c(-c6ccc(S(=O)(=O)[O-])cc6)c6ccc3[nH]6)C=C5)C=C4)cc2)cccc1-c1ccn(C(F)F)c(=O)c1
REMARK SMILES IDX 8 1 7 2 5 3 6 4 4 5 3 6 1 7 2 8 76 9 73 10 75 11 74 12 77 13
REMARK SMILES IDX 78 14 86 15 79 16 84 17 80 18 85 19 81 20 82 21 83 22 9 23
REMARK SMILES IDX 10 24 11 25 12 26 13 27 14 28 72 29 15 30 71 31 16 32 17 33
REMARK SMILES IDX 18 34 65 35 19 36 70 37 64 38 66 39 20 40 69 41 63 42 62 43
REMARK SMILES IDX 21 45 51 46 32 47 50 48 33 49 36 50 49 51 67 52 34 53 35 54
REMARK SMILES IDX 48 56 68 57 37 58 22 59 23 60 31 61 24 62 30 63 25 64 26 65
REMARK SMILES IDX 27 66 28 67 29 68 52 69 53 70 61 71 54 72 60 73 55 74 56 75
REMARK SMILES IDX 57 76 58 77 59 78 38 79 39 80 47 81 40 82 46 83 41 84 42 85
REMARK SMILES IDX 43 86 44 87 45 88
REMARK H PARENT 66 44 36 55
REMARK Flexibility Score: inf
ROOT
ATOM      1  C   UNL     1      -0.543  -4.234   4.355  1.00  0.00     0.274 C 
ENDROOT
BRANCH   1   2
ATOM      2  O   UNL     1       0.405  -3.452   3.602  1.00  0.00    -0.462 OA
BRANCH   2   3
ATOM      3  C   UNL     1       0.473  -3.736   2.182  1.00  0.00     0.310 C 
ATOM      4  O   UNL     1       0.182  -4.965   2.086  1.00  0.00    -0.252 OA
BRANCH   3   5
ATOM      5  C   UNL     1       0.962  -2.281   0.641  1.00  0.00     0.158 C 
BRANCH   5   6
ATOM      6  C   UNL     1       0.291  -0.785   0.124  1.00  0.00    -0.033 A 
ATOM      7  C   UNL     1       2.535   0.416   0.397  1.00  0.00     0.045 C 
ATOM      8  C   UNL     1       1.041   0.422   0.171  1.00  0.00    -0.039 A 
ATOM      9  C   UNL     1       0.363   1.638  -0.082  1.00  0.00    -0.015 A 
ATOM     10  C   UNL     1      -0.972  -0.752  -0.509  1.00  0.00     0.004 A 
ATOM     11  C   UNL     1      -0.988   1.641  -0.454  1.00  0.00     0.009 A 
ATOM     12  C   UNL     1      -1.636   0.447  -0.718  1.00  0.00     0.001 A 
BRANCH   9  13
ATOM     13  C   UNL     1       1.061   2.932  -0.029  1.00  0.00    -0.011 A 
ATOM     14  C   UNL     1       1.869   3.403  -1.135  1.00  0.00     0.027 A 
ATOM     15  C   UNL     1       1.018   3.632   1.116  1.00  0.00     0.080 A 
ATOM     16  C   UNL     1       2.669   4.461  -0.976  1.00  0.00     0.095 A 
ATOM     17  C   UNL     1       1.838   4.863   1.272  1.00  0.00     0.255 A 
ATOM     18  N   UNL     1       2.684   5.163   0.214  1.00  0.00    -0.258 N 
ATOM     19  O   UNL     1       1.736   5.509   2.310  1.00  0.00    -0.269 OA
BRANCH  18  20
ATOM     20  C   UNL     1       3.600   6.255   0.402  1.00  0.00     0.451 C 
ATOM     21  F   UNL     1       2.939   7.427   0.563  1.00  0.00    -0.185 F 
ATOM     22  F   UNL     1       4.380   6.057   1.491  1.00  0.00    -0.185 F 
ENDBRANCH  18  20
ENDBRANCH   9  13
ENDBRANCH   5   6
ENDBRANCH   3   5
ENDBRANCH   2   3
ENDBRANCH   1   2
BRANCH   1  23
ATOM     23  C   UNL     1      -1.937  -3.627   4.145  1.00  0.00     0.275 C 
BRANCH  23  24
ATOM     24  O   UNL     1      -2.454  -3.796   2.801  1.00  0.00    -0.458 OA
BRANCH  24  25
ATOM     25  C   UNL     1      -2.391  -2.738   1.950  1.00  0.00     0.338 C 
ATOM     26  O   UNL     1      -3.287  -1.945   1.724  1.00  0.00    -0.246 OA
BRANCH  25  27
ATOM     27  C   UNL     1      -1.026  -2.603   1.404  1.00  0.00     0.060 A 
ATOM     28  C   UNL     1      -0.376  -3.860   0.280  1.00  0.00     0.016 A 
ATOM     29  C   UNL     1       0.090  -1.655   2.453  1.00  0.00     0.016 A 
ATOM     30  C   UNL     1       1.393  -4.319   0.369  1.00  0.00     0.010 A 
ATOM     31  C   UNL     1       1.824  -2.124   2.551  1.00  0.00     0.010 A 
ATOM     32  C   UNL     1       2.448  -3.511   1.576  1.00  0.00    -0.014 A 
BRANCH  32  33
ATOM     33  C   UNL     1       3.568  -4.161   2.240  1.00  0.00     0.031 A 
ATOM     34  C   UNL     1       4.845  -3.444   2.369  1.00  0.00     0.074 A 
ATOM     35  C   UNL     1       3.304  -5.255   2.995  1.00  0.00     0.049 A 
ATOM     36  N   UNL     1       5.929  -4.002   2.772  1.00  0.00    -0.248 NA
ATOM     37  C   UNL     1       5.041  -2.042   2.009  1.00  0.00     0.031 C 
ATOM     38  C   UNL     1       4.099  -5.816   4.084  1.00  0.00     0.029 A 
ATOM     39  N   UNL     1       2.286  -6.191   2.861  1.00  0.00    -0.354 N 
ATOM     40  C   UNL     1       6.811  -2.999   3.088  1.00  0.00     0.074 A 
ATOM     41  C   UNL     1       6.286  -1.824   2.445  1.00  0.00     0.031 C 
ATOM     42  C   UNL     1       3.726  -7.094   4.276  1.00  0.00     0.029 A 
ATOM     43  C   UNL     1       2.784  -7.437   3.223  1.00  0.00     0.049 A 
ATOM     44  H   UNL     1       1.367  -6.003   2.562  1.00  0.00     0.167 HD
ATOM     45  C   UNL     1       7.794  -3.268   3.990  1.00  0.00     0.031 A 
ATOM     46  C   UNL     1       2.929  -8.432   2.297  1.00  0.00     0.031 A 
ATOM     47  C   UNL     1       7.866  -4.708   4.272  1.00  0.00     0.049 A 
ATOM     48  C   UNL     1       4.405  -8.711   2.015  1.00  0.00     0.074 A 
ATOM     49  C   UNL     1       7.575  -5.514   5.358  1.00  0.00     0.029 A 
ATOM     50  N   UNL     1       7.978  -5.569   3.188  1.00  0.00    -0.354 N 
ATOM     51  N   UNL     1       5.394  -8.112   2.626  1.00  0.00    -0.248 NA
ATOM     52  C   UNL     1       4.893  -9.629   0.988  1.00  0.00     0.031 C 
ATOM     53  C   UNL     1       7.448  -6.862   4.883  1.00  0.00     0.029 A 
ATOM     54  C   UNL     1       7.723  -6.882   3.526  1.00  0.00     0.049 A 
ATOM     55  H   UNL     1       8.214  -5.275   2.279  1.00  0.00     0.167 HD
ATOM     56  C   UNL     1       6.593  -8.459   2.070  1.00  0.00     0.074 A 
ATOM     57  C   UNL     1       6.224  -9.424   1.045  1.00  0.00     0.031 C 
ATOM     58  C   UNL     1       7.778  -7.895   2.469  1.00  0.00     0.031 A 
BRANCH  45  59
ATOM     59  C   UNL     1       8.573  -2.211   4.742  1.00  0.00    -0.014 A 
ATOM     60  C   UNL     1       9.571  -2.604   5.655  1.00  0.00     0.010 A 
ATOM     61  C   UNL     1       8.314  -0.825   4.671  1.00  0.00     0.010 A 
ATOM     62  C   UNL     1      10.261  -1.672   6.451  1.00  0.00     0.020 A 
ATOM     63  C   UNL     1       9.015   0.119   5.435  1.00  0.00     0.020 A 
ATOM     64  C   UNL     1       9.979  -0.312   6.334  1.00  0.00     0.054 A 
BRANCH  64  65
ATOM     65  S   UNL     1      10.864   0.879   7.373  1.00  0.00     0.124 S 
ATOM     66  O   UNL     1      10.423   0.508   8.715  1.00  0.00    -0.237 OA
ATOM     67  O   UNL     1      12.261   0.592   7.064  1.00  0.00    -0.237 OA
ATOM     68  O   UNL     1      10.382   2.176   6.901  1.00  0.00    -0.744 OA
ENDBRANCH  64  65
ENDBRANCH  45  59
BRANCH  46  69
ATOM     69  C   UNL     1       1.771  -8.534   1.342  1.00  0.00    -0.014 A 
ATOM     70  C   UNL     1       0.517  -8.892   1.897  1.00  0.00     0.010 A 
ATOM     71  C   UNL     1       1.774  -7.946   0.066  1.00  0.00     0.010 A 
ATOM     72  C   UNL     1      -0.691  -8.535   1.278  1.00  0.00     0.020 A 
ATOM     73  C   UNL     1       0.558  -7.603  -0.569  1.00  0.00     0.020 A 
ATOM     74  C   UNL     1      -0.664  -7.851   0.066  1.00  0.00     0.054 A 
BRANCH  74  75
ATOM     75  S   UNL     1      -2.226  -7.160  -0.574  1.00  0.00     0.124 S 
ATOM     76  O   UNL     1      -2.990  -8.358  -0.905  1.00  0.00    -0.237 OA
ATOM     77  O   UNL     1      -2.729  -6.388   0.558  1.00  0.00    -0.237 OA
ATOM     78  O   UNL     1      -1.801  -6.354  -1.718  1.00  0.00    -0.744 OA
ENDBRANCH  74  75
ENDBRANCH  46  69
BRANCH  58  79
ATOM     79  C   UNL     1       9.126  -8.207   1.849  1.00  0.00    -0.014 A 
ATOM     80  C   UNL     1       9.478  -9.476   1.370  1.00  0.00     0.010 A 
ATOM     81  C   UNL     1      10.143  -7.221   1.827  1.00  0.00     0.010 A 
ATOM     82  C   UNL     1      10.744  -9.718   0.812  1.00  0.00     0.020 A 
ATOM     83  C   UNL     1      11.412  -7.452   1.295  1.00  0.00     0.020 A 
ATOM     84  C   UNL     1      11.697  -8.698   0.766  1.00  0.00     0.054 A 
BRANCH  84  85
ATOM     85  S   UNL     1      13.326  -9.029   0.057  1.00  0.00     0.124 S 
ATOM     86  O   UNL     1      13.720 -10.263   0.732  1.00  0.00    -0.237 OA
ATOM     87  O   UNL     1      13.015  -9.161  -1.364  1.00  0.00    -0.237 OA
ATOM     88  O   UNL     1      14.111  -7.850   0.415  1.00  0.00    -0.744 OA
ENDBRANCH  84  85
ENDBRANCH  58  79
ENDBRANCH  32  33
ENDBRANCH  25  27
ENDBRANCH  24  25
ENDBRANCH  23  24
ENDBRANCH   1  23
TORSDOF 17
