REMARK SMILES O=C(OCCOC(=O)[C@H]1Cc2[nH]cnc2CN1S(=O)(=O)c1cccs1)c1ccc(-c2c3nc(c(-c4ccc(S(=O)(=O)[O-])cc4)c4ccc([nH]4)c(-c4ccc(S(=O)(=O)[O-])cc4)c4nc(c(-c5ccc(S(=O)(=O)[O-])cc5)c5ccc2[nH]5)C=C4)C=C3)cc1
REMARK SMILES IDX 4 1 3 2 2 3 1 4 26 5 27 6 85 7 28 8 84 9 29 10 30 11 31 12
REMARK SMILES IDX 78 13 32 14 83 15 77 16 79 17 33 18 82 19 76 20 75 21 34 23
REMARK SMILES IDX 64 24 45 25 63 26 46 27 49 28 62 29 80 30 47 31 48 32 61 34
REMARK SMILES IDX 81 35 50 36 35 37 36 38 44 39 37 40 43 41 38 42 39 43 40 44
REMARK SMILES IDX 41 45 42 46 65 47 66 48 74 49 67 50 73 51 68 52 69 53 70 54
REMARK SMILES IDX 71 55 72 56 51 57 52 58 60 59 53 60 59 61 54 62 55 63 56 64
REMARK SMILES IDX 57 65 58 66 5 67 6 68 7 69 8 70 9 71 10 72 17 73 11 74 16 75
REMARK SMILES IDX 12 76 15 77 13 78 14 80 18 81 19 82 20 83 21 84 22 85 25 86
REMARK SMILES IDX 23 87 24 88
REMARK H PARENT 79 22 49 33 12 79
REMARK Flexibility Score: inf
ROOT
ATOM      1  C   UNL     1       4.669  -0.980   0.503  1.00  0.00     0.275 C 
ENDROOT
BRANCH   1   2
ATOM      2  O   UNL     1       3.340  -1.328   0.930  1.00  0.00    -0.458 OA
BRANCH   2   3
ATOM      3  C   UNL     1       2.272  -0.584   1.281  1.00  0.00     0.338 C 
ATOM      4  O   UNL     1       1.174  -1.136   1.361  1.00  0.00    -0.246 OA
BRANCH   3   5
ATOM      5  C   UNL     1       2.332   0.861   1.644  1.00  0.00     0.060 A 
ATOM      6  C   UNL     1       3.453   1.521   2.154  1.00  0.00     0.016 A 
ATOM      7  C   UNL     1       1.090   1.529   1.657  1.00  0.00     0.016 A 
ATOM      8  C   UNL     1       3.313   2.754   2.780  1.00  0.00     0.010 A 
ATOM      9  C   UNL     1       0.939   2.740   2.314  1.00  0.00     0.010 A 
ATOM     10  C   UNL     1       2.044   3.310   2.933  1.00  0.00    -0.014 A 
BRANCH  10  11
ATOM     11  C   UNL     1       1.910   4.548   3.685  1.00  0.00     0.031 A 
ATOM     12  C   UNL     1       2.397   5.743   2.950  1.00  0.00     0.074 A 
ATOM     13  C   UNL     1       1.269   4.619   4.872  1.00  0.00     0.049 A 
ATOM     14  N   UNL     1       3.435   6.469   3.205  1.00  0.00    -0.248 NA
ATOM     15  C   UNL     1       1.743   6.070   1.671  1.00  0.00     0.031 C 
ATOM     16  C   UNL     1       0.502   3.567   5.546  1.00  0.00     0.029 A 
ATOM     17  N   UNL     1       1.066   5.696   5.680  1.00  0.00    -0.354 N 
ATOM     18  C   UNL     1       3.399   7.509   2.280  1.00  0.00     0.074 A 
ATOM     19  C   UNL     1       2.482   7.096   1.250  1.00  0.00     0.031 C 
ATOM     20  C   UNL     1      -0.278   4.125   6.503  1.00  0.00     0.029 A 
ATOM     21  C   UNL     1       0.031   5.543   6.601  1.00  0.00     0.049 A 
ATOM     22  H   UNL     1       1.606   6.517   5.618  1.00  0.00     0.167 HD
ATOM     23  C   UNL     1       3.888   8.746   2.580  1.00  0.00     0.031 A 
ATOM     24  C   UNL     1      -0.565   6.523   7.334  1.00  0.00     0.031 A 
ATOM     25  C   UNL     1       4.766   8.710   3.722  1.00  0.00     0.049 A 
ATOM     26  C   UNL     1       0.359   7.685   7.343  1.00  0.00     0.074 A 
ATOM     27  C   UNL     1       5.905   7.998   4.050  1.00  0.00     0.029 A 
ATOM     28  N   UNL     1       4.274   9.193   4.913  1.00  0.00    -0.354 N 
ATOM     29  N   UNL     1       1.519   7.666   7.938  1.00  0.00    -0.248 NA
ATOM     30  C   UNL     1       0.213   8.676   6.287  1.00  0.00     0.031 C 
ATOM     31  C   UNL     1       5.730   7.650   5.422  1.00  0.00     0.029 A 
ATOM     32  C   UNL     1       4.557   8.256   5.872  1.00  0.00     0.049 A 
ATOM     33  H   UNL     1       3.807  10.048   5.050  1.00  0.00     0.167 HD
ATOM     34  C   UNL     1       2.376   8.307   7.056  1.00  0.00     0.074 A 
ATOM     35  C   UNL     1       1.500   8.978   6.093  1.00  0.00     0.031 C 
ATOM     36  C   UNL     1       3.706   7.998   7.011  1.00  0.00     0.031 A 
BRANCH  23  37
ATOM     37  C   UNL     1       3.211  10.023   2.130  1.00  0.00    -0.014 A 
ATOM     38  C   UNL     1       3.768  11.259   2.513  1.00  0.00     0.010 A 
ATOM     39  C   UNL     1       1.901  10.053   1.603  1.00  0.00     0.010 A 
ATOM     40  C   UNL     1       3.021  12.443   2.456  1.00  0.00     0.020 A 
ATOM     41  C   UNL     1       1.167  11.233   1.494  1.00  0.00     0.020 A 
ATOM     42  C   UNL     1       1.719  12.417   1.957  1.00  0.00     0.054 A 
BRANCH  42  43
ATOM     43  S   UNL     1       0.729  13.929   1.969  1.00  0.00     0.124 S 
ATOM     44  O   UNL     1       0.545  14.152   3.399  1.00  0.00    -0.237 OA
ATOM     45  O   UNL     1       1.608  14.873   1.284  1.00  0.00    -0.237 OA
ATOM     46  O   UNL     1      -0.473  13.553   1.229  1.00  0.00    -0.744 OA
ENDBRANCH  42  43
ENDBRANCH  23  37
BRANCH  24  47
ATOM     47  C   UNL     1      -1.994   6.649   7.739  1.00  0.00    -0.014 A 
ATOM     48  C   UNL     1      -2.413   7.629   8.663  1.00  0.00     0.010 A 
ATOM     49  C   UNL     1      -2.996   5.995   6.994  1.00  0.00     0.010 A 
ATOM     50  C   UNL     1      -3.771   7.985   8.786  1.00  0.00     0.020 A 
ATOM     51  C   UNL     1      -4.350   6.339   7.115  1.00  0.00     0.020 A 
ATOM     52  C   UNL     1      -4.730   7.351   7.992  1.00  0.00     0.054 A 
BRANCH  52  53
ATOM     53  S   UNL     1      -6.452   7.939   8.013  1.00  0.00     0.124 S 
ATOM     54  O   UNL     1      -6.915   7.505   9.328  1.00  0.00    -0.237 OA
ATOM     55  O   UNL     1      -6.300   9.381   7.842  1.00  0.00    -0.237 OA
ATOM     56  O   UNL     1      -7.066   7.246   6.881  1.00  0.00    -0.744 OA
ENDBRANCH  52  53
ENDBRANCH  24  47
BRANCH  36  57
ATOM     57  C   UNL     1       4.298   7.150   8.112  1.00  0.00    -0.014 A 
ATOM     58  C   UNL     1       3.869   5.846   8.431  1.00  0.00     0.010 A 
ATOM     59  C   UNL     1       5.442   7.654   8.754  1.00  0.00     0.010 A 
ATOM     60  C   UNL     1       4.549   5.085   9.396  1.00  0.00     0.020 A 
ATOM     61  C   UNL     1       6.134   6.896   9.699  1.00  0.00     0.020 A 
ATOM     62  C   UNL     1       5.677   5.620  10.027  1.00  0.00     0.054 A 
BRANCH  62  63
ATOM     63  S   UNL     1       6.567   4.636  11.264  1.00  0.00     0.124 S 
ATOM     64  O   UNL     1       5.604   4.558  12.359  1.00  0.00    -0.237 OA
ATOM     65  O   UNL     1       6.822   3.382  10.557  1.00  0.00    -0.237 OA
ATOM     66  O   UNL     1       7.762   5.430  11.547  1.00  0.00    -0.744 OA
ENDBRANCH  62  63
ENDBRANCH  36  57
ENDBRANCH  10  11
ENDBRANCH   3   5
ENDBRANCH   2   3
ENDBRANCH   1   2
BRANCH   1  67
ATOM     67  C   UNL     1       4.769  -0.647  -0.980  1.00  0.00     0.274 C 
BRANCH  67  68
ATOM     68  O   UNL     1       4.271   0.654  -1.335  1.00  0.00    -0.461 OA
BRANCH  68  69
ATOM     69  C   UNL     1       2.951   0.731  -1.645  1.00  0.00     0.325 C 
ATOM     70  O   UNL     1       2.150  -0.168  -1.443  1.00  0.00    -0.250 OA
BRANCH  69  71
ATOM     71  C   UNL     1       2.555   2.017  -2.325  1.00  0.00     0.189 C 
ATOM     72  C   UNL     1       3.494   3.165  -1.845  1.00  0.00     0.088 C 
ATOM     73  N   UNL     1       2.500   1.964  -3.858  1.00  0.00    -0.176 NA
ATOM     74  C   UNL     1       3.063   4.407  -2.510  1.00  0.00     0.041 A 
ATOM     75  C   UNL     1       1.867   3.246  -4.423  1.00  0.00     0.161 C 
ATOM     76  N   UNL     1       3.249   5.698  -2.120  1.00  0.00    -0.348 N 
ATOM     77  C   UNL     1       2.340   4.451  -3.675  1.00  0.00     0.077 A 
ATOM     78  C   UNL     1       2.587   6.474  -3.038  1.00  0.00     0.197 A 
ATOM     79  H   UNL     1       3.756   6.012  -1.337  1.00  0.00     0.167 HD
ATOM     80  N   UNL     1       2.038   5.748  -3.991  1.00  0.00    -0.240 NA
BRANCH  73  81
ATOM     81  S   UNL     1       1.658   0.626  -4.551  1.00  0.00     0.253 S 
ATOM     82  O   UNL     1       0.388   0.523  -3.881  1.00  0.00    -0.206 OA
ATOM     83  O   UNL     1       1.707   0.802  -5.997  1.00  0.00    -0.206 OA
BRANCH  81  84
ATOM     84  C   UNL     1       2.474  -0.939  -4.274  1.00  0.00     0.135 A 
ATOM     85  C   UNL     1       2.124  -2.034  -3.500  1.00  0.00     0.033 A 
ATOM     86  S   UNL     1       3.934  -1.229  -5.120  1.00  0.00    -0.131 S 
ATOM     87  C   UNL     1       3.087  -3.081  -3.551  1.00  0.00     0.013 A 
ATOM     88  C   UNL     1       4.101  -2.793  -4.435  1.00  0.00     0.066 A 
ENDBRANCH  81  84
ENDBRANCH  73  81
ENDBRANCH  69  71
ENDBRANCH  68  69
ENDBRANCH  67  68
ENDBRANCH   1  67
TORSDOF 16
