REMARK SMILES Cc1ccccc1/C=C1\SC(=S)N(CCC(=O)N[C@@H](C)C(=O)OCCOC(=O)c2ccc(-c3c4nc(c(-c5ccc(S(=O)(=O)[O-])cc5)c5ccc([nH]5)c(-c5ccc(S(=O)(=O)[O-])cc5)c5nc(c(-c6ccc(S(=O)(=O)[O-])cc6)c6ccc3[nH]6)C=C5)C=C4)cc2)C1=O
REMARK SMILES IDX 24 1 23 2 21 3 22 4 19 5 20 6 18 7 16 8 17 9 15 11 14 12
REMARK SMILES IDX 13 13 8 14 9 15 10 16 89 17 11 18 90 19 12 20 7 21 1 22 2 23
REMARK SMILES IDX 3 24 4 25 6 26 5 27 25 28 26 29 27 30 28 31 29 32 30 33
REMARK SMILES IDX 88 34 31 35 87 36 32 37 33 38 34 39 81 40 35 41 86 42 80 43
REMARK SMILES IDX 82 44 36 45 85 46 79 47 78 48 37 50 67 51 48 52 66 53 49 54
REMARK SMILES IDX 52 55 65 56 83 57 50 58 51 59 64 61 84 62 53 63 38 64 39 65
REMARK SMILES IDX 47 66 40 67 46 68 41 69 42 70 43 71 44 72 45 73 68 74 69 75
REMARK SMILES IDX 77 76 70 77 76 78 71 79 72 80 73 81 74 82 75 83 54 84 55 85
REMARK SMILES IDX 63 86 56 87 62 88 57 89 58 90 59 91 60 92 61 93
REMARK H PARENT 18 10 82 49 52 60
REMARK Flexibility Score: inf
ROOT
ATOM      1  C   UNL     1      -2.652   6.459  -0.424  1.00  0.00     0.274 C 
ENDROOT
BRANCH   1   2
ATOM      2  O   UNL     1      -1.273   6.849  -0.298  1.00  0.00    -0.461 OA
BRANCH   2   3
ATOM      3  C   UNL     1      -0.529   5.950   0.383  1.00  0.00     0.328 C 
ATOM      4  O   UNL     1      -1.014   4.995   0.986  1.00  0.00    -0.250 OA
BRANCH   3   5
ATOM      5  C   UNL     1       0.987   6.164   0.286  1.00  0.00     0.189 C 
ATOM      6  C   UNL     1       1.497   5.940   1.716  1.00  0.00     0.043 C 
BRANCH   5   7
ATOM      7  N   UNL     1       1.581   7.404  -0.211  1.00  0.00    -0.343 N 
ATOM      8  C   UNL     1       2.842   7.523  -0.740  1.00  0.00     0.222 C 
ATOM      9  O   UNL     1       3.556   8.456  -0.364  1.00  0.00    -0.275 OA
ATOM     10  H   UNL     1       1.032   8.219  -0.162  1.00  0.00     0.164 HD
BRANCH   8  11
ATOM     11  C   UNL     1       3.313   6.586  -1.836  1.00  0.00     0.122 C 
BRANCH  11  12
ATOM     12  C   UNL     1       4.319   5.511  -1.427  1.00  0.00     0.137 C 
BRANCH  12  13
ATOM     13  N   UNL     1       3.717   4.179  -1.234  1.00  0.00    -0.292 N 
ATOM     14  C   UNL     1       0.767   2.344   0.278  1.00  0.00     0.029 C 
ATOM     15  C   UNL     1       2.098   2.647  -0.251  1.00  0.00     0.081 C 
ATOM     16  S   UNL     1       3.293   1.706  -1.323  1.00  0.00    -0.054 SA
ATOM     17  C   UNL     1       3.044   3.833  -0.064  1.00  0.00     0.266 C 
ATOM     18  C   UNL     1       4.048   3.102  -2.017  1.00  0.00     0.148 C 
ATOM     19  O   UNL     1       3.385   4.238   1.047  1.00  0.00    -0.268 OA
ATOM     20  S   UNL     1       5.007   2.999  -3.380  1.00  0.00    -0.052 S 
BRANCH  14  21
ATOM     21  C   UNL     1      -0.654   1.176   0.293  1.00  0.00    -0.021 A 
ATOM     22  C   UNL     1      -0.614  -1.201  -1.590  1.00  0.00     0.045 C 
ATOM     23  C   UNL     1      -1.136  -0.158  -0.402  1.00  0.00    -0.044 A 
ATOM     24  C   UNL     1      -2.420  -0.724  -0.186  1.00  0.00     0.004 A 
ATOM     25  C   UNL     1      -3.357  -0.100   0.561  1.00  0.00     0.000 A 
ATOM     26  C   UNL     1      -1.706   1.697   1.073  1.00  0.00     0.008 A 
ATOM     27  C   UNL     1      -3.003   1.095   1.165  1.00  0.00     0.001 A 
ENDBRANCH  14  21
ENDBRANCH  12  13
ENDBRANCH  11  12
ENDBRANCH   8  11
ENDBRANCH   5   7
ENDBRANCH   3   5
ENDBRANCH   2   3
ENDBRANCH   1   2
BRANCH   1  28
ATOM     28  C   UNL     1      -3.267   7.056  -1.698  1.00  0.00     0.275 C 
BRANCH  28  29
ATOM     29  O   UNL     1      -2.747   6.498  -2.924  1.00  0.00    -0.458 OA
BRANCH  29  30
ATOM     30  C   UNL     1      -1.391   6.569  -3.113  1.00  0.00     0.338 C 
ATOM     31  O   UNL     1      -0.726   7.574  -3.024  1.00  0.00    -0.246 OA
BRANCH  30  32
ATOM     32  C   UNL     1      -0.849   5.173  -3.042  1.00  0.00     0.060 A 
ATOM     33  C   UNL     1       0.474   4.843  -3.320  1.00  0.00     0.016 A 
ATOM     34  C   UNL     1      -1.636   4.202  -2.470  1.00  0.00     0.016 A 
ATOM     35  C   UNL     1       0.996   3.554  -3.021  1.00  0.00     0.010 A 
ATOM     36  C   UNL     1      -1.044   3.071  -1.940  1.00  0.00     0.010 A 
ATOM     37  C   UNL     1       0.290   2.639  -2.218  1.00  0.00    -0.014 A 
BRANCH  37  38
ATOM     38  C   UNL     1       0.666   0.999  -2.042  1.00  0.00     0.031 A 
ATOM     39  C   UNL     1       1.347  -0.070  -0.530  1.00  0.00     0.074 A 
ATOM     40  C   UNL     1      -0.336   0.758  -3.004  1.00  0.00     0.049 A 
ATOM     41  N   UNL     1       1.271  -1.419  -0.293  1.00  0.00    -0.248 NA
ATOM     42  C   UNL     1       1.972   0.273   0.919  1.00  0.00     0.031 C 
ATOM     43  C   UNL     1      -1.859   0.556  -2.920  1.00  0.00     0.029 A 
ATOM     44  N   UNL     1      -0.308   1.079  -4.338  1.00  0.00    -0.354 N 
ATOM     45  C   UNL     1       0.900  -1.681   1.105  1.00  0.00     0.074 A 
ATOM     46  C   UNL     1       1.577  -0.649   1.805  1.00  0.00     0.031 C 
ATOM     47  C   UNL     1      -2.343   0.119  -4.081  1.00  0.00     0.029 A 
ATOM     48  C   UNL     1      -1.285   0.318  -5.001  1.00  0.00     0.049 A 
ATOM     49  H   UNL     1       0.295   1.733  -4.759  1.00  0.00     0.167 HD
ATOM     50  C   UNL     1      -0.073  -2.568   1.598  1.00  0.00     0.031 A 
ATOM     51  C   UNL     1      -0.858  -0.491  -5.980  1.00  0.00     0.031 A 
ATOM     52  C   UNL     1      -0.749  -3.430   0.577  1.00  0.00     0.049 A 
ATOM     53  C   UNL     1      -0.643  -1.930  -5.409  1.00  0.00     0.074 A 
ATOM     54  C   UNL     1      -2.077  -3.776   0.325  1.00  0.00     0.029 A 
ATOM     55  N   UNL     1      -0.053  -3.972  -0.507  1.00  0.00    -0.354 N 
ATOM     56  N   UNL     1      -1.021  -2.443  -4.239  1.00  0.00    -0.248 NA
ATOM     57  C   UNL     1      -0.025  -2.948  -6.246  1.00  0.00     0.031 C 
ATOM     58  C   UNL     1      -2.191  -4.236  -1.030  1.00  0.00     0.029 A 
ATOM     59  C   UNL     1      -0.932  -4.191  -1.611  1.00  0.00     0.049 A 
ATOM     60  H   UNL     1       0.910  -4.176  -0.509  1.00  0.00     0.167 HD
ATOM     61  C   UNL     1      -0.512  -3.745  -4.084  1.00  0.00     0.074 A 
ATOM     62  C   UNL     1      -0.076  -4.030  -5.452  1.00  0.00     0.031 C 
ATOM     63  C   UNL     1      -0.358  -4.532  -2.933  1.00  0.00     0.031 A 
BRANCH  50  64
ATOM     64  C   UNL     1      -0.701  -2.621   3.088  1.00  0.00    -0.014 A 
ATOM     65  C   UNL     1      -1.583  -3.696   3.403  1.00  0.00     0.010 A 
ATOM     66  C   UNL     1      -0.562  -1.701   4.159  1.00  0.00     0.010 A 
ATOM     67  C   UNL     1      -2.285  -3.848   4.621  1.00  0.00     0.020 A 
ATOM     68  C   UNL     1      -1.214  -1.875   5.433  1.00  0.00     0.020 A 
ATOM     69  C   UNL     1      -2.079  -2.949   5.652  1.00  0.00     0.054 A 
BRANCH  69  70
ATOM     70  S   UNL     1      -2.875  -3.287   7.263  1.00  0.00     0.124 S 
ATOM     71  O   UNL     1      -4.288  -3.039   6.986  1.00  0.00    -0.237 OA
ATOM     72  O   UNL     1      -2.528  -4.686   7.507  1.00  0.00    -0.237 OA
ATOM     73  O   UNL     1      -2.247  -2.332   8.174  1.00  0.00    -0.744 OA
ENDBRANCH  69  70
ENDBRANCH  50  64
BRANCH  51  74
ATOM     74  C   UNL     1      -0.120   0.524  -6.897  1.00  0.00    -0.014 A 
ATOM     75  C   UNL     1      -1.028   1.482  -7.477  1.00  0.00     0.010 A 
ATOM     76  C   UNL     1       1.171   1.036  -6.581  1.00  0.00     0.010 A 
ATOM     77  C   UNL     1      -0.756   2.869  -7.514  1.00  0.00     0.020 A 
ATOM     78  C   UNL     1       1.449   2.440  -6.638  1.00  0.00     0.020 A 
ATOM     79  C   UNL     1       0.473   3.348  -7.070  1.00  0.00     0.054 A 
BRANCH  79  80
ATOM     80  S   UNL     1       0.685   5.163  -6.898  1.00  0.00     0.124 S 
ATOM     81  O   UNL     1       0.782   5.603  -8.284  1.00  0.00    -0.237 OA
ATOM     82  O   UNL     1      -0.538   5.559  -6.201  1.00  0.00    -0.237 OA
ATOM     83  O   UNL     1       1.908   5.296  -6.109  1.00  0.00    -0.744 OA
ENDBRANCH  79  80
ENDBRANCH  51  74
BRANCH  63  84
ATOM     84  C   UNL     1       0.480  -5.827  -2.868  1.00  0.00    -0.014 A 
ATOM     85  C   UNL     1       1.390  -6.244  -3.842  1.00  0.00     0.010 A 
ATOM     86  C   UNL     1       0.449  -6.622  -1.682  1.00  0.00     0.010 A 
ATOM     87  C   UNL     1       2.119  -7.430  -3.709  1.00  0.00     0.020 A 
ATOM     88  C   UNL     1       1.258  -7.741  -1.485  1.00  0.00     0.020 A 
ATOM     89  C   UNL     1       2.050  -8.170  -2.532  1.00  0.00     0.054 A 
BRANCH  89  90
ATOM     90  S   UNL     1       3.012  -9.686  -2.393  1.00  0.00     0.124 S 
ATOM     91  O   UNL     1       2.240 -10.601  -3.229  1.00  0.00    -0.237 OA
ATOM     92  O   UNL     1       4.311  -9.288  -2.930  1.00  0.00    -0.237 OA
ATOM     93  O   UNL     1       2.997  -9.980  -0.962  1.00  0.00    -0.744 OA
ENDBRANCH  89  90
ENDBRANCH  63  84
ENDBRANCH  37  38
ENDBRANCH  30  32
ENDBRANCH  29  30
ENDBRANCH  28  29
ENDBRANCH   1  28
TORSDOF 19
