REMARK SMILES O=C(OCCOC(=O)[C@]1(CCCCO)CCc2ccccc2C1)c1ccc(-c2c3nc(c(-c4ccc(S(=O)(=O)[O-])cc4)c4ccc([nH]4)c(-c4ccc(S(=O)(=O)[O-])cc4)c4nc(c(-c5ccc(S(=O)(=O)[O-])cc5)c5ccc2[nH]5)C=C4)C=C3)cc1
REMARK SMILES IDX 5 1 4 2 3 3 2 4 1 5 24 6 25 7 83 8 26 9 82 10 27 11 28 12
REMARK SMILES IDX 29 13 76 14 30 15 81 16 75 17 77 18 31 19 80 20 74 21 73 22
REMARK SMILES IDX 32 24 62 25 43 26 61 27 44 28 47 29 60 30 78 31 45 32 46 33
REMARK SMILES IDX 59 35 79 36 48 37 33 38 34 39 42 40 35 41 41 42 36 43 37 44
REMARK SMILES IDX 38 45 39 46 40 47 63 48 64 49 72 50 65 51 71 52 66 53 67 54
REMARK SMILES IDX 68 55 69 56 70 57 49 58 50 59 58 60 51 61 57 62 52 63 53 64
REMARK SMILES IDX 54 65 55 66 56 67 6 68 7 69 8 70 9 71 15 72 23 73 16 74
REMARK SMILES IDX 22 75 17 76 21 77 18 78 20 79 19 80 10 81 11 82 12 83 13 84
REMARK SMILES IDX 14 85
REMARK H PARENT 77 23 47 34 14 86
REMARK Flexibility Score: inf
ROOT
ATOM      1  C   UNL     1       4.265   1.116  -1.831  1.00  0.00     0.274 C 
ENDROOT
BRANCH   1   2
ATOM      2  C   UNL     1       4.476  -0.384  -1.538  1.00  0.00     0.275 C 
BRANCH   2   3
ATOM      3  O   UNL     1       3.520  -1.063  -0.712  1.00  0.00    -0.458 OA
BRANCH   3   4
ATOM      4  C   UNL     1       3.448  -1.133   0.637  1.00  0.00     0.338 C 
ATOM      5  O   UNL     1       2.626  -1.885   1.157  1.00  0.00    -0.246 OA
BRANCH   4   6
ATOM      6  C   UNL     1       4.232  -0.222   1.520  1.00  0.00     0.060 A 
ATOM      7  C   UNL     1       5.483   0.335   1.232  1.00  0.00     0.016 A 
ATOM      8  C   UNL     1       3.628   0.121   2.733  1.00  0.00     0.016 A 
ATOM      9  C   UNL     1       6.038   1.341   2.028  1.00  0.00     0.010 A 
ATOM     10  C   UNL     1       4.191   1.109   3.539  1.00  0.00     0.010 A 
ATOM     11  C   UNL     1       5.377   1.772   3.171  1.00  0.00    -0.014 A 
BRANCH  11  12
ATOM     12  C   UNL     1       5.982   2.803   4.051  1.00  0.00     0.031 A 
ATOM     13  C   UNL     1       6.335   2.376   5.445  1.00  0.00     0.074 A 
ATOM     14  C   UNL     1       6.205   4.075   3.646  1.00  0.00     0.049 A 
ATOM     15  N   UNL     1       6.861   3.070   6.415  1.00  0.00    -0.248 NA
ATOM     16  C   UNL     1       6.017   0.981   5.809  1.00  0.00     0.031 C 
ATOM     17  C   UNL     1       5.875   4.634   2.331  1.00  0.00     0.029 A 
ATOM     18  N   UNL     1       6.755   5.146   4.313  1.00  0.00    -0.354 N 
ATOM     19  C   UNL     1       6.944   2.183   7.477  1.00  0.00     0.074 A 
ATOM     20  C   UNL     1       6.233   0.986   7.109  1.00  0.00     0.031 C 
ATOM     21  C   UNL     1       6.196   5.942   2.301  1.00  0.00     0.029 A 
ATOM     22  C   UNL     1       6.783   6.316   3.581  1.00  0.00     0.049 A 
ATOM     23  H   UNL     1       7.098   5.084   5.233  1.00  0.00     0.167 HD
ATOM     24  C   UNL     1       7.673   2.287   8.608  1.00  0.00     0.031 A 
ATOM     25  C   UNL     1       7.255   7.538   3.907  1.00  0.00     0.031 A 
ATOM     26  C   UNL     1       8.431   3.450   8.940  1.00  0.00     0.049 A 
ATOM     27  C   UNL     1       7.973   7.685   5.229  1.00  0.00     0.074 A 
ATOM     28  C   UNL     1       9.257   3.663  10.024  1.00  0.00     0.029 A 
ATOM     29  N   UNL     1       8.452   4.604   8.170  1.00  0.00    -0.354 N 
ATOM     30  N   UNL     1       8.159   6.787   6.170  1.00  0.00    -0.248 NA
ATOM     31  C   UNL     1       8.602   8.984   5.506  1.00  0.00     0.031 C 
ATOM     32  C   UNL     1       9.737   4.974   9.938  1.00  0.00     0.029 A 
ATOM     33  C   UNL     1       9.260   5.548   8.767  1.00  0.00     0.049 A 
ATOM     34  H   UNL     1       7.963   4.730   7.325  1.00  0.00     0.167 HD
ATOM     35  C   UNL     1       8.997   7.384   7.105  1.00  0.00     0.074 A 
ATOM     36  C   UNL     1       9.261   8.727   6.628  1.00  0.00     0.031 C 
ATOM     37  C   UNL     1       9.525   6.864   8.241  1.00  0.00     0.031 A 
BRANCH  24  38
ATOM     38  C   UNL     1       7.699   1.071   9.489  1.00  0.00    -0.014 A 
ATOM     39  C   UNL     1       8.304  -0.122   9.042  1.00  0.00     0.010 A 
ATOM     40  C   UNL     1       7.023   1.083  10.718  1.00  0.00     0.010 A 
ATOM     41  C   UNL     1       8.159  -1.303   9.769  1.00  0.00     0.020 A 
ATOM     42  C   UNL     1       6.910  -0.090  11.468  1.00  0.00     0.020 A 
ATOM     43  C   UNL     1       7.454  -1.280  10.974  1.00  0.00     0.054 A 
BRANCH  43  44
ATOM     44  S   UNL     1       7.261  -2.832  11.890  1.00  0.00     0.124 S 
ATOM     45  O   UNL     1       6.282  -3.544  11.071  1.00  0.00    -0.237 OA
ATOM     46  O   UNL     1       8.613  -3.383  11.873  1.00  0.00    -0.237 OA
ATOM     47  O   UNL     1       6.782  -2.401  13.201  1.00  0.00    -0.744 OA
ENDBRANCH  43  44
ENDBRANCH  24  38
BRANCH  25  48
ATOM     48  C   UNL     1       7.173   8.697   2.963  1.00  0.00    -0.014 A 
ATOM     49  C   UNL     1       8.329   9.186   2.325  1.00  0.00     0.010 A 
ATOM     50  C   UNL     1       5.954   9.367   2.748  1.00  0.00     0.010 A 
ATOM     51  C   UNL     1       8.279  10.339   1.530  1.00  0.00     0.020 A 
ATOM     52  C   UNL     1       5.894  10.508   1.934  1.00  0.00     0.020 A 
ATOM     53  C   UNL     1       7.061  10.996   1.342  1.00  0.00     0.054 A 
BRANCH  53  54
ATOM     54  S   UNL     1       7.024  12.486   0.300  1.00  0.00     0.124 S 
ATOM     55  O   UNL     1       7.768  13.446   1.110  1.00  0.00    -0.237 OA
ATOM     56  O   UNL     1       7.693  12.032  -0.916  1.00  0.00    -0.237 OA
ATOM     57  O   UNL     1       5.598  12.765   0.152  1.00  0.00    -0.744 OA
ENDBRANCH  53  54
ENDBRANCH  25  48
BRANCH  37  58
ATOM     58  C   UNL     1      10.511   7.704   9.001  1.00  0.00    -0.014 A 
ATOM     59  C   UNL     1      10.107   8.828   9.739  1.00  0.00     0.010 A 
ATOM     60  C   UNL     1      11.855   7.289   9.050  1.00  0.00     0.010 A 
ATOM     61  C   UNL     1      11.039   9.538  10.496  1.00  0.00     0.020 A 
ATOM     62  C   UNL     1      12.781   7.974   9.834  1.00  0.00     0.020 A 
ATOM     63  C   UNL     1      12.369   9.103  10.543  1.00  0.00     0.054 A 
BRANCH  63  64
ATOM     64  S   UNL     1      13.544  10.002  11.589  1.00  0.00     0.124 S 
ATOM     65  O   UNL     1      13.763  11.222  10.817  1.00  0.00    -0.237 OA
ATOM     66  O   UNL     1      12.799  10.170  12.835  1.00  0.00    -0.237 OA
ATOM     67  O   UNL     1      14.692   9.102  11.673  1.00  0.00    -0.744 OA
ENDBRANCH  63  64
ENDBRANCH  37  58
ENDBRANCH  11  12
ENDBRANCH   4   6
ENDBRANCH   3   4
ENDBRANCH   2   3
ENDBRANCH   1   2
BRANCH   1  68
ATOM     68  O   UNL     1       3.871   2.022  -0.775  1.00  0.00    -0.462 OA
BRANCH  68  69
ATOM     69  C   UNL     1       2.540   2.010  -0.489  1.00  0.00     0.312 C 
ATOM     70  O   UNL     1       1.837   1.061  -0.819  1.00  0.00    -0.252 OA
BRANCH  69  71
ATOM     71  C   UNL     1       2.001   3.225   0.302  1.00  0.00     0.072 C 
ATOM     72  C   UNL     1       2.668   4.552  -0.124  1.00  0.00     0.024 C 
ATOM     73  C   UNL     1       2.372   2.958   1.767  1.00  0.00     0.054 C 
ATOM     74  C   UNL     1       2.366   5.738   0.811  1.00  0.00     0.037 C 
ATOM     75  C   UNL     1       2.311   4.110   2.736  1.00  0.00    -0.044 A 
ATOM     76  C   UNL     1       2.476   5.421   2.280  1.00  0.00    -0.045 A 
ATOM     77  C   UNL     1       2.297   3.851   4.117  1.00  0.00     0.004 A 
ATOM     78  C   UNL     1       2.707   6.440   3.219  1.00  0.00     0.004 A 
ATOM     79  C   UNL     1       2.566   4.859   5.037  1.00  0.00     0.000 A 
ATOM     80  C   UNL     1       2.792   6.153   4.585  1.00  0.00     0.000 A 
BRANCH  71  81
ATOM     81  C   UNL     1       0.441   3.251   0.248  1.00  0.00     0.019 C 
BRANCH  81  82
ATOM     82  C   UNL     1      -0.262   3.534  -1.085  1.00  0.00     0.004 C 
BRANCH  82  83
ATOM     83  C   UNL     1      -0.263   2.427  -2.149  1.00  0.00     0.028 C 
BRANCH  83  84
ATOM     84  C   UNL     1      -0.838   1.077  -1.710  1.00  0.00     0.156 C 
BRANCH  84  85
ATOM     85  O   UNL     1      -2.229   1.194  -1.440  1.00  0.00    -0.396 OA
ATOM     86  H   UNL     1      -2.367   1.836  -0.726  1.00  0.00     0.210 HD
ENDBRANCH  84  85
ENDBRANCH  83  84
ENDBRANCH  82  83
ENDBRANCH  81  82
ENDBRANCH  71  81
ENDBRANCH  69  71
ENDBRANCH  68  69
ENDBRANCH   1  68
TORSDOF 19
