REMARK SMILES C[NH2+]CCCC(=O)NC[C@@H]1CC[C@H](C(=O)OCCOC(=O)c2ccc(-c3c4nc(c(-c5ccc(S(=O)(=O)[O-])cc5)c5ccc([nH]5)c(-c5ccc(S(=O)(=O)[O-])cc5)c5nc(c(-c6ccc(S(=O)(=O)[O-])cc6)c6ccc3[nH]6)C=C5)C=C4)cc2)O1
REMARK SMILES IDX 16 1 14 2 15 3 13 4 10 5 11 6 82 7 12 8 9 9 8 10 6 11 7 12
REMARK SMILES IDX 5 14 4 15 3 16 2 17 1 18 17 21 18 22 19 23 20 24 21 25 22 26
REMARK SMILES IDX 23 27 81 28 24 29 80 30 25 31 26 32 27 33 74 34 28 35 79 36
REMARK SMILES IDX 73 37 75 38 29 39 78 40 72 41 71 42 30 44 60 45 41 46 59 47
REMARK SMILES IDX 42 48 45 49 58 50 76 51 43 52 44 53 57 55 77 56 46 57 31 58
REMARK SMILES IDX 32 59 40 60 33 61 39 62 34 63 35 64 36 65 37 66 38 67 61 68
REMARK SMILES IDX 62 69 70 70 63 71 69 72 64 73 65 74 66 75 67 76 68 77 47 78
REMARK SMILES IDX 48 79 56 80 49 81 55 82 50 83 51 84 52 85 53 86 54 87
REMARK H PARENT 8 13 2 19 2 20 75 43 45 54
REMARK Flexibility Score: inf
ROOT
ATOM      1  O   UNL     1      -0.065   2.357   0.772  1.00  0.00    -0.460 OA
ENDROOT
BRANCH   1   2
ATOM      2  C   UNL     1       0.092   2.899   2.010  1.00  0.00     0.335 C 
ATOM      3  O   UNL     1       0.852   3.825   2.270  1.00  0.00    -0.249 OA
BRANCH   2   4
ATOM      4  C   UNL     1      -0.769   2.203   3.078  1.00  0.00     0.228 C 
ATOM      5  C   UNL     1      -1.181   0.088   3.965  1.00  0.00     0.138 C 
ATOM      6  C   UNL     1      -2.435   0.453   3.187  1.00  0.00     0.037 C 
ATOM      7  O   UNL     1      -0.156   1.004   3.555  1.00  0.00    -0.361 OA
ATOM      8  C   UNL     1      -2.188   1.848   2.660  1.00  0.00     0.047 C 
BRANCH   5   9
ATOM      9  C   UNL     1      -0.641  -1.339   3.774  1.00  0.00     0.147 C 
BRANCH   9  10
ATOM     10  N   UNL     1      -1.656  -2.339   3.503  1.00  0.00    -0.353 N 
ATOM     11  C   UNL     1      -1.814  -3.134   2.410  1.00  0.00     0.220 C 
ATOM     12  O   UNL     1      -2.776  -3.905   2.381  1.00  0.00    -0.275 OA
ATOM     13  H   UNL     1      -2.327  -2.461   4.213  1.00  0.00     0.163 HD
BRANCH  11  14
ATOM     14  C   UNL     1      -0.827  -3.081   1.258  1.00  0.00     0.106 C 
BRANCH  14  15
ATOM     15  C   UNL     1      -1.220  -2.084   0.165  1.00  0.00     0.071 C 
BRANCH  15  16
ATOM     16  C   UNL     1      -0.528  -0.720   0.228  1.00  0.00     0.260 C 
BRANCH  16  17
ATOM     17  N   UNL     1       0.930  -0.719   0.172  1.00  0.00    -0.349 N 
ATOM     18  C   UNL     1       1.460  -1.015  -1.144  1.00  0.00     0.330 C 
ATOM     19  H   UNL     1       1.263   0.203   0.454  1.00  0.00     0.346 HD
ATOM     20  H   UNL     1       1.254  -1.457   0.797  1.00  0.00     0.346 HD
ENDBRANCH  16  17
ENDBRANCH  15  16
ENDBRANCH  14  15
ENDBRANCH  11  14
ENDBRANCH   9  10
ENDBRANCH   5   9
ENDBRANCH   2   4
ENDBRANCH   1   2
BRANCH   1  21
ATOM     21  C   UNL     1       0.759   2.888  -0.286  1.00  0.00     0.274 C 
BRANCH  21  22
ATOM     22  C   UNL     1      -0.075   3.667  -1.305  1.00  0.00     0.275 C 
BRANCH  22  23
ATOM     23  O   UNL     1      -0.572   4.886  -0.727  1.00  0.00    -0.458 OA
BRANCH  23  24
ATOM     24  C   UNL     1      -1.776   4.773  -0.123  1.00  0.00     0.338 C 
ATOM     25  O   UNL     1      -2.527   3.809  -0.142  1.00  0.00    -0.246 OA
BRANCH  24  26
ATOM     26  C   UNL     1      -1.984   5.929   0.758  1.00  0.00     0.060 A 
ATOM     27  C   UNL     1      -2.238   5.667   2.107  1.00  0.00     0.016 A 
ATOM     28  C   UNL     1      -1.969   7.239   0.278  1.00  0.00     0.016 A 
ATOM     29  C   UNL     1      -2.492   6.710   2.985  1.00  0.00     0.010 A 
ATOM     30  C   UNL     1      -2.227   8.291   1.163  1.00  0.00     0.010 A 
ATOM     31  C   UNL     1      -2.505   8.027   2.515  1.00  0.00    -0.014 A 
BRANCH  31  32
ATOM     32  C   UNL     1      -2.881   9.109   3.451  1.00  0.00     0.031 A 
ATOM     33  C   UNL     1      -4.261   9.695   3.385  1.00  0.00     0.074 A 
ATOM     34  C   UNL     1      -2.008   9.503   4.395  1.00  0.00     0.049 A 
ATOM     35  N   UNL     1      -4.801  10.620   4.135  1.00  0.00    -0.248 NA
ATOM     36  C   UNL     1      -5.153   9.171   2.337  1.00  0.00     0.031 C 
ATOM     37  C   UNL     1      -0.657   8.966   4.572  1.00  0.00     0.029 A 
ATOM     38  N   UNL     1      -2.134  10.433   5.393  1.00  0.00    -0.354 N 
ATOM     39  C   UNL     1      -6.089  10.799   3.645  1.00  0.00     0.074 A 
ATOM     40  C   UNL     1      -6.243   9.904   2.518  1.00  0.00     0.031 C 
ATOM     41  C   UNL     1      -0.083   9.568   5.627  1.00  0.00     0.029 A 
ATOM     42  C   UNL     1      -1.011  10.552   6.176  1.00  0.00     0.049 A 
ATOM     43  H   UNL     1      -2.950  10.965   5.535  1.00  0.00     0.167 HD
ATOM     44  C   UNL     1      -7.056  11.632   4.098  1.00  0.00     0.031 A 
ATOM     45  C   UNL     1      -0.759  11.371   7.215  1.00  0.00     0.031 A 
ATOM     46  C   UNL     1      -6.887  12.527   5.213  1.00  0.00     0.049 A 
ATOM     47  C   UNL     1      -1.837  12.314   7.674  1.00  0.00     0.074 A 
ATOM     48  C   UNL     1      -7.801  13.414   5.754  1.00  0.00     0.029 A 
ATOM     49  N   UNL     1      -5.724  12.648   5.959  1.00  0.00    -0.354 N 
ATOM     50  N   UNL     1      -3.052  12.470   7.201  1.00  0.00    -0.248 NA
ATOM     51  C   UNL     1      -1.514  13.181   8.813  1.00  0.00     0.031 C 
ATOM     52  C   UNL     1      -7.174  14.105   6.798  1.00  0.00     0.029 A 
ATOM     53  C   UNL     1      -5.889  13.607   6.944  1.00  0.00     0.049 A 
ATOM     54  H   UNL     1      -4.901  12.128   5.810  1.00  0.00     0.167 HD
ATOM     55  C   UNL     1      -3.646  13.441   7.999  1.00  0.00     0.074 A 
ATOM     56  C   UNL     1      -2.664  13.816   8.998  1.00  0.00     0.031 C 
ATOM     57  C   UNL     1      -4.890  13.976   7.916  1.00  0.00     0.031 A 
BRANCH  44  58
ATOM     58  C   UNL     1      -8.367  11.639   3.356  1.00  0.00    -0.014 A 
ATOM     59  C   UNL     1      -9.263  10.559   3.443  1.00  0.00     0.010 A 
ATOM     60  C   UNL     1      -8.716  12.755   2.574  1.00  0.00     0.010 A 
ATOM     61  C   UNL     1     -10.466  10.577   2.730  1.00  0.00     0.020 A 
ATOM     62  C   UNL     1      -9.929  12.789   1.880  1.00  0.00     0.020 A 
ATOM     63  C   UNL     1     -10.789  11.691   1.948  1.00  0.00     0.054 A 
BRANCH  63  64
ATOM     64  S   UNL     1     -12.362  11.696   1.045  1.00  0.00     0.124 S 
ATOM     65  O   UNL     1     -12.089  10.757  -0.040  1.00  0.00    -0.237 OA
ATOM     66  O   UNL     1     -13.312  11.233   2.052  1.00  0.00    -0.237 OA
ATOM     67  O   UNL     1     -12.522  13.090   0.636  1.00  0.00    -0.744 OA
ENDBRANCH  63  64
ENDBRANCH  44  58
BRANCH  45  68
ATOM     68  C   UNL     1       0.571  11.336   7.883  1.00  0.00    -0.014 A 
ATOM     69  C   UNL     1       0.708  10.835   9.189  1.00  0.00     0.010 A 
ATOM     70  C   UNL     1       1.714  11.795   7.204  1.00  0.00     0.010 A 
ATOM     71  C   UNL     1       1.961  10.809   9.810  1.00  0.00     0.020 A 
ATOM     72  C   UNL     1       2.972  11.745   7.810  1.00  0.00     0.020 A 
ATOM     73  C   UNL     1       3.086  11.262   9.115  1.00  0.00     0.054 A 
BRANCH  73  74
ATOM     74  S   UNL     1       4.710  11.170   9.918  1.00  0.00     0.124 S 
ATOM     75  O   UNL     1       4.643  12.276  10.867  1.00  0.00    -0.237 OA
ATOM     76  O   UNL     1       4.699   9.831  10.503  1.00  0.00    -0.237 OA
ATOM     77  O   UNL     1       5.649  11.349   8.812  1.00  0.00    -0.744 OA
ENDBRANCH  73  74
ENDBRANCH  45  68
BRANCH  57  78
ATOM     78  C   UNL     1      -5.256  15.004   8.954  1.00  0.00    -0.014 A 
ATOM     79  C   UNL     1      -4.683  16.288   8.943  1.00  0.00     0.010 A 
ATOM     80  C   UNL     1      -6.188  14.676   9.954  1.00  0.00     0.010 A 
ATOM     81  C   UNL     1      -4.990  17.206   9.950  1.00  0.00     0.020 A 
ATOM     82  C   UNL     1      -6.520  15.601  10.947  1.00  0.00     0.020 A 
ATOM     83  C   UNL     1      -5.899  16.852  10.953  1.00  0.00     0.054 A 
BRANCH  83  84
ATOM     84  S   UNL     1      -6.276  18.053  12.258  1.00  0.00     0.124 S 
ATOM     85  O   UNL     1      -5.092  17.959  13.106  1.00  0.00    -0.237 OA
ATOM     86  O   UNL     1      -6.420  19.303  11.515  1.00  0.00    -0.237 OA
ATOM     87  O   UNL     1      -7.511  17.543  12.850  1.00  0.00    -0.744 OA
ENDBRANCH  83  84
ENDBRANCH  57  78
ENDBRANCH  31  32
ENDBRANCH  24  26
ENDBRANCH  23  24
ENDBRANCH  22  23
ENDBRANCH  21  22
ENDBRANCH   1  21
TORSDOF 20
