REMARK SMILES CCCCCCNC(=O)Oc1cccc(-c2ccc([C@@H](C)C(=O)OCCOC(=O)c3ccc(-c4c5nc(c(-c6ccc(S(=O)(=O)[O-])cc6)c6ccc([nH]6)c(-c6ccc(S(=O)(=O)[O-])cc6)c6nc(c(-c7ccc(S(=O)(=O)[O-])cc7)c7ccc4[nH]7)C=C6)C=C5)cc3)cc2Cl)c1
REMARK SMILES IDX 20 1 21 2 19 3 16 4 17 5 91 6 18 7 90 8 92 9 15 10 11 11
REMARK SMILES IDX 12 12 93 13 13 14 14 15 10 16 8 17 7 18 9 20 6 21 5 22 4 23
REMARK SMILES IDX 3 24 2 25 1 26 22 27 23 28 24 29 25 30 26 31 27 32 28 33
REMARK SMILES IDX 29 34 30 35 31 36 89 37 32 38 88 39 33 40 34 41 35 42 82 43
REMARK SMILES IDX 36 44 87 45 81 46 83 47 37 48 86 49 80 50 79 51 38 53 68 54
REMARK SMILES IDX 49 55 67 56 50 57 53 58 66 59 84 60 51 61 52 62 65 64 85 65
REMARK SMILES IDX 54 66 39 67 40 68 48 69 41 70 47 71 42 72 43 73 44 74 45 75
REMARK SMILES IDX 46 76 69 77 70 78 78 79 71 80 77 81 72 82 73 83 74 84 75 85
REMARK SMILES IDX 76 86 55 87 56 88 64 89 57 90 63 91 58 92 59 93 60 94 61 95
REMARK SMILES IDX 62 96
REMARK H PARENT 7 19 83 52 53 63
REMARK Flexibility Score: inf
ROOT
ATOM      1  C   UNL     1      -5.164   8.434 -11.272  1.00  0.00     0.126 C 
ATOM      2  C   UNL     1      -6.406   9.227 -11.674  1.00  0.00     0.025 C 
ENDROOT
BRANCH   1   3
ATOM      3  C   UNL     1      -5.149   8.091  -9.789  1.00  0.00    -0.033 A 
ATOM      4  C   UNL     1      -5.142   7.387  -7.022  1.00  0.00     0.000 A 
ATOM      5  C   UNL     1      -5.168   8.730  -7.443  1.00  0.00     0.010 A 
ATOM      6  C   UNL     1      -5.113   6.399  -8.022  1.00  0.00     0.049 A 
ATOM      7  C   UNL     1      -5.183   9.077  -8.798  1.00  0.00     0.005 A 
ATOM      8  C   UNL     1      -5.114   6.748  -9.381  1.00  0.00     0.025 A 
ATOM      9  Cl  UNL     1      -5.145   4.706  -7.653  1.00  0.00    -0.084 Cl
BRANCH   4  10
ATOM     10  C   UNL     1      -5.188   7.092  -5.576  1.00  0.00    -0.013 A 
ATOM     11  C   UNL     1      -4.258   6.108  -3.563  1.00  0.00     0.133 A 
ATOM     12  C   UNL     1      -5.351   6.539  -2.813  1.00  0.00     0.047 A 
ATOM     13  C   UNL     1      -4.168   6.373  -4.932  1.00  0.00     0.056 A 
ATOM     14  C   UNL     1      -6.360   7.266  -3.435  1.00  0.00     0.004 A 
ATOM     15  C   UNL     1      -6.279   7.537  -4.803  1.00  0.00     0.009 A 
BRANCH  11  16
ATOM     16  O   UNL     1      -3.331   5.285  -2.904  1.00  0.00    -0.410 OA
BRANCH  16  17
ATOM     17  C   UNL     1      -1.989   5.631  -2.952  1.00  0.00     0.412 C 
ATOM     18  N   UNL     1      -1.182   4.741  -2.295  1.00  0.00    -0.321 N 
ATOM     19  H   UNL     1      -0.215   4.922  -2.322  1.00  0.00     0.167 HD
ATOM     20  O   UNL     1      -1.521   6.632  -3.482  1.00  0.00    -0.224 OA
BRANCH  18  21
ATOM     21  C   UNL     1      -1.601   3.560  -1.564  1.00  0.00     0.119 C 
BRANCH  21  22
ATOM     22  C   UNL     1      -0.970   2.280  -2.110  1.00  0.00     0.021 C 
BRANCH  22  23
ATOM     23  C   UNL     1       0.558   2.210  -2.001  1.00  0.00     0.002 C 
BRANCH  23  24
ATOM     24  C   UNL     1       1.132   2.341  -0.586  1.00  0.00    -0.000 C 
BRANCH  24  25
ATOM     25  C   UNL     1       0.645   1.300   0.425  1.00  0.00    -0.003 C 
ATOM     26  C   UNL     1       1.024  -0.125   0.054  1.00  0.00     0.004 C 
ENDBRANCH  24  25
ENDBRANCH  23  24
ENDBRANCH  22  23
ENDBRANCH  21  22
ENDBRANCH  18  21
ENDBRANCH  16  17
ENDBRANCH  11  16
ENDBRANCH   4  10
ENDBRANCH   1   3
BRANCH   1  27
ATOM     27  C   UNL     1      -3.913   9.116 -11.817  1.00  0.00     0.313 C 
ATOM     28  O   UNL     1      -3.580   9.019 -12.994  1.00  0.00    -0.252 OA
BRANCH  27  29
ATOM     29  O   UNL     1      -3.250   9.862 -10.896  1.00  0.00    -0.462 OA
BRANCH  29  30
ATOM     30  C   UNL     1      -2.014  10.470 -11.318  1.00  0.00     0.274 C 
BRANCH  30  31
ATOM     31  C   UNL     1      -0.808   9.691 -10.789  1.00  0.00     0.275 C 
BRANCH  31  32
ATOM     32  O   UNL     1      -0.693   8.409 -11.430  1.00  0.00    -0.458 OA
BRANCH  32  33
ATOM     33  C   UNL     1      -1.242   7.376 -10.750  1.00  0.00     0.338 C 
ATOM     34  O   UNL     1      -1.774   7.408  -9.655  1.00  0.00    -0.246 OA
BRANCH  33  35
ATOM     35  C   UNL     1      -1.219   6.175 -11.595  1.00  0.00     0.060 A 
ATOM     36  C   UNL     1      -2.430   5.707 -12.108  1.00  0.00     0.016 A 
ATOM     37  C   UNL     1      -0.034   5.474 -11.817  1.00  0.00     0.016 A 
ATOM     38  C   UNL     1      -2.468   4.525 -12.840  1.00  0.00     0.010 A 
ATOM     39  C   UNL     1      -0.070   4.294 -12.565  1.00  0.00     0.010 A 
ATOM     40  C   UNL     1      -1.288   3.807 -13.071  1.00  0.00    -0.014 A 
BRANCH  40  41
ATOM     41  C   UNL     1      -1.339   2.529 -13.819  1.00  0.00     0.031 A 
ATOM     42  C   UNL     1      -1.165   1.227 -13.092  1.00  0.00     0.074 A 
ATOM     43  C   UNL     1      -1.558   2.541 -15.147  1.00  0.00     0.049 A 
ATOM     44  N   UNL     1      -1.109   0.013 -13.576  1.00  0.00    -0.248 NA
ATOM     45  C   UNL     1      -1.036   1.301 -11.628  1.00  0.00     0.031 C 
ATOM     46  C   UNL     1      -1.798   3.740 -15.952  1.00  0.00     0.029 A 
ATOM     47  N   UNL     1      -1.619   1.512 -16.051  1.00  0.00    -0.354 N 
ATOM     48  C   UNL     1      -0.909  -0.821 -12.483  1.00  0.00     0.074 A 
ATOM     49  C   UNL     1      -0.845   0.028 -11.311  1.00  0.00     0.031 C 
ATOM     50  C   UNL     1      -1.997   3.375 -17.229  1.00  0.00     0.029 A 
ATOM     51  C   UNL     1      -1.844   1.927 -17.341  1.00  0.00     0.049 A 
ATOM     52  H   UNL     1      -1.512   0.566 -15.800  1.00  0.00     0.167 HD
ATOM     53  C   UNL     1      -0.787  -2.170 -12.459  1.00  0.00     0.031 A 
ATOM     54  C   UNL     1      -1.894   1.225 -18.489  1.00  0.00     0.031 A 
ATOM     55  C   UNL     1      -0.851  -3.007 -13.628  1.00  0.00     0.049 A 
ATOM     56  C   UNL     1      -1.678  -0.262 -18.447  1.00  0.00     0.074 A 
ATOM     57  C   UNL     1      -0.761  -4.386 -13.708  1.00  0.00     0.029 A 
ATOM     58  N   UNL     1      -1.013  -2.542 -14.925  1.00  0.00    -0.354 N 
ATOM     59  N   UNL     1      -1.486  -1.037 -17.407  1.00  0.00    -0.248 NA
ATOM     60  C   UNL     1      -1.672  -0.966 -19.736  1.00  0.00     0.031 C 
ATOM     61  C   UNL     1      -0.818  -4.750 -15.059  1.00  0.00     0.029 A 
ATOM     62  C   UNL     1      -0.992  -3.603 -15.816  1.00  0.00     0.049 A 
ATOM     63  H   UNL     1      -1.127  -1.597 -15.176  1.00  0.00     0.167 HD
ATOM     64  C   UNL     1      -1.345  -2.323 -17.914  1.00  0.00     0.074 A 
ATOM     65  C   UNL     1      -1.490  -2.223 -19.353  1.00  0.00     0.031 C 
ATOM     66  C   UNL     1      -1.117  -3.482 -17.247  1.00  0.00     0.031 A 
BRANCH  53  67
ATOM     67  C   UNL     1      -0.511  -2.810 -11.125  1.00  0.00    -0.014 A 
ATOM     68  C   UNL     1      -1.507  -2.907 -10.136  1.00  0.00     0.010 A 
ATOM     69  C   UNL     1       0.773  -3.318 -10.855  1.00  0.00     0.010 A 
ATOM     70  C   UNL     1      -1.208  -3.449  -8.883  1.00  0.00     0.020 A 
ATOM     71  C   UNL     1       1.070  -3.882  -9.612  1.00  0.00     0.020 A 
ATOM     72  C   UNL     1       0.084  -3.921  -8.624  1.00  0.00     0.054 A 
BRANCH  72  73
ATOM     73  S   UNL     1       0.457  -4.600  -6.984  1.00  0.00     0.124 S 
ATOM     74  O   UNL     1       0.578  -3.388  -6.177  1.00  0.00    -0.237 OA
ATOM     75  O   UNL     1      -0.713  -5.427  -6.700  1.00  0.00    -0.237 OA
ATOM     76  O   UNL     1       1.701  -5.338  -7.189  1.00  0.00    -0.744 OA
ENDBRANCH  72  73
ENDBRANCH  53  67
BRANCH  54  77
ATOM     77  C   UNL     1      -2.140   1.932 -19.773  1.00  0.00    -0.014 A 
ATOM     78  C   UNL     1      -3.377   1.808 -20.428  1.00  0.00     0.010 A 
ATOM     79  C   UNL     1      -1.153   2.771 -20.324  1.00  0.00     0.010 A 
ATOM     80  C   UNL     1      -3.625   2.515 -21.608  1.00  0.00     0.020 A 
ATOM     81  C   UNL     1      -1.406   3.496 -21.491  1.00  0.00     0.020 A 
ATOM     82  C   UNL     1      -2.640   3.360 -22.129  1.00  0.00     0.054 A 
BRANCH  82  83
ATOM     83  S   UNL     1      -3.016   4.334 -23.613  1.00  0.00     0.124 S 
ATOM     84  O   UNL     1      -2.925   3.329 -24.667  1.00  0.00    -0.237 OA
ATOM     85  O   UNL     1      -4.359   4.836 -23.332  1.00  0.00    -0.237 OA
ATOM     86  O   UNL     1      -1.969   5.353 -23.626  1.00  0.00    -0.744 OA
ENDBRANCH  82  83
ENDBRANCH  54  77
BRANCH  66  87
ATOM     87  C   UNL     1      -1.017  -4.737 -18.070  1.00  0.00    -0.014 A 
ATOM     88  C   UNL     1       0.134  -5.014 -18.829  1.00  0.00     0.010 A 
ATOM     89  C   UNL     1      -2.068  -5.672 -18.049  1.00  0.00     0.010 A 
ATOM     90  C   UNL     1       0.222  -6.193 -19.573  1.00  0.00     0.020 A 
ATOM     91  C   UNL     1      -1.974  -6.863 -18.774  1.00  0.00     0.020 A 
ATOM     92  C   UNL     1      -0.834  -7.110 -19.542  1.00  0.00     0.054 A 
BRANCH  92  93
ATOM     93  S   UNL     1      -0.680  -8.655 -20.480  1.00  0.00     0.124 S 
ATOM     94  O   UNL     1      -0.929  -8.206 -21.847  1.00  0.00    -0.237 OA
ATOM     95  O   UNL     1       0.692  -9.071 -20.195  1.00  0.00    -0.237 OA
ATOM     96  O   UNL     1      -1.714  -9.512 -19.906  1.00  0.00    -0.744 OA
ENDBRANCH  92  93
ENDBRANCH  66  87
ENDBRANCH  40  41
ENDBRANCH  33  35
ENDBRANCH  32  33
ENDBRANCH  31  32
ENDBRANCH  30  31
ENDBRANCH  29  30
ENDBRANCH  27  29
ENDBRANCH   1  27
TORSDOF 23
