REMARK SMILES Nn1c(S[C@@H](C(=O)OCCOC(=O)c2ccc(-c3c4nc(c(-c5ccc(S(=O)(=O)[O-])cc5)c5ccc([nH]5)c(-c5ccc(S(=O)(=O)[O-])cc5)c5nc(c(-c6ccc(S(=O)(=O)[O-])cc6)c6ccc3[nH]6)C=C5)C=C4)cc2)c2ccccc2)nc2ccc(Br)cc2c1=O
REMARK SMILES IDX 9 1 8 2 6 3 7 4 5 5 4 6 3 7 2 8 88 9 80 10 87 11 89 12 81 13
REMARK SMILES IDX 86 14 82 15 84 16 83 17 85 18 1 19 74 22 75 23 79 24 76 25
REMARK SMILES IDX 78 26 77 27 10 28 11 29 12 30 13 31 14 32 15 33 73 34 16 35
REMARK SMILES IDX 72 36 17 37 18 38 19 39 66 40 20 41 71 42 65 43 67 44 21 45
REMARK SMILES IDX 70 46 64 47 63 48 22 50 52 51 33 52 51 53 34 54 37 55 50 56
REMARK SMILES IDX 68 57 35 58 36 59 49 61 69 62 38 63 23 64 24 65 32 66 25 67
REMARK SMILES IDX 31 68 26 69 27 70 28 71 29 72 30 73 53 74 54 75 62 76 55 77
REMARK SMILES IDX 61 78 56 79 57 80 58 81 59 82 60 83 39 84 40 85 48 86 41 87
REMARK SMILES IDX 47 88 42 89 43 90 44 91 45 92 46 93
REMARK H PARENT 1 20 1 21 67 49 37 60
REMARK Flexibility Score: inf
ROOT
ATOM      1  C   UNL     1       4.456   0.983  -0.923  1.00  0.00     0.274 C 
ENDROOT
BRANCH   1   2
ATOM      2  O   UNL     1       3.514  -0.074  -1.221  1.00  0.00    -0.461 OA
BRANCH   2   3
ATOM      3  C   UNL     1       3.175  -0.904  -0.187  1.00  0.00     0.324 C 
ATOM      4  O   UNL     1       3.566  -0.716   0.964  1.00  0.00    -0.251 OA
BRANCH   3   5
ATOM      5  C   UNL     1       2.448  -2.181  -0.635  1.00  0.00     0.194 C 
BRANCH   5   6
ATOM      6  S   UNL     1       1.792  -2.201  -2.320  1.00  0.00    -0.066 SA
BRANCH   6   7
ATOM      7  C   UNL     1       0.398  -1.178  -2.573  1.00  0.00     0.191 A 
ATOM      8  N   UNL     1      -0.160  -0.326  -1.629  1.00  0.00    -0.202 N 
ATOM      9  C   UNL     1      -1.262   0.492  -1.907  1.00  0.00     0.280 A 
ATOM     10  N   UNL     1      -0.088  -1.269  -3.775  1.00  0.00    -0.222 NA
ATOM     11  C   UNL     1      -1.813   0.397  -3.258  1.00  0.00     0.069 A 
ATOM     12  O   UNL     1      -1.753   1.263  -1.083  1.00  0.00    -0.267 OA
ATOM     13  C   UNL     1      -1.200  -0.495  -4.134  1.00  0.00     0.079 A 
ATOM     14  C   UNL     1      -2.912   1.175  -3.639  1.00  0.00     0.031 A 
ATOM     15  C   UNL     1      -1.718  -0.613  -5.425  1.00  0.00     0.030 A 
ATOM     16  C   UNL     1      -3.409   1.045  -4.930  1.00  0.00     0.018 A 
ATOM     17  C   UNL     1      -2.821   0.151  -5.825  1.00  0.00     0.018 A 
ATOM     18  Br  UNL     1      -4.888   2.086  -5.478  1.00  0.00    -0.051 Br
BRANCH   8  19
ATOM     19  N   UNL     1       0.337  -0.191  -0.330  1.00  0.00    -0.334 N 
ATOM     20  H   UNL     1       1.112  -0.726  -0.041  1.00  0.00     0.178 HD
ATOM     21  H   UNL     1      -0.087   0.440   0.296  1.00  0.00     0.178 HD
ENDBRANCH   8  19
ENDBRANCH   6   7
ENDBRANCH   5   6
BRANCH   5  22
ATOM     22  C   UNL     1       1.632  -2.963   0.404  1.00  0.00    -0.023 A 
ATOM     23  C   UNL     1       1.413  -4.343   0.237  1.00  0.00     0.005 A 
ATOM     24  C   UNL     1       1.109  -2.375   1.565  1.00  0.00     0.005 A 
ATOM     25  C   UNL     1       0.666  -5.077   1.166  1.00  0.00     0.000 A 
ATOM     26  C   UNL     1       0.332  -3.094   2.478  1.00  0.00     0.000 A 
ATOM     27  C   UNL     1       0.109  -4.448   2.276  1.00  0.00     0.000 A 
ENDBRANCH   5  22
ENDBRANCH   3   5
ENDBRANCH   2   3
ENDBRANCH   1   2
BRANCH   1  28
ATOM     28  C   UNL     1       3.761   2.338  -0.801  1.00  0.00     0.275 C 
BRANCH  28  29
ATOM     29  O   UNL     1       2.969   2.344   0.396  1.00  0.00    -0.458 OA
BRANCH  29  30
ATOM     30  C   UNL     1       1.758   2.940   0.323  1.00  0.00     0.338 C 
ATOM     31  O   UNL     1       1.341   3.610  -0.613  1.00  0.00    -0.246 OA
BRANCH  30  32
ATOM     32  C   UNL     1       0.928   2.545   1.494  1.00  0.00     0.060 A 
ATOM     33  C   UNL     1      -0.310   3.155   1.704  1.00  0.00     0.016 A 
ATOM     34  C   UNL     1       1.273   1.440   2.275  1.00  0.00     0.016 A 
ATOM     35  C   UNL     1      -1.174   2.673   2.702  1.00  0.00     0.010 A 
ATOM     36  C   UNL     1       0.353   0.890   3.171  1.00  0.00     0.010 A 
ATOM     37  C   UNL     1      -0.871   1.512   3.437  1.00  0.00    -0.014 A 
BRANCH  37  38
ATOM     38  C   UNL     1      -1.802   0.976   4.485  1.00  0.00     0.031 A 
ATOM     39  C   UNL     1      -1.313   0.667   5.888  1.00  0.00     0.074 A 
ATOM     40  C   UNL     1      -3.103   0.741   4.199  1.00  0.00     0.049 A 
ATOM     41  N   UNL     1      -2.004   0.269   6.931  1.00  0.00    -0.248 NA
ATOM     42  C   UNL     1       0.133   0.756   6.149  1.00  0.00     0.031 C 
ATOM     43  C   UNL     1      -3.721   0.850   2.876  1.00  0.00     0.029 A 
ATOM     44  N   UNL     1      -4.153   0.390   5.021  1.00  0.00    -0.354 N 
ATOM     45  C   UNL     1      -1.075   0.041   7.941  1.00  0.00     0.074 A 
ATOM     46  C   UNL     1       0.232   0.235   7.361  1.00  0.00     0.031 C 
ATOM     47  C   UNL     1      -5.048   0.675   2.993  1.00  0.00     0.029 A 
ATOM     48  C   UNL     1      -5.378   0.416   4.393  1.00  0.00     0.049 A 
ATOM     49  H   UNL     1      -4.037   0.145   5.968  1.00  0.00     0.167 HD
ATOM     50  C   UNL     1      -1.272  -0.228   9.253  1.00  0.00     0.031 A 
ATOM     51  C   UNL     1      -6.631   0.298   4.883  1.00  0.00     0.031 A 
ATOM     52  C   UNL     1      -2.563  -0.323   9.874  1.00  0.00     0.049 A 
ATOM     53  C   UNL     1      -6.847   0.112   6.362  1.00  0.00     0.074 A 
ATOM     54  C   UNL     1      -2.856  -0.484  11.217  1.00  0.00     0.029 A 
ATOM     55  N   UNL     1      -3.770  -0.228   9.205  1.00  0.00    -0.354 N 
ATOM     56  N   UNL     1      -5.955   0.012   7.317  1.00  0.00    -0.248 NA
ATOM     57  C   UNL     1      -8.240   0.048   6.835  1.00  0.00     0.031 C 
ATOM     58  C   UNL     1      -4.245  -0.508  11.358  1.00  0.00     0.029 A 
ATOM     59  C   UNL     1      -4.813  -0.320  10.108  1.00  0.00     0.049 A 
ATOM     60  H   UNL     1      -3.872  -0.112   8.233  1.00  0.00     0.167 HD
ATOM     61  C   UNL     1      -6.677  -0.098   8.502  1.00  0.00     0.074 A 
ATOM     62  C   UNL     1      -8.079  -0.043   8.150  1.00  0.00     0.031 C 
ATOM     63  C   UNL     1      -6.209  -0.235   9.765  1.00  0.00     0.031 A 
BRANCH  50  64
ATOM     64  C   UNL     1      -0.056  -0.346  10.135  1.00  0.00    -0.014 A 
ATOM     65  C   UNL     1       0.270  -1.572  10.741  1.00  0.00     0.010 A 
ATOM     66  C   UNL     1       0.731   0.787  10.415  1.00  0.00     0.010 A 
ATOM     67  C   UNL     1       1.365  -1.664  11.607  1.00  0.00     0.020 A 
ATOM     68  C   UNL     1       1.844   0.692  11.250  1.00  0.00     0.020 A 
ATOM     69  C   UNL     1       2.145  -0.530  11.854  1.00  0.00     0.054 A 
BRANCH  69  70
ATOM     70  S   UNL     1       3.588  -0.664  12.945  1.00  0.00     0.124 S 
ATOM     71  O   UNL     1       2.984  -0.552  14.268  1.00  0.00    -0.237 OA
ATOM     72  O   UNL     1       4.131  -1.978  12.606  1.00  0.00    -0.237 OA
ATOM     73  O   UNL     1       4.423   0.465  12.539  1.00  0.00    -0.744 OA
ENDBRANCH  69  70
ENDBRANCH  50  64
BRANCH  51  74
ATOM     74  C   UNL     1      -7.792   0.476   3.968  1.00  0.00    -0.014 A 
ATOM     75  C   UNL     1      -8.142  -0.518   3.037  1.00  0.00     0.010 A 
ATOM     76  C   UNL     1      -8.528   1.675   3.997  1.00  0.00     0.010 A 
ATOM     77  C   UNL     1      -9.187  -0.305   2.133  1.00  0.00     0.020 A 
ATOM     78  C   UNL     1      -9.588   1.883   3.110  1.00  0.00     0.020 A 
ATOM     79  C   UNL     1      -9.896   0.899   2.168  1.00  0.00     0.054 A 
BRANCH  79  80
ATOM     80  S   UNL     1     -11.234   1.165   0.971  1.00  0.00     0.124 S 
ATOM     81  O   UNL     1     -10.489   1.484  -0.244  1.00  0.00    -0.237 OA
ATOM     82  O   UNL     1     -11.923  -0.123   0.968  1.00  0.00    -0.237 OA
ATOM     83  O   UNL     1     -11.994   2.272   1.548  1.00  0.00    -0.744 OA
ENDBRANCH  79  80
ENDBRANCH  51  74
BRANCH  63  84
ATOM     84  C   UNL     1      -7.191  -0.317  10.903  1.00  0.00    -0.014 A 
ATOM     85  C   UNL     1      -7.260   0.737  11.835  1.00  0.00     0.010 A 
ATOM     86  C   UNL     1      -7.902  -1.502  11.154  1.00  0.00     0.010 A 
ATOM     87  C   UNL     1      -7.982   0.588  13.022  1.00  0.00     0.020 A 
ATOM     88  C   UNL     1      -8.643  -1.647  12.331  1.00  0.00     0.020 A 
ATOM     89  C   UNL     1      -8.652  -0.613  13.271  1.00  0.00     0.054 A 
BRANCH  89  90
ATOM     90  S   UNL     1      -9.520  -0.821  14.851  1.00  0.00     0.124 S 
ATOM     91  O   UNL     1      -8.421  -1.110  15.768  1.00  0.00    -0.237 OA
ATOM     92  O   UNL     1     -10.171   0.473  15.037  1.00  0.00    -0.237 OA
ATOM     93  O   UNL     1     -10.430  -1.936  14.596  1.00  0.00    -0.744 OA
ENDBRANCH  89  90
ENDBRANCH  63  84
ENDBRANCH  37  38
ENDBRANCH  30  32
ENDBRANCH  29  30
ENDBRANCH  28  29
ENDBRANCH   1  28
TORSDOF 18
