REMARK SMILES CCOc1cc2c(cc1/C=C1/C(=O)N(c3cccc(C(=O)OCCOC(=O)c4ccc(-c5c6nc(c(-c7ccc(S(=O)(=O)[O-])cc7)c7ccc([nH]7)c(-c7ccc(S(=O)(=O)[O-])cc7)c7nc(c(-c8ccc(S(=O)(=O)[O-])cc8)c8ccc5[nH]8)C=C7)C=C6)cc4)c3)C(=S)N=C1O)OCO2
REMARK SMILES IDX 23 1 22 2 20 3 21 4 19 5 15 6 16 7 88 8 17 9 18 10 14 11
REMARK SMILES IDX 10 12 11 13 12 14 92 15 13 16 91 17 89 18 90 19 9 20 4 21
REMARK SMILES IDX 5 22 6 23 8 24 7 25 96 26 94 27 95 28 3 29 2 30 1 31 93 32
REMARK SMILES IDX 24 34 25 35 26 36 27 37 28 38 29 39 87 40 30 41 86 42 31 43
REMARK SMILES IDX 32 44 33 45 80 46 34 47 85 48 79 49 81 50 35 51 84 52 78 53
REMARK SMILES IDX 77 54 36 56 66 57 47 58 65 59 48 60 51 61 64 62 82 63 49 64
REMARK SMILES IDX 50 65 63 67 83 68 52 69 37 70 38 71 46 72 39 73 45 74 40 75
REMARK SMILES IDX 41 76 42 77 43 78 44 79 67 80 68 81 76 82 69 83 75 84 70 85
REMARK SMILES IDX 71 86 72 87 73 88 74 89 53 90 54 91 62 92 55 93 61 94 56 95
REMARK SMILES IDX 57 96 58 97 59 98 60 99
REMARK H PARENT 93 33 81 55 51 66
REMARK Flexibility Score: inf
ROOT
ATOM      1  C   UNL     1      -1.780   1.204 -11.140  1.00  0.00     0.275 C 
ENDROOT
BRANCH   1   2
ATOM      2  O   UNL     1      -1.052   0.071 -10.631  1.00  0.00    -0.458 OA
BRANCH   2   3
ATOM      3  C   UNL     1      -1.709  -1.118 -10.628  1.00  0.00     0.338 C 
ATOM      4  O   UNL     1      -2.860  -1.312 -10.969  1.00  0.00    -0.246 OA
BRANCH   3   5
ATOM      5  C   UNL     1      -0.775  -2.209 -10.250  1.00  0.00     0.062 A 
ATOM      6  C   UNL     1       1.168  -3.020  -9.051  1.00  0.00     0.052 A 
ATOM      7  C   UNL     1       1.010  -4.275  -9.662  1.00  0.00     0.027 A 
ATOM      8  C   UNL     1       0.285  -1.981  -9.373  1.00  0.00     0.042 A 
ATOM      9  C   UNL     1      -0.062  -4.512 -10.517  1.00  0.00     0.003 A 
ATOM     10  C   UNL     1      -0.975  -3.493 -10.774  1.00  0.00     0.016 A 
BRANCH   6  11
ATOM     11  N   UNL     1       2.137  -2.854  -8.008  1.00  0.00    -0.251 N 
ATOM     12  C   UNL     1       2.344  -1.623  -4.583  1.00  0.00     0.031 C 
ATOM     13  C   UNL     1       2.648  -2.354  -5.679  1.00  0.00     0.103 C 
ATOM     14  C   UNL     1       1.643  -2.390  -6.776  1.00  0.00     0.270 C 
ATOM     15  C   UNL     1       3.842  -3.144  -5.957  1.00  0.00     0.226 C 
ATOM     16  O   UNL     1       0.481  -2.047  -6.556  1.00  0.00    -0.268 OA
ATOM     17  N   UNL     1       4.238  -3.550  -7.101  1.00  0.00    -0.184 NA
ATOM     18  C   UNL     1       3.483  -3.228  -8.204  1.00  0.00     0.210 C 
ATOM     19  S   UNL     1       4.248  -3.270  -9.720  1.00  0.00    -0.038 S 
BRANCH  12  20
ATOM     20  C   UNL     1       3.158  -1.399  -3.374  1.00  0.00     0.021 A 
ATOM     21  C   UNL     1       2.582  -1.452  -2.078  1.00  0.00     0.130 A 
ATOM     22  C   UNL     1       3.381  -1.457  -0.929  1.00  0.00     0.097 A 
ATOM     23  C   UNL     1       4.736  -1.308  -1.096  1.00  0.00     0.169 A 
ATOM     24  C   UNL     1       4.530  -1.127  -3.485  1.00  0.00     0.062 A 
ATOM     25  C   UNL     1       5.292  -1.123  -2.337  1.00  0.00     0.166 A 
ATOM     26  O   UNL     1       5.668  -1.323  -0.108  1.00  0.00    -0.453 OA
ATOM     27  O   UNL     1       6.644  -0.994  -2.287  1.00  0.00    -0.454 OA
ATOM     28  C   UNL     1       6.880  -1.235  -0.885  1.00  0.00     0.468 C 
BRANCH  21  29
ATOM     29  O   UNL     1       1.224  -1.579  -1.907  1.00  0.00    -0.493 OA
BRANCH  29  30
ATOM     30  C   UNL     1       0.602  -0.304  -1.665  1.00  0.00     0.226 C 
ATOM     31  C   UNL     1       0.568   0.047  -0.183  1.00  0.00     0.049 C 
ENDBRANCH  29  30
ENDBRANCH  21  29
ENDBRANCH  12  20
BRANCH  15  32
ATOM     32  O   UNL     1       4.568  -3.542  -4.912  1.00  0.00    -0.493 OA
ATOM     33  H   UNL     1       4.328  -3.277  -4.046  1.00  0.00     0.295 HD
ENDBRANCH  15  32
ENDBRANCH   6  11
ENDBRANCH   3   5
ENDBRANCH   2   3
ENDBRANCH   1   2
BRANCH   1  34
ATOM     34  C   UNL     1      -1.304   1.573 -12.546  1.00  0.00     0.275 C 
BRANCH  34  35
ATOM     35  O   UNL     1      -1.700   0.569 -13.496  1.00  0.00    -0.458 OA
BRANCH  35  36
ATOM     36  C   UNL     1      -0.721  -0.283 -13.876  1.00  0.00     0.338 C 
ATOM     37  O   UNL     1       0.451  -0.268 -13.541  1.00  0.00    -0.246 OA
BRANCH  36  38
ATOM     38  C   UNL     1      -1.295  -1.332 -14.728  1.00  0.00     0.060 A 
ATOM     39  C   UNL     1      -1.861  -2.443 -14.111  1.00  0.00     0.016 A 
ATOM     40  C   UNL     1      -1.164  -1.286 -16.112  1.00  0.00     0.016 A 
ATOM     41  C   UNL     1      -2.222  -3.560 -14.858  1.00  0.00     0.010 A 
ATOM     42  C   UNL     1      -1.613  -2.372 -16.871  1.00  0.00     0.010 A 
ATOM     43  C   UNL     1      -2.117  -3.534 -16.252  1.00  0.00    -0.014 A 
BRANCH  43  44
ATOM     44  C   UNL     1      -2.492  -4.717 -17.073  1.00  0.00     0.031 A 
ATOM     45  C   UNL     1      -1.467  -5.339 -17.984  1.00  0.00     0.074 A 
ATOM     46  C   UNL     1      -3.743  -5.220 -17.033  1.00  0.00     0.049 A 
ATOM     47  N   UNL     1      -1.640  -6.167 -18.980  1.00  0.00    -0.248 NA
ATOM     48  C   UNL     1      -0.063  -4.962 -17.751  1.00  0.00     0.031 C 
ATOM     49  C   UNL     1      -4.815  -4.776 -16.138  1.00  0.00     0.029 A 
ATOM     50  N   UNL     1      -4.331  -6.211 -17.782  1.00  0.00    -0.354 N 
ATOM     51  C   UNL     1      -0.379  -6.354 -19.538  1.00  0.00     0.074 A 
ATOM     52  C   UNL     1       0.549  -5.560 -18.763  1.00  0.00     0.031 C 
ATOM     53  C   UNL     1      -5.921  -5.496 -16.382  1.00  0.00     0.029 A 
ATOM     54  C   UNL     1      -5.670  -6.378 -17.515  1.00  0.00     0.049 A 
ATOM     55  H   UNL     1      -3.841  -6.749 -18.445  1.00  0.00     0.167 HD
ATOM     56  C   UNL     1      -0.036  -7.110 -20.609  1.00  0.00     0.031 A 
ATOM     57  C   UNL     1      -6.611  -7.106 -18.149  1.00  0.00     0.031 A 
ATOM     58  C   UNL     1      -0.967  -7.923 -21.345  1.00  0.00     0.049 A 
ATOM     59  C   UNL     1      -6.224  -7.890 -19.372  1.00  0.00     0.074 A 
ATOM     60  C   UNL     1      -0.726  -8.728 -22.444  1.00  0.00     0.029 A 
ATOM     61  N   UNL     1      -2.316  -8.047 -21.045  1.00  0.00    -0.354 N 
ATOM     62  N   UNL     1      -5.045  -8.004 -19.935  1.00  0.00    -0.248 NA
ATOM     63  C   UNL     1      -7.294  -8.630 -20.055  1.00  0.00     0.031 C 
ATOM     64  C   UNL     1      -1.938  -9.306 -22.835  1.00  0.00     0.029 A 
ATOM     65  C   UNL     1      -2.922  -8.906 -21.944  1.00  0.00     0.049 A 
ATOM     66  H   UNL     1      -2.774  -7.590 -20.303  1.00  0.00     0.167 HD
ATOM     67  C   UNL     1      -5.226  -8.851 -21.023  1.00  0.00     0.074 A 
ATOM     68  C   UNL     1      -6.626  -9.222 -21.037  1.00  0.00     0.031 C 
ATOM     69  C   UNL     1      -4.313  -9.282 -21.926  1.00  0.00     0.031 A 
BRANCH  56  70
ATOM     70  C   UNL     1       1.393  -7.050 -21.083  1.00  0.00    -0.014 A 
ATOM     71  C   UNL     1       2.439  -7.647 -20.360  1.00  0.00     0.010 A 
ATOM     72  C   UNL     1       1.684  -6.411 -22.304  1.00  0.00     0.010 A 
ATOM     73  C   UNL     1       3.755  -7.571 -20.827  1.00  0.00     0.020 A 
ATOM     74  C   UNL     1       2.994  -6.358 -22.789  1.00  0.00     0.020 A 
ATOM     75  C   UNL     1       4.025  -6.923 -22.037  1.00  0.00     0.054 A 
BRANCH  75  76
ATOM     76  S   UNL     1       5.738  -6.853 -22.629  1.00  0.00     0.124 S 
ATOM     77  O   UNL     1       6.326  -5.861 -21.732  1.00  0.00    -0.237 OA
ATOM     78  O   UNL     1       6.201  -8.225 -22.437  1.00  0.00    -0.237 OA
ATOM     79  O   UNL     1       5.608  -6.433 -24.022  1.00  0.00    -0.744 OA
ENDBRANCH  75  76
ENDBRANCH  56  70
BRANCH  57  80
ATOM     80  C   UNL     1      -8.022  -7.069 -17.672  1.00  0.00    -0.014 A 
ATOM     81  C   UNL     1      -8.606  -8.200 -17.077  1.00  0.00     0.010 A 
ATOM     82  C   UNL     1      -8.781  -5.889 -17.787  1.00  0.00     0.010 A 
ATOM     83  C   UNL     1      -9.924  -8.154 -16.611  1.00  0.00     0.020 A 
ATOM     84  C   UNL     1     -10.088  -5.830 -17.295  1.00  0.00     0.020 A 
ATOM     85  C   UNL     1     -10.655  -6.968 -16.720  1.00  0.00     0.054 A 
BRANCH  85  86
ATOM     86  S   UNL     1     -12.342  -6.913 -16.053  1.00  0.00     0.124 S 
ATOM     87  O   UNL     1     -13.087  -7.673 -17.051  1.00  0.00    -0.237 OA
ATOM     88  O   UNL     1     -12.189  -7.556 -14.751  1.00  0.00    -0.237 OA
ATOM     89  O   UNL     1     -12.643  -5.484 -16.001  1.00  0.00    -0.744 OA
ENDBRANCH  85  86
ENDBRANCH  57  80
BRANCH  69  90
ATOM     90  C   UNL     1      -4.772 -10.258 -22.973  1.00  0.00    -0.014 A 
ATOM     91  C   UNL     1      -5.517  -9.838 -24.087  1.00  0.00     0.010 A 
ATOM     92  C   UNL     1      -4.355 -11.600 -22.887  1.00  0.00     0.010 A 
ATOM     93  C   UNL     1      -5.838 -10.746 -25.100  1.00  0.00     0.020 A 
ATOM     94  C   UNL     1      -4.654 -12.504 -23.907  1.00  0.00     0.020 A 
ATOM     95  C   UNL     1      -5.397 -12.071 -25.007  1.00  0.00     0.054 A 
BRANCH  95  96
ATOM     96  S   UNL     1      -5.745 -13.206 -26.379  1.00  0.00     0.124 S 
ATOM     97  O   UNL     1      -7.170 -13.469 -26.203  1.00  0.00    -0.237 OA
ATOM     98  O   UNL     1      -5.392 -12.409 -27.552  1.00  0.00    -0.237 OA
ATOM     99  O   UNL     1      -4.865 -14.343 -26.120  1.00  0.00    -0.744 OA
ENDBRANCH  95  96
ENDBRANCH  69  90
ENDBRANCH  43  44
ENDBRANCH  36  38
ENDBRANCH  35  36
ENDBRANCH  34  35
ENDBRANCH   1  34
TORSDOF 19
