REMARK SMILES C[C@@H]([NH+]1CCC(CCC(=O)OCCOC(=O)c2ccc(-c3c4nc(c(-c5ccc(S(=O)(=O)[O-])cc5)c5ccc([nH]5)c(-c5ccc(S(=O)(=O)[O-])cc5)c5nc(c(-c6ccc(S(=O)(=O)[O-])cc6)c6ccc3[nH]6)C=C5)C=C4)cc2)CC1)C1(C)CC1
REMARK SMILES IDX 12 1 11 2 9 3 10 4 8 5 7 6 6 7 3 8 4 9 78 10 5 12 77 13 2 14
REMARK SMILES IDX 1 15 79 16 80 17 81 18 82 19 13 20 14 21 15 22 16 23 17 24
REMARK SMILES IDX 18 25 76 26 19 27 75 28 20 29 21 30 22 31 69 32 23 33 74 34
REMARK SMILES IDX 68 35 70 36 24 37 73 38 67 39 66 40 25 42 55 43 36 44 54 45
REMARK SMILES IDX 37 46 40 47 53 48 71 49 38 50 39 51 52 53 72 54 41 55 26 56
REMARK SMILES IDX 27 57 35 58 28 59 34 60 29 61 30 62 31 63 32 64 33 65 56 66
REMARK SMILES IDX 57 67 65 68 58 69 64 70 59 71 60 72 61 73 62 74 63 75 42 76
REMARK SMILES IDX 43 77 51 78 44 79 50 80 45 81 46 82 47 83 48 84 49 85
REMARK H PARENT 3 11 70 41 40 52
REMARK Flexibility Score: inf
ROOT
ATOM      1  C   UNL     1       4.205   5.391  -1.960  1.00  0.00     0.274 C 
ENDROOT
BRANCH   1   2
ATOM      2  O   UNL     1       3.986   5.094  -0.569  1.00  0.00    -0.462 OA
BRANCH   2   3
ATOM      3  C   UNL     1       4.815   5.668   0.336  1.00  0.00     0.305 C 
ATOM      4  O   UNL     1       5.779   6.367   0.046  1.00  0.00    -0.252 OA
BRANCH   3   5
ATOM      5  C   UNL     1       4.477   5.295   1.767  1.00  0.00     0.123 C 
BRANCH   5   6
ATOM      6  C   UNL     1       2.990   5.116   2.106  1.00  0.00     0.016 C 
BRANCH   6   7
ATOM      7  C   UNL     1       2.348   3.834   1.557  1.00  0.00     0.001 C 
ATOM      8  N   UNL     1       0.906   1.280   1.691  1.00  0.00    -0.332 N 
ATOM      9  C   UNL     1       2.358   1.334   1.467  1.00  0.00     0.262 C 
ATOM     10  C   UNL     1       0.243   2.505   1.216  1.00  0.00     0.262 C 
ATOM     11  H   UNL     1       0.731   1.260   2.695  1.00  0.00     0.348 HD
ATOM     12  C   UNL     1       3.008   2.563   2.094  1.00  0.00     0.065 C 
ATOM     13  C   UNL     1       0.849   3.763   1.858  1.00  0.00     0.065 C 
BRANCH   8  14
ATOM     14  C   UNL     1       0.318   0.013   1.185  1.00  0.00     0.186 C 
ATOM     15  C   UNL     1       0.696  -0.318  -0.272  1.00  0.00     0.076 C 
BRANCH  14  16
ATOM     16  C   UNL     1      -1.194  -0.072   1.496  1.00  0.00     0.019 C 
ATOM     17  C   UNL     1      -1.531   0.090   2.967  1.00  0.00     0.018 C 
ATOM     18  C   UNL     1      -2.208   0.423   0.476  1.00  0.00     0.013 C 
ATOM     19  C   UNL     1      -2.088  -1.048   0.744  1.00  0.00     0.013 C 
ENDBRANCH  14  16
ENDBRANCH   8  14
ENDBRANCH   6   7
ENDBRANCH   5   6
ENDBRANCH   3   5
ENDBRANCH   2   3
ENDBRANCH   1   2
BRANCH   1  20
ATOM     20  C   UNL     1       3.199   6.427  -2.465  1.00  0.00     0.275 C 
BRANCH  20  21
ATOM     21  O   UNL     1       3.449   7.714  -1.872  1.00  0.00    -0.458 OA
BRANCH  21  22
ATOM     22  C   UNL     1       2.697   7.993  -0.781  1.00  0.00     0.338 C 
ATOM     23  O   UNL     1       1.781   7.328  -0.330  1.00  0.00    -0.246 OA
BRANCH  22  24
ATOM     24  C   UNL     1       3.251   9.169  -0.091  1.00  0.00     0.060 A 
ATOM     25  C   UNL     1       3.691   9.001   1.224  1.00  0.00     0.016 A 
ATOM     26  C   UNL     1       3.269  10.430  -0.690  1.00  0.00     0.016 A 
ATOM     27  C   UNL     1       4.142  10.092   1.956  1.00  0.00     0.010 A 
ATOM     28  C   UNL     1       3.714  11.531   0.051  1.00  0.00     0.010 A 
ATOM     29  C   UNL     1       4.132  11.369   1.384  1.00  0.00    -0.014 A 
BRANCH  29  30
ATOM     30  C   UNL     1       4.454  12.536   2.238  1.00  0.00     0.031 A 
ATOM     31  C   UNL     1       3.335  13.384   2.775  1.00  0.00     0.074 A 
ATOM     32  C   UNL     1       5.728  12.788   2.588  1.00  0.00     0.049 A 
ATOM     33  N   UNL     1       3.395  14.442   3.542  1.00  0.00    -0.248 NA
ATOM     34  C   UNL     1       1.968  12.985   2.403  1.00  0.00     0.031 C 
ATOM     35  C   UNL     1       6.891  12.002   2.175  1.00  0.00     0.029 A 
ATOM     36  N   UNL     1       6.254  13.772   3.387  1.00  0.00    -0.354 N 
ATOM     37  C   UNL     1       2.078  14.846   3.730  1.00  0.00     0.074 A 
ATOM     38  C   UNL     1       1.243  13.930   2.982  1.00  0.00     0.031 C 
ATOM     39  C   UNL     1       7.995  12.529   2.733  1.00  0.00     0.029 A 
ATOM     40  C   UNL     1       7.621  13.706   3.513  1.00  0.00     0.049 A 
ATOM     41  H   UNL     1       5.705  14.460   3.827  1.00  0.00     0.167 HD
ATOM     42  C   UNL     1       1.607  15.884   4.462  1.00  0.00     0.031 A 
ATOM     43  C   UNL     1       8.475  14.511   4.173  1.00  0.00     0.031 A 
ATOM     44  C   UNL     1       2.440  16.793   5.203  1.00  0.00     0.049 A 
ATOM     45  C   UNL     1       7.930  15.684   4.943  1.00  0.00     0.074 A 
ATOM     46  C   UNL     1       2.060  17.881   5.969  1.00  0.00     0.029 A 
ATOM     47  N   UNL     1       3.823  16.717   5.274  1.00  0.00    -0.354 N 
ATOM     48  N   UNL     1       6.683  16.062   5.098  1.00  0.00    -0.248 NA
ATOM     49  C   UNL     1       8.909  16.536   5.631  1.00  0.00     0.031 C 
ATOM     50  C   UNL     1       3.218  18.487   6.472  1.00  0.00     0.029 A 
ATOM     51  C   UNL     1       4.314  17.747   6.059  1.00  0.00     0.049 A 
ATOM     52  H   UNL     1       4.374  16.032   4.831  1.00  0.00     0.167 HD
ATOM     53  C   UNL     1       6.727  17.186   5.915  1.00  0.00     0.074 A 
ATOM     54  C   UNL     1       8.121  17.413   6.238  1.00  0.00     0.031 C 
ATOM     55  C   UNL     1       5.707  17.962   6.359  1.00  0.00     0.031 A 
BRANCH  42  56
ATOM     56  C   UNL     1       0.119  16.110   4.454  1.00  0.00    -0.014 A 
ATOM     57  C   UNL     1      -0.752  15.259   5.158  1.00  0.00     0.010 A 
ATOM     58  C   UNL     1      -0.413  17.198   3.739  1.00  0.00     0.010 A 
ATOM     59  C   UNL     1      -2.134  15.467   5.110  1.00  0.00     0.020 A 
ATOM     60  C   UNL     1      -1.792  17.423   3.708  1.00  0.00     0.020 A 
ATOM     61  C   UNL     1      -2.645  16.544   4.379  1.00  0.00     0.054 A 
BRANCH  61  62
ATOM     62  S   UNL     1      -4.441  16.797   4.335  1.00  0.00     0.124 S 
ATOM     63  O   UNL     1      -4.869  15.753   3.407  1.00  0.00    -0.237 OA
ATOM     64  O   UNL     1      -4.830  16.596   5.729  1.00  0.00    -0.237 OA
ATOM     65  O   UNL     1      -4.586  18.165   3.843  1.00  0.00    -0.744 OA
ENDBRANCH  61  62
ENDBRANCH  42  56
BRANCH  43  66
ATOM     66  C   UNL     1       9.938  14.247   4.121  1.00  0.00    -0.014 A 
ATOM     67  C   UNL     1      10.627  13.784   5.255  1.00  0.00     0.010 A 
ATOM     68  C   UNL     1      10.650  14.456   2.925  1.00  0.00     0.010 A 
ATOM     69  C   UNL     1      12.005  13.551   5.200  1.00  0.00     0.020 A 
ATOM     70  C   UNL     1      12.022  14.200   2.859  1.00  0.00     0.020 A 
ATOM     71  C   UNL     1      12.694  13.760   4.001  1.00  0.00     0.054 A 
BRANCH  71  72
ATOM     72  S   UNL     1      14.471  13.401   3.933  1.00  0.00     0.124 S 
ATOM     73  O   UNL     1      15.041  14.560   4.611  1.00  0.00    -0.237 OA
ATOM     74  O   UNL     1      14.568  12.134   4.655  1.00  0.00    -0.237 OA
ATOM     75  O   UNL     1      14.746  13.313   2.501  1.00  0.00    -0.744 OA
ENDBRANCH  71  72
ENDBRANCH  43  66
BRANCH  55  76
ATOM     76  C   UNL     1       6.066  19.112   7.261  1.00  0.00    -0.014 A 
ATOM     77  C   UNL     1       6.693  20.264   6.755  1.00  0.00     0.010 A 
ATOM     78  C   UNL     1       5.753  19.044   8.631  1.00  0.00     0.010 A 
ATOM     79  C   UNL     1       7.044  21.310   7.613  1.00  0.00     0.020 A 
ATOM     80  C   UNL     1       6.080  20.099   9.487  1.00  0.00     0.020 A 
ATOM     81  C   UNL     1       6.743  21.217   8.976  1.00  0.00     0.054 A 
BRANCH  81  82
ATOM     82  S   UNL     1       7.197  22.589  10.072  1.00  0.00     0.124 S 
ATOM     83  O   UNL     1       8.627  22.363  10.262  1.00  0.00    -0.237 OA
ATOM     84  O   UNL     1       6.847  23.766   9.280  1.00  0.00    -0.237 OA
ATOM     85  O   UNL     1       6.368  22.373  11.255  1.00  0.00    -0.744 OA
ENDBRANCH  81  82
ENDBRANCH  55  76
ENDBRANCH  29  30
ENDBRANCH  22  24
ENDBRANCH  21  22
ENDBRANCH  20  21
ENDBRANCH   1  20
TORSDOF 18
