REMARK SMILES COc1ccc(Nc2c(C(=O)OCCOC(=O)c3ccc(-c4c5nc(c(-c6ccc(S(=O)(=O)[O-])cc6)c6ccc([nH]6)c(-c6ccc(S(=O)(=O)[O-])cc6)c6nc(c(-c7ccc(S(=O)(=O)[O-])cc7)c7ccc4[nH]7)C=C6)C=C5)cc3)[nH]c(=O)[nH]c2=O)cc1
REMARK SMILES IDX 13 1 12 2 10 3 11 4 9 5 8 6 82 7 78 8 81 9 83 10 79 11 80 14
REMARK SMILES IDX 7 15 6 17 3 18 4 19 85 20 5 21 84 22 2 23 1 24 14 25 15 26
REMARK SMILES IDX 16 27 17 28 18 29 19 30 77 31 20 32 76 33 21 34 22 35 23 36
REMARK SMILES IDX 70 37 24 38 75 39 69 40 71 41 25 42 74 43 68 44 67 45 26 47
REMARK SMILES IDX 56 48 37 49 55 50 38 51 41 52 54 53 72 54 39 55 40 56 53 58
REMARK SMILES IDX 73 59 42 60 27 61 28 62 36 63 29 64 35 65 30 66 31 67 32 68
REMARK SMILES IDX 33 69 34 70 57 71 58 72 66 73 59 74 65 75 60 76 61 77 62 78
REMARK SMILES IDX 63 79 64 80 43 81 44 82 52 83 45 84 51 85 46 86 47 87 48 88
REMARK SMILES IDX 49 89 50 90
REMARK H PARENT 78 12 81 13 7 16 71 46 41 57
REMARK Flexibility Score: inf
ROOT
ATOM      1  C   UNL     1       4.644  -4.766   6.420  1.00  0.00     0.275 C 
ENDROOT
BRANCH   1   2
ATOM      2  O   UNL     1       3.470  -5.179   5.690  1.00  0.00    -0.457 OA
BRANCH   2   3
ATOM      3  C   UNL     1       2.829  -6.285   6.142  1.00  0.00     0.357 C 
ATOM      4  O   UNL     1       3.208  -6.996   7.065  1.00  0.00    -0.244 OA
BRANCH   3   5
ATOM      5  C   UNL     1       1.519  -6.539   5.457  1.00  0.00     0.158 A 
ATOM      6  C   UNL     1       1.123  -5.935   4.317  1.00  0.00     0.136 A 
ATOM      7  C   UNL     1      -0.239  -6.371   3.803  1.00  0.00     0.278 A 
ATOM      8  N   UNL     1       0.704  -7.429   6.124  1.00  0.00    -0.299 N 
ATOM      9  N   UNL     1      -1.026  -7.088   4.659  1.00  0.00    -0.272 N 
ATOM     10  O   UNL     1      -0.629  -6.142   2.660  1.00  0.00    -0.267 OA
ATOM     11  C   UNL     1      -0.587  -7.687   5.794  1.00  0.00     0.326 A 
ATOM     12  H   UNL     1       1.084  -7.911   6.894  1.00  0.00     0.172 HD
ATOM     13  H   UNL     1      -1.981  -7.177   4.436  1.00  0.00     0.175 HD
ATOM     14  O   UNL     1      -1.296  -8.425   6.465  1.00  0.00    -0.248 OA
BRANCH   6  15
ATOM     15  N   UNL     1       1.883  -5.062   3.551  1.00  0.00    -0.349 N 
ATOM     16  H   UNL     1       2.821  -5.328   3.410  1.00  0.00     0.167 HD
BRANCH  15  17
ATOM     17  C   UNL     1       1.499  -3.850   2.946  1.00  0.00     0.039 A 
ATOM     18  C   UNL     1       0.861  -1.418   1.664  1.00  0.00     0.119 A 
ATOM     19  C   UNL     1      -0.050  -2.025   2.525  1.00  0.00     0.048 A 
ATOM     20  C   UNL     1       2.099  -2.017   1.447  1.00  0.00     0.048 A 
ATOM     21  C   UNL     1       0.260  -3.237   3.149  1.00  0.00     0.030 A 
ATOM     22  C   UNL     1       2.407  -3.228   2.076  1.00  0.00     0.030 A 
BRANCH  18  23
ATOM     23  O   UNL     1       0.454  -0.231   1.120  1.00  0.00    -0.497 OA
ATOM     24  C   UNL     1       1.019   0.080  -0.147  1.00  0.00     0.278 C 
ENDBRANCH  18  23
ENDBRANCH  15  17
ENDBRANCH   6  15
ENDBRANCH   3   5
ENDBRANCH   2   3
ENDBRANCH   1   2
BRANCH   1  25
ATOM     25  C   UNL     1       4.348  -3.604   7.377  1.00  0.00     0.275 C 
BRANCH  25  26
ATOM     26  O   UNL     1       3.617  -4.037   8.540  1.00  0.00    -0.458 OA
BRANCH  26  27
ATOM     27  C   UNL     1       2.274  -3.910   8.450  1.00  0.00     0.338 C 
ATOM     28  O   UNL     1       1.645  -3.462   7.501  1.00  0.00    -0.246 OA
BRANCH  27  29
ATOM     29  C   UNL     1       1.619  -4.572   9.588  1.00  0.00     0.060 A 
ATOM     30  C   UNL     1       0.829  -5.682   9.291  1.00  0.00     0.016 A 
ATOM     31  C   UNL     1       1.671  -4.075  10.890  1.00  0.00     0.016 A 
ATOM     32  C   UNL     1       0.069  -6.296  10.278  1.00  0.00     0.010 A 
ATOM     33  C   UNL     1       0.909  -4.698  11.891  1.00  0.00     0.010 A 
ATOM     34  C   UNL     1       0.087  -5.801  11.587  1.00  0.00    -0.014 A 
BRANCH  34  35
ATOM     35  C   UNL     1      -0.837  -6.396  12.588  1.00  0.00     0.031 A 
ATOM     36  C   UNL     1      -2.032  -5.614  13.062  1.00  0.00     0.074 A 
ATOM     37  C   UNL     1      -0.659  -7.665  13.004  1.00  0.00     0.049 A 
ATOM     38  N   UNL     1      -2.931  -5.938  13.956  1.00  0.00    -0.248 NA
ATOM     39  C   UNL     1      -2.241  -4.290  12.452  1.00  0.00     0.031 C 
ATOM     40  C   UNL     1       0.421  -8.555  12.573  1.00  0.00     0.029 A 
ATOM     41  N   UNL     1      -1.401  -8.435  13.866  1.00  0.00    -0.354 N 
ATOM     42  C   UNL     1      -3.786  -4.846  14.048  1.00  0.00     0.074 A 
ATOM     43  C   UNL     1      -3.297  -3.848  13.121  1.00  0.00     0.031 C 
ATOM     44  C   UNL     1       0.253  -9.758  13.145  1.00  0.00     0.029 A 
ATOM     45  C   UNL     1      -0.912  -9.711  14.024  1.00  0.00     0.049 A 
ATOM     46  H   UNL     1      -2.206  -8.106  14.326  1.00  0.00     0.167 HD
ATOM     47  C   UNL     1      -4.878  -4.688  14.835  1.00  0.00     0.031 A 
ATOM     48  C   UNL     1      -1.341 -10.724  14.803  1.00  0.00     0.031 A 
ATOM     49  C   UNL     1      -5.383  -5.694  15.731  1.00  0.00     0.049 A 
ATOM     50  C   UNL     1      -2.549 -10.521  15.675  1.00  0.00     0.074 A 
ATOM     51  C   UNL     1      -6.477  -5.623  16.576  1.00  0.00     0.029 A 
ATOM     52  N   UNL     1      -4.841  -6.960  15.885  1.00  0.00    -0.354 N 
ATOM     53  N   UNL     1      -3.312  -9.460  15.791  1.00  0.00    -0.248 NA
ATOM     54  C   UNL     1      -2.951 -11.650  16.525  1.00  0.00     0.031 C 
ATOM     55  C   UNL     1      -6.578  -6.837  17.265  1.00  0.00     0.029 A 
ATOM     56  C   UNL     1      -5.573  -7.678  16.816  1.00  0.00     0.049 A 
ATOM     57  H   UNL     1      -4.052  -7.299  15.404  1.00  0.00     0.167 HD
ATOM     58  C   UNL     1      -4.289  -9.797  16.720  1.00  0.00     0.074 A 
ATOM     59  C   UNL     1      -4.034 -11.167  17.119  1.00  0.00     0.031 C 
ATOM     60  C   UNL     1      -5.304  -9.039  17.204  1.00  0.00     0.031 A 
BRANCH  47  61
ATOM     61  C   UNL     1      -5.569  -3.352  14.795  1.00  0.00    -0.014 A 
ATOM     62  C   UNL     1      -6.372  -2.971  13.705  1.00  0.00     0.010 A 
ATOM     63  C   UNL     1      -5.427  -2.471  15.883  1.00  0.00     0.010 A 
ATOM     64  C   UNL     1      -6.986  -1.714  13.687  1.00  0.00     0.020 A 
ATOM     65  C   UNL     1      -6.059  -1.225  15.879  1.00  0.00     0.020 A 
ATOM     66  C   UNL     1      -6.818  -0.846  14.771  1.00  0.00     0.054 A 
BRANCH  66  67
ATOM     67  S   UNL     1      -7.630   0.776  14.730  1.00  0.00     0.124 S 
ATOM     68  O   UNL     1      -6.761   1.523  13.823  1.00  0.00    -0.237 OA
ATOM     69  O   UNL     1      -8.958   0.461  14.209  1.00  0.00    -0.237 OA
ATOM     70  O   UNL     1      -7.599   1.213  16.123  1.00  0.00    -0.744 OA
ENDBRANCH  66  67
ENDBRANCH  47  61
BRANCH  48  71
ATOM     71  C   UNL     1      -0.598 -12.013  14.815  1.00  0.00    -0.014 A 
ATOM     72  C   UNL     1      -1.150 -13.168  14.236  1.00  0.00     0.010 A 
ATOM     73  C   UNL     1       0.682 -12.082  15.395  1.00  0.00     0.010 A 
ATOM     74  C   UNL     1      -0.438 -14.372  14.243  1.00  0.00     0.020 A 
ATOM     75  C   UNL     1       1.407 -13.276  15.381  1.00  0.00     0.020 A 
ATOM     76  C   UNL     1       0.838 -14.418  14.813  1.00  0.00     0.054 A 
BRANCH  76  77
ATOM     77  S   UNL     1       1.779 -15.968  14.752  1.00  0.00     0.124 S 
ATOM     78  O   UNL     1       1.178 -16.731  15.841  1.00  0.00    -0.237 OA
ATOM     79  O   UNL     1       1.500 -16.460  13.405  1.00  0.00    -0.237 OA
ATOM     80  O   UNL     1       3.158 -15.537  14.974  1.00  0.00    -0.744 OA
ENDBRANCH  76  77
ENDBRANCH  48  71
BRANCH  60  81
ATOM     81  C   UNL     1      -6.229  -9.683  18.200  1.00  0.00    -0.014 A 
ATOM     82  C   UNL     1      -5.828  -9.895  19.530  1.00  0.00     0.010 A 
ATOM     83  C   UNL     1      -7.529 -10.048  17.806  1.00  0.00     0.010 A 
ATOM     84  C   UNL     1      -6.701 -10.493  20.443  1.00  0.00     0.020 A 
ATOM     85  C   UNL     1      -8.412 -10.626  18.722  1.00  0.00     0.020 A 
ATOM     86  C   UNL     1      -7.986 -10.860  20.031  1.00  0.00     0.054 A 
BRANCH  86  87
ATOM     87  S   UNL     1      -9.114 -11.609  21.238  1.00  0.00     0.124 S 
ATOM     88  O   UNL     1      -8.622 -12.982  21.302  1.00  0.00    -0.237 OA
ATOM     89  O   UNL     1      -8.887 -10.805  22.437  1.00  0.00    -0.237 OA
ATOM     90  O   UNL     1     -10.431 -11.446  20.627  1.00  0.00    -0.744 OA
ENDBRANCH  86  87
ENDBRANCH  60  81
ENDBRANCH  34  35
ENDBRANCH  27  29
ENDBRANCH  26  27
ENDBRANCH  25  26
ENDBRANCH   1  25
TORSDOF 17
