REMARK SMILES COC(=O)c1ccc([C@H]2CC(=O)Nc3c(C(=O)OCCOC(=O)c4ccc(-c5c6nc(c(-c7ccc(S(=O)(=O)[O-])cc7)c7ccc([nH]7)c(-c7ccc(S(=O)(=O)[O-])cc7)c7nc(c(-c8ccc(S(=O)(=O)[O-])cc8)c8ccc5[nH]8)C=C7)C=C6)cc4)cn(-c4ccccc4)c32)cc1
REMARK SMILES IDX 19 1 18 2 16 3 17 4 15 5 9 6 10 7 92 8 11 9 14 10 85 11
REMARK SMILES IDX 12 12 13 13 84 14 8 16 5 17 6 18 94 19 7 20 93 21 3 22 4 23
REMARK SMILES IDX 2 24 1 25 86 26 87 27 91 28 88 29 90 30 89 31 20 32 21 33
REMARK SMILES IDX 22 34 23 35 24 36 25 37 83 38 26 39 82 40 27 41 28 42 29 43
REMARK SMILES IDX 76 44 30 45 81 46 75 47 77 48 31 49 80 50 74 51 73 52 32 54
REMARK SMILES IDX 62 55 43 56 61 57 44 58 47 59 60 60 78 61 45 62 46 63 59 65
REMARK SMILES IDX 79 66 48 67 33 68 34 69 42 70 35 71 41 72 36 73 37 74 38 75
REMARK SMILES IDX 39 76 40 77 63 78 64 79 72 80 65 81 71 82 66 83 67 84 68 85
REMARK SMILES IDX 69 86 70 87 49 88 50 89 58 90 51 91 57 92 52 93 53 94 54 95
REMARK SMILES IDX 55 96 56 97
REMARK H PARENT 13 15 77 53 47 64
REMARK Flexibility Score: inf
ROOT
ATOM      1  C   UNL     1      -6.459   3.478   7.984  1.00  0.00     0.275 C 
ENDROOT
BRANCH   1   2
ATOM      2  O   UNL     1      -5.285   2.684   7.749  1.00  0.00    -0.458 OA
BRANCH   2   3
ATOM      3  C   UNL     1      -4.115   3.374   7.603  1.00  0.00     0.341 C 
ATOM      4  O   UNL     1      -4.043   4.595   7.444  1.00  0.00    -0.246 OA
BRANCH   3   5
ATOM      5  C   UNL     1      -2.946   2.518   7.706  1.00  0.00     0.102 A 
ATOM      6  C   UNL     1      -1.090  -0.708   7.799  1.00  0.00     0.078 C 
ATOM      7  C   UNL     1      -2.307  -1.646   7.919  1.00  0.00     0.115 C 
ATOM      8  C   UNL     1      -1.546   0.727   7.794  1.00  0.00     0.055 A 
ATOM      9  C   UNL     1      -3.583  -1.152   7.263  1.00  0.00     0.225 C 
ATOM     10  C   UNL     1      -2.851   1.113   7.594  1.00  0.00     0.078 A 
ATOM     11  N   UNL     1      -0.792   1.881   7.947  1.00  0.00    -0.317 N 
ATOM     12  O   UNL     1      -4.424  -1.932   6.816  1.00  0.00    -0.275 OA
ATOM     13  N   UNL     1      -3.825   0.194   7.293  1.00  0.00    -0.324 N 
ATOM     14  C   UNL     1      -1.661   2.951   8.001  1.00  0.00     0.109 A 
ATOM     15  H   UNL     1      -4.733   0.516   7.092  1.00  0.00     0.170 HD
BRANCH   6  16
ATOM     16  C   UNL     1      -0.070  -1.121   8.862  1.00  0.00    -0.038 A 
ATOM     17  C   UNL     1       1.943  -1.878  10.698  1.00  0.00     0.060 A 
ATOM     18  C   UNL     1       1.732  -2.624   9.534  1.00  0.00     0.016 A 
ATOM     19  C   UNL     1       1.107  -0.791  10.973  1.00  0.00     0.016 A 
ATOM     20  C   UNL     1       0.740  -2.245   8.624  1.00  0.00     0.005 A 
ATOM     21  C   UNL     1       0.087  -0.444  10.081  1.00  0.00     0.005 A 
BRANCH  17  22
ATOM     22  C   UNL     1       3.068  -2.262  11.592  1.00  0.00     0.337 C 
ATOM     23  O   UNL     1       3.935  -3.064  11.279  1.00  0.00    -0.246 OA
BRANCH  22  24
ATOM     24  O   UNL     1       2.977  -1.605  12.774  1.00  0.00    -0.465 OA
ATOM     25  C   UNL     1       4.009  -1.913  13.711  1.00  0.00     0.282 C 
ENDBRANCH  22  24
ENDBRANCH  17  22
ENDBRANCH   6  16
BRANCH  11  26
ATOM     26  C   UNL     1       0.614   1.984   8.047  1.00  0.00     0.045 A 
ATOM     27  C   UNL     1       1.422   1.325   7.116  1.00  0.00     0.026 A 
ATOM     28  C   UNL     1       1.180   2.671   9.127  1.00  0.00     0.026 A 
ATOM     29  C   UNL     1       2.805   1.318   7.290  1.00  0.00     0.002 A 
ATOM     30  C   UNL     1       2.562   2.620   9.316  1.00  0.00     0.002 A 
ATOM     31  C   UNL     1       3.371   1.943   8.401  1.00  0.00     0.000 A 
ENDBRANCH  11  26
ENDBRANCH   3   5
ENDBRANCH   2   3
ENDBRANCH   1   2
BRANCH   1  32
ATOM     32  C   UNL     1      -6.634   3.803   9.462  1.00  0.00     0.275 C 
BRANCH  32  33
ATOM     33  O   UNL     1      -5.662   4.741   9.922  1.00  0.00    -0.458 OA
BRANCH  33  34
ATOM     34  C   UNL     1      -4.598   4.193  10.553  1.00  0.00     0.338 C 
ATOM     35  O   UNL     1      -4.187   3.051  10.439  1.00  0.00    -0.246 OA
BRANCH  34  36
ATOM     36  C   UNL     1      -4.137   5.109  11.601  1.00  0.00     0.060 A 
ATOM     37  C   UNL     1      -2.951   4.792  12.271  1.00  0.00     0.016 A 
ATOM     38  C   UNL     1      -5.009   6.099  12.075  1.00  0.00     0.016 A 
ATOM     39  C   UNL     1      -2.706   5.384  13.495  1.00  0.00     0.010 A 
ATOM     40  C   UNL     1      -4.776   6.668  13.305  1.00  0.00     0.010 A 
ATOM     41  C   UNL     1      -3.656   6.264  14.029  1.00  0.00    -0.014 A 
BRANCH  41  42
ATOM     42  C   UNL     1      -3.363   6.929  15.285  1.00  0.00     0.031 A 
ATOM     43  C   UNL     1      -2.284   7.933  15.134  1.00  0.00     0.074 A 
ATOM     44  C   UNL     1      -4.097   6.763  16.403  1.00  0.00     0.049 A 
ATOM     45  N   UNL     1      -1.079   7.862  15.593  1.00  0.00    -0.248 NA
ATOM     46  C   UNL     1      -2.497   9.039  14.180  1.00  0.00     0.031 C 
ATOM     47  C   UNL     1      -5.342   6.003  16.553  1.00  0.00     0.029 A 
ATOM     48  N   UNL     1      -3.949   7.341  17.627  1.00  0.00    -0.354 N 
ATOM     49  C   UNL     1      -0.473   9.053  15.209  1.00  0.00     0.074 A 
ATOM     50  C   UNL     1      -1.290   9.602  14.160  1.00  0.00     0.031 C 
ATOM     51  C   UNL     1      -5.951   6.367  17.706  1.00  0.00     0.029 A 
ATOM     52  C   UNL     1      -5.084   7.281  18.433  1.00  0.00     0.049 A 
ATOM     53  H   UNL     1      -3.110   7.766  17.918  1.00  0.00     0.167 HD
ATOM     54  C   UNL     1       0.450   9.652  16.009  1.00  0.00     0.031 A 
ATOM     55  C   UNL     1      -5.314   7.986  19.574  1.00  0.00     0.031 A 
ATOM     56  C   UNL     1       0.961   8.737  16.999  1.00  0.00     0.049 A 
ATOM     57  C   UNL     1      -3.998   8.455  20.070  1.00  0.00     0.074 A 
ATOM     58  C   UNL     1       1.606   7.516  16.962  1.00  0.00     0.029 A 
ATOM     59  N   UNL     1       0.453   8.866  18.270  1.00  0.00    -0.354 N 
ATOM     60  N   UNL     1      -3.075   7.653  20.520  1.00  0.00    -0.248 NA
ATOM     61  C   UNL     1      -3.530   9.762  19.640  1.00  0.00     0.031 C 
ATOM     62  C   UNL     1       1.076   6.784  18.064  1.00  0.00     0.029 A 
ATOM     63  C   UNL     1       0.202   7.616  18.766  1.00  0.00     0.049 A 
ATOM     64  H   UNL     1       0.297   9.715  18.743  1.00  0.00     0.167 HD
ATOM     65  C   UNL     1      -1.890   8.158  20.007  1.00  0.00     0.074 A 
ATOM     66  C   UNL     1      -2.220   9.513  19.564  1.00  0.00     0.031 C 
ATOM     67  C   UNL     1      -0.839   7.330  19.731  1.00  0.00     0.031 A 
BRANCH  54  68
ATOM     68  C   UNL     1       0.504  11.152  16.207  1.00  0.00    -0.014 A 
ATOM     69  C   UNL     1       1.469  11.677  17.090  1.00  0.00     0.010 A 
ATOM     70  C   UNL     1      -0.528  12.026  15.802  1.00  0.00     0.010 A 
ATOM     71  C   UNL     1       1.355  12.975  17.604  1.00  0.00     0.020 A 
ATOM     72  C   UNL     1      -0.625  13.335  16.270  1.00  0.00     0.020 A 
ATOM     73  C   UNL     1       0.300  13.791  17.196  1.00  0.00     0.054 A 
BRANCH  73  74
ATOM     74  S   UNL     1       0.117  15.436  17.922  1.00  0.00     0.124 S 
ATOM     75  O   UNL     1      -0.187  15.116  19.313  1.00  0.00    -0.237 OA
ATOM     76  O   UNL     1       1.430  16.025  17.677  1.00  0.00    -0.237 OA
ATOM     77  O   UNL     1      -0.979  16.026  17.158  1.00  0.00    -0.744 OA
ENDBRANCH  73  74
ENDBRANCH  54  68
BRANCH  55  78
ATOM     78  C   UNL     1      -6.593   8.555  20.081  1.00  0.00    -0.014 A 
ATOM     79  C   UNL     1      -6.680   9.110  21.375  1.00  0.00     0.010 A 
ATOM     80  C   UNL     1      -7.647   8.829  19.187  1.00  0.00     0.010 A 
ATOM     81  C   UNL     1      -7.741   9.964  21.733  1.00  0.00     0.020 A 
ATOM     82  C   UNL     1      -8.710   9.672  19.538  1.00  0.00     0.020 A 
ATOM     83  C   UNL     1      -8.739  10.259  20.801  1.00  0.00     0.054 A 
BRANCH  83  84
ATOM     84  S   UNL     1      -9.999  11.511  21.194  1.00  0.00     0.124 S 
ATOM     85  O   UNL     1     -10.815  10.831  22.195  1.00  0.00    -0.237 OA
ATOM     86  O   UNL     1      -9.197  12.629  21.685  1.00  0.00    -0.237 OA
ATOM     87  O   UNL     1     -10.661  11.747  19.912  1.00  0.00    -0.744 OA
ENDBRANCH  83  84
ENDBRANCH  55  78
BRANCH  67  88
ATOM     88  C   UNL     1      -0.841   5.943  20.331  1.00  0.00    -0.014 A 
ATOM     89  C   UNL     1      -1.844   4.976  20.121  1.00  0.00     0.010 A 
ATOM     90  C   UNL     1       0.297   5.575  21.070  1.00  0.00     0.010 A 
ATOM     91  C   UNL     1      -1.729   3.693  20.682  1.00  0.00     0.020 A 
ATOM     92  C   UNL     1       0.428   4.296  21.610  1.00  0.00     0.020 A 
ATOM     93  C   UNL     1      -0.594   3.366  21.431  1.00  0.00     0.054 A 
BRANCH  93  94
ATOM     94  S   UNL     1      -0.447   1.714  22.166  1.00  0.00     0.124 S 
ATOM     95  O   UNL     1      -1.508   1.717  23.169  1.00  0.00    -0.237 OA
ATOM     96  O   UNL     1      -0.661   0.829  21.023  1.00  0.00    -0.237 OA
ATOM     97  O   UNL     1       0.912   1.693  22.707  1.00  0.00    -0.744 OA
ENDBRANCH  93  94
ENDBRANCH  67  88
ENDBRANCH  41  42
ENDBRANCH  34  36
ENDBRANCH  33  34
ENDBRANCH  32  33
ENDBRANCH   1  32
TORSDOF 18
