REMARK SMILES C=C(C)COc1cc(/C=C/c2cc(C(=O)OCCOC(=O)c3ccc(-c4c5nc(c(-c6ccc(S(=O)(=O)[O-])cc6)c6ccc([nH]6)c(-c6ccc(S(=O)(=O)[O-])cc6)c6nc(c(-c7ccc(S(=O)(=O)[O-])cc7)c7ccc4[nH]7)C=C6)C=C5)cc3)ncn2)ccc1OC
REMARK SMILES IDX 17 1 16 2 14 3 15 4 13 5 11 6 12 7 84 8 83 9 82 10 10 11
REMARK SMILES IDX 9 12 8 13 6 14 7 15 87 16 86 17 85 18 5 19 4 20 2 21 1 22
REMARK SMILES IDX 3 23 88 24 89 25 18 26 19 27 20 28 21 29 22 30 23 31 81 32
REMARK SMILES IDX 24 33 80 34 25 35 26 36 27 37 74 38 28 39 79 40 73 41 75 42
REMARK SMILES IDX 29 43 78 44 72 45 71 46 30 48 60 49 41 50 59 51 42 52 45 53
REMARK SMILES IDX 58 54 76 55 43 56 44 57 57 59 77 60 46 61 31 62 32 63 40 64
REMARK SMILES IDX 33 65 39 66 34 67 35 68 36 69 37 70 38 71 61 72 62 73 70 74
REMARK SMILES IDX 63 75 69 76 64 77 65 78 66 79 67 80 68 81 47 82 48 83 56 84
REMARK SMILES IDX 49 85 55 86 50 87 51 88 52 89 53 90 54 91
REMARK H PARENT 75 47 45 58
REMARK Flexibility Score: inf
ROOT
ATOM      1  C   UNL     1       5.890   9.210   5.590  1.00  0.00     0.275 C 
ENDROOT
BRANCH   1   2
ATOM      2  O   UNL     1       5.418   8.922   4.258  1.00  0.00    -0.457 OA
BRANCH   2   3
ATOM      3  C   UNL     1       5.149  10.003   3.474  1.00  0.00     0.357 C 
ATOM      4  O   UNL     1       5.149  11.165   3.851  1.00  0.00    -0.244 OA
BRANCH   3   5
ATOM      5  C   UNL     1       4.925   9.586   2.053  1.00  0.00     0.152 A 
ATOM      6  C   UNL     1       4.255   8.089   0.404  1.00  0.00     0.067 A 
ATOM      7  C   UNL     1       4.505   8.319   1.743  1.00  0.00     0.064 A 
ATOM      8  N   UNL     1       4.491   8.981  -0.570  1.00  0.00    -0.237 NA
ATOM      9  C   UNL     1       4.933  10.175  -0.158  1.00  0.00     0.223 A 
ATOM     10  N   UNL     1       5.116  10.542   1.115  1.00  0.00    -0.229 NA
BRANCH   6  11
ATOM     11  C   UNL     1       3.543   6.869   0.023  1.00  0.00     0.029 C 
ATOM     12  C   UNL     1       2.283   6.751   0.470  1.00  0.00     0.010 C 
BRANCH  12  13
ATOM     13  C   UNL     1       1.450   5.547   0.521  1.00  0.00    -0.022 A 
ATOM     14  C   UNL     1       0.965   3.197   0.127  1.00  0.00     0.162 A 
ATOM     15  C   UNL     1       1.731   4.346  -0.138  1.00  0.00     0.058 A 
ATOM     16  C   UNL     1      -0.075   3.237   1.066  1.00  0.00     0.160 A 
ATOM     17  C   UNL     1      -0.394   4.459   1.660  1.00  0.00     0.051 A 
ATOM     18  C   UNL     1       0.356   5.599   1.392  1.00  0.00     0.012 A 
BRANCH  14  19
ATOM     19  O   UNL     1       1.365   2.029  -0.464  1.00  0.00    -0.485 OA
BRANCH  19  20
ATOM     20  C   UNL     1       0.842   1.873  -1.791  1.00  0.00     0.260 C 
BRANCH  20  21
ATOM     21  C   UNL     1       0.393   0.434  -1.949  1.00  0.00    -0.043 C 
ATOM     22  C   UNL     1       1.163  -0.603  -1.569  1.00  0.00     0.011 C 
ATOM     23  C   UNL     1      -1.007   0.212  -2.445  1.00  0.00     0.042 C 
ENDBRANCH  20  21
ENDBRANCH  19  20
ENDBRANCH  14  19
BRANCH  16  24
ATOM     24  O   UNL     1      -0.872   2.229   1.528  1.00  0.00    -0.493 OA
ATOM     25  C   UNL     1      -0.466   0.888   1.327  1.00  0.00     0.278 C 
ENDBRANCH  16  24
ENDBRANCH  12  13
ENDBRANCH   6  11
ENDBRANCH   3   5
ENDBRANCH   2   3
ENDBRANCH   1   2
BRANCH   1  26
ATOM     26  C   UNL     1       7.417   9.106   5.679  1.00  0.00     0.275 C 
BRANCH  26  27
ATOM     27  O   UNL     1       8.075  10.183   4.989  1.00  0.00    -0.458 OA
BRANCH  27  28
ATOM     28  C   UNL     1       8.343   9.946   3.683  1.00  0.00     0.338 C 
ATOM     29  O   UNL     1       8.110   8.925   3.058  1.00  0.00    -0.246 OA
BRANCH  28  30
ATOM     30  C   UNL     1       8.866  11.169   3.056  1.00  0.00     0.060 A 
ATOM     31  C   UNL     1       8.063  11.819   2.120  1.00  0.00     0.016 A 
ATOM     32  C   UNL     1      10.162  11.615   3.303  1.00  0.00     0.016 A 
ATOM     33  C   UNL     1       8.555  12.890   1.386  1.00  0.00     0.010 A 
ATOM     34  C   UNL     1      10.648  12.716   2.590  1.00  0.00     0.010 A 
ATOM     35  C   UNL     1       9.854  13.348   1.612  1.00  0.00    -0.014 A 
BRANCH  35  36
ATOM     36  C   UNL     1      10.408  14.446   0.787  1.00  0.00     0.031 A 
ATOM     37  C   UNL     1      11.527  14.152  -0.172  1.00  0.00     0.074 A 
ATOM     38  C   UNL     1       9.905  15.691   0.886  1.00  0.00     0.049 A 
ATOM     39  N   UNL     1      12.283  14.984  -0.838  1.00  0.00    -0.248 NA
ATOM     40  C   UNL     1      11.838  12.732  -0.406  1.00  0.00     0.031 C 
ATOM     41  C   UNL     1       8.757  16.082   1.709  1.00  0.00     0.029 A 
ATOM     42  N   UNL     1      10.301  16.863   0.292  1.00  0.00    -0.354 N 
ATOM     43  C   UNL     1      13.184  14.192  -1.541  1.00  0.00     0.074 A 
ATOM     44  C   UNL     1      12.886  12.815  -1.214  1.00  0.00     0.031 C 
ATOM     45  C   UNL     1       8.542  17.399   1.565  1.00  0.00     0.029 A 
ATOM     46  C   UNL     1       9.578  17.958   0.703  1.00  0.00     0.049 A 
ATOM     47  H   UNL     1      11.032  16.914  -0.365  1.00  0.00     0.167 HD
ATOM     48  C   UNL     1      14.173  14.585  -2.380  1.00  0.00     0.031 A 
ATOM     49  C   UNL     1       9.761  19.269   0.452  1.00  0.00     0.031 A 
ATOM     50  C   UNL     1      14.450  15.959  -2.700  1.00  0.00     0.049 A 
ATOM     51  C   UNL     1      10.922  19.687  -0.409  1.00  0.00     0.074 A 
ATOM     52  C   UNL     1      15.447  16.472  -3.511  1.00  0.00     0.029 A 
ATOM     53  N   UNL     1      13.716  17.041  -2.235  1.00  0.00    -0.354 N 
ATOM     54  N   UNL     1      11.812  18.936  -1.014  1.00  0.00    -0.248 NA
ATOM     55  C   UNL     1      11.112  21.130  -0.614  1.00  0.00     0.031 C 
ATOM     56  C   UNL     1      15.339  17.866  -3.505  1.00  0.00     0.029 A 
ATOM     57  C   UNL     1      14.240  18.218  -2.737  1.00  0.00     0.049 A 
ATOM     58  H   UNL     1      12.937  16.979  -1.636  1.00  0.00     0.167 HD
ATOM     59  C   UNL     1      12.643  19.812  -1.701  1.00  0.00     0.074 A 
ATOM     60  C   UNL     1      12.151  21.149  -1.438  1.00  0.00     0.031 C 
ATOM     61  C   UNL     1      13.716  19.536  -2.482  1.00  0.00     0.031 A 
BRANCH  48  62
ATOM     62  C   UNL     1      15.051  13.516  -2.971  1.00  0.00    -0.014 A 
ATOM     63  C   UNL     1      14.578  12.651  -3.974  1.00  0.00     0.010 A 
ATOM     64  C   UNL     1      16.385  13.396  -2.538  1.00  0.00     0.010 A 
ATOM     65  C   UNL     1      15.411  11.663  -4.507  1.00  0.00     0.020 A 
ATOM     66  C   UNL     1      17.229  12.426  -3.087  1.00  0.00     0.020 A 
ATOM     67  C   UNL     1      16.730  11.554  -4.057  1.00  0.00     0.054 A 
BRANCH  67  68
ATOM     68  S   UNL     1      17.795  10.275  -4.778  1.00  0.00     0.124 S 
ATOM     69  O   UNL     1      17.264   9.060  -4.164  1.00  0.00    -0.237 OA
ATOM     70  O   UNL     1      17.544  10.416  -6.210  1.00  0.00    -0.237 OA
ATOM     71  O   UNL     1      19.137  10.654  -4.343  1.00  0.00    -0.744 OA
ENDBRANCH  67  68
ENDBRANCH  48  62
BRANCH  49  72
ATOM     72  C   UNL     1       8.854  20.282   1.058  1.00  0.00    -0.014 A 
ATOM     73  C   UNL     1       7.983  21.036   0.253  1.00  0.00     0.010 A 
ATOM     74  C   UNL     1       8.863  20.505   2.448  1.00  0.00     0.010 A 
ATOM     75  C   UNL     1       7.157  22.010   0.822  1.00  0.00     0.020 A 
ATOM     76  C   UNL     1       8.017  21.456   3.025  1.00  0.00     0.020 A 
ATOM     77  C   UNL     1       7.181  22.215   2.205  1.00  0.00     0.054 A 
BRANCH  77  78
ATOM     78  S   UNL     1       6.080  23.465   2.926  1.00  0.00     0.124 S 
ATOM     79  O   UNL     1       6.748  24.708   2.551  1.00  0.00    -0.237 OA
ATOM     80  O   UNL     1       4.812  23.199   2.251  1.00  0.00    -0.237 OA
ATOM     81  O   UNL     1       6.096  23.151   4.353  1.00  0.00    -0.744 OA
ENDBRANCH  77  78
ENDBRANCH  49  72
BRANCH  61  82
ATOM     82  C   UNL     1      14.390  20.690  -3.171  1.00  0.00    -0.014 A 
ATOM     83  C   UNL     1      15.230  21.572  -2.470  1.00  0.00     0.010 A 
ATOM     84  C   UNL     1      14.243  20.836  -4.563  1.00  0.00     0.010 A 
ATOM     85  C   UNL     1      15.901  22.592  -3.151  1.00  0.00     0.020 A 
ATOM     86  C   UNL     1      14.931  21.838  -5.249  1.00  0.00     0.020 A 
ATOM     87  C   UNL     1      15.751  22.715  -4.536  1.00  0.00     0.054 A 
BRANCH  87  88
ATOM     88  S   UNL     1      16.692  23.998  -5.407  1.00  0.00     0.124 S 
ATOM     89  O   UNL     1      15.966  25.210  -5.040  1.00  0.00    -0.237 OA
ATOM     90  O   UNL     1      18.027  23.866  -4.828  1.00  0.00    -0.237 OA
ATOM     91  O   UNL     1      16.589  23.610  -6.812  1.00  0.00    -0.744 OA
ENDBRANCH  87  88
ENDBRANCH  61  82
ENDBRANCH  35  36
ENDBRANCH  28  30
ENDBRANCH  27  28
ENDBRANCH  26  27
ENDBRANCH   1  26
TORSDOF 20
