REMARK SMILES CCOc1ccc(-c2ccc(C(=O)OCCOC(=O)c3ccc(-c4c5nc(c(-c6ccc(S(=O)(=O)[O-])cc6)c6ccc([nH]6)c(-c6ccc(S(=O)(=O)[O-])cc6)c6nc(c(-c7ccc(S(=O)(=O)[O-])cc7)c7ccc4[nH]7)C=C6)C=C5)cc3)cn2)c(C)c1
REMARK SMILES IDX 15 1 14 2 12 3 13 4 11 5 8 6 9 7 81 8 10 9 80 10 7 11 4 12
REMARK SMILES IDX 5 13 84 14 6 15 82 16 83 17 3 18 2 19 1 20 16 21 17 22 18 23
REMARK SMILES IDX 19 24 20 25 21 26 79 27 22 28 78 29 23 30 24 31 25 32 72 33
REMARK SMILES IDX 26 34 77 35 71 36 73 37 27 38 76 39 70 40 69 41 28 43 58 44
REMARK SMILES IDX 39 45 57 46 40 47 43 48 56 49 74 50 41 51 42 52 55 54 75 55
REMARK SMILES IDX 44 56 29 57 30 58 38 59 31 60 37 61 32 62 33 63 34 64 35 65
REMARK SMILES IDX 36 66 59 67 60 68 68 69 61 70 67 71 62 72 63 73 64 74 65 75
REMARK SMILES IDX 66 76 45 77 46 78 54 79 47 80 53 81 48 82 49 83 50 84 51 85
REMARK SMILES IDX 52 86
REMARK H PARENT 73 42 43 53
REMARK Flexibility Score: inf
ROOT
ATOM      1  C   UNL     1      12.688   2.589   1.849  1.00  0.00     0.275 C 
ENDROOT
BRANCH   1   2
ATOM      2  O   UNL     1      11.323   2.316   1.486  1.00  0.00    -0.458 OA
BRANCH   2   3
ATOM      3  C   UNL     1      10.444   3.033   2.225  1.00  0.00     0.339 C 
ATOM      4  O   UNL     1      10.742   3.780   3.148  1.00  0.00    -0.246 OA
BRANCH   3   5
ATOM      5  C   UNL     1       9.035   2.766   1.896  1.00  0.00     0.078 A 
ATOM      6  C   UNL     1       6.329   2.656   1.359  1.00  0.00     0.070 A 
ATOM      7  C   UNL     1       6.762   2.724   2.681  1.00  0.00     0.030 A 
ATOM      8  N   UNL     1       7.207   2.524   0.335  1.00  0.00    -0.255 NA
ATOM      9  C   UNL     1       8.122   2.804   2.948  1.00  0.00     0.019 A 
ATOM     10  C   UNL     1       8.539   2.583   0.617  1.00  0.00     0.127 A 
BRANCH   6  11
ATOM     11  C   UNL     1       4.892   2.669   1.020  1.00  0.00     0.003 A 
ATOM     12  C   UNL     1       2.129   2.317   0.602  1.00  0.00     0.119 A 
ATOM     13  C   UNL     1       3.042   1.573  -0.133  1.00  0.00     0.047 A 
ATOM     14  C   UNL     1       2.576   3.343   1.427  1.00  0.00     0.050 A 
ATOM     15  C   UNL     1       4.407   1.729   0.095  1.00  0.00     0.014 A 
ATOM     16  C   UNL     1       3.957   3.562   1.607  1.00  0.00    -0.038 A 
ATOM     17  C   UNL     1       4.374   4.765   2.416  1.00  0.00     0.045 C 
BRANCH  12  18
ATOM     18  O   UNL     1       0.784   2.115   0.463  1.00  0.00    -0.494 OA
BRANCH  18  19
ATOM     19  C   UNL     1       0.357   0.890   1.079  1.00  0.00     0.226 C 
ATOM     20  C   UNL     1       0.439  -0.291   0.122  1.00  0.00     0.049 C 
ENDBRANCH  18  19
ENDBRANCH  12  18
ENDBRANCH   6  11
ENDBRANCH   3   5
ENDBRANCH   2   3
ENDBRANCH   1   2
BRANCH   1  21
ATOM     21  C   UNL     1      13.688   1.978   0.854  1.00  0.00     0.275 C 
BRANCH  21  22
ATOM     22  O   UNL     1      13.701   2.492  -0.496  1.00  0.00    -0.458 OA
BRANCH  22  23
ATOM     23  C   UNL     1      12.489   2.718  -1.079  1.00  0.00     0.338 C 
ATOM     24  O   UNL     1      11.755   1.842  -1.481  1.00  0.00    -0.246 OA
BRANCH  23  25
ATOM     25  C   UNL     1      12.143   4.153  -0.893  1.00  0.00     0.060 A 
ATOM     26  C   UNL     1      10.816   4.577  -1.059  1.00  0.00     0.016 A 
ATOM     27  C   UNL     1      13.079   4.979  -0.271  1.00  0.00     0.016 A 
ATOM     28  C   UNL     1      10.383   5.774  -0.493  1.00  0.00     0.010 A 
ATOM     29  C   UNL     1      12.635   6.096   0.378  1.00  0.00     0.010 A 
ATOM     30  C   UNL     1      11.298   6.506   0.249  1.00  0.00    -0.014 A 
BRANCH  30  31
ATOM     31  C   UNL     1      11.085   7.829   0.800  1.00  0.00     0.031 A 
ATOM     32  C   UNL     1      10.516   8.028   2.153  1.00  0.00     0.074 A 
ATOM     33  C   UNL     1      11.854   8.733   0.144  1.00  0.00     0.049 A 
ATOM     34  N   UNL     1      10.458   9.182   2.715  1.00  0.00    -0.248 NA
ATOM     35  C   UNL     1       9.945   6.982   3.005  1.00  0.00     0.031 C 
ATOM     36  C   UNL     1      12.494   9.942   0.636  1.00  0.00     0.029 A 
ATOM     37  N   UNL     1      12.233   8.724  -1.207  1.00  0.00    -0.354 N 
ATOM     38  C   UNL     1      10.181   9.003   4.056  1.00  0.00     0.074 A 
ATOM     39  C   UNL     1       9.759   7.630   4.170  1.00  0.00     0.031 C 
ATOM     40  C   UNL     1      12.868  10.683  -0.427  1.00  0.00     0.029 A 
ATOM     41  C   UNL     1      12.252  10.064  -1.595  1.00  0.00     0.049 A 
ATOM     42  H   UNL     1      12.443   7.939  -1.763  1.00  0.00     0.167 HD
ATOM     43  C   UNL     1      10.476  10.030   4.901  1.00  0.00     0.031 A 
ATOM     44  C   UNL     1      11.213  10.618  -2.306  1.00  0.00     0.031 A 
ATOM     45  C   UNL     1      10.925  11.184   4.128  1.00  0.00     0.049 A 
ATOM     46  C   UNL     1      10.515  11.735  -1.536  1.00  0.00     0.074 A 
ATOM     47  C   UNL     1      12.169  11.701   3.815  1.00  0.00     0.029 A 
ATOM     48  N   UNL     1      10.023  11.771   3.266  1.00  0.00    -0.354 N 
ATOM     49  N   UNL     1      10.568  11.864  -0.238  1.00  0.00    -0.248 NA
ATOM     50  C   UNL     1       9.676  12.762  -2.149  1.00  0.00     0.031 C 
ATOM     51  C   UNL     1      11.995  12.609   2.731  1.00  0.00     0.029 A 
ATOM     52  C   UNL     1      10.649  12.649   2.414  1.00  0.00     0.049 A 
ATOM     53  H   UNL     1       9.056  11.584   3.261  1.00  0.00     0.167 HD
ATOM     54  C   UNL     1       9.869  12.967   0.157  1.00  0.00     0.074 A 
ATOM     55  C   UNL     1       9.278  13.467  -1.071  1.00  0.00     0.031 C 
ATOM     56  C   UNL     1       9.831  13.375   1.460  1.00  0.00     0.031 A 
BRANCH  43  57
ATOM     57  C   UNL     1      10.570  10.035   6.410  1.00  0.00    -0.014 A 
ATOM     58  C   UNL     1      11.210  11.147   7.012  1.00  0.00     0.010 A 
ATOM     59  C   UNL     1      10.131   9.025   7.283  1.00  0.00     0.010 A 
ATOM     60  C   UNL     1      11.470  11.225   8.381  1.00  0.00     0.020 A 
ATOM     61  C   UNL     1      10.377   9.098   8.674  1.00  0.00     0.020 A 
ATOM     62  C   UNL     1      11.066  10.189   9.208  1.00  0.00     0.054 A 
BRANCH  62  63
ATOM     63  S   UNL     1      11.475  10.305  10.970  1.00  0.00     0.124 S 
ATOM     64  O   UNL     1      12.936  10.291  10.952  1.00  0.00    -0.237 OA
ATOM     65  O   UNL     1      10.866  11.575  11.357  1.00  0.00    -0.237 OA
ATOM     66  O   UNL     1      10.853   9.117  11.551  1.00  0.00    -0.744 OA
ENDBRANCH  62  63
ENDBRANCH  43  57
BRANCH  44  67
ATOM     67  C   UNL     1      10.489   9.637  -3.184  1.00  0.00    -0.014 A 
ATOM     68  C   UNL     1      11.206   9.024  -4.237  1.00  0.00     0.010 A 
ATOM     69  C   UNL     1       9.306   9.023  -2.732  1.00  0.00     0.010 A 
ATOM     70  C   UNL     1      10.848   7.752  -4.699  1.00  0.00     0.020 A 
ATOM     71  C   UNL     1       8.935   7.755  -3.209  1.00  0.00     0.020 A 
ATOM     72  C   UNL     1       9.741   7.106  -4.148  1.00  0.00     0.054 A 
BRANCH  72  73
ATOM     73  S   UNL     1       9.514   5.337  -4.514  1.00  0.00     0.124 S 
ATOM     74  O   UNL     1       9.099   5.360  -5.913  1.00  0.00    -0.237 OA
ATOM     75  O   UNL     1      10.850   4.801  -4.263  1.00  0.00    -0.237 OA
ATOM     76  O   UNL     1       8.494   4.921  -3.556  1.00  0.00    -0.744 OA
ENDBRANCH  72  73
ENDBRANCH  44  67
BRANCH  56  77
ATOM     77  C   UNL     1       8.982  14.496   1.986  1.00  0.00    -0.014 A 
ATOM     78  C   UNL     1       8.793  15.699   1.300  1.00  0.00     0.010 A 
ATOM     79  C   UNL     1       8.411  14.388   3.279  1.00  0.00     0.010 A 
ATOM     80  C   UNL     1       7.992  16.711   1.843  1.00  0.00     0.020 A 
ATOM     81  C   UNL     1       7.636  15.398   3.841  1.00  0.00     0.020 A 
ATOM     82  C   UNL     1       7.407  16.546   3.102  1.00  0.00     0.054 A 
BRANCH  82  83
ATOM     83  S   UNL     1       6.370  17.861   3.776  1.00  0.00     0.124 S 
ATOM     84  O   UNL     1       7.204  19.047   3.588  1.00  0.00    -0.237 OA
ATOM     85  O   UNL     1       5.190  17.780   2.919  1.00  0.00    -0.237 OA
ATOM     86  O   UNL     1       6.158  17.466   5.166  1.00  0.00    -0.744 OA
ENDBRANCH  82  83
ENDBRANCH  56  77
ENDBRANCH  30  31
ENDBRANCH  23  25
ENDBRANCH  22  23
ENDBRANCH  21  22
ENDBRANCH   1  21
TORSDOF 17
