REMARK SMILES CCC[C@@H](Oc1ccc(-c2ccccc2)cc1)C(=O)OCCOC(=O)c1ccc(-c2c3nc(c(-c4ccc(S(=O)(=O)[O-])cc4)c4ccc([nH]4)c(-c4ccc(S(=O)(=O)[O-])cc4)c4nc(c(-c5ccc(S(=O)(=O)[O-])cc5)c5ccc2[nH]5)C=C4)C=C3)cc1
REMARK SMILES IDX 21 1 20 2 18 3 19 4 4 5 3 6 2 7 1 8 5 9 6 10 7 11 17 12 8 13
REMARK SMILES IDX 16 14 9 15 10 16 11 17 15 18 12 19 14 20 13 21 22 22 23 23
REMARK SMILES IDX 24 24 25 25 26 26 27 27 85 28 28 29 84 30 29 31 30 32 31 33
REMARK SMILES IDX 78 34 32 35 83 36 77 37 79 38 33 39 82 40 76 41 75 42 34 44
REMARK SMILES IDX 64 45 45 46 63 47 46 48 49 49 62 50 80 51 47 52 48 53 61 55
REMARK SMILES IDX 81 56 50 57 35 58 36 59 44 60 37 61 43 62 38 63 39 64 40 65
REMARK SMILES IDX 41 66 42 67 65 68 66 69 74 70 67 71 73 72 68 73 69 74 70 75
REMARK SMILES IDX 71 76 72 77 51 78 52 79 60 80 53 81 59 82 54 83 55 84 56 85
REMARK SMILES IDX 57 86 58 87
REMARK H PARENT 79 43 49 54
REMARK Flexibility Score: inf
ROOT
ATOM      1  C   UNL     1       0.930  -6.357   0.778  1.00  0.00     0.274 C 
ENDROOT
BRANCH   1   2
ATOM      2  O   UNL     1       0.568  -5.094   0.188  1.00  0.00    -0.459 OA
BRANCH   2   3
ATOM      3  C   UNL     1       0.151  -4.124   1.050  1.00  0.00     0.347 C 
ATOM      4  O   UNL     1       0.061  -4.265   2.265  1.00  0.00    -0.248 OA
BRANCH   3   5
ATOM      5  C   UNL     1      -0.210  -2.819   0.336  1.00  0.00     0.282 C 
BRANCH   5   6
ATOM      6  C   UNL     1       0.873  -2.429  -0.689  1.00  0.00     0.057 C 
BRANCH   6   7
ATOM      7  C   UNL     1       0.999  -0.928  -0.990  1.00  0.00     0.001 C 
ATOM      8  C   UNL     1       1.457  -0.083   0.189  1.00  0.00     0.004 C 
ENDBRANCH   6   7
ENDBRANCH   5   6
BRANCH   5   9
ATOM      9  O   UNL     1      -1.482  -3.035  -0.301  1.00  0.00    -0.479 OA
BRANCH   9  10
ATOM     10  C   UNL     1      -2.243  -1.900  -0.325  1.00  0.00     0.120 A 
ATOM     11  C   UNL     1      -2.814  -1.370   0.827  1.00  0.00     0.047 A 
ATOM     12  C   UNL     1      -2.454  -1.290  -1.554  1.00  0.00     0.047 A 
ATOM     13  C   UNL     1      -3.535  -0.171   0.752  1.00  0.00     0.012 A 
ATOM     14  C   UNL     1      -3.145  -0.078  -1.617  1.00  0.00     0.012 A 
ATOM     15  C   UNL     1      -3.693   0.519  -0.466  1.00  0.00    -0.018 A 
BRANCH  15  16
ATOM     16  C   UNL     1      -4.386   1.829  -0.541  1.00  0.00    -0.018 A 
ATOM     17  C   UNL     1      -4.297   2.770   0.501  1.00  0.00     0.009 A 
ATOM     18  C   UNL     1      -5.136   2.198  -1.674  1.00  0.00     0.009 A 
ATOM     19  C   UNL     1      -4.923   4.019   0.414  1.00  0.00     0.001 A 
ATOM     20  C   UNL     1      -5.752   3.450  -1.771  1.00  0.00     0.001 A 
ATOM     21  C   UNL     1      -5.646   4.361  -0.725  1.00  0.00     0.000 A 
ENDBRANCH  15  16
ENDBRANCH   9  10
ENDBRANCH   5   9
ENDBRANCH   3   5
ENDBRANCH   2   3
ENDBRANCH   1   2
BRANCH   1  22
ATOM     22  C   UNL     1       2.446  -6.492   0.928  1.00  0.00     0.275 C 
BRANCH  22  23
ATOM     23  O   UNL     1       2.951  -5.563   1.904  1.00  0.00    -0.458 OA
BRANCH  23  24
ATOM     24  C   UNL     1       3.620  -4.505   1.396  1.00  0.00     0.338 C 
ATOM     25  O   UNL     1       3.878  -4.283   0.224  1.00  0.00    -0.246 OA
BRANCH  24  26
ATOM     26  C   UNL     1       3.932  -3.549   2.466  1.00  0.00     0.060 A 
ATOM     27  C   UNL     1       3.135  -2.409   2.582  1.00  0.00     0.016 A 
ATOM     28  C   UNL     1       5.086  -3.690   3.236  1.00  0.00     0.016 A 
ATOM     29  C   UNL     1       3.524  -1.369   3.421  1.00  0.00     0.010 A 
ATOM     30  C   UNL     1       5.461  -2.656   4.101  1.00  0.00     0.010 A 
ATOM     31  C   UNL     1       4.705  -1.473   4.167  1.00  0.00    -0.014 A 
BRANCH  31  32
ATOM     32  C   UNL     1       5.189  -0.296   4.928  1.00  0.00     0.031 A 
ATOM     33  C   UNL     1       6.340   0.513   4.394  1.00  0.00     0.074 A 
ATOM     34  C   UNL     1       4.570   0.080   6.062  1.00  0.00     0.049 A 
ATOM     35  N   UNL     1       6.923   1.564   4.914  1.00  0.00    -0.248 NA
ATOM     36  C   UNL     1       6.909   0.085   3.106  1.00  0.00     0.031 C 
ATOM     37  C   UNL     1       3.418  -0.594   6.662  1.00  0.00     0.029 A 
ATOM     38  N   UNL     1       4.822   1.132   6.906  1.00  0.00    -0.354 N 
ATOM     39  C   UNL     1       7.939   1.909   4.030  1.00  0.00     0.074 A 
ATOM     40  C   UNL     1       7.901   0.950   2.947  1.00  0.00     0.031 C 
ATOM     41  C   UNL     1       3.056   0.069   7.774  1.00  0.00     0.029 A 
ATOM     42  C   UNL     1       3.965   1.193   7.978  1.00  0.00     0.049 A 
ATOM     43  H   UNL     1       5.547   1.781   6.758  1.00  0.00     0.167 HD
ATOM     44  C   UNL     1       8.824   2.932   4.111  1.00  0.00     0.031 A 
ATOM     45  C   UNL     1       3.923   2.053   9.014  1.00  0.00     0.031 A 
ATOM     46  C   UNL     1       8.861   3.892   5.180  1.00  0.00     0.049 A 
ATOM     47  C   UNL     1       4.921   3.175   9.087  1.00  0.00     0.074 A 
ATOM     48  C   UNL     1       9.735   4.950   5.360  1.00  0.00     0.029 A 
ATOM     49  N   UNL     1       7.978   3.916   6.248  1.00  0.00    -0.354 N 
ATOM     50  N   UNL     1       5.891   3.469   8.254  1.00  0.00    -0.248 NA
ATOM     51  C   UNL     1       4.812   4.084  10.236  1.00  0.00     0.031 C 
ATOM     52  C   UNL     1       9.389   5.606   6.549  1.00  0.00     0.029 A 
ATOM     53  C   UNL     1       8.283   4.972   7.090  1.00  0.00     0.049 A 
ATOM     54  H   UNL     1       7.243   3.277   6.387  1.00  0.00     0.167 HD
ATOM     55  C   UNL     1       6.496   4.609   8.769  1.00  0.00     0.074 A 
ATOM     56  C   UNL     1       5.777   4.958   9.978  1.00  0.00     0.031 C 
ATOM     57  C   UNL     1       7.553   5.306   8.284  1.00  0.00     0.031 A 
BRANCH  44  58
ATOM     58  C   UNL     1       9.847   3.036   3.015  1.00  0.00    -0.014 A 
ATOM     59  C   UNL     1       9.506   3.552   1.752  1.00  0.00     0.010 A 
ATOM     60  C   UNL     1      11.168   2.616   3.254  1.00  0.00     0.010 A 
ATOM     61  C   UNL     1      10.461   3.607   0.733  1.00  0.00     0.020 A 
ATOM     62  C   UNL     1      12.129   2.686   2.242  1.00  0.00     0.020 A 
ATOM     63  C   UNL     1      11.763   3.163   0.981  1.00  0.00     0.054 A 
BRANCH  63  64
ATOM     64  S   UNL     1      12.990   3.240  -0.354  1.00  0.00     0.124 S 
ATOM     65  O   UNL     1      12.668   2.042  -1.125  1.00  0.00    -0.237 OA
ATOM     66  O   UNL     1      12.682   4.509  -1.008  1.00  0.00    -0.237 OA
ATOM     67  O   UNL     1      14.268   3.202   0.352  1.00  0.00    -0.744 OA
ENDBRANCH  63  64
ENDBRANCH  44  58
BRANCH  45  68
ATOM     68  C   UNL     1       2.894   1.883  10.071  1.00  0.00    -0.014 A 
ATOM     69  C   UNL     1       1.786   2.744  10.134  1.00  0.00     0.010 A 
ATOM     70  C   UNL     1       3.014   0.845  11.013  1.00  0.00     0.010 A 
ATOM     71  C   UNL     1       0.819   2.578  11.130  1.00  0.00     0.020 A 
ATOM     72  C   UNL     1       2.039   0.664  11.997  1.00  0.00     0.020 A 
ATOM     73  C   UNL     1       0.953   1.540  12.056  1.00  0.00     0.054 A 
BRANCH  73  74
ATOM     74  S   UNL     1      -0.341   1.296  13.306  1.00  0.00     0.124 S 
ATOM     75  O   UNL     1       0.043   2.263  14.329  1.00  0.00    -0.237 OA
ATOM     76  O   UNL     1      -1.564   1.606  12.569  1.00  0.00    -0.237 OA
ATOM     77  O   UNL     1      -0.188  -0.109  13.678  1.00  0.00    -0.744 OA
ENDBRANCH  73  74
ENDBRANCH  45  68
BRANCH  57  78
ATOM     78  C   UNL     1       7.969   6.534   9.044  1.00  0.00    -0.014 A 
ATOM     79  C   UNL     1       8.709   6.433  10.234  1.00  0.00     0.010 A 
ATOM     80  C   UNL     1       7.638   7.805   8.542  1.00  0.00     0.010 A 
ATOM     81  C   UNL     1       9.084   7.586  10.930  1.00  0.00     0.020 A 
ATOM     82  C   UNL     1       8.025   8.960   9.227  1.00  0.00     0.020 A 
ATOM     83  C   UNL     1       8.732   8.842  10.426  1.00  0.00     0.054 A 
BRANCH  83  84
ATOM     84  S   UNL     1       9.247  10.332  11.325  1.00  0.00     0.124 S 
ATOM     85  O   UNL     1       8.210  10.442  12.347  1.00  0.00    -0.237 OA
ATOM     86  O   UNL     1      10.577   9.975  11.815  1.00  0.00    -0.237 OA
ATOM     87  O   UNL     1       9.229  11.373  10.300  1.00  0.00    -0.744 OA
ENDBRANCH  83  84
ENDBRANCH  57  78
ENDBRANCH  31  32
ENDBRANCH  24  26
ENDBRANCH  23  24
ENDBRANCH  22  23
ENDBRANCH   1  22
TORSDOF 19
