REMARK SMILES CC[N@@H+](C)Cc1cc2c(cc1Cl)C=C(C(=O)OCCOC(=O)c1ccc(-c3c4nc(c(-c5ccc(S(=O)(=O)[O-])cc5)c5ccc([nH]5)c(-c5ccc(S(=O)(=O)[O-])cc5)c5nc(c(-c6ccc(S(=O)(=O)[O-])cc6)c6ccc3[nH]6)C=C5)C=C4)cc1)[C@@H](C(F)(F)F)O2
REMARK SMILES IDX 18 1 17 2 15 3 16 4 14 5 6 6 7 7 11 8 8 9 10 10 12 11 9 12
REMARK SMILES IDX 88 13 13 14 83 15 5 16 3 17 4 18 2 20 1 21 84 22 85 23 86 24
REMARK SMILES IDX 87 25 19 26 20 27 21 28 22 29 23 30 24 31 82 32 25 33 81 34
REMARK SMILES IDX 26 35 27 36 28 37 75 38 29 39 80 40 74 41 76 42 30 43 79 44
REMARK SMILES IDX 73 45 72 46 31 48 61 49 42 50 60 51 43 52 46 53 59 54 77 55
REMARK SMILES IDX 44 56 45 57 58 59 78 60 47 61 32 62 33 63 41 64 34 65 40 66
REMARK SMILES IDX 35 67 36 68 37 69 38 70 39 71 62 72 63 73 71 74 64 75 70 76
REMARK SMILES IDX 65 77 66 78 67 79 68 80 69 81 48 82 49 83 57 84 50 85 56 86
REMARK SMILES IDX 51 87 52 88 53 89 54 90 55 91
REMARK H PARENT 3 19 76 47 46 58
REMARK Flexibility Score: inf
ROOT
ATOM      1  C   UNL     1       5.353  -6.267  -7.014  1.00  0.00     0.275 C 
ENDROOT
BRANCH   1   2
ATOM      2  O   UNL     1       5.202  -5.370  -5.890  1.00  0.00    -0.459 OA
BRANCH   2   3
ATOM      3  C   UNL     1       4.030  -5.462  -5.220  1.00  0.00     0.338 C 
ATOM      4  O   UNL     1       3.101  -6.211  -5.482  1.00  0.00    -0.246 OA
BRANCH   3   5
ATOM      5  C   UNL     1       4.035  -4.572  -4.043  1.00  0.00     0.087 C 
ATOM      6  C   UNL     1       2.985  -2.716   0.501  1.00  0.00     0.029 A 
ATOM      7  C   UNL     1       3.432  -2.142  -0.714  1.00  0.00     0.058 A 
ATOM      8  C   UNL     1       3.040  -4.110   0.639  1.00  0.00     0.050 A 
ATOM      9  C   UNL     1       3.744  -2.935  -1.814  1.00  0.00     0.128 A 
ATOM     10  C   UNL     1       3.321  -4.903  -0.467  1.00  0.00     0.033 A 
ATOM     11  Cl  UNL     1       2.759  -4.924   2.135  1.00  0.00    -0.084 Cl
ATOM     12  C   UNL     1       3.602  -4.307  -1.699  1.00  0.00     0.019 A 
ATOM     13  O   UNL     1       4.121  -2.310  -2.968  1.00  0.00    -0.475 OA
ATOM     14  C   UNL     1       3.658  -5.119  -2.885  1.00  0.00     0.027 C 
ATOM     15  C   UNL     1       4.337  -3.108  -4.179  1.00  0.00     0.316 C 
BRANCH   6  16
ATOM     16  C   UNL     1       2.363  -1.820   1.554  1.00  0.00     0.300 C 
BRANCH  16  17
ATOM     17  N   UNL     1       0.894  -1.640   1.473  1.00  0.00    -0.334 N 
ATOM     18  C   UNL     1       0.151  -2.835   1.881  1.00  0.00     0.333 C 
ATOM     19  H   UNL     1       0.727  -0.891   2.146  1.00  0.00     0.348 HD
BRANCH  17  20
ATOM     20  C   UNL     1       0.381  -1.151   0.187  1.00  0.00     0.258 C 
ATOM     21  C   UNL     1       0.796   0.283  -0.113  1.00  0.00     0.071 C 
ENDBRANCH  17  20
ENDBRANCH  16  17
ENDBRANCH   6  16
BRANCH  15  22
ATOM     22  C   UNL     1       3.499  -2.466  -5.299  1.00  0.00     0.430 C 
ATOM     23  F   UNL     1       3.784  -1.147  -5.429  1.00  0.00    -0.167 F 
ATOM     24  F   UNL     1       3.744  -3.030  -6.505  1.00  0.00    -0.167 F 
ATOM     25  F   UNL     1       2.171  -2.571  -5.065  1.00  0.00    -0.167 F 
ENDBRANCH  15  22
ENDBRANCH   3   5
ENDBRANCH   2   3
ENDBRANCH   1   2
BRANCH   1  26
ATOM     26  C   UNL     1       6.322  -7.413  -6.707  1.00  0.00     0.275 C 
BRANCH  26  27
ATOM     27  O   UNL     1       5.749  -8.351  -5.776  1.00  0.00    -0.458 OA
BRANCH  27  28
ATOM     28  C   UNL     1       6.152  -8.198  -4.495  1.00  0.00     0.338 C 
ATOM     29  O   UNL     1       6.932  -7.367  -4.061  1.00  0.00    -0.246 OA
BRANCH  28  30
ATOM     30  C   UNL     1       5.377  -9.086  -3.618  1.00  0.00     0.060 A 
ATOM     31  C   UNL     1       5.854 -10.300  -3.149  1.00  0.00     0.016 A 
ATOM     32  C   UNL     1       4.193  -8.573  -3.113  1.00  0.00     0.016 A 
ATOM     33  C   UNL     1       5.110 -10.985  -2.176  1.00  0.00     0.010 A 
ATOM     34  C   UNL     1       3.568  -9.150  -2.015  1.00  0.00     0.010 A 
ATOM     35  C   UNL     1       3.977 -10.401  -1.560  1.00  0.00    -0.014 A 
BRANCH  35  36
ATOM     36  C   UNL     1       3.220 -11.105  -0.478  1.00  0.00     0.031 A 
ATOM     37  C   UNL     1       1.720 -11.318  -0.573  1.00  0.00     0.074 A 
ATOM     38  C   UNL     1       3.883 -11.563   0.606  1.00  0.00     0.049 A 
ATOM     39  N   UNL     1       0.942 -12.020   0.216  1.00  0.00    -0.248 NA
ATOM     40  C   UNL     1       0.986 -10.636  -1.654  1.00  0.00     0.031 C 
ATOM     41  C   UNL     1       5.300 -11.322   0.890  1.00  0.00     0.029 A 
ATOM     42  N   UNL     1       3.473 -12.361   1.648  1.00  0.00    -0.354 N 
ATOM     43  C   UNL     1      -0.352 -11.854  -0.273  1.00  0.00     0.074 A 
ATOM     44  C   UNL     1      -0.276 -10.908  -1.357  1.00  0.00     0.031 C 
ATOM     45  C   UNL     1       5.667 -12.050   1.954  1.00  0.00     0.029 A 
ATOM     46  C   UNL     1       4.505 -12.772   2.464  1.00  0.00     0.049 A 
ATOM     47  H   UNL     1       2.534 -12.616   1.796  1.00  0.00     0.167 HD
ATOM     48  C   UNL     1      -1.494 -12.477   0.100  1.00  0.00     0.031 A 
ATOM     49  C   UNL     1       4.533 -13.659   3.480  1.00  0.00     0.031 A 
ATOM     50  C   UNL     1      -1.558 -13.462   1.145  1.00  0.00     0.049 A 
ATOM     51  C   UNL     1       3.271 -14.396   3.837  1.00  0.00     0.074 A 
ATOM     52  C   UNL     1      -2.649 -14.206   1.556  1.00  0.00     0.029 A 
ATOM     53  N   UNL     1      -0.483 -13.856   1.928  1.00  0.00    -0.354 N 
ATOM     54  N   UNL     1       2.080 -14.294   3.297  1.00  0.00    -0.248 NA
ATOM     55  C   UNL     1       3.357 -15.386   4.920  1.00  0.00     0.031 C 
ATOM     56  C   UNL     1      -2.249 -15.007   2.626  1.00  0.00     0.029 A 
ATOM     57  C   UNL     1      -0.890 -14.825   2.827  1.00  0.00     0.049 A 
ATOM     58  H   UNL     1       0.431 -13.500   1.855  1.00  0.00     0.167 HD
ATOM     59  C   UNL     1       1.283 -15.226   3.953  1.00  0.00     0.074 A 
ATOM     60  C   UNL     1       2.131 -15.894   4.918  1.00  0.00     0.031 C 
ATOM     61  C   UNL     1      -0.032 -15.499   3.770  1.00  0.00     0.031 A 
BRANCH  48  62
ATOM     62  C   UNL     1      -2.764 -12.177  -0.664  1.00  0.00    -0.014 A 
ATOM     63  C   UNL     1      -3.873 -11.615  -0.004  1.00  0.00     0.010 A 
ATOM     64  C   UNL     1      -2.902 -12.568  -2.009  1.00  0.00     0.010 A 
ATOM     65  C   UNL     1      -5.101 -11.484  -0.661  1.00  0.00     0.020 A 
ATOM     66  C   UNL     1      -4.116 -12.404  -2.681  1.00  0.00     0.020 A 
ATOM     67  C   UNL     1      -5.216 -11.889  -1.993  1.00  0.00     0.054 A 
BRANCH  67  68
ATOM     68  S   UNL     1      -6.827 -11.752  -2.817  1.00  0.00     0.124 S 
ATOM     69  O   UNL     1      -7.581 -12.840  -2.201  1.00  0.00    -0.237 OA
ATOM     70  O   UNL     1      -7.256 -10.403  -2.457  1.00  0.00    -0.237 OA
ATOM     71  O   UNL     1      -6.505 -11.937  -4.231  1.00  0.00    -0.744 OA
ENDBRANCH  67  68
ENDBRANCH  48  62
BRANCH  49  72
ATOM     72  C   UNL     1       5.835 -13.968   4.141  1.00  0.00    -0.014 A 
ATOM     73  C   UNL     1       6.506 -12.989   4.897  1.00  0.00     0.010 A 
ATOM     74  C   UNL     1       6.462 -15.211   3.933  1.00  0.00     0.010 A 
ATOM     75  C   UNL     1       7.799 -13.221   5.377  1.00  0.00     0.020 A 
ATOM     76  C   UNL     1       7.741 -15.461   4.442  1.00  0.00     0.020 A 
ATOM     77  C   UNL     1       8.414 -14.451   5.133  1.00  0.00     0.054 A 
BRANCH  77  78
ATOM     78  S   UNL     1      10.116 -14.704   5.708  1.00  0.00     0.124 S 
ATOM     79  O   UNL     1      10.877 -13.901   4.754  1.00  0.00    -0.237 OA
ATOM     80  O   UNL     1      10.072 -14.186   7.073  1.00  0.00    -0.237 OA
ATOM     81  O   UNL     1      10.305 -16.148   5.599  1.00  0.00    -0.744 OA
ENDBRANCH  77  78
ENDBRANCH  49  72
BRANCH  61  82
ATOM     82  C   UNL     1      -0.664 -16.585   4.601  1.00  0.00    -0.014 A 
ATOM     83  C   UNL     1      -1.157 -17.741   3.966  1.00  0.00     0.010 A 
ATOM     84  C   UNL     1      -0.911 -16.399   5.972  1.00  0.00     0.010 A 
ATOM     85  C   UNL     1      -1.920 -18.671   4.675  1.00  0.00     0.020 A 
ATOM     86  C   UNL     1      -1.645 -17.346   6.693  1.00  0.00     0.020 A 
ATOM     87  C   UNL     1      -2.168 -18.461   6.033  1.00  0.00     0.054 A 
BRANCH  87  88
ATOM     88  S   UNL     1      -3.194 -19.659   6.927  1.00  0.00     0.124 S 
ATOM     89  O   UNL     1      -4.535 -19.327   6.457  1.00  0.00    -0.237 OA
ATOM     90  O   UNL     1      -2.664 -20.941   6.468  1.00  0.00    -0.237 OA
ATOM     91  O   UNL     1      -2.931 -19.354   8.332  1.00  0.00    -0.744 OA
ENDBRANCH  87  88
ENDBRANCH  61  82
ENDBRANCH  35  36
ENDBRANCH  28  30
ENDBRANCH  27  28
ENDBRANCH  26  27
ENDBRANCH   1  26
TORSDOF 18
