REMARK SMILES CC/C=C/C/C=C/C/C=C/C/C=C/CC/C=C/COCC(=O)OCCOC(=O)c1ccc(-c2c3nc(c(-c4ccc(S(=O)(=O)[O-])cc4)c4ccc([nH]4)c(-c4ccc(S(=O)(=O)[O-])cc4)c4nc(c(-c5ccc(S(=O)(=O)[O-])cc5)c5ccc2[nH]5)C=C4)C=C3)cc1
REMARK SMILES IDX 18 1 17 2 16 3 15 4 14 5 13 6 12 7 11 8 10 9 9 10 8 11 7 12
REMARK SMILES IDX 6 13 5 14 4 15 3 16 2 17 1 18 19 19 20 20 21 21 22 22 23 23
REMARK SMILES IDX 24 24 25 25 26 26 27 27 28 28 29 29 30 30 88 31 31 32 87 33
REMARK SMILES IDX 32 34 33 35 34 36 81 37 35 38 86 39 80 40 82 41 36 42 85 43
REMARK SMILES IDX 79 44 78 45 37 47 67 48 48 49 66 50 49 51 52 52 65 53 83 54
REMARK SMILES IDX 50 55 51 56 64 58 84 59 53 60 38 61 39 62 47 63 40 64 46 65
REMARK SMILES IDX 41 66 42 67 43 68 44 69 45 70 68 71 69 72 77 73 70 74 76 75
REMARK SMILES IDX 71 76 72 77 73 78 74 79 75 80 54 81 55 82 63 83 56 84 62 85
REMARK SMILES IDX 57 86 58 87 59 88 60 89 61 90
REMARK H PARENT 82 46 52 57
REMARK Flexibility Score: inf
ROOT
ATOM      1  C   UNL     1      -8.695 -10.275 -10.450  1.00  0.00     0.188 C 
ENDROOT
BRANCH   1   2
ATOM      2  C   UNL     1      -9.098  -8.827 -10.369  1.00  0.00    -0.003 C 
ATOM      3  C   UNL     1      -8.360  -7.969  -9.656  1.00  0.00    -0.029 C 
BRANCH   3   4
ATOM      4  C   UNL     1      -8.775  -6.644  -9.070  1.00  0.00     0.031 C 
BRANCH   4   5
ATOM      5  C   UNL     1      -9.120  -6.583  -7.507  1.00  0.00     0.031 C 
BRANCH   5   6
ATOM      6  C   UNL     1      -8.254  -7.021  -6.272  1.00  0.00    -0.031 C 
ATOM      7  C   UNL     1      -7.334  -6.326  -5.546  1.00  0.00    -0.027 C 
BRANCH   7   8
ATOM      8  C   UNL     1      -6.523  -6.645  -4.295  1.00  0.00     0.054 C 
BRANCH   8   9
ATOM      9  C   UNL     1      -4.998  -6.547  -4.438  1.00  0.00    -0.027 C 
ATOM     10  C   UNL     1      -4.157  -5.540  -4.090  1.00  0.00    -0.027 C 
BRANCH  10  11
ATOM     11  C   UNL     1      -2.630  -5.632  -4.151  1.00  0.00     0.054 C 
BRANCH  11  12
ATOM     12  C   UNL     1      -1.901  -4.337  -4.468  1.00  0.00    -0.027 C 
ATOM     13  C   UNL     1      -0.865  -3.848  -3.749  1.00  0.00    -0.027 C 
BRANCH  13  14
ATOM     14  C   UNL     1      -0.045  -2.619  -4.086  1.00  0.00     0.054 C 
BRANCH  14  15
ATOM     15  C   UNL     1      -0.256  -1.511  -3.086  1.00  0.00    -0.027 C 
ATOM     16  C   UNL     1       0.711  -0.863  -2.411  1.00  0.00    -0.031 C 
BRANCH  16  17
ATOM     17  C   UNL     1       0.438   0.276  -1.462  1.00  0.00     0.023 C 
ATOM     18  C   UNL     1       0.957  -0.005  -0.060  1.00  0.00     0.008 C 
ENDBRANCH  16  17
ENDBRANCH  14  15
ENDBRANCH  13  14
ENDBRANCH  11  12
ENDBRANCH  10  11
ENDBRANCH   8   9
ENDBRANCH   7   8
ENDBRANCH   5   6
ENDBRANCH   4   5
ENDBRANCH   3   4
ENDBRANCH   1   2
BRANCH   1  19
ATOM     19  O   UNL     1      -9.758 -11.126 -10.000  1.00  0.00    -0.366 OA
BRANCH  19  20
ATOM     20  C   UNL     1     -10.446 -10.707  -8.832  1.00  0.00     0.283 C 
BRANCH  20  21
ATOM     21  C   UNL     1      -9.826 -10.751  -7.435  1.00  0.00     0.332 C 
ATOM     22  O   UNL     1     -10.093  -9.924  -6.567  1.00  0.00    -0.250 OA
BRANCH  21  23
ATOM     23  O   UNL     1      -9.079 -11.871  -7.238  1.00  0.00    -0.460 OA
BRANCH  23  24
ATOM     24  C   UNL     1      -8.635 -12.101  -5.883  1.00  0.00     0.274 C 
BRANCH  24  25
ATOM     25  C   UNL     1      -7.105 -12.150  -5.821  1.00  0.00     0.275 C 
BRANCH  25  26
ATOM     26  O   UNL     1      -6.572 -10.868  -6.208  1.00  0.00    -0.458 OA
BRANCH  26  27
ATOM     27  C   UNL     1      -5.245 -10.805  -6.526  1.00  0.00     0.338 C 
ATOM     28  O   UNL     1      -4.448 -11.717  -6.432  1.00  0.00    -0.246 OA
BRANCH  27  29
ATOM     29  C   UNL     1      -4.915  -9.421  -7.003  1.00  0.00     0.060 A 
ATOM     30  C   UNL     1      -5.921  -8.638  -7.528  1.00  0.00     0.016 A 
ATOM     31  C   UNL     1      -3.643  -8.849  -6.963  1.00  0.00     0.016 A 
ATOM     32  C   UNL     1      -5.685  -7.310  -7.940  1.00  0.00     0.010 A 
ATOM     33  C   UNL     1      -3.440  -7.479  -7.345  1.00  0.00     0.010 A 
ATOM     34  C   UNL     1      -4.489  -6.650  -7.806  1.00  0.00    -0.014 A 
BRANCH  34  35
ATOM     35  C   UNL     1      -4.351  -5.204  -8.277  1.00  0.00     0.031 A 
ATOM     36  C   UNL     1      -3.347  -4.955  -9.351  1.00  0.00     0.074 A 
ATOM     37  C   UNL     1      -5.151  -4.114  -8.073  1.00  0.00     0.049 A 
ATOM     38  N   UNL     1      -2.826  -3.830  -9.750  1.00  0.00    -0.248 NA
ATOM     39  C   UNL     1      -2.961  -6.136 -10.136  1.00  0.00     0.031 C 
ATOM     40  C   UNL     1      -6.522  -4.094  -7.615  1.00  0.00     0.029 A 
ATOM     41  N   UNL     1      -4.915  -2.751  -8.225  1.00  0.00    -0.354 N 
ATOM     42  C   UNL     1      -2.029  -4.167 -10.824  1.00  0.00     0.074 A 
ATOM     43  C   UNL     1      -2.108  -5.604 -10.993  1.00  0.00     0.031 C 
ATOM     44  C   UNL     1      -6.930  -2.863  -7.279  1.00  0.00     0.029 A 
ATOM     45  C   UNL     1      -5.872  -1.942  -7.621  1.00  0.00     0.049 A 
ATOM     46  H   UNL     1      -4.141  -2.392  -8.715  1.00  0.00     0.167 HD
ATOM     47  C   UNL     1      -1.306  -3.350 -11.616  1.00  0.00     0.031 A 
ATOM     48  C   UNL     1      -5.944  -0.616  -7.375  1.00  0.00     0.031 A 
ATOM     49  C   UNL     1      -1.255  -1.922 -11.511  1.00  0.00     0.049 A 
ATOM     50  C   UNL     1      -4.913   0.266  -7.999  1.00  0.00     0.074 A 
ATOM     51  C   UNL     1      -0.434  -1.049 -12.200  1.00  0.00     0.029 A 
ATOM     52  N   UNL     1      -2.069  -1.151 -10.698  1.00  0.00    -0.354 N 
ATOM     53  N   UNL     1      -3.979  -0.077  -8.848  1.00  0.00    -0.248 NA
ATOM     54  C   UNL     1      -4.970   1.704  -7.702  1.00  0.00     0.031 C 
ATOM     55  C   UNL     1      -0.716   0.251 -11.768  1.00  0.00     0.029 A 
ATOM     56  C   UNL     1      -1.745   0.189 -10.844  1.00  0.00     0.049 A 
ATOM     57  H   UNL     1      -2.772  -1.502 -10.105  1.00  0.00     0.167 HD
ATOM     58  C   UNL     1      -3.380   1.107  -9.240  1.00  0.00     0.074 A 
ATOM     59  C   UNL     1      -4.042   2.178  -8.524  1.00  0.00     0.031 C 
ATOM     60  C   UNL     1      -2.385   1.270 -10.141  1.00  0.00     0.031 A 
BRANCH  47  61
ATOM     61  C   UNL     1      -0.415  -4.043 -12.590  1.00  0.00    -0.014 A 
ATOM     62  C   UNL     1      -0.907  -4.587 -13.786  1.00  0.00     0.010 A 
ATOM     63  C   UNL     1       0.935  -4.211 -12.238  1.00  0.00     0.010 A 
ATOM     64  C   UNL     1      -0.058  -5.325 -14.608  1.00  0.00     0.020 A 
ATOM     65  C   UNL     1       1.790  -4.926 -13.069  1.00  0.00     0.020 A 
ATOM     66  C   UNL     1       1.283  -5.492 -14.240  1.00  0.00     0.054 A 
BRANCH  66  67
ATOM     67  S   UNL     1       2.373  -6.446 -15.326  1.00  0.00     0.124 S 
ATOM     68  O   UNL     1       1.951  -7.816 -15.045  1.00  0.00    -0.237 OA
ATOM     69  O   UNL     1       2.026  -5.939 -16.651  1.00  0.00    -0.237 OA
ATOM     70  O   UNL     1       3.713  -6.098 -14.861  1.00  0.00    -0.744 OA
ENDBRANCH  66  67
ENDBRANCH  47  61
BRANCH  48  71
ATOM     71  C   UNL     1      -7.017  -0.024  -6.512  1.00  0.00    -0.014 A 
ATOM     72  C   UNL     1      -8.002   0.835  -7.035  1.00  0.00     0.010 A 
ATOM     73  C   UNL     1      -7.000  -0.255  -5.122  1.00  0.00     0.010 A 
ATOM     74  C   UNL     1      -8.920   1.474  -6.188  1.00  0.00     0.020 A 
ATOM     75  C   UNL     1      -7.925   0.368  -4.273  1.00  0.00     0.020 A 
ATOM     76  C   UNL     1      -8.870   1.243  -4.810  1.00  0.00     0.054 A 
BRANCH  76  77
ATOM     77  S   UNL     1     -10.067   2.083  -3.728  1.00  0.00     0.124 S 
ATOM     78  O   UNL     1      -9.566   3.453  -3.724  1.00  0.00    -0.237 OA
ATOM     79  O   UNL     1     -11.330   1.873  -4.431  1.00  0.00    -0.237 OA
ATOM     80  O   UNL     1      -9.943   1.368  -2.460  1.00  0.00    -0.744 OA
ENDBRANCH  76  77
ENDBRANCH  48  71
BRANCH  60  81
ATOM     81  C   UNL     1      -1.951   2.674 -10.439  1.00  0.00    -0.014 A 
ATOM     82  C   UNL     1      -1.208   3.414  -9.504  1.00  0.00     0.010 A 
ATOM     83  C   UNL     1      -2.251   3.241 -11.690  1.00  0.00     0.010 A 
ATOM     84  C   UNL     1      -0.789   4.710  -9.809  1.00  0.00     0.020 A 
ATOM     85  C   UNL     1      -1.812   4.528 -12.007  1.00  0.00     0.020 A 
ATOM     86  C   UNL     1      -1.093   5.258 -11.059  1.00  0.00     0.054 A 
BRANCH  86  87
ATOM     87  S   UNL     1      -0.485   6.920 -11.453  1.00  0.00     0.124 S 
ATOM     88  O   UNL     1      -1.403   7.766 -10.697  1.00  0.00    -0.237 OA
ATOM     89  O   UNL     1       0.890   6.885 -10.960  1.00  0.00    -0.237 OA
ATOM     90  O   UNL     1      -0.616   7.000 -12.906  1.00  0.00    -0.744 OA
ENDBRANCH  86  87
ENDBRANCH  60  81
ENDBRANCH  34  35
ENDBRANCH  27  29
ENDBRANCH  26  27
ENDBRANCH  25  26
ENDBRANCH  24  25
ENDBRANCH  23  24
ENDBRANCH  21  23
ENDBRANCH  20  21
ENDBRANCH  19  20
ENDBRANCH   1  19
TORSDOF 27
