REMARK SMILES O=C(C[NH+]1CC2(CCCC2)C1)OCCOC(=O)c1ccc(-c2c3nc(c(-c4ccc(S(=O)(=O)[O-])cc4)c4ccc([nH]4)c(-c4ccc(S(=O)(=O)[O-])cc4)c4nc(c(-c5ccc(S(=O)(=O)[O-])cc5)c5ccc2[nH]5)C=C4)C=C3)cc1
REMARK SMILES IDX 14 1 13 2 12 3 2 4 1 5 3 6 4 7 5 8 11 9 6 11 7 12 10 13 8 14
REMARK SMILES IDX 9 15 15 16 16 17 17 18 18 19 19 20 77 21 20 22 76 23 21 24
REMARK SMILES IDX 22 25 23 26 70 27 24 28 75 29 69 30 71 31 25 32 74 33 68 34
REMARK SMILES IDX 67 35 26 37 56 38 37 39 55 40 38 41 41 42 54 43 72 44 39 45
REMARK SMILES IDX 40 46 53 48 73 49 42 50 27 51 28 52 36 53 29 54 35 55 30 56
REMARK SMILES IDX 31 57 32 58 33 59 34 60 57 61 58 62 66 63 59 64 65 65 60 66
REMARK SMILES IDX 61 67 62 68 63 69 64 70 43 71 44 72 52 73 45 74 51 75 46 76
REMARK SMILES IDX 47 77 48 78 49 79 50 80
REMARK H PARENT 4 10 71 36 41 47
REMARK Flexibility Score: inf
ROOT
ATOM      1  C   UNL     1       4.720   1.218   1.922  1.00  0.00     0.275 C 
ENDROOT
BRANCH   1   2
ATOM      2  C   UNL     1       4.910   1.305   0.401  1.00  0.00     0.274 C 
BRANCH   2   3
ATOM      3  O   UNL     1       3.666   1.544  -0.292  1.00  0.00    -0.458 OA
BRANCH   3   4
ATOM      4  C   UNL     1       3.127   0.621  -1.135  1.00  0.00     0.361 C 
ATOM      5  O   UNL     1       2.479   0.977  -2.117  1.00  0.00    -0.245 OA
BRANCH   4   6
ATOM      6  C   UNL     1       3.219  -0.830  -0.694  1.00  0.00     0.386 C 
BRANCH   6   7
ATOM      7  N   UNL     1       3.858  -1.698  -1.700  1.00  0.00    -0.324 N 
ATOM      8  C   UNL     1       2.867  -2.254  -2.652  1.00  0.00     0.275 C 
ATOM      9  C   UNL     1       4.051  -3.049  -1.123  1.00  0.00     0.275 C 
ATOM     10  H   UNL     1       4.638  -1.137  -2.045  1.00  0.00     0.348 HD
ATOM     11  C   UNL     1       2.723  -3.526  -1.773  1.00  0.00     0.068 C 
ATOM     12  C   UNL     1       2.847  -4.921  -2.411  1.00  0.00     0.019 C 
ATOM     13  C   UNL     1       1.470  -3.560  -0.888  1.00  0.00     0.019 C 
ATOM     14  C   UNL     1       1.615  -5.689  -1.931  1.00  0.00     0.001 C 
ATOM     15  C   UNL     1       1.286  -5.033  -0.609  1.00  0.00     0.001 C 
ENDBRANCH   6   7
ENDBRANCH   4   6
ENDBRANCH   3   4
ENDBRANCH   2   3
ENDBRANCH   1   2
BRANCH   1  16
ATOM     16  O   UNL     1       4.283  -0.091   2.352  1.00  0.00    -0.458 OA
BRANCH  16  17
ATOM     17  C   UNL     1       2.948  -0.234   2.573  1.00  0.00     0.338 C 
ATOM     18  O   UNL     1       2.113   0.634   2.419  1.00  0.00    -0.246 OA
BRANCH  17  19
ATOM     19  C   UNL     1       2.601  -1.649   2.908  1.00  0.00     0.060 A 
ATOM     20  C   UNL     1       1.268  -2.046   2.739  1.00  0.00     0.016 A 
ATOM     21  C   UNL     1       3.531  -2.580   3.392  1.00  0.00     0.016 A 
ATOM     22  C   UNL     1       0.864  -3.344   3.074  1.00  0.00     0.010 A 
ATOM     23  C   UNL     1       3.120  -3.880   3.743  1.00  0.00     0.010 A 
ATOM     24  C   UNL     1       1.778  -4.265   3.610  1.00  0.00    -0.014 A 
BRANCH  24  25
ATOM     25  C   UNL     1       1.252  -5.540   4.179  1.00  0.00     0.031 A 
ATOM     26  C   UNL     1       0.663  -5.519   5.558  1.00  0.00     0.074 A 
ATOM     27  C   UNL     1       1.221  -6.689   3.479  1.00  0.00     0.049 A 
ATOM     28  N   UNL     1       0.003  -6.454   6.188  1.00  0.00    -0.248 NA
ATOM     29  C   UNL     1       0.889  -4.296   6.342  1.00  0.00     0.031 C 
ATOM     30  C   UNL     1       1.851  -6.887   2.187  1.00  0.00     0.029 A 
ATOM     31  N   UNL     1       0.598  -7.889   3.725  1.00  0.00    -0.354 N 
ATOM     32  C   UNL     1      -0.237  -5.950   7.458  1.00  0.00     0.074 A 
ATOM     33  C   UNL     1       0.340  -4.622   7.502  1.00  0.00     0.031 C 
ATOM     34  C   UNL     1       1.447  -8.056   1.665  1.00  0.00     0.029 A 
ATOM     35  C   UNL     1       0.613  -8.747   2.645  1.00  0.00     0.049 A 
ATOM     36  H   UNL     1       0.181  -8.114   4.588  1.00  0.00     0.167 HD
ATOM     37  C   UNL     1      -0.849  -6.551   8.505  1.00  0.00     0.031 A 
ATOM     38  C   UNL     1       0.029  -9.951   2.469  1.00  0.00     0.031 A 
ATOM     39  C   UNL     1      -1.375  -7.889   8.482  1.00  0.00     0.049 A 
ATOM     40  C   UNL     1      -0.705 -10.577   3.626  1.00  0.00     0.074 A 
ATOM     41  C   UNL     1      -1.994  -8.588   9.504  1.00  0.00     0.029 A 
ATOM     42  N   UNL     1      -1.330  -8.739   7.387  1.00  0.00    -0.354 N 
ATOM     43  N   UNL     1      -0.946 -10.077   4.815  1.00  0.00    -0.248 NA
ATOM     44  C   UNL     1      -1.208 -11.946   3.434  1.00  0.00     0.031 C 
ATOM     45  C   UNL     1      -2.287  -9.876   9.038  1.00  0.00     0.029 A 
ATOM     46  C   UNL     1      -1.901  -9.959   7.710  1.00  0.00     0.049 A 
ATOM     47  H   UNL     1      -0.948  -8.509   6.509  1.00  0.00     0.167 HD
ATOM     48  C   UNL     1      -1.620 -11.072   5.514  1.00  0.00     0.074 A 
ATOM     49  C   UNL     1      -1.783 -12.188   4.605  1.00  0.00     0.031 C 
ATOM     50  C   UNL     1      -2.050 -11.066   6.800  1.00  0.00     0.031 A 
BRANCH  37  51
ATOM     51  C   UNL     1      -0.898  -5.771   9.789  1.00  0.00    -0.014 A 
ATOM     52  C   UNL     1      -1.740  -4.654   9.933  1.00  0.00     0.010 A 
ATOM     53  C   UNL     1      -0.056  -6.143  10.852  1.00  0.00     0.010 A 
ATOM     54  C   UNL     1      -1.694  -3.886  11.098  1.00  0.00     0.020 A 
ATOM     55  C   UNL     1      -0.028  -5.392  12.029  1.00  0.00     0.020 A 
ATOM     56  C   UNL     1      -0.829  -4.253  12.133  1.00  0.00     0.054 A 
BRANCH  56  57
ATOM     57  S   UNL     1      -0.765  -3.225  13.625  1.00  0.00     0.124 S 
ATOM     58  O   UNL     1       0.015  -2.079  13.164  1.00  0.00    -0.237 OA
ATOM     59  O   UNL     1      -2.176  -2.957  13.893  1.00  0.00    -0.237 OA
ATOM     60  O   UNL     1      -0.099  -4.079  14.605  1.00  0.00    -0.744 OA
ENDBRANCH  56  57
ENDBRANCH  37  51
BRANCH  38  61
ATOM     61  C   UNL     1       0.117 -10.663   1.160  1.00  0.00    -0.014 A 
ATOM     62  C   UNL     1      -1.040 -10.867   0.383  1.00  0.00     0.010 A 
ATOM     63  C   UNL     1       1.345 -11.157   0.686  1.00  0.00     0.010 A 
ATOM     64  C   UNL     1      -0.971 -11.556  -0.834  1.00  0.00     0.020 A 
ATOM     65  C   UNL     1       1.424 -11.818  -0.544  1.00  0.00     0.020 A 
ATOM     66  C   UNL     1       0.263 -12.023  -1.292  1.00  0.00     0.054 A 
BRANCH  66  67
ATOM     67  S   UNL     1       0.350 -12.856  -2.903  1.00  0.00     0.124 S 
ATOM     68  O   UNL     1      -0.147 -14.190  -2.582  1.00  0.00    -0.237 OA
ATOM     69  O   UNL     1      -0.527 -12.036  -3.735  1.00  0.00    -0.237 OA
ATOM     70  O   UNL     1       1.769 -12.780  -3.246  1.00  0.00    -0.744 OA
ENDBRANCH  66  67
ENDBRANCH  38  61
BRANCH  50  71
ATOM     71  C   UNL     1      -2.762 -12.296   7.297  1.00  0.00    -0.014 A 
ATOM     72  C   UNL     1      -2.065 -13.488   7.566  1.00  0.00     0.010 A 
ATOM     73  C   UNL     1      -4.147 -12.242   7.539  1.00  0.00     0.010 A 
ATOM     74  C   UNL     1      -2.748 -14.615   8.033  1.00  0.00     0.020 A 
ATOM     75  C   UNL     1      -4.828 -13.359   8.028  1.00  0.00     0.020 A 
ATOM     76  C   UNL     1      -4.127 -14.544   8.257  1.00  0.00     0.054 A 
BRANCH  76  77
ATOM     77  S   UNL     1      -4.990 -16.009   8.891  1.00  0.00     0.124 S 
ATOM     78  O   UNL     1      -5.079 -16.848   7.699  1.00  0.00    -0.237 OA
ATOM     79  O   UNL     1      -4.086 -16.491   9.932  1.00  0.00    -0.237 OA
ATOM     80  O   UNL     1      -6.261 -15.477   9.376  1.00  0.00    -0.744 OA
ENDBRANCH  76  77
ENDBRANCH  50  71
ENDBRANCH  24  25
ENDBRANCH  17  19
ENDBRANCH  16  17
ENDBRANCH   1  16
TORSDOF 15
