REMARK SMILES CC1(C)Cc2c(-c3ccccc3)c(-c3ccc(Cl)cc3)c(CC(=O)OCCOC(=O)c3ccc(-c4c5nc(c(-c6ccc(S(=O)(=O)[O-])cc6)c6ccc([nH]6)c(-c6ccc(S(=O)(=O)[O-])cc6)c6nc(c(-c7ccc(S(=O)(=O)[O-])cc7)c7ccc4[nH]7)C=C6)C=C5)cc3)n2C1
REMARK SMILES IDX 27 1 26 2 25 3 23 4 24 5 22 6 21 7 1 8 2 9 3 10 4 11 92 12
REMARK SMILES IDX 5 13 91 14 6 15 13 16 7 17 8 18 12 19 9 20 11 21 10 22 14 23
REMARK SMILES IDX 15 24 20 25 16 26 19 27 17 28 18 29 28 30 29 31 30 32 31 33
REMARK SMILES IDX 32 34 90 35 33 36 89 37 34 38 35 39 36 40 83 41 37 42 88 43
REMARK SMILES IDX 82 44 84 45 38 46 87 47 81 48 80 49 39 51 69 52 50 53 68 54
REMARK SMILES IDX 51 55 54 56 67 57 85 58 52 59 53 60 66 62 86 63 55 64 40 65
REMARK SMILES IDX 41 66 49 67 42 68 48 69 43 70 44 71 45 72 46 73 47 74 70 75
REMARK SMILES IDX 71 76 79 77 72 78 78 79 73 80 74 81 75 82 76 83 77 84 56 85
REMARK SMILES IDX 57 86 65 87 58 88 64 89 59 90 60 91 61 92 62 93 63 94
REMARK H PARENT 84 50 54 61
REMARK Flexibility Score: inf
ROOT
ATOM      1  C   UNL     1      -5.371  -6.157   1.421  1.00  0.00     0.275 C 
ENDROOT
BRANCH   1   2
ATOM      2  C   UNL     1      -5.026  -4.671   1.550  1.00  0.00     0.274 C 
BRANCH   2   3
ATOM      3  O   UNL     1      -3.600  -4.539   1.669  1.00  0.00    -0.462 OA
BRANCH   3   4
ATOM      4  C   UNL     1      -3.124  -3.545   2.455  1.00  0.00     0.311 C 
ATOM      5  O   UNL     1      -3.810  -2.616   2.876  1.00  0.00    -0.252 OA
BRANCH   4   6
ATOM      6  C   UNL     1      -1.682  -3.762   2.864  1.00  0.00     0.177 C 
BRANCH   6   7
ATOM      7  C   UNL     1      -0.670  -4.009   1.776  1.00  0.00     0.037 A 
ATOM      8  C   UNL     1       1.331   0.186  -0.045  1.00  0.00     0.013 C 
ATOM      9  C   UNL     1       0.665  -1.190  -0.172  1.00  0.00    -0.012 C 
ATOM     10  C   UNL     1      -0.266  -1.208  -1.404  1.00  0.00     0.013 C 
ATOM     11  C   UNL     1       1.722  -2.342  -0.300  1.00  0.00     0.063 C 
ATOM     12  C   UNL     1      -0.146  -1.558   1.110  1.00  0.00     0.129 C 
ATOM     13  C   UNL     1       1.043  -3.453   0.398  1.00  0.00     0.027 A 
ATOM     14  N   UNL     1       0.039  -2.999   1.202  1.00  0.00    -0.346 N 
ATOM     15  C   UNL     1       1.016  -4.819   0.403  1.00  0.00     0.011 A 
ATOM     16  C   UNL     1      -0.143  -5.174   1.200  1.00  0.00     0.011 A 
BRANCH  15  17
ATOM     17  C   UNL     1       1.860  -5.679  -0.417  1.00  0.00    -0.016 A 
ATOM     18  C   UNL     1       3.216  -5.829  -0.108  1.00  0.00     0.009 A 
ATOM     19  C   UNL     1       1.292  -6.504  -1.399  1.00  0.00     0.009 A 
ATOM     20  C   UNL     1       3.970  -6.830  -0.729  1.00  0.00     0.001 A 
ATOM     21  C   UNL     1       2.036  -7.525  -1.991  1.00  0.00     0.001 A 
ATOM     22  C   UNL     1       3.374  -7.693  -1.650  1.00  0.00     0.000 A 
ENDBRANCH  15  17
BRANCH  16  23
ATOM     23  C   UNL     1      -0.842  -6.442   1.043  1.00  0.00    -0.016 A 
ATOM     24  C   UNL     1      -0.196  -7.669   1.243  1.00  0.00     0.010 A 
ATOM     25  C   UNL     1      -1.969  -6.395   0.214  1.00  0.00     0.010 A 
ATOM     26  C   UNL     1      -0.619  -8.799   0.522  1.00  0.00     0.021 A 
ATOM     27  C   UNL     1      -2.421  -7.519  -0.455  1.00  0.00     0.021 A 
ATOM     28  C   UNL     1      -1.695  -8.693  -0.362  1.00  0.00     0.041 A 
ATOM     29  Cl  UNL     1      -2.032  -9.890  -1.547  1.00  0.00    -0.084 Cl
ENDBRANCH  16  23
ENDBRANCH   6   7
ENDBRANCH   4   6
ENDBRANCH   3   4
ENDBRANCH   2   3
ENDBRANCH   1   2
BRANCH   1  30
ATOM     30  O   UNL     1      -5.370  -6.892   2.659  1.00  0.00    -0.458 OA
BRANCH  30  31
ATOM     31  C   UNL     1      -4.176  -6.974   3.311  1.00  0.00     0.338 C 
ATOM     32  O   UNL     1      -3.668  -6.076   3.930  1.00  0.00    -0.246 OA
BRANCH  31  33
ATOM     33  C   UNL     1      -3.605  -8.345   3.211  1.00  0.00     0.060 A 
ATOM     34  C   UNL     1      -2.290  -8.540   3.647  1.00  0.00     0.016 A 
ATOM     35  C   UNL     1      -4.331  -9.415   2.677  1.00  0.00     0.016 A 
ATOM     36  C   UNL     1      -1.683  -9.783   3.486  1.00  0.00     0.010 A 
ATOM     37  C   UNL     1      -3.727 -10.659   2.524  1.00  0.00     0.010 A 
ATOM     38  C   UNL     1      -2.390 -10.839   2.895  1.00  0.00    -0.014 A 
BRANCH  38  39
ATOM     39  C   UNL     1      -1.790 -12.182   2.893  1.00  0.00     0.031 A 
ATOM     40  C   UNL     1      -1.415 -12.668   4.238  1.00  0.00     0.074 A 
ATOM     41  C   UNL     1      -1.728 -12.999   1.820  1.00  0.00     0.049 A 
ATOM     42  N   UNL     1      -0.245 -13.043   4.634  1.00  0.00    -0.248 NA
ATOM     43  C   UNL     1      -2.423 -12.582   5.309  1.00  0.00     0.031 C 
ATOM     44  C   UNL     1      -2.173 -12.658   0.480  1.00  0.00     0.029 A 
ATOM     45  N   UNL     1      -1.381 -14.318   1.692  1.00  0.00    -0.354 N 
ATOM     46  C   UNL     1      -0.429 -13.485   5.935  1.00  0.00     0.074 A 
ATOM     47  C   UNL     1      -1.710 -12.979   6.362  1.00  0.00     0.031 C 
ATOM     48  C   UNL     1      -2.300 -13.764  -0.273  1.00  0.00     0.029 A 
ATOM     49  C   UNL     1      -1.857 -14.898   0.511  1.00  0.00     0.049 A 
ATOM     50  H   UNL     1      -0.851 -14.807   2.362  1.00  0.00     0.167 HD
ATOM     51  C   UNL     1       0.312 -14.510   6.434  1.00  0.00     0.031 A 
ATOM     52  C   UNL     1      -1.938 -16.211   0.180  1.00  0.00     0.031 A 
ATOM     53  C   UNL     1       1.534 -14.708   5.695  1.00  0.00     0.049 A 
ATOM     54  C   UNL     1      -0.922 -16.919   0.983  1.00  0.00     0.074 A 
ATOM     55  C   UNL     1       2.618 -13.915   5.379  1.00  0.00     0.029 A 
ATOM     56  N   UNL     1       1.583 -15.789   4.848  1.00  0.00    -0.354 N 
ATOM     57  N   UNL     1       0.359 -16.752   0.808  1.00  0.00    -0.248 NA
ATOM     58  C   UNL     1      -1.305 -17.493   2.263  1.00  0.00     0.031 C 
ATOM     59  C   UNL     1       3.052 -14.354   4.096  1.00  0.00     0.029 A 
ATOM     60  C   UNL     1       2.248 -15.426   3.705  1.00  0.00     0.049 A 
ATOM     61  H   UNL     1       1.202 -16.679   5.031  1.00  0.00     0.167 HD
ATOM     62  C   UNL     1       0.884 -16.745   2.090  1.00  0.00     0.074 A 
ATOM     63  C   UNL     1      -0.151 -17.351   2.922  1.00  0.00     0.031 C 
ATOM     64  C   UNL     1       1.976 -15.984   2.394  1.00  0.00     0.031 A 
BRANCH  51  65
ATOM     65  C   UNL     1      -0.318 -15.598   7.272  1.00  0.00    -0.014 A 
ATOM     66  C   UNL     1       0.498 -16.602   7.823  1.00  0.00     0.010 A 
ATOM     67  C   UNL     1      -1.713 -15.826   7.291  1.00  0.00     0.010 A 
ATOM     68  C   UNL     1      -0.054 -17.797   8.306  1.00  0.00     0.020 A 
ATOM     69  C   UNL     1      -2.276 -16.986   7.815  1.00  0.00     0.020 A 
ATOM     70  C   UNL     1      -1.438 -17.983   8.284  1.00  0.00     0.054 A 
BRANCH  70  71
ATOM     71  S   UNL     1      -2.139 -19.568   8.796  1.00  0.00     0.124 S 
ATOM     72  O   UNL     1      -1.673 -20.454   7.734  1.00  0.00    -0.237 OA
ATOM     73  O   UNL     1      -1.529 -19.768  10.107  1.00  0.00    -0.237 OA
ATOM     74  O   UNL     1      -3.578 -19.314   8.815  1.00  0.00    -0.744 OA
ENDBRANCH  70  71
ENDBRANCH  51  65
BRANCH  52  75
ATOM     75  C   UNL     1      -2.992 -16.889  -0.624  1.00  0.00    -0.014 A 
ATOM     76  C   UNL     1      -2.848 -18.222  -1.052  1.00  0.00     0.010 A 
ATOM     77  C   UNL     1      -4.271 -16.305  -0.752  1.00  0.00     0.010 A 
ATOM     78  C   UNL     1      -3.953 -18.960  -1.518  1.00  0.00     0.020 A 
ATOM     79  C   UNL     1      -5.374 -17.028  -1.224  1.00  0.00     0.020 A 
ATOM     80  C   UNL     1      -5.216 -18.365  -1.576  1.00  0.00     0.054 A 
BRANCH  80  81
ATOM     81  S   UNL     1      -6.673 -19.379  -1.972  1.00  0.00     0.124 S 
ATOM     82  O   UNL     1      -6.499 -19.635  -3.399  1.00  0.00    -0.237 OA
ATOM     83  O   UNL     1      -6.503 -20.536  -1.097  1.00  0.00    -0.237 OA
ATOM     84  O   UNL     1      -7.800 -18.512  -1.631  1.00  0.00    -0.744 OA
ENDBRANCH  80  81
ENDBRANCH  52  75
BRANCH  64  85
ATOM     85  C   UNL     1       2.841 -15.480   1.258  1.00  0.00    -0.014 A 
ATOM     86  C   UNL     1       2.397 -14.581   0.268  1.00  0.00     0.010 A 
ATOM     87  C   UNL     1       4.205 -15.820   1.287  1.00  0.00     0.010 A 
ATOM     88  C   UNL     1       3.294 -14.052  -0.675  1.00  0.00     0.020 A 
ATOM     89  C   UNL     1       5.106 -15.284   0.364  1.00  0.00     0.020 A 
ATOM     90  C   UNL     1       4.646 -14.405  -0.618  1.00  0.00     0.054 A 
BRANCH  90  91
ATOM     91  S   UNL     1       5.818 -13.666  -1.794  1.00  0.00     0.124 S 
ATOM     92  O   UNL     1       5.455 -14.311  -3.053  1.00  0.00    -0.237 OA
ATOM     93  O   UNL     1       5.514 -12.239  -1.707  1.00  0.00    -0.237 OA
ATOM     94  O   UNL     1       7.128 -14.043  -1.263  1.00  0.00    -0.744 OA
ENDBRANCH  90  91
ENDBRANCH  64  85
ENDBRANCH  38  39
ENDBRANCH  31  33
ENDBRANCH  30  31
ENDBRANCH   1  30
TORSDOF 17
