REMARK SMILES CC(C)[NH2+][C@@]1(C(=O)OCCOC(=O)c2ccc(-c3c4nc(c(-c5ccc(S(=O)(=O)[O-])cc5)c5ccc([nH]5)c(-c5ccc(S(=O)(=O)[O-])cc5)c5nc(c(-c6ccc(S(=O)(=O)[O-])cc6)c6ccc3[nH]6)C=C5)C=C4)cc2)CC[C@@H](Sc2ccncc2)C1
REMARK SMILES IDX 10 1 9 2 8 3 6 4 7 5 5 6 74 7 84 8 75 9 76 10 4 11 2 14 1 15
REMARK SMILES IDX 3 16 77 17 78 18 79 19 83 20 80 21 82 22 81 23 11 24 12 25
REMARK SMILES IDX 13 26 14 27 15 28 73 29 16 30 72 31 17 32 18 33 19 34 66 35
REMARK SMILES IDX 20 36 71 37 65 38 67 39 21 40 70 41 64 42 63 43 22 45 52 46
REMARK SMILES IDX 33 47 51 48 34 49 37 50 50 51 68 52 35 53 36 54 49 56 69 57
REMARK SMILES IDX 38 58 23 59 24 60 32 61 25 62 31 63 26 64 27 65 28 66 29 67
REMARK SMILES IDX 30 68 53 69 54 70 62 71 55 72 61 73 56 74 57 75 58 76 59 77
REMARK SMILES IDX 60 78 39 79 40 80 48 81 41 82 47 83 42 84 43 85 44 86 45 87
REMARK SMILES IDX 46 88
REMARK H PARENT 4 12 4 13 67 44 37 55
REMARK Flexibility Score: inf
ROOT
ATOM      1  C   UNL     1      -2.803   2.095   4.834  1.00  0.00     0.275 C 
ENDROOT
BRANCH   1   2
ATOM      2  C   UNL     1      -1.850   3.210   4.401  1.00  0.00     0.274 C 
BRANCH   2   3
ATOM      3  O   UNL     1      -1.879   3.383   2.970  1.00  0.00    -0.457 OA
BRANCH   3   4
ATOM      4  C   UNL     1      -0.775   2.958   2.280  1.00  0.00     0.368 C 
ATOM      5  O   UNL     1       0.237   2.544   2.832  1.00  0.00    -0.245 OA
BRANCH   4   6
ATOM      6  C   UNL     1      -0.950   3.146   0.729  1.00  0.00     0.195 C 
ATOM      7  C   UNL     1      -0.526   4.555   0.298  1.00  0.00     0.082 C 
ATOM      8  C   UNL     1      -2.448   3.077   0.329  1.00  0.00     0.096 C 
ATOM      9  C   UNL     1      -1.748   5.429   0.536  1.00  0.00     0.022 C 
ATOM     10  C   UNL     1      -2.945   4.526   0.236  1.00  0.00     0.059 C 
BRANCH   6  11
ATOM     11  N   UNL     1      -0.241   2.071  -0.015  1.00  0.00    -0.330 N 
ATOM     12  H   UNL     1      -0.576   1.180   0.353  1.00  0.00     0.347 HD
ATOM     13  H   UNL     1      -0.456   2.260  -0.994  1.00  0.00     0.347 HD
BRANCH  11  14
ATOM     14  C   UNL     1       1.229   2.037   0.033  1.00  0.00     0.176 C 
ATOM     15  C   UNL     1       1.643   0.566  -0.078  1.00  0.00     0.075 C 
ATOM     16  C   UNL     1       1.874   2.818  -1.116  1.00  0.00     0.075 C 
ENDBRANCH  11  14
ENDBRANCH   6  11
BRANCH  10  17
ATOM     17  S   UNL     1      -3.831   4.930  -1.333  1.00  0.00    -0.122 SA
BRANCH  17  18
ATOM     18  C   UNL     1      -2.597   4.672  -2.596  1.00  0.00     0.011 A 
ATOM     19  C   UNL     1      -2.377   3.408  -3.141  1.00  0.00     0.035 A 
ATOM     20  C   UNL     1      -1.909   5.761  -3.127  1.00  0.00     0.035 A 
ATOM     21  C   UNL     1      -1.436   3.276  -4.148  1.00  0.00     0.112 A 
ATOM     22  C   UNL     1      -0.998   5.532  -4.144  1.00  0.00     0.112 A 
ATOM     23  N   UNL     1      -0.736   4.311  -4.656  1.00  0.00    -0.265 NA
ENDBRANCH  17  18
ENDBRANCH  10  17
ENDBRANCH   4   6
ENDBRANCH   3   4
ENDBRANCH   2   3
ENDBRANCH   1   2
BRANCH   1  24
ATOM     24  O   UNL     1      -2.366   0.825   4.318  1.00  0.00    -0.458 OA
BRANCH  24  25
ATOM     25  C   UNL     1      -3.132   0.294   3.335  1.00  0.00     0.338 C 
ATOM     26  O   UNL     1      -4.177   0.731   2.888  1.00  0.00    -0.246 OA
BRANCH  25  27
ATOM     27  C   UNL     1      -2.423  -0.861   2.764  1.00  0.00     0.060 A 
ATOM     28  C   UNL     1      -1.790  -0.688   1.533  1.00  0.00     0.016 A 
ATOM     29  C   UNL     1      -2.401  -2.100   3.406  1.00  0.00     0.016 A 
ATOM     30  C   UNL     1      -1.097  -1.746   0.950  1.00  0.00     0.010 A 
ATOM     31  C   UNL     1      -1.707  -3.164   2.817  1.00  0.00     0.010 A 
ATOM     32  C   UNL     1      -1.041  -2.988   1.592  1.00  0.00    -0.014 A 
BRANCH  32  33
ATOM     33  C   UNL     1      -0.276  -4.093   0.969  1.00  0.00     0.031 A 
ATOM     34  C   UNL     1      -0.982  -5.125   0.142  1.00  0.00     0.074 A 
ATOM     35  C   UNL     1       1.062  -4.139   1.112  1.00  0.00     0.049 A 
ATOM     36  N   UNL     1      -0.493  -6.192  -0.434  1.00  0.00    -0.248 NA
ATOM     37  C   UNL     1      -2.422  -4.922  -0.076  1.00  0.00     0.031 C 
ATOM     38  C   UNL     1       1.870  -3.145   1.821  1.00  0.00     0.029 A 
ATOM     39  N   UNL     1       1.978  -5.057   0.664  1.00  0.00    -0.354 N 
ATOM     40  C   UNL     1      -1.565  -6.797  -1.078  1.00  0.00     0.074 A 
ATOM     41  C   UNL     1      -2.731  -5.978  -0.818  1.00  0.00     0.031 C 
ATOM     42  C   UNL     1       3.162  -3.510   1.762  1.00  0.00     0.029 A 
ATOM     43  C   UNL     1       3.267  -4.785   1.056  1.00  0.00     0.049 A 
ATOM     44  H   UNL     1       1.735  -5.837   0.114  1.00  0.00     0.167 HD
ATOM     45  C   UNL     1      -1.575  -7.936  -1.810  1.00  0.00     0.031 A 
ATOM     46  C   UNL     1       4.398  -5.500   0.897  1.00  0.00     0.031 A 
ATOM     47  C   UNL     1      -0.420  -8.762  -2.043  1.00  0.00     0.049 A 
ATOM     48  C   UNL     1       4.336  -6.822   0.181  1.00  0.00     0.074 A 
ATOM     49  C   UNL     1      -0.339  -9.949  -2.751  1.00  0.00     0.029 A 
ATOM     50  N   UNL     1       0.853  -8.496  -1.561  1.00  0.00    -0.354 N 
ATOM     51  N   UNL     1       3.311  -7.394  -0.405  1.00  0.00    -0.248 NA
ATOM     52  C   UNL     1       5.580  -7.604   0.119  1.00  0.00     0.031 C 
ATOM     53  C   UNL     1       0.973 -10.427  -2.653  1.00  0.00     0.029 A 
ATOM     54  C   UNL     1       1.719  -9.513  -1.926  1.00  0.00     0.049 A 
ATOM     55  H   UNL     1       1.103  -7.702  -1.037  1.00  0.00     0.167 HD
ATOM     56  C   UNL     1       3.788  -8.600  -0.908  1.00  0.00     0.074 A 
ATOM     57  C   UNL     1       5.197  -8.665  -0.579  1.00  0.00     0.031 C 
ATOM     58  C   UNL     1       3.116  -9.570  -1.578  1.00  0.00     0.031 A 
BRANCH  45  59
ATOM     59  C   UNL     1      -2.898  -8.386  -2.363  1.00  0.00    -0.014 A 
ATOM     60  C   UNL     1      -3.473  -7.759  -3.482  1.00  0.00     0.010 A 
ATOM     61  C   UNL     1      -3.565  -9.469  -1.763  1.00  0.00     0.010 A 
ATOM     62  C   UNL     1      -4.710  -8.188  -3.972  1.00  0.00     0.020 A 
ATOM     63  C   UNL     1      -4.793  -9.912  -2.260  1.00  0.00     0.020 A 
ATOM     64  C   UNL     1      -5.366  -9.257  -3.352  1.00  0.00     0.054 A 
BRANCH  64  65
ATOM     65  S   UNL     1      -6.968  -9.799  -4.008  1.00  0.00     0.124 S 
ATOM     66  O   UNL     1      -7.858  -8.740  -3.537  1.00  0.00    -0.237 OA
ATOM     67  O   UNL     1      -6.734  -9.827  -5.449  1.00  0.00    -0.237 OA
ATOM     68  O   UNL     1      -7.173 -11.106  -3.388  1.00  0.00    -0.744 OA
ENDBRANCH  64  65
ENDBRANCH  45  59
BRANCH  46  69
ATOM     69  C   UNL     1       5.676  -5.015   1.485  1.00  0.00    -0.014 A 
ATOM     70  C   UNL     1       6.732  -4.587   0.664  1.00  0.00     0.010 A 
ATOM     71  C   UNL     1       5.843  -4.990   2.883  1.00  0.00     0.010 A 
ATOM     72  C   UNL     1       7.938  -4.157   1.228  1.00  0.00     0.020 A 
ATOM     73  C   UNL     1       7.036  -4.537   3.451  1.00  0.00     0.020 A 
ATOM     74  C   UNL     1       8.082  -4.135   2.619  1.00  0.00     0.054 A 
BRANCH  74  75
ATOM     75  S   UNL     1       9.636  -3.531   3.336  1.00  0.00     0.124 S 
ATOM     76  O   UNL     1      10.522  -4.675   3.145  1.00  0.00    -0.237 OA
ATOM     77  O   UNL     1       9.931  -2.358   2.516  1.00  0.00    -0.237 OA
ATOM     78  O   UNL     1       9.279  -3.238   4.722  1.00  0.00    -0.744 OA
ENDBRANCH  74  75
ENDBRANCH  46  69
BRANCH  58  79
ATOM     79  C   UNL     1       3.898 -10.784  -2.002  1.00  0.00    -0.014 A 
ATOM     80  C   UNL     1       4.272 -11.764  -1.065  1.00  0.00     0.010 A 
ATOM     81  C   UNL     1       4.214 -10.975  -3.359  1.00  0.00     0.010 A 
ATOM     82  C   UNL     1       4.970 -12.903  -1.476  1.00  0.00     0.020 A 
ATOM     83  C   UNL     1       4.891 -12.123  -3.776  1.00  0.00     0.020 A 
ATOM     84  C   UNL     1       5.276 -13.075  -2.829  1.00  0.00     0.054 A 
BRANCH  84  85
ATOM     85  S   UNL     1       6.136 -14.587  -3.347  1.00  0.00     0.124 S 
ATOM     86  O   UNL     1       7.508 -14.313  -2.929  1.00  0.00    -0.237 OA
ATOM     87  O   UNL     1       5.444 -15.628  -2.591  1.00  0.00    -0.237 OA
ATOM     88  O   UNL     1       5.921 -14.629  -4.792  1.00  0.00    -0.744 OA
ENDBRANCH  84  85
ENDBRANCH  58  79
ENDBRANCH  32  33
ENDBRANCH  25  27
ENDBRANCH  24  25
ENDBRANCH   1  24
TORSDOF 18
