REMARK SMILES C[N@@H+]1CCC[C@@H](NC(=O)N(CC(=O)OCCOC(=O)c2ccc(-c3c4nc(c(-c5ccc(S(=O)(=O)[O-])cc5)c5ccc([nH]5)c(-c5ccc(S(=O)(=O)[O-])cc5)c5nc(c(-c6ccc(S(=O)(=O)[O-])cc6)c6ccc3[nH]6)C=C5)C=C4)cc2)C(C)(C)C)C1
REMARK SMILES IDX 15 1 14 2 12 3 13 4 11 5 10 6 8 7 7 8 9 10 6 11 1 12 2 13
REMARK SMILES IDX 3 14 84 15 4 17 5 18 80 19 81 20 82 21 83 22 16 23 17 24
REMARK SMILES IDX 18 25 19 26 20 27 21 28 79 29 22 30 78 31 23 32 24 33 25 34
REMARK SMILES IDX 72 35 26 36 77 37 71 38 73 39 27 40 76 41 70 42 69 43 28 45
REMARK SMILES IDX 58 46 39 47 57 48 40 49 43 50 56 51 74 52 41 53 42 54 55 56
REMARK SMILES IDX 75 57 44 58 29 59 30 60 38 61 31 62 37 63 32 64 33 65 34 66
REMARK SMILES IDX 35 67 36 68 59 69 60 70 68 71 61 72 67 73 62 74 63 75 64 76
REMARK SMILES IDX 65 77 66 78 45 79 46 80 54 81 47 82 53 83 48 84 49 85 50 86
REMARK SMILES IDX 51 87 52 88
REMARK H PARENT 7 9 2 16 73 44 43 55
REMARK Flexibility Score: inf
ROOT
ATOM      1  C   UNL     1       5.591  -2.365  -0.698  1.00  0.00     0.274 C 
ENDROOT
BRANCH   1   2
ATOM      2  O   UNL     1       4.511  -2.808   0.145  1.00  0.00    -0.461 OA
BRANCH   2   3
ATOM      3  C   UNL     1       3.376  -3.151  -0.521  1.00  0.00     0.325 C 
ATOM      4  O   UNL     1       3.239  -3.072  -1.740  1.00  0.00    -0.250 OA
BRANCH   3   5
ATOM      5  C   UNL     1       2.286  -3.756   0.367  1.00  0.00     0.244 C 
BRANCH   5   6
ATOM      6  N   UNL     1       2.346  -3.435   1.789  1.00  0.00    -0.309 N 
BRANCH   6   7
ATOM      7  C   UNL     1       1.955  -2.206   2.276  1.00  0.00     0.318 C 
ATOM      8  N   UNL     1       1.464  -1.212   1.511  1.00  0.00    -0.330 N 
ATOM      9  H   UNL     1       1.233  -0.443   2.080  1.00  0.00     0.165 HD
ATOM     10  O   UNL     1       2.018  -1.915   3.474  1.00  0.00    -0.249 OA
BRANCH   8  11
ATOM     11  C   UNL     1       1.160  -0.895   0.108  1.00  0.00     0.139 C 
ATOM     12  C   UNL     1      -2.488   0.177   0.107  1.00  0.00     0.332 C 
ATOM     13  N   UNL     1      -1.059   0.252   0.422  1.00  0.00    -0.336 N 
ATOM     14  C   UNL     1      -0.493   1.511  -0.080  1.00  0.00     0.262 C 
ATOM     15  C   UNL     1      -0.360  -0.909  -0.162  1.00  0.00     0.287 C 
ATOM     16  H   UNL     1      -0.935   0.232   1.434  1.00  0.00     0.347 HD
ATOM     17  C   UNL     1       0.988   1.627   0.277  1.00  0.00     0.064 C 
ATOM     18  C   UNL     1       1.784   0.452  -0.277  1.00  0.00     0.037 C 
ENDBRANCH   8  11
ENDBRANCH   6   7
BRANCH   6  19
ATOM     19  C   UNL     1       2.804  -4.505   2.768  1.00  0.00     0.037 C 
ATOM     20  C   UNL     1       4.104  -4.073   3.480  1.00  0.00     0.034 C 
ATOM     21  C   UNL     1       1.696  -4.793   3.812  1.00  0.00     0.034 C 
ATOM     22  C   UNL     1       3.115  -5.884   2.124  1.00  0.00     0.034 C 
ENDBRANCH   6  19
ENDBRANCH   5   6
ENDBRANCH   3   5
ENDBRANCH   2   3
ENDBRANCH   1   2
BRANCH   1  23
ATOM     23  C   UNL     1       6.518  -3.523  -1.067  1.00  0.00     0.275 C 
BRANCH  23  24
ATOM     24  O   UNL     1       5.755  -4.639  -1.562  1.00  0.00    -0.458 OA
BRANCH  24  25
ATOM     25  C   UNL     1       5.875  -5.787  -0.858  1.00  0.00     0.338 C 
ATOM     26  O   UNL     1       6.637  -5.989   0.080  1.00  0.00    -0.246 OA
BRANCH  25  27
ATOM     27  C   UNL     1       4.935  -6.818  -1.347  1.00  0.00     0.060 A 
ATOM     28  C   UNL     1       3.641  -6.500  -1.770  1.00  0.00     0.016 A 
ATOM     29  C   UNL     1       5.326  -8.155  -1.275  1.00  0.00     0.016 A 
ATOM     30  C   UNL     1       2.717  -7.513  -2.036  1.00  0.00     0.010 A 
ATOM     31  C   UNL     1       4.432  -9.163  -1.641  1.00  0.00     0.010 A 
ATOM     32  C   UNL     1       3.109  -8.857  -2.001  1.00  0.00    -0.014 A 
BRANCH  32  33
ATOM     33  C   UNL     1       2.172  -9.960  -2.350  1.00  0.00     0.031 A 
ATOM     34  C   UNL     1       1.908 -11.067  -1.364  1.00  0.00     0.074 A 
ATOM     35  C   UNL     1       1.613 -10.015  -3.575  1.00  0.00     0.049 A 
ATOM     36  N   UNL     1       1.362 -12.239  -1.565  1.00  0.00    -0.248 NA
ATOM     37  C   UNL     1       2.330 -10.830   0.026  1.00  0.00     0.031 C 
ATOM     38  C   UNL     1       1.736  -8.994  -4.617  1.00  0.00     0.029 A 
ATOM     39  N   UNL     1       0.842 -10.991  -4.158  1.00  0.00    -0.354 N 
ATOM     40  C   UNL     1       1.437 -12.906  -0.347  1.00  0.00     0.074 A 
ATOM     41  C   UNL     1       2.069 -12.001   0.590  1.00  0.00     0.031 C 
ATOM     42  C   UNL     1       1.051  -9.386  -5.702  1.00  0.00     0.029 A 
ATOM     43  C   UNL     1       0.520 -10.724  -5.467  1.00  0.00     0.049 A 
ATOM     44  H   UNL     1       0.547 -11.802  -3.684  1.00  0.00     0.167 HD
ATOM     45  C   UNL     1       1.029 -14.162  -0.044  1.00  0.00     0.031 A 
ATOM     46  C   UNL     1      -0.083 -11.485  -6.400  1.00  0.00     0.031 A 
ATOM     47  C   UNL     1       0.372 -15.046  -0.970  1.00  0.00     0.049 A 
ATOM     48  C   UNL     1      -0.491 -12.887  -6.059  1.00  0.00     0.074 A 
ATOM     49  C   UNL     1      -0.098 -16.331  -0.750  1.00  0.00     0.029 A 
ATOM     50  N   UNL     1       0.082 -14.736  -2.289  1.00  0.00    -0.354 N 
ATOM     51  N   UNL     1      -0.362 -13.525  -4.920  1.00  0.00    -0.248 NA
ATOM     52  C   UNL     1      -1.107 -13.678  -7.132  1.00  0.00     0.031 C 
ATOM     53  C   UNL     1      -0.642 -16.808  -1.948  1.00  0.00     0.029 A 
ATOM     54  C   UNL     1      -0.549 -15.806  -2.901  1.00  0.00     0.049 A 
ATOM     55  H   UNL     1       0.292 -13.880  -2.728  1.00  0.00     0.167 HD
ATOM     56  C   UNL     1      -0.896 -14.789  -5.135  1.00  0.00     0.074 A 
ATOM     57  C   UNL     1      -1.354 -14.824  -6.510  1.00  0.00     0.031 C 
ATOM     58  C   UNL     1      -0.998 -15.827  -4.269  1.00  0.00     0.031 A 
BRANCH  45  59
ATOM     59  C   UNL     1       1.335 -14.675   1.338  1.00  0.00    -0.014 A 
ATOM     60  C   UNL     1       0.617 -14.236   2.463  1.00  0.00     0.010 A 
ATOM     61  C   UNL     1       2.354 -15.631   1.506  1.00  0.00     0.010 A 
ATOM     62  C   UNL     1       0.942 -14.709   3.738  1.00  0.00     0.020 A 
ATOM     63  C   UNL     1       2.668 -16.124   2.775  1.00  0.00     0.020 A 
ATOM     64  C   UNL     1       1.974 -15.643   3.886  1.00  0.00     0.054 A 
BRANCH  64  65
ATOM     65  S   UNL     1       2.384 -16.243   5.549  1.00  0.00     0.124 S 
ATOM     66  O   UNL     1       3.175 -15.136   6.080  1.00  0.00    -0.237 OA
ATOM     67  O   UNL     1       1.070 -16.427   6.161  1.00  0.00    -0.237 OA
ATOM     68  O   UNL     1       3.126 -17.476   5.297  1.00  0.00    -0.744 OA
ENDBRANCH  64  65
ENDBRANCH  45  59
BRANCH  46  69
ATOM     69  C   UNL     1      -0.299 -10.929  -7.762  1.00  0.00    -0.014 A 
ATOM     70  C   UNL     1      -1.581 -10.520  -8.161  1.00  0.00     0.010 A 
ATOM     71  C   UNL     1       0.788 -10.740  -8.636  1.00  0.00     0.010 A 
ATOM     72  C   UNL     1      -1.773  -9.916  -9.406  1.00  0.00     0.020 A 
ATOM     73  C   UNL     1       0.604 -10.116  -9.872  1.00  0.00     0.020 A 
ATOM     74  C   UNL     1      -0.677  -9.709 -10.250  1.00  0.00     0.054 A 
BRANCH  74  75
ATOM     75  S   UNL     1      -0.929  -8.825 -11.815  1.00  0.00     0.124 S 
ATOM     76  O   UNL     1      -1.494  -9.867 -12.665  1.00  0.00    -0.237 OA
ATOM     77  O   UNL     1      -1.845  -7.753 -11.431  1.00  0.00    -0.237 OA
ATOM     78  O   UNL     1       0.417  -8.381 -12.173  1.00  0.00    -0.744 OA
ENDBRANCH  74  75
ENDBRANCH  46  69
BRANCH  58  79
ATOM     79  C   UNL     1      -1.666 -17.076  -4.770  1.00  0.00    -0.014 A 
ATOM     80  C   UNL     1      -0.986 -17.979  -5.605  1.00  0.00     0.010 A 
ATOM     81  C   UNL     1      -2.978 -17.371  -4.358  1.00  0.00     0.010 A 
ATOM     82  C   UNL     1      -1.616 -19.148  -6.038  1.00  0.00     0.020 A 
ATOM     83  C   UNL     1      -3.605 -18.547  -4.775  1.00  0.00     0.020 A 
ATOM     84  C   UNL     1      -2.924 -19.423  -5.623  1.00  0.00     0.054 A 
BRANCH  84  85
ATOM     85  S   UNL     1      -3.709 -20.968  -6.159  1.00  0.00     0.124 S 
ATOM     86  O   UNL     1      -4.103 -20.649  -7.528  1.00  0.00    -0.237 OA
ATOM     87  O   UNL     1      -2.629 -21.944  -6.027  1.00  0.00    -0.237 OA
ATOM     88  O   UNL     1      -4.812 -21.139  -5.215  1.00  0.00    -0.744 OA
ENDBRANCH  84  85
ENDBRANCH  58  79
ENDBRANCH  32  33
ENDBRANCH  25  27
ENDBRANCH  24  25
ENDBRANCH  23  24
ENDBRANCH   1  23
TORSDOF 18
