REMARK SMILES CC(C)[C@H](NC(=O)OCc1ccccc1)C(=O)NCC(=O)OCCOC(=O)c1ccc(-c2c3nc(c(-c4ccc(S(=O)(=O)[O-])cc4)c4ccc([nH]4)c(-c4ccc(S(=O)(=O)[O-])cc4)c4nc(c(-c5ccc(S(=O)(=O)[O-])cc5)c5ccc2[nH]5)C=C4)C=C3)cc1
REMARK SMILES IDX 22 1 20 2 21 3 19 4 18 5 16 6 17 7 4 9 2 10 1 11 3 12 5 13
REMARK SMILES IDX 6 14 7 16 8 17 9 18 10 19 11 20 15 21 12 22 14 23 13 24
REMARK SMILES IDX 23 25 24 26 25 27 26 28 27 29 28 30 29 31 87 32 30 33 86 34
REMARK SMILES IDX 31 35 32 36 33 37 80 38 34 39 85 40 79 41 81 42 35 43 84 44
REMARK SMILES IDX 78 45 77 46 36 48 66 49 47 50 65 51 48 52 51 53 64 54 82 55
REMARK SMILES IDX 49 56 50 57 63 59 83 60 52 61 37 62 38 63 46 64 39 65 45 66
REMARK SMILES IDX 40 67 41 68 42 69 43 70 44 71 67 72 68 73 76 74 69 75 75 76
REMARK SMILES IDX 70 77 71 78 72 79 73 80 74 81 53 82 54 83 62 84 55 85 61 86
REMARK SMILES IDX 56 87 57 88 58 89 59 90 60 91
REMARK H PARENT 18 8 5 15 81 47 51 58
REMARK Flexibility Score: inf
ROOT
ATOM      1  O   UNL     1       2.836  -0.695   3.293  1.00  0.00    -0.461 OA
ENDROOT
BRANCH   1   2
ATOM      2  C   UNL     1       2.171  -1.445   2.347  1.00  0.00     0.325 C 
ATOM      3  O   UNL     1       2.874  -1.943   1.450  1.00  0.00    -0.250 OA
BRANCH   2   4
ATOM      4  C   UNL     1       0.526  -1.859   2.224  1.00  0.00     0.238 C 
BRANCH   4   5
ATOM      5  N   UNL     1      -0.835  -1.419   2.807  1.00  0.00    -0.343 N 
ATOM      6  C   UNL     1      -1.589  -0.314   2.470  1.00  0.00     0.243 C 
ATOM      7  O   UNL     1      -2.638  -0.005   3.050  1.00  0.00    -0.273 OA
ATOM      8  H   UNL     1      -1.211  -2.000   3.507  1.00  0.00     0.164 HD
BRANCH   6   9
ATOM      9  C   UNL     1      -1.130   0.343   1.219  1.00  0.00     0.177 C 
BRANCH   9  10
ATOM     10  C   UNL     1      -1.702  -0.593   0.049  1.00  0.00     0.015 C 
ATOM     11  C   UNL     1      -0.954  -0.520  -1.274  1.00  0.00     0.010 C 
ATOM     12  C   UNL     1      -2.017  -2.101   0.331  1.00  0.00     0.010 C 
ENDBRANCH   9  10
BRANCH   9  13
ATOM     13  N   UNL     1       0.318   0.536   1.471  1.00  0.00    -0.309 N 
ATOM     14  C   UNL     1       0.790   1.049   2.695  1.00  0.00     0.408 C 
ATOM     15  H   UNL     1       0.965   0.301   0.767  1.00  0.00     0.167 HD
ATOM     16  O   UNL     1       1.356   2.149   2.650  1.00  0.00    -0.225 OA
BRANCH  14  17
ATOM     17  O   UNL     1       0.792   0.329   3.892  1.00  0.00    -0.445 OA
BRANCH  17  18
ATOM     18  C   UNL     1       0.751  -1.066   4.769  1.00  0.00     0.270 C 
BRANCH  18  19
ATOM     19  C   UNL     1       1.707  -2.475   4.804  1.00  0.00    -0.011 A 
ATOM     20  C   UNL     1       1.128  -3.712   4.479  1.00  0.00     0.007 A 
ATOM     21  C   UNL     1       3.116  -2.594   5.060  1.00  0.00     0.007 A 
ATOM     22  C   UNL     1       1.910  -4.853   4.167  1.00  0.00     0.000 A 
ATOM     23  C   UNL     1       3.902  -3.720   4.763  1.00  0.00     0.000 A 
ATOM     24  C   UNL     1       3.298  -4.842   4.257  1.00  0.00     0.000 A 
ENDBRANCH  18  19
ENDBRANCH  17  18
ENDBRANCH  14  17
ENDBRANCH   9  13
ENDBRANCH   6   9
ENDBRANCH   4   5
ENDBRANCH   2   4
ENDBRANCH   1   2
BRANCH   1  25
ATOM     25  C   UNL     1       3.244   0.225   4.601  1.00  0.00     0.274 C 
BRANCH  25  26
ATOM     26  C   UNL     1       2.795   0.185   6.268  1.00  0.00     0.275 C 
BRANCH  26  27
ATOM     27  O   UNL     1       2.284  -1.038   7.016  1.00  0.00    -0.458 OA
BRANCH  27  28
ATOM     28  C   UNL     1       1.172  -0.994   7.853  1.00  0.00     0.338 C 
ATOM     29  O   UNL     1       0.679   0.051   8.258  1.00  0.00    -0.246 OA
BRANCH  28  30
ATOM     30  C   UNL     1       0.412  -2.323   8.027  1.00  0.00     0.060 A 
ATOM     31  C   UNL     1      -0.583  -2.719   7.113  1.00  0.00     0.016 A 
ATOM     32  C   UNL     1       0.457  -3.079   9.198  1.00  0.00     0.016 A 
ATOM     33  C   UNL     1      -1.331  -3.910   7.210  1.00  0.00     0.010 A 
ATOM     34  C   UNL     1      -0.370  -4.236   9.363  1.00  0.00     0.010 A 
ATOM     35  C   UNL     1      -1.244  -4.688   8.354  1.00  0.00    -0.014 A 
BRANCH  35  36
ATOM     36  C   UNL     1      -2.192  -5.835   8.538  1.00  0.00     0.031 A 
ATOM     37  C   UNL     1      -3.472  -5.622   9.310  1.00  0.00     0.074 A 
ATOM     38  C   UNL     1      -1.986  -7.040   7.965  1.00  0.00     0.049 A 
ATOM     39  N   UNL     1      -4.359  -6.494   9.719  1.00  0.00    -0.248 NA
ATOM     40  C   UNL     1      -3.796  -4.229   9.650  1.00  0.00     0.031 C 
ATOM     41  C   UNL     1      -0.898  -7.367   7.043  1.00  0.00     0.029 A 
ATOM     42  N   UNL     1      -2.688  -8.222   8.076  1.00  0.00    -0.354 N 
ATOM     43  C   UNL     1      -5.328  -5.761  10.400  1.00  0.00     0.074 A 
ATOM     44  C   UNL     1      -4.916  -4.374  10.343  1.00  0.00     0.031 C 
ATOM     45  C   UNL     1      -0.990  -8.665   6.697  1.00  0.00     0.029 A 
ATOM     46  C   UNL     1      -2.106  -9.281   7.414  1.00  0.00     0.049 A 
ATOM     47  H   UNL     1      -3.529  -8.301   8.583  1.00  0.00     0.167 HD
ATOM     48  C   UNL     1      -6.447  -6.200  11.030  1.00  0.00     0.031 A 
ATOM     49  C   UNL     1      -2.406 -10.598   7.418  1.00  0.00     0.031 A 
ATOM     50  C   UNL     1      -6.845  -7.583  11.105  1.00  0.00     0.049 A 
ATOM     51  C   UNL     1      -3.564 -11.094   8.252  1.00  0.00     0.074 A 
ATOM     52  C   UNL     1      -7.930  -8.136  11.764  1.00  0.00     0.029 A 
ATOM     53  N   UNL     1      -6.172  -8.634  10.499  1.00  0.00    -0.354 N 
ATOM     54  N   UNL     1      -4.420 -10.404   8.968  1.00  0.00    -0.248 NA
ATOM     55  C   UNL     1      -3.793 -12.547   8.280  1.00  0.00     0.031 C 
ATOM     56  C   UNL     1      -7.878  -9.526  11.607  1.00  0.00     0.029 A 
ATOM     57  C   UNL     1      -6.804  -9.833  10.786  1.00  0.00     0.049 A 
ATOM     58  H   UNL     1      -5.363  -8.541   9.946  1.00  0.00     0.167 HD
ATOM     59  C   UNL     1      -5.312 -11.334   9.497  1.00  0.00     0.074 A 
ATOM     60  C   UNL     1      -4.893 -12.635   9.016  1.00  0.00     0.031 C 
ATOM     61  C   UNL     1      -6.387 -11.126  10.299  1.00  0.00     0.031 A 
BRANCH  48  62
ATOM     62  C   UNL     1      -7.273  -5.170  11.762  1.00  0.00    -0.014 A 
ATOM     63  C   UNL     1      -8.010  -4.187  11.077  1.00  0.00     0.010 A 
ATOM     64  C   UNL     1      -7.298  -5.179  13.170  1.00  0.00     0.010 A 
ATOM     65  C   UNL     1      -8.697  -3.194  11.784  1.00  0.00     0.020 A 
ATOM     66  C   UNL     1      -8.010  -4.209  13.881  1.00  0.00     0.020 A 
ATOM     67  C   UNL     1      -8.683  -3.206  13.182  1.00  0.00     0.054 A 
BRANCH  67  68
ATOM     68  S   UNL     1      -9.555  -1.889  14.075  1.00  0.00     0.124 S 
ATOM     69  O   UNL     1      -8.691  -0.737  13.829  1.00  0.00    -0.237 OA
ATOM     70  O   UNL     1     -10.853  -1.854  13.406  1.00  0.00    -0.237 OA
ATOM     71  O   UNL     1      -9.581  -2.363  15.456  1.00  0.00    -0.744 OA
ENDBRANCH  67  68
ENDBRANCH  48  62
BRANCH  49  72
ATOM     72  C   UNL     1      -1.575 -11.565   6.638  1.00  0.00    -0.014 A 
ATOM     73  C   UNL     1      -2.116 -12.253   5.537  1.00  0.00     0.010 A 
ATOM     74  C   UNL     1      -0.237 -11.815   7.000  1.00  0.00     0.010 A 
ATOM     75  C   UNL     1      -1.340 -13.167   4.815  1.00  0.00     0.020 A 
ATOM     76  C   UNL     1       0.551 -12.706   6.263  1.00  0.00     0.020 A 
ATOM     77  C   UNL     1      -0.007 -13.380   5.177  1.00  0.00     0.054 A 
BRANCH  77  78
ATOM     78  S   UNL     1       1.001 -14.512   4.177  1.00  0.00     0.124 S 
ATOM     79  O   UNL     1       0.426 -15.811   4.512  1.00  0.00    -0.237 OA
ATOM     80  O   UNL     1       0.747 -14.038   2.818  1.00  0.00    -0.237 OA
ATOM     81  O   UNL     1       2.359 -14.283   4.665  1.00  0.00    -0.744 OA
ENDBRANCH  77  78
ENDBRANCH  49  72
BRANCH  61  82
ATOM     82  C   UNL     1      -7.235 -12.320  10.662  1.00  0.00    -0.014 A 
ATOM     83  C   UNL     1      -6.779 -13.314  11.546  1.00  0.00     0.010 A 
ATOM     84  C   UNL     1      -8.542 -12.415  10.145  1.00  0.00     0.010 A 
ATOM     85  C   UNL     1      -7.601 -14.396  11.878  1.00  0.00     0.020 A 
ATOM     86  C   UNL     1      -9.377 -13.478  10.498  1.00  0.00     0.020 A 
ATOM     87  C   UNL     1      -8.895 -14.471  11.352  1.00  0.00     0.054 A 
BRANCH  87  88
ATOM     88  S   UNL     1      -9.956 -15.863  11.831  1.00  0.00     0.124 S 
ATOM     89  O   UNL     1      -9.346 -16.974  11.105  1.00  0.00    -0.237 OA
ATOM     90  O   UNL     1      -9.800 -15.899  13.283  1.00  0.00    -0.237 OA
ATOM     91  O   UNL     1     -11.282 -15.467  11.363  1.00  0.00    -0.744 OA
ENDBRANCH  87  88
ENDBRANCH  61  82
ENDBRANCH  35  36
ENDBRANCH  28  30
ENDBRANCH  27  28
ENDBRANCH  26  27
ENDBRANCH  25  26
ENDBRANCH   1  25
TORSDOF 21
