REMARK SMILES Cc1ccc([C@@H](CC(=O)OCCOC(=O)c2ccc(-c3c4nc(c(-c5ccc(S(=O)(=O)[O-])cc5)c5ccc([nH]5)c(-c5ccc(S(=O)(=O)[O-])cc5)c5nc(c(-c6ccc(S(=O)(=O)[O-])cc6)c6ccc3[nH]6)C=C5)C=C4)cc2)NC(=O)c2ccc(OC(F)F)cc2)cc1
REMARK SMILES IDX 11 1 10 2 8 3 9 4 7 5 6 6 5 7 1 8 2 9 3 10 90 11 4 12 89 13
REMARK SMILES IDX 76 14 77 15 78 17 79 18 80 19 88 20 81 21 87 22 82 23 83 24
REMARK SMILES IDX 84 25 85 26 86 27 12 28 13 29 14 30 15 31 16 32 17 33 75 34
REMARK SMILES IDX 18 35 74 36 19 37 20 38 21 39 68 40 22 41 73 42 67 43 69 44
REMARK SMILES IDX 23 45 72 46 66 47 65 48 24 50 54 51 35 52 53 53 36 54 39 55
REMARK SMILES IDX 52 56 70 57 37 58 38 59 51 61 71 62 40 63 25 64 26 65 34 66
REMARK SMILES IDX 27 67 33 68 28 69 29 70 30 71 31 72 32 73 55 74 56 75 64 76
REMARK SMILES IDX 57 77 63 78 58 79 59 80 60 81 61 82 62 83 41 84 42 85 50 86
REMARK SMILES IDX 43 87 49 88 44 89 45 90 46 91 47 92 48 93
REMARK H PARENT 76 16 69 49 39 60
REMARK Flexibility Score: inf
ROOT
ATOM      1  C   UNL     1      -1.782  -5.327  -0.997  1.00  0.00     0.274 C 
ENDROOT
BRANCH   1   2
ATOM      2  O   UNL     1      -1.756  -4.069  -1.694  1.00  0.00    -0.462 OA
BRANCH   2   3
ATOM      3  C   UNL     1      -2.938  -3.222  -1.646  1.00  0.00     0.308 C 
ATOM      4  O   UNL     1      -3.897  -4.022  -1.758  1.00  0.00    -0.252 OA
BRANCH   3   5
ATOM      5  C   UNL     1      -2.853  -1.053  -1.333  1.00  0.00     0.152 C 
BRANCH   5   6
ATOM      6  C   UNL     1      -2.814   0.095   0.059  1.00  0.00     0.123 C 
BRANCH   6   7
ATOM      7  C   UNL     1      -1.362   0.464   0.444  1.00  0.00    -0.025 A 
ATOM      8  C   UNL     1       2.889   0.332   0.035  1.00  0.00     0.044 C 
ATOM      9  C   UNL     1       1.441   0.523   0.370  1.00  0.00    -0.051 A 
ATOM     10  C   UNL     1       0.782  -0.423   1.149  1.00  0.00     0.004 A 
ATOM     11  C   UNL     1       0.698   1.563  -0.199  1.00  0.00     0.004 A 
ATOM     12  C   UNL     1      -0.605  -0.386   1.266  1.00  0.00     0.006 A 
ATOM     13  C   UNL     1      -0.700   1.525  -0.183  1.00  0.00     0.006 A 
ENDBRANCH   6   7
BRANCH   6  14
ATOM     14  N   UNL     1      -3.594  -0.144   1.281  1.00  0.00    -0.345 N 
ATOM     15  C   UNL     1      -4.610   0.483   1.940  1.00  0.00     0.251 C 
ATOM     16  H   UNL     1      -3.310  -0.966   1.742  1.00  0.00     0.164 HD
ATOM     17  O   UNL     1      -4.615   0.371   3.169  1.00  0.00    -0.269 OA
BRANCH  15  18
ATOM     18  C   UNL     1      -5.715   1.239   1.304  1.00  0.00     0.040 A 
ATOM     19  C   UNL     1      -6.595   1.918   2.168  1.00  0.00     0.017 A 
ATOM     20  C   UNL     1      -6.014   1.209  -0.054  1.00  0.00     0.017 A 
ATOM     21  C   UNL     1      -7.729   2.568   1.679  1.00  0.00     0.047 A 
ATOM     22  C   UNL     1      -7.149   1.872  -0.546  1.00  0.00     0.047 A 
ATOM     23  C   UNL     1      -8.010   2.557   0.315  1.00  0.00     0.126 A 
BRANCH  23  24
ATOM     24  O   UNL     1      -9.146   3.227  -0.038  1.00  0.00    -0.435 OA
BRANCH  24  25
ATOM     25  C   UNL     1      -9.481   3.278  -1.418  1.00  0.00     0.542 C 
ATOM     26  F   UNL     1      -8.474   3.851  -2.120  1.00  0.00    -0.167 F 
ATOM     27  F   UNL     1      -9.690   2.032  -1.899  1.00  0.00    -0.167 F 
ENDBRANCH  24  25
ENDBRANCH  23  24
ENDBRANCH  15  18
ENDBRANCH   6  14
ENDBRANCH   5   6
ENDBRANCH   3   5
ENDBRANCH   2   3
ENDBRANCH   1   2
BRANCH   1  28
ATOM     28  C   UNL     1      -1.818  -5.140   0.530  1.00  0.00     0.275 C 
BRANCH  28  29
ATOM     29  O   UNL     1      -3.048  -4.618   1.073  1.00  0.00    -0.458 OA
BRANCH  29  30
ATOM     30  C   UNL     1      -3.123  -3.305   1.400  1.00  0.00     0.338 C 
ATOM     31  O   UNL     1      -3.165  -2.833   2.522  1.00  0.00    -0.246 OA
BRANCH  30  32
ATOM     32  C   UNL     1      -3.038  -2.447   0.220  1.00  0.00     0.060 A 
ATOM     33  C   UNL     1      -4.524  -2.151  -0.768  1.00  0.00     0.016 A 
ATOM     34  C   UNL     1      -1.403  -2.296  -0.531  1.00  0.00     0.016 A 
ATOM     35  C   UNL     1      -4.375  -1.955  -2.561  1.00  0.00     0.010 A 
ATOM     36  C   UNL     1      -1.255  -2.065  -2.300  1.00  0.00     0.010 A 
ATOM     37  C   UNL     1      -2.750  -1.959  -3.290  1.00  0.00    -0.014 A 
BRANCH  37  38
ATOM     38  C   UNL     1      -2.447  -2.400  -4.633  1.00  0.00     0.031 A 
ATOM     39  C   UNL     1      -1.642  -1.462  -5.422  1.00  0.00     0.074 A 
ATOM     40  C   UNL     1      -2.591  -3.728  -4.871  1.00  0.00     0.049 A 
ATOM     41  N   UNL     1      -1.530  -1.496  -6.696  1.00  0.00    -0.248 NA
ATOM     42  C   UNL     1      -0.926  -0.320  -4.836  1.00  0.00     0.031 C 
ATOM     43  C   UNL     1      -1.916  -4.602  -5.828  1.00  0.00     0.029 A 
ATOM     44  N   UNL     1      -3.492  -4.608  -4.300  1.00  0.00    -0.354 N 
ATOM     45  C   UNL     1      -0.403  -0.758  -6.991  1.00  0.00     0.074 A 
ATOM     46  C   UNL     1      -0.203   0.115  -5.869  1.00  0.00     0.031 C 
ATOM     47  C   UNL     1      -2.630  -5.739  -5.979  1.00  0.00     0.029 A 
ATOM     48  C   UNL     1      -3.844  -5.608  -5.191  1.00  0.00     0.049 A 
ATOM     49  H   UNL     1      -3.838  -4.533  -3.381  1.00  0.00     0.167 HD
ATOM     50  C   UNL     1       0.381  -1.170  -8.023  1.00  0.00     0.031 A 
ATOM     51  C   UNL     1      -5.118  -5.630  -5.684  1.00  0.00     0.031 A 
ATOM     52  C   UNL     1      -0.211  -2.359  -8.649  1.00  0.00     0.049 A 
ATOM     53  C   UNL     1      -5.137  -5.108  -7.112  1.00  0.00     0.074 A 
ATOM     54  C   UNL     1       0.090  -3.710  -8.593  1.00  0.00     0.029 A 
ATOM     55  N   UNL     1      -1.520  -2.279  -9.105  1.00  0.00    -0.354 N 
ATOM     56  N   UNL     1      -4.158  -4.423  -7.649  1.00  0.00    -0.248 NA
ATOM     57  C   UNL     1      -6.189  -5.395  -8.078  1.00  0.00     0.031 C 
ATOM     58  C   UNL     1      -1.075  -4.435  -8.995  1.00  0.00     0.029 A 
ATOM     59  C   UNL     1      -2.078  -3.527  -9.293  1.00  0.00     0.049 A 
ATOM     60  H   UNL     1      -1.994  -1.433  -9.275  1.00  0.00     0.167 HD
ATOM     61  C   UNL     1      -4.370  -4.243  -8.989  1.00  0.00     0.074 A 
ATOM     62  C   UNL     1      -5.673  -4.858  -9.200  1.00  0.00     0.031 C 
ATOM     63  C   UNL     1      -3.449  -3.630  -9.802  1.00  0.00     0.031 A 
BRANCH  50  64
ATOM     64  C   UNL     1       1.794  -0.700  -8.272  1.00  0.00    -0.014 A 
ATOM     65  C   UNL     1       2.633  -1.495  -9.078  1.00  0.00     0.010 A 
ATOM     66  C   UNL     1       2.360   0.493  -7.776  1.00  0.00     0.010 A 
ATOM     67  C   UNL     1       3.956  -1.136  -9.363  1.00  0.00     0.020 A 
ATOM     68  C   UNL     1       3.693   0.857  -8.037  1.00  0.00     0.020 A 
ATOM     69  C   UNL     1       4.479   0.043  -8.844  1.00  0.00     0.054 A 
BRANCH  69  70
ATOM     70  S   UNL     1       6.170   0.511  -9.289  1.00  0.00     0.124 S 
ATOM     71  O   UNL     1       6.947  -0.634  -8.822  1.00  0.00    -0.237 OA
ATOM     72  O   UNL     1       6.077   0.662 -10.739  1.00  0.00    -0.237 OA
ATOM     73  O   UNL     1       6.393   1.752  -8.549  1.00  0.00    -0.744 OA
ENDBRANCH  69  70
ENDBRANCH  50  64
BRANCH  51  74
ATOM     74  C   UNL     1      -6.141  -5.469  -4.594  1.00  0.00    -0.014 A 
ATOM     75  C   UNL     1      -6.164  -6.498  -3.618  1.00  0.00     0.010 A 
ATOM     76  C   UNL     1      -6.697  -4.226  -4.245  1.00  0.00     0.010 A 
ATOM     77  C   UNL     1      -6.555  -6.248  -2.296  1.00  0.00     0.020 A 
ATOM     78  C   UNL     1      -7.131  -3.984  -2.921  1.00  0.00     0.020 A 
ATOM     79  C   UNL     1      -7.012  -4.981  -1.945  1.00  0.00     0.054 A 
BRANCH  79  80
ATOM     80  S   UNL     1      -7.314  -4.639  -0.179  1.00  0.00     0.124 S 
ATOM     81  O   UNL     1      -8.476  -5.476   0.102  1.00  0.00    -0.237 OA
ATOM     82  O   UNL     1      -6.071  -5.066   0.457  1.00  0.00    -0.237 OA
ATOM     83  O   UNL     1      -7.568  -3.200  -0.142  1.00  0.00    -0.744 OA
ENDBRANCH  79  80
ENDBRANCH  51  74
BRANCH  63  84
ATOM     84  C   UNL     1      -3.710  -3.065 -11.191  1.00  0.00    -0.014 A 
ATOM     85  C   UNL     1      -4.914  -3.188 -11.888  1.00  0.00     0.010 A 
ATOM     86  C   UNL     1      -2.707  -2.283 -11.829  1.00  0.00     0.010 A 
ATOM     87  C   UNL     1      -5.104  -2.597 -13.141  1.00  0.00     0.020 A 
ATOM     88  C   UNL     1      -2.901  -1.635 -13.048  1.00  0.00     0.020 A 
ATOM     89  C   UNL     1      -4.100  -1.817 -13.709  1.00  0.00     0.054 A 
BRANCH  89  90
ATOM     90  S   UNL     1      -4.396  -1.062 -15.316  1.00  0.00     0.124 S 
ATOM     91  O   UNL     1      -4.508  -2.234 -16.181  1.00  0.00    -0.237 OA
ATOM     92  O   UNL     1      -5.639  -0.328 -15.088  1.00  0.00    -0.237 OA
ATOM     93  O   UNL     1      -3.216  -0.232 -15.538  1.00  0.00    -0.744 OA
ENDBRANCH  89  90
ENDBRANCH  63  84
ENDBRANCH  37  38
ENDBRANCH  30  32
ENDBRANCH  29  30
ENDBRANCH  28  29
ENDBRANCH   1  28
TORSDOF 20
