REMARK SMILES C[C@H]([NH3+])c1ccc(F)cc1OCC(C)(C)C(=O)OCCOC(=O)c1ccc(-c2c3nc(c(-c4ccc(S(=O)(=O)[O-])cc4)c4ccc([nH]4)c(-c4ccc(S(=O)(=O)[O-])cc4)c4nc(c(-c5ccc(S(=O)(=O)[O-])cc5)c5ccc2[nH]5)C=C4)C=C3)cc1
REMARK SMILES IDX 19 1 18 2 16 3 17 4 13 5 14 6 15 7 12 8 11 9 10 10 4 11 5 12
REMARK SMILES IDX 6 13 9 14 7 15 8 16 2 17 1 18 3 19 20 23 21 24 22 25 23 26
REMARK SMILES IDX 24 27 25 28 83 29 26 30 82 31 27 32 28 33 29 34 76 35 30 36
REMARK SMILES IDX 81 37 75 38 77 39 31 40 80 41 74 42 73 43 32 45 62 46 43 47
REMARK SMILES IDX 61 48 44 49 47 50 60 51 78 52 45 53 46 54 59 56 79 57 48 58
REMARK SMILES IDX 33 59 34 60 42 61 35 62 41 63 36 64 37 65 38 66 39 67 40 68
REMARK SMILES IDX 63 69 64 70 72 71 65 72 71 73 66 74 67 75 68 76 69 77 70 78
REMARK SMILES IDX 49 79 50 80 58 81 51 82 57 83 52 84 53 85 54 86 55 87 56 88
REMARK H PARENT 3 20 3 21 3 22 77 44 47 55
REMARK Flexibility Score: inf
ROOT
ATOM      1  C   UNL     1       0.260   5.712   1.470  1.00  0.00     0.274 C 
ENDROOT
BRANCH   1   2
ATOM      2  O   UNL     1       1.000   4.629   0.877  1.00  0.00    -0.462 OA
BRANCH   2   3
ATOM      3  C   UNL     1       0.301   3.783   0.067  1.00  0.00     0.315 C 
ATOM      4  O   UNL     1      -0.892   3.908  -0.172  1.00  0.00    -0.251 OA
BRANCH   3   5
ATOM      5  C   UNL     1       1.160   2.598  -0.389  1.00  0.00     0.096 C 
ATOM      6  C   UNL     1       0.943   1.510   0.668  1.00  0.00     0.027 C 
ATOM      7  C   UNL     1       2.661   2.965  -0.409  1.00  0.00     0.027 C 
BRANCH   5   8
ATOM      8  C   UNL     1       0.813   2.174  -1.841  1.00  0.00     0.247 C 
BRANCH   8   9
ATOM      9  O   UNL     1      -0.542   1.929  -2.180  1.00  0.00    -0.492 OA
BRANCH   9  10
ATOM     10  C   UNL     1      -1.306   0.885  -1.762  1.00  0.00     0.131 A 
ATOM     11  C   UNL     1      -0.951  -0.446  -1.463  1.00  0.00     0.051 A 
ATOM     12  C   UNL     1      -1.994  -1.329  -1.075  1.00  0.00     0.017 A 
ATOM     13  C   UNL     1      -3.327  -0.925  -1.004  1.00  0.00     0.040 A 
ATOM     14  C   UNL     1      -2.661   1.268  -1.713  1.00  0.00     0.086 A 
ATOM     15  C   UNL     1      -3.651   0.374  -1.335  1.00  0.00     0.126 A 
ATOM     16  F   UNL     1      -4.929   0.771  -1.289  1.00  0.00    -0.207 F 
BRANCH  11  17
ATOM     17  C   UNL     1       0.444  -1.026  -1.627  1.00  0.00     0.212 C 
ATOM     18  C   UNL     1       0.676  -1.512  -3.057  1.00  0.00     0.081 C 
BRANCH  17  19
ATOM     19  N   UNL     1       0.754  -2.099  -0.666  1.00  0.00    -0.351 N 
ATOM     20  H   UNL     1       0.135  -2.893  -0.830  1.00  0.00     0.345 HD
ATOM     21  H   UNL     1       0.620  -1.753   0.285  1.00  0.00     0.345 HD
ATOM     22  H   UNL     1       1.724  -2.393  -0.786  1.00  0.00     0.345 HD
ENDBRANCH  17  19
ENDBRANCH  11  17
ENDBRANCH   9  10
ENDBRANCH   8   9
ENDBRANCH   5   8
ENDBRANCH   3   5
ENDBRANCH   2   3
ENDBRANCH   1   2
BRANCH   1  23
ATOM     23  C   UNL     1       0.529   7.027   0.744  1.00  0.00     0.275 C 
BRANCH  23  24
ATOM     24  O   UNL     1      -0.021   6.995  -0.585  1.00  0.00    -0.458 OA
BRANCH  24  25
ATOM     25  C   UNL     1       0.875   6.771  -1.572  1.00  0.00     0.338 C 
ATOM     26  O   UNL     1       2.082   6.639  -1.467  1.00  0.00    -0.246 OA
BRANCH  25  27
ATOM     27  C   UNL     1       0.170   6.633  -2.853  1.00  0.00     0.060 A 
ATOM     28  C   UNL     1      -0.379   5.396  -3.181  1.00  0.00     0.016 A 
ATOM     29  C   UNL     1       0.182   7.668  -3.783  1.00  0.00     0.016 A 
ATOM     30  C   UNL     1      -0.837   5.153  -4.471  1.00  0.00     0.010 A 
ATOM     31  C   UNL     1      -0.366   7.450  -5.052  1.00  0.00     0.010 A 
ATOM     32  C   UNL     1      -0.849   6.180  -5.422  1.00  0.00    -0.014 A 
BRANCH  32  33
ATOM     33  C   UNL     1      -1.326   5.924  -6.809  1.00  0.00     0.031 A 
ATOM     34  C   UNL     1      -0.404   6.163  -7.976  1.00  0.00     0.074 A 
ATOM     35  C   UNL     1      -2.579   5.477  -7.033  1.00  0.00     0.049 A 
ATOM     36  N   UNL     1      -0.683   6.222  -9.253  1.00  0.00    -0.248 NA
ATOM     37  C   UNL     1       1.019   6.378  -7.663  1.00  0.00     0.031 C 
ATOM     38  C   UNL     1      -3.561   5.136  -6.001  1.00  0.00     0.029 A 
ATOM     39  N   UNL     1      -3.241   5.232  -8.211  1.00  0.00    -0.354 N 
ATOM     40  C   UNL     1       0.510   6.549  -9.888  1.00  0.00     0.074 A 
ATOM     41  C   UNL     1       1.519   6.666  -8.857  1.00  0.00     0.031 C 
ATOM     42  C   UNL     1      -4.685   4.698  -6.589  1.00  0.00     0.029 A 
ATOM     43  C   UNL     1      -4.541   4.817  -8.035  1.00  0.00     0.049 A 
ATOM     44  H   UNL     1      -2.826   5.342  -9.097  1.00  0.00     0.167 HD
ATOM     45  C   UNL     1       0.739   6.745 -11.209  1.00  0.00     0.031 A 
ATOM     46  C   UNL     1      -5.527   4.607  -8.928  1.00  0.00     0.031 A 
ATOM     47  C   UNL     1      -0.260   6.582 -12.233  1.00  0.00     0.049 A 
ATOM     48  C   UNL     1      -5.261   4.861 -10.384  1.00  0.00     0.074 A 
ATOM     49  C   UNL     1      -0.129   6.758 -13.600  1.00  0.00     0.029 A 
ATOM     50  N   UNL     1      -1.568   6.185 -12.004  1.00  0.00    -0.354 N 
ATOM     51  N   UNL     1      -4.149   5.249 -10.963  1.00  0.00    -0.248 NA
ATOM     52  C   UNL     1      -6.388   4.670 -11.307  1.00  0.00     0.031 C 
ATOM     53  C   UNL     1      -1.369   6.499 -14.194  1.00  0.00     0.029 A 
ATOM     54  C   UNL     1      -2.259   6.118 -13.202  1.00  0.00     0.049 A 
ATOM     55  H   UNL     1      -1.951   5.981 -11.120  1.00  0.00     0.167 HD
ATOM     56  C   UNL     1      -4.442   5.342 -12.318  1.00  0.00     0.074 A 
ATOM     57  C   UNL     1      -5.827   4.949 -12.476  1.00  0.00     0.031 C 
ATOM     58  C   UNL     1      -3.637   5.725 -13.339  1.00  0.00     0.031 A 
BRANCH  45  59
ATOM     59  C   UNL     1       2.111   7.210 -11.617  1.00  0.00    -0.014 A 
ATOM     60  C   UNL     1       3.216   6.342 -11.615  1.00  0.00     0.010 A 
ATOM     61  C   UNL     1       2.286   8.541 -12.041  1.00  0.00     0.010 A 
ATOM     62  C   UNL     1       4.480   6.807 -11.993  1.00  0.00     0.020 A 
ATOM     63  C   UNL     1       3.542   9.003 -12.442  1.00  0.00     0.020 A 
ATOM     64  C   UNL     1       4.636   8.137 -12.398  1.00  0.00     0.054 A 
BRANCH  64  65
ATOM     65  S   UNL     1       6.283   8.713 -12.897  1.00  0.00     0.124 S 
ATOM     66  O   UNL     1       6.951   8.864 -11.607  1.00  0.00    -0.237 OA
ATOM     67  O   UNL     1       6.770   7.618 -13.731  1.00  0.00    -0.237 OA
ATOM     68  O   UNL     1       6.012   9.961 -13.608  1.00  0.00    -0.744 OA
ENDBRANCH  64  65
ENDBRANCH  45  59
BRANCH  46  69
ATOM     69  C   UNL     1      -6.877   4.196  -8.456  1.00  0.00    -0.014 A 
ATOM     70  C   UNL     1      -7.360   2.901  -8.709  1.00  0.00     0.010 A 
ATOM     71  C   UNL     1      -7.679   5.096  -7.730  1.00  0.00     0.010 A 
ATOM     72  C   UNL     1      -8.625   2.517  -8.252  1.00  0.00     0.020 A 
ATOM     73  C   UNL     1      -8.930   4.706  -7.247  1.00  0.00     0.020 A 
ATOM     74  C   UNL     1      -9.401   3.422  -7.522  1.00  0.00     0.054 A 
BRANCH  74  75
ATOM     75  S   UNL     1     -11.015   2.887  -6.886  1.00  0.00     0.124 S 
ATOM     76  O   UNL     1     -11.854   2.979  -8.077  1.00  0.00    -0.237 OA
ATOM     77  O   UNL     1     -10.739   1.534  -6.409  1.00  0.00    -0.237 OA
ATOM     78  O   UNL     1     -11.306   3.862  -5.837  1.00  0.00    -0.744 OA
ENDBRANCH  74  75
ENDBRANCH  46  69
BRANCH  58  79
ATOM     79  C   UNL     1      -4.228   5.708 -14.722  1.00  0.00    -0.014 A 
ATOM     80  C   UNL     1      -5.122   6.708 -15.140  1.00  0.00     0.010 A 
ATOM     81  C   UNL     1      -3.847   4.701 -15.626  1.00  0.00     0.010 A 
ATOM     82  C   UNL     1      -5.648   6.685 -16.435  1.00  0.00     0.020 A 
ATOM     83  C   UNL     1      -4.354   4.687 -16.927  1.00  0.00     0.020 A 
ATOM     84  C   UNL     1      -5.262   5.673 -17.320  1.00  0.00     0.054 A 
BRANCH  84  85
ATOM     85  S   UNL     1      -5.924   5.685 -19.008  1.00  0.00     0.124 S 
ATOM     86  O   UNL     1      -7.278   5.176 -18.808  1.00  0.00    -0.237 OA
ATOM     87  O   UNL     1      -5.832   7.095 -19.381  1.00  0.00    -0.237 OA
ATOM     88  O   UNL     1      -5.024   4.795 -19.738  1.00  0.00    -0.744 OA
ENDBRANCH  84  85
ENDBRANCH  58  79
ENDBRANCH  32  33
ENDBRANCH  25  27
ENDBRANCH  24  25
ENDBRANCH  23  24
ENDBRANCH   1  23
TORSDOF 19
