REMARK SMILES O=C(OCCOC(=O)[C@H]1CC[C@@H](C[NH2+][C@H]2CCC[C@H](C3CC3)C2)CC1)c1ccc(-c2c3nc(c(-c4ccc(S(=O)(=O)[O-])cc4)c4ccc([nH]4)c(-c4ccc(S(=O)(=O)[O-])cc4)c4nc(c(-c5ccc(S(=O)(=O)[O-])cc5)c5ccc2[nH]5)C=C4)C=C3)cc1
REMARK SMILES IDX 5 1 4 2 3 3 2 4 1 5 26 6 27 7 85 8 28 9 84 10 29 11 30 12
REMARK SMILES IDX 31 13 78 14 32 15 83 16 77 17 79 18 33 19 82 20 76 21 75 22
REMARK SMILES IDX 34 24 64 25 45 26 63 27 46 28 49 29 62 30 80 31 47 32 48 33
REMARK SMILES IDX 61 35 81 36 50 37 35 38 36 39 44 40 37 41 43 42 38 43 39 44
REMARK SMILES IDX 40 45 41 46 42 47 65 48 66 49 74 50 67 51 73 52 68 53 69 54
REMARK SMILES IDX 70 55 71 56 72 57 51 58 52 59 60 60 53 61 59 62 54 63 55 64
REMARK SMILES IDX 56 65 57 66 58 67 6 68 7 69 8 70 9 71 25 72 10 73 24 74
REMARK SMILES IDX 11 75 12 76 13 77 14 78 15 81 16 82 23 83 17 84 19 85 18 86
REMARK SMILES IDX 20 87 21 88 22 89
REMARK H PARENT 79 23 49 34 14 79 14 80
REMARK Flexibility Score: inf
ROOT
ATOM      1  C   UNL     1      -1.555  -4.155  10.193  1.00  0.00     0.274 C 
ENDROOT
BRANCH   1   2
ATOM      2  C   UNL     1      -2.528  -4.446  11.338  1.00  0.00     0.275 C 
BRANCH   2   3
ATOM      3  O   UNL     1      -3.551  -5.410  11.023  1.00  0.00    -0.458 OA
BRANCH   3   4
ATOM      4  C   UNL     1      -4.784  -5.231  10.485  1.00  0.00     0.338 C 
ATOM      5  O   UNL     1      -5.574  -6.174  10.512  1.00  0.00    -0.246 OA
BRANCH   4   6
ATOM      6  C   UNL     1      -5.182  -4.014   9.703  1.00  0.00     0.060 A 
ATOM      7  C   UNL     1      -4.709  -2.712   9.896  1.00  0.00     0.016 A 
ATOM      8  C   UNL     1      -6.077  -4.230   8.637  1.00  0.00     0.016 A 
ATOM      9  C   UNL     1      -5.005  -1.685   8.987  1.00  0.00     0.010 A 
ATOM     10  C   UNL     1      -6.362  -3.213   7.719  1.00  0.00     0.010 A 
ATOM     11  C   UNL     1      -5.810  -1.931   7.877  1.00  0.00    -0.014 A 
BRANCH  11  12
ATOM     12  C   UNL     1      -6.227  -0.838   6.965  1.00  0.00     0.031 A 
ATOM     13  C   UNL     1      -7.634  -0.338   7.092  1.00  0.00     0.074 A 
ATOM     14  C   UNL     1      -5.407  -0.305   6.034  1.00  0.00     0.049 A 
ATOM     15  N   UNL     1      -8.237   0.582   6.392  1.00  0.00    -0.248 NA
ATOM     16  C   UNL     1      -8.447  -0.897   8.189  1.00  0.00     0.031 C 
ATOM     17  C   UNL     1      -3.974  -0.548   5.902  1.00  0.00     0.029 A 
ATOM     18  N   UNL     1      -5.683   0.512   4.963  1.00  0.00    -0.354 N 
ATOM     19  C   UNL     1      -9.462   0.769   7.012  1.00  0.00     0.074 A 
ATOM     20  C   UNL     1      -9.566  -0.199   8.079  1.00  0.00     0.031 C 
ATOM     21  C   UNL     1      -3.542  -0.080   4.718  1.00  0.00     0.029 A 
ATOM     22  C   UNL     1      -4.652   0.577   4.048  1.00  0.00     0.049 A 
ATOM     23  H   UNL     1      -6.531   1.001   4.859  1.00  0.00     0.167 HD
ATOM     24  C   UNL     1     -10.387   1.717   6.750  1.00  0.00     0.031 A 
ATOM     25  C   UNL     1      -4.612   1.107   2.809  1.00  0.00     0.031 A 
ATOM     26  C   UNL     1     -10.280   2.650   5.666  1.00  0.00     0.049 A 
ATOM     27  C   UNL     1      -5.770   1.966   2.387  1.00  0.00     0.074 A 
ATOM     28  C   UNL     1     -11.137   3.680   5.331  1.00  0.00     0.029 A 
ATOM     29  N   UNL     1      -9.267   2.639   4.719  1.00  0.00    -0.354 N 
ATOM     30  N   UNL     1      -6.872   2.228   3.049  1.00  0.00    -0.248 NA
ATOM     31  C   UNL     1      -5.648   2.676   1.108  1.00  0.00     0.031 C 
ATOM     32  C   UNL     1     -10.682   4.245   4.135  1.00  0.00     0.029 A 
ATOM     33  C   UNL     1      -9.509   3.605   3.761  1.00  0.00     0.049 A 
ATOM     34  H   UNL     1      -8.490   2.034   4.728  1.00  0.00     0.167 HD
ATOM     35  C   UNL     1      -7.532   3.199   2.312  1.00  0.00     0.074 A 
ATOM     36  C   UNL     1      -6.720   3.457   1.139  1.00  0.00     0.031 C 
ATOM     37  C   UNL     1      -8.688   3.845   2.601  1.00  0.00     0.031 A 
BRANCH  24  38
ATOM     38  C   UNL     1     -11.576   1.784   7.659  1.00  0.00    -0.014 A 
ATOM     39  C   UNL     1     -11.451   2.283   8.969  1.00  0.00     0.010 A 
ATOM     40  C   UNL     1     -12.836   1.379   7.191  1.00  0.00     0.010 A 
ATOM     41  C   UNL     1     -12.568   2.364   9.802  1.00  0.00     0.020 A 
ATOM     42  C   UNL     1     -13.960   1.477   8.015  1.00  0.00     0.020 A 
ATOM     43  C   UNL     1     -13.817   1.964   9.316  1.00  0.00     0.054 A 
BRANCH  43  44
ATOM     44  S   UNL     1     -15.261   2.139  10.399  1.00  0.00     0.124 S 
ATOM     45  O   UNL     1     -15.021   1.095  11.392  1.00  0.00    -0.237 OA
ATOM     46  O   UNL     1     -15.130   3.510  10.885  1.00  0.00    -0.237 OA
ATOM     47  O   UNL     1     -16.393   1.902   9.507  1.00  0.00    -0.744 OA
ENDBRANCH  43  44
ENDBRANCH  24  38
BRANCH  25  48
ATOM     48  C   UNL     1      -3.449   0.883   1.903  1.00  0.00    -0.014 A 
ATOM     49  C   UNL     1      -2.548   1.917   1.599  1.00  0.00     0.010 A 
ATOM     50  C   UNL     1      -3.277  -0.369   1.280  1.00  0.00     0.010 A 
ATOM     51  C   UNL     1      -1.532   1.722   0.654  1.00  0.00     0.020 A 
ATOM     52  C   UNL     1      -2.252  -0.575   0.348  1.00  0.00     0.020 A 
ATOM     53  C   UNL     1      -1.397   0.480   0.027  1.00  0.00     0.054 A 
BRANCH  53  54
ATOM     54  S   UNL     1      -0.086   0.268  -1.214  1.00  0.00     0.124 S 
ATOM     55  O   UNL     1      -0.555   1.122  -2.301  1.00  0.00    -0.237 OA
ATOM     56  O   UNL     1       1.097   0.743  -0.501  1.00  0.00    -0.237 OA
ATOM     57  O   UNL     1      -0.104  -1.166  -1.492  1.00  0.00    -0.744 OA
ENDBRANCH  53  54
ENDBRANCH  25  48
BRANCH  37  58
ATOM     58  C   UNL     1      -9.126   4.923   1.654  1.00  0.00    -0.014 A 
ATOM     59  C   UNL     1      -9.627   4.609   0.380  1.00  0.00     0.010 A 
ATOM     60  C   UNL     1      -9.097   6.265   2.076  1.00  0.00     0.010 A 
ATOM     61  C   UNL     1     -10.069   5.624  -0.468  1.00  0.00     0.020 A 
ATOM     62  C   UNL     1      -9.571   7.279   1.244  1.00  0.00     0.020 A 
ATOM     63  C   UNL     1     -10.043   6.952  -0.029  1.00  0.00     0.054 A 
BRANCH  63  64
ATOM     64  S   UNL     1     -10.687   8.242  -1.125  1.00  0.00     0.124 S 
ATOM     65  O   UNL     1      -9.627   8.347  -2.124  1.00  0.00    -0.237 OA
ATOM     66  O   UNL     1     -11.942   7.663  -1.598  1.00  0.00    -0.237 OA
ATOM     67  O   UNL     1     -10.834   9.401  -0.248  1.00  0.00    -0.744 OA
ENDBRANCH  63  64
ENDBRANCH  37  58
ENDBRANCH  11  12
ENDBRANCH   4   6
ENDBRANCH   3   4
ENDBRANCH   2   3
ENDBRANCH   1   2
BRANCH   1  68
ATOM     68  O   UNL     1      -2.232  -4.065   8.934  1.00  0.00    -0.462 OA
BRANCH  68  69
ATOM     69  C   UNL     1      -2.128  -5.153   8.113  1.00  0.00     0.309 C 
ATOM     70  O   UNL     1      -1.383  -6.101   8.305  1.00  0.00    -0.252 OA
BRANCH  69  71
ATOM     71  C   UNL     1      -3.158  -5.060   6.992  1.00  0.00     0.099 C 
ATOM     72  C   UNL     1      -3.007  -3.775   6.189  1.00  0.00     0.016 C 
ATOM     73  C   UNL     1      -3.163  -6.304   6.123  1.00  0.00     0.016 C 
ATOM     74  C   UNL     1      -3.917  -3.708   4.951  1.00  0.00     0.010 C 
ATOM     75  C   UNL     1      -4.097  -6.177   4.927  1.00  0.00     0.010 C 
ATOM     76  C   UNL     1      -3.793  -4.948   4.053  1.00  0.00     0.044 C 
BRANCH  76  77
ATOM     77  C   UNL     1      -2.418  -4.895   3.329  1.00  0.00     0.264 C 
BRANCH  77  78
ATOM     78  N   UNL     1      -1.860  -6.185   2.964  1.00  0.00    -0.344 N 
ATOM     79  H   UNL     1      -2.313  -6.484   2.101  1.00  0.00     0.346 HD
ATOM     80  H   UNL     1      -2.032  -6.787   3.770  1.00  0.00     0.346 HD
BRANCH  78  81
ATOM     81  C   UNL     1      -0.400  -6.245   2.746  1.00  0.00     0.182 C 
ATOM     82  C   UNL     1       0.508  -5.216   3.456  1.00  0.00     0.065 C 
ATOM     83  C   UNL     1       0.091  -7.661   3.139  1.00  0.00     0.069 C 
ATOM     84  C   UNL     1       0.582  -5.399   4.971  1.00  0.00     0.006 C 
ATOM     85  C   UNL     1       0.075  -7.877   4.667  1.00  0.00    -0.002 C 
ATOM     86  C   UNL     1       0.951  -6.825   5.365  1.00  0.00     0.004 C 
BRANCH  85  87
ATOM     87  C   UNL     1       0.368  -9.308   5.050  1.00  0.00    -0.008 C 
ATOM     88  C   UNL     1       1.529  -9.755   5.901  1.00  0.00     0.004 C 
ATOM     89  C   UNL     1       0.149  -9.715   6.491  1.00  0.00     0.004 C 
ENDBRANCH  85  87
ENDBRANCH  78  81
ENDBRANCH  77  78
ENDBRANCH  76  77
ENDBRANCH  69  71
ENDBRANCH  68  69
ENDBRANCH   1  68
TORSDOF 18
