REMARK SMILES CCCCCCCCNC(=O)Oc1cccc(-c2ccc([C@@H](C)C(=O)OCCOC(=O)c3ccc(-c4c5nc(c(-c6ccc(S(=O)(=O)[O-])cc6)c6ccc([nH]6)c(-c6ccc(S(=O)(=O)[O-])cc6)c6nc(c(-c7ccc(S(=O)(=O)[O-])cc7)c7ccc4[nH]7)C=C6)C=C5)cc3)cc2F)c1
REMARK SMILES IDX 18 1 19 2 20 3 21 4 92 5 93 6 94 7 17 8 13 9 14 10 95 11
REMARK SMILES IDX 15 12 16 13 12 14 10 15 9 16 11 18 8 19 7 20 6 21 5 22 4 23
REMARK SMILES IDX 3 24 2 25 1 26 22 27 23 28 24 29 25 30 26 31 27 32 28 33
REMARK SMILES IDX 29 34 30 35 31 36 32 37 33 38 91 39 34 40 90 41 35 42 36 43
REMARK SMILES IDX 37 44 84 45 38 46 89 47 83 48 85 49 39 50 88 51 82 52 81 53
REMARK SMILES IDX 40 55 70 56 51 57 69 58 52 59 55 60 68 61 86 62 53 63 54 64
REMARK SMILES IDX 67 66 87 67 56 68 41 69 42 70 50 71 43 72 49 73 44 74 45 75
REMARK SMILES IDX 46 76 47 77 48 78 71 79 72 80 80 81 73 82 79 83 74 84 75 85
REMARK SMILES IDX 76 86 77 87 78 88 57 89 58 90 66 91 59 92 65 93 60 94 61 95
REMARK SMILES IDX 62 96 63 97 64 98
REMARK H PARENT 9 17 85 54 55 65
REMARK Flexibility Score: inf
ROOT
ATOM      1  C   UNL     1      -6.405 -10.906   3.062  1.00  0.00     0.018 A 
ATOM      2  C   UNL     1      -7.615 -11.246   3.688  1.00  0.00     0.012 A 
ATOM      3  C   UNL     1      -8.648 -11.875   2.983  1.00  0.00     0.005 A 
ATOM      4  C   UNL     1      -8.510 -12.177   1.621  1.00  0.00    -0.031 A 
ATOM      5  C   UNL     1      -7.305 -11.834   0.990  1.00  0.00     0.044 A 
ATOM      6  C   UNL     1      -6.280 -11.209   1.700  1.00  0.00     0.131 A 
ATOM      7  F   UNL     1      -5.142 -10.928   1.045  1.00  0.00    -0.206 F 
ENDROOT
BRANCH   1   8
ATOM      8  C   UNL     1      -5.313 -10.274   3.822  1.00  0.00    -0.012 A 
ATOM      9  C   UNL     1      -3.653  -8.527   4.105  1.00  0.00     0.133 A 
ATOM     10  C   UNL     1      -3.194  -9.111   5.282  1.00  0.00     0.047 A 
ATOM     11  C   UNL     1      -4.692  -9.100   3.369  1.00  0.00     0.056 A 
ATOM     12  C   UNL     1      -3.800 -10.274   5.746  1.00  0.00     0.004 A 
ATOM     13  C   UNL     1      -4.849 -10.848   5.022  1.00  0.00     0.009 A 
BRANCH   9  14
ATOM     14  O   UNL     1      -2.939  -7.421   3.621  1.00  0.00    -0.410 OA
BRANCH  14  15
ATOM     15  C   UNL     1      -3.650  -6.263   3.346  1.00  0.00     0.412 C 
ATOM     16  N   UNL     1      -2.875  -5.281   2.791  1.00  0.00    -0.321 N 
ATOM     17  H   UNL     1      -3.329  -4.437   2.566  1.00  0.00     0.167 HD
ATOM     18  O   UNL     1      -4.838  -6.073   3.580  1.00  0.00    -0.224 OA
BRANCH  16  19
ATOM     19  C   UNL     1      -1.457  -5.354   2.500  1.00  0.00     0.119 C 
BRANCH  19  20
ATOM     20  C   UNL     1      -1.153  -5.139   1.018  1.00  0.00     0.021 C 
BRANCH  20  21
ATOM     21  C   UNL     1      -1.555  -3.765   0.467  1.00  0.00     0.002 C 
BRANCH  21  22
ATOM     22  C   UNL     1      -0.957  -2.558   1.199  1.00  0.00     0.000 C 
BRANCH  22  23
ATOM     23  C   UNL     1       0.573  -2.491   1.205  1.00  0.00    -0.000 C 
BRANCH  23  24
ATOM     24  C   UNL     1       1.226  -2.348  -0.174  1.00  0.00    -0.000 C 
BRANCH  24  25
ATOM     25  C   UNL     1       0.804  -1.113  -0.976  1.00  0.00    -0.003 C 
ATOM     26  C   UNL     1       1.129   0.201  -0.281  1.00  0.00     0.004 C 
ENDBRANCH  24  25
ENDBRANCH  23  24
ENDBRANCH  22  23
ENDBRANCH  21  22
ENDBRANCH  20  21
ENDBRANCH  19  20
ENDBRANCH  16  19
ENDBRANCH  14  15
ENDBRANCH   9  14
ENDBRANCH   1   8
BRANCH   4  27
ATOM     27  C   UNL     1      -9.615 -12.857   0.827  1.00  0.00     0.126 C 
ATOM     28  C   UNL     1     -10.021 -14.201   1.428  1.00  0.00     0.025 C 
BRANCH  27  29
ATOM     29  C   UNL     1     -10.856 -12.015   0.551  1.00  0.00     0.313 C 
ATOM     30  O   UNL     1     -11.574 -12.215  -0.424  1.00  0.00    -0.252 OA
BRANCH  29  31
ATOM     31  O   UNL     1     -11.106 -11.077   1.501  1.00  0.00    -0.462 OA
BRANCH  31  32
ATOM     32  C   UNL     1     -12.221 -10.196   1.267  1.00  0.00     0.274 C 
BRANCH  32  33
ATOM     33  C   UNL     1     -11.754  -8.829   0.760  1.00  0.00     0.275 C 
BRANCH  33  34
ATOM     34  O   UNL     1     -11.228  -8.916  -0.576  1.00  0.00    -0.458 OA
BRANCH  34  35
ATOM     35  C   UNL     1      -9.884  -9.057  -0.652  1.00  0.00     0.338 C 
ATOM     36  O   UNL     1      -9.089  -9.076   0.271  1.00  0.00    -0.246 OA
BRANCH  35  37
ATOM     37  C   UNL     1      -9.496  -9.316  -2.045  1.00  0.00     0.060 A 
ATOM     38  C   UNL     1      -8.998 -10.581  -2.365  1.00  0.00     0.016 A 
ATOM     39  C   UNL     1      -9.538  -8.304  -3.004  1.00  0.00     0.016 A 
ATOM     40  C   UNL     1      -8.523 -10.840  -3.646  1.00  0.00     0.010 A 
ATOM     41  C   UNL     1      -9.073  -8.570  -4.296  1.00  0.00     0.010 A 
ATOM     42  C   UNL     1      -8.550  -9.835  -4.620  1.00  0.00    -0.014 A 
BRANCH  42  43
ATOM     43  C   UNL     1      -7.995 -10.101  -5.968  1.00  0.00     0.031 A 
ATOM     44  C   UNL     1      -6.682  -9.492  -6.372  1.00  0.00     0.074 A 
ATOM     45  C   UNL     1      -8.665 -10.899  -6.820  1.00  0.00     0.049 A 
ATOM     46  N   UNL     1      -6.072  -9.541  -7.527  1.00  0.00    -0.248 NA
ATOM     47  C   UNL     1      -5.964  -8.727  -5.340  1.00  0.00     0.031 C 
ATOM     48  C   UNL     1      -9.925 -11.583  -6.524  1.00  0.00     0.029 A 
ATOM     49  N   UNL     1      -8.378 -11.268  -8.110  1.00  0.00    -0.354 N 
ATOM     50  C   UNL     1      -4.910  -8.794  -7.373  1.00  0.00     0.074 A 
ATOM     51  C   UNL     1      -4.907  -8.293  -6.014  1.00  0.00     0.031 C 
ATOM     52  C   UNL     1     -10.302 -12.291  -7.602  1.00  0.00     0.029 A 
ATOM     53  C   UNL     1      -9.338 -12.072  -8.677  1.00  0.00     0.049 A 
ATOM     54  H   UNL     1      -7.563 -10.985  -8.584  1.00  0.00     0.167 HD
ATOM     55  C   UNL     1      -3.936  -8.547  -8.282  1.00  0.00     0.031 A 
ATOM     56  C   UNL     1      -9.446 -12.554  -9.930  1.00  0.00     0.031 A 
ATOM     57  C   UNL     1      -3.945  -9.049  -9.631  1.00  0.00     0.049 A 
ATOM     58  C   UNL     1      -8.380 -12.221 -10.938  1.00  0.00     0.074 A 
ATOM     59  C   UNL     1      -3.001  -8.863 -10.625  1.00  0.00     0.029 A 
ATOM     60  N   UNL     1      -4.949  -9.836 -10.175  1.00  0.00    -0.354 N 
ATOM     61  N   UNL     1      -7.290 -11.509 -10.777  1.00  0.00    -0.248 NA
ATOM     62  C   UNL     1      -8.560 -12.755 -12.294  1.00  0.00     0.031 C 
ATOM     63  C   UNL     1      -3.455  -9.501 -11.785  1.00  0.00     0.029 A 
ATOM     64  C   UNL     1      -4.659 -10.126 -11.498  1.00  0.00     0.049 A 
ATOM     65  H   UNL     1      -5.750 -10.143  -9.693  1.00  0.00     0.167 HD
ATOM     66  C   UNL     1      -6.645 -11.523 -12.009  1.00  0.00     0.074 A 
ATOM     67  C   UNL     1      -7.460 -12.326 -12.899  1.00  0.00     0.031 C 
ATOM     68  C   UNL     1      -5.484 -10.924 -12.370  1.00  0.00     0.031 A 
BRANCH  55  69
ATOM     69  C   UNL     1      -2.800  -7.657  -7.855  1.00  0.00    -0.014 A 
ATOM     70  C   UNL     1      -1.806  -8.113  -6.971  1.00  0.00     0.010 A 
ATOM     71  C   UNL     1      -2.713  -6.350  -8.368  1.00  0.00     0.010 A 
ATOM     72  C   UNL     1      -0.769  -7.263  -6.574  1.00  0.00     0.020 A 
ATOM     73  C   UNL     1      -1.665  -5.505  -7.992  1.00  0.00     0.020 A 
ATOM     74  C   UNL     1      -0.709  -5.961  -7.082  1.00  0.00     0.054 A 
BRANCH  74  75
ATOM     75  S   UNL     1       0.649  -4.879  -6.556  1.00  0.00     0.124 S 
ATOM     76  O   UNL     1       0.241  -4.519  -5.200  1.00  0.00    -0.237 OA
ATOM     77  O   UNL     1       1.815  -5.755  -6.648  1.00  0.00    -0.237 OA
ATOM     78  O   UNL     1       0.618  -3.787  -7.526  1.00  0.00    -0.744 OA
ENDBRANCH  74  75
ENDBRANCH  55  69
BRANCH  56  79
ATOM     79  C   UNL     1     -10.628 -13.375 -10.306  1.00  0.00    -0.014 A 
ATOM     80  C   UNL     1     -10.498 -14.755 -10.539  1.00  0.00     0.010 A 
ATOM     81  C   UNL     1     -11.899 -12.779 -10.409  1.00  0.00     0.010 A 
ATOM     82  C   UNL     1     -11.617 -15.523 -10.878  1.00  0.00     0.020 A 
ATOM     83  C   UNL     1     -13.023 -13.548 -10.723  1.00  0.00     0.020 A 
ATOM     84  C   UNL     1     -12.873 -14.914 -10.965  1.00  0.00     0.054 A 
BRANCH  84  85
ATOM     85  S   UNL     1     -14.322 -15.939 -11.342  1.00  0.00     0.124 S 
ATOM     86  O   UNL     1     -14.179 -16.149 -12.779  1.00  0.00    -0.237 OA
ATOM     87  O   UNL     1     -14.105 -17.117 -10.505  1.00  0.00    -0.237 OA
ATOM     88  O   UNL     1     -15.447 -15.099 -10.939  1.00  0.00    -0.744 OA
ENDBRANCH  84  85
ENDBRANCH  56  79
BRANCH  68  89
ATOM     89  C   UNL     1      -5.011 -11.135 -13.782  1.00  0.00    -0.014 A 
ATOM     90  C   UNL     1      -5.621 -10.469 -14.859  1.00  0.00     0.010 A 
ATOM     91  C   UNL     1      -3.905 -11.970 -14.027  1.00  0.00     0.010 A 
ATOM     92  C   UNL     1      -5.151 -10.656 -16.162  1.00  0.00     0.020 A 
ATOM     93  C   UNL     1      -3.418 -12.141 -15.325  1.00  0.00     0.020 A 
ATOM     94  C   UNL     1      -4.053 -11.493 -16.386  1.00  0.00     0.054 A 
BRANCH  94  95
ATOM     95  S   UNL     1      -3.429 -11.685 -18.079  1.00  0.00     0.124 S 
ATOM     96  O   UNL     1      -4.414 -12.590 -18.664  1.00  0.00    -0.237 OA
ATOM     97  O   UNL     1      -3.452 -10.316 -18.589  1.00  0.00    -0.237 OA
ATOM     98  O   UNL     1      -2.095 -12.251 -17.894  1.00  0.00    -0.744 OA
ENDBRANCH  94  95
ENDBRANCH  68  89
ENDBRANCH  42  43
ENDBRANCH  35  37
ENDBRANCH  34  35
ENDBRANCH  33  34
ENDBRANCH  32  33
ENDBRANCH  31  32
ENDBRANCH  29  31
ENDBRANCH  27  29
ENDBRANCH   4  27
TORSDOF 25
