REMARK SMILES C/C=C(\C)[C@@H]1C(C)=C[C@@H]2[C@H]([C@@H]1/C=C/C=C/C(=O)OCCOC(=O)c1ccc(-c3c4nc(c(-c5ccc(S(=O)(=O)[O-])cc5)c5ccc([nH]5)c(-c5ccc(S(=O)(=O)[O-])cc5)c5nc(c(-c6ccc(S(=O)(=O)[O-])cc6)c6ccc3[nH]6)C=C5)C=C4)cc1)[C@@H](C)CC[C@@H]2O
REMARK SMILES IDX 19 1 18 2 16 3 17 4 15 5 14 6 13 7 12 8 11 9 5 10 6 11 7 12
REMARK SMILES IDX 8 13 10 14 9 15 84 16 88 17 85 18 86 19 87 20 3 21 1 22 2 23
REMARK SMILES IDX 4 24 89 25 20 27 21 28 22 29 23 30 24 31 25 32 83 33 26 34
REMARK SMILES IDX 82 35 27 36 28 37 29 38 76 39 30 40 81 41 75 42 77 43 31 44
REMARK SMILES IDX 80 45 74 46 73 47 32 49 62 50 43 51 61 52 44 53 47 54 60 55
REMARK SMILES IDX 78 56 45 57 46 58 59 60 79 61 48 62 33 63 34 64 42 65 35 66
REMARK SMILES IDX 41 67 36 68 37 69 38 70 39 71 40 72 63 73 64 74 72 75 65 76
REMARK SMILES IDX 71 77 66 78 67 79 68 80 69 81 70 82 49 83 50 84 58 85 51 86
REMARK SMILES IDX 57 87 52 88 53 89 54 90 55 91 56 92
REMARK H PARENT 89 26 77 48 47 59
REMARK Flexibility Score: inf
ROOT
ATOM      1  C   UNL     1      -8.093  -2.517  -5.320  1.00  0.00     0.275 C 
ENDROOT
BRANCH   1   2
ATOM      2  O   UNL     1      -7.012  -2.558  -4.375  1.00  0.00    -0.459 OA
BRANCH   2   3
ATOM      3  C   UNL     1      -6.577  -1.357  -3.925  1.00  0.00     0.330 C 
ATOM      4  O   UNL     1      -6.955  -0.260  -4.307  1.00  0.00    -0.247 OA
BRANCH   3   5
ATOM      5  C   UNL     1      -5.535  -1.492  -2.890  1.00  0.00     0.093 C 
ATOM      6  C   UNL     1      -5.227  -2.636  -2.264  1.00  0.00     0.007 C 
BRANCH   6   7
ATOM      7  C   UNL     1      -4.125  -2.717  -1.334  1.00  0.00    -0.004 C 
ATOM      8  C   UNL     1      -3.529  -3.885  -1.050  1.00  0.00    -0.022 C 
BRANCH   8   9
ATOM      9  C   UNL     1      -2.210  -3.986  -0.307  1.00  0.00     0.027 C 
ATOM     10  C   UNL     1      -0.941  -3.600  -1.191  1.00  0.00     0.047 C 
ATOM     11  C   UNL     1       0.254  -4.517  -0.958  1.00  0.00    -0.069 C 
ATOM     12  C   UNL     1       1.625  -3.911  -1.084  1.00  0.00     0.040 C 
ATOM     13  C   UNL     1       0.085  -5.810  -0.638  1.00  0.00    -0.021 C 
ATOM     14  C   UNL     1      -2.118  -5.371   0.434  1.00  0.00     0.009 C 
ATOM     15  C   UNL     1      -1.296  -6.384  -0.407  1.00  0.00     0.044 C 
ATOM     16  C   UNL     1      -1.549  -5.289   1.895  1.00  0.00    -0.010 C 
ATOM     17  C   UNL     1      -1.294  -7.765   0.279  1.00  0.00     0.121 C 
ATOM     18  C   UNL     1      -2.398  -4.407   2.821  1.00  0.00     0.008 C 
ATOM     19  C   UNL     1      -1.452  -6.693   2.537  1.00  0.00     0.006 C 
ATOM     20  C   UNL     1      -0.704  -7.707   1.681  1.00  0.00     0.033 C 
BRANCH  10  21
ATOM     21  C   UNL     1      -1.090  -3.361  -2.716  1.00  0.00    -0.070 C 
ATOM     22  C   UNL     1      -0.419  -2.025  -4.774  1.00  0.00     0.035 C 
ATOM     23  C   UNL     1      -0.422  -2.346  -3.312  1.00  0.00    -0.031 C 
ATOM     24  C   UNL     1      -1.901  -4.322  -3.549  1.00  0.00     0.040 C 
ENDBRANCH  10  21
BRANCH  17  25
ATOM     25  O   UNL     1      -0.618  -8.748  -0.505  1.00  0.00    -0.393 OA
ATOM     26  H   UNL     1       0.316  -8.502  -0.596  1.00  0.00     0.210 HD
ENDBRANCH  17  25
ENDBRANCH   8   9
ENDBRANCH   6   7
ENDBRANCH   3   5
ENDBRANCH   2   3
ENDBRANCH   1   2
BRANCH   1  27
ATOM     27  C   UNL     1      -9.423  -2.869  -4.650  1.00  0.00     0.275 C 
BRANCH  27  28
ATOM     28  O   UNL     1      -9.779  -1.913  -3.635  1.00  0.00    -0.458 OA
BRANCH  28  29
ATOM     29  C   UNL     1      -9.358  -2.212  -2.383  1.00  0.00     0.338 C 
ATOM     30  O   UNL     1      -8.758  -3.217  -2.024  1.00  0.00    -0.246 OA
BRANCH  29  31
ATOM     31  C   UNL     1      -9.613  -1.065  -1.500  1.00  0.00     0.060 A 
ATOM     32  C   UNL     1      -8.524  -0.446  -0.880  1.00  0.00     0.016 A 
ATOM     33  C   UNL     1     -10.915  -0.618  -1.261  1.00  0.00     0.016 A 
ATOM     34  C   UNL     1      -8.728   0.645  -0.038  1.00  0.00     0.010 A 
ATOM     35  C   UNL     1     -11.118   0.470  -0.408  1.00  0.00     0.010 A 
ATOM     36  C   UNL     1     -10.027   1.111   0.203  1.00  0.00    -0.014 A 
BRANCH  36  37
ATOM     37  C   UNL     1     -10.248   2.277   1.090  1.00  0.00     0.031 A 
ATOM     38  C   UNL     1     -10.774   2.075   2.481  1.00  0.00     0.074 A 
ATOM     39  C   UNL     1      -9.987   3.516   0.633  1.00  0.00     0.049 A 
ATOM     40  N   UNL     1     -11.127   2.971   3.365  1.00  0.00    -0.248 NA
ATOM     41  C   UNL     1     -10.919   0.684   2.937  1.00  0.00     0.031 C 
ATOM     42  C   UNL     1      -9.430   3.829  -0.684  1.00  0.00     0.029 A 
ATOM     43  N   UNL     1     -10.168   4.742   1.221  1.00  0.00    -0.354 N 
ATOM     44  C   UNL     1     -11.553   2.257   4.478  1.00  0.00     0.074 A 
ATOM     45  C   UNL     1     -11.424   0.852   4.153  1.00  0.00     0.031 C 
ATOM     46  C   UNL     1      -9.322   5.162  -0.806  1.00  0.00     0.029 A 
ATOM     47  C   UNL     1      -9.850   5.796   0.399  1.00  0.00     0.049 A 
ATOM     48  H   UNL     1     -10.494   4.856   2.143  1.00  0.00     0.167 HD
ATOM     49  C   UNL     1     -12.011   2.733   5.660  1.00  0.00     0.031 A 
ATOM     50  C   UNL     1     -10.005   7.123   0.577  1.00  0.00     0.031 A 
ATOM     51  C   UNL     1     -12.149   4.132   5.968  1.00  0.00     0.049 A 
ATOM     52  C   UNL     1     -10.611   7.623   1.860  1.00  0.00     0.074 A 
ATOM     53  C   UNL     1     -12.583   4.716   7.146  1.00  0.00     0.029 A 
ATOM     54  N   UNL     1     -11.869   5.168   5.089  1.00  0.00    -0.354 N 
ATOM     55  N   UNL     1     -10.992   6.937   2.911  1.00  0.00    -0.248 NA
ATOM     56  C   UNL     1     -10.820   9.073   1.976  1.00  0.00     0.031 C 
ATOM     57  C   UNL     1     -12.621   6.102   6.958  1.00  0.00     0.029 A 
ATOM     58  C   UNL     1     -12.160   6.385   5.682  1.00  0.00     0.049 A 
ATOM     59  H   UNL     1     -11.515   5.054   4.177  1.00  0.00     0.167 HD
ATOM     60  C   UNL     1     -11.482   7.872   3.816  1.00  0.00     0.074 A 
ATOM     61  C   UNL     1     -11.329   9.173   3.197  1.00  0.00     0.031 C 
ATOM     62  C   UNL     1     -12.016   7.670   5.045  1.00  0.00     0.031 A 
BRANCH  49  63
ATOM     63  C   UNL     1     -12.441   1.728   6.695  1.00  0.00    -0.014 A 
ATOM     64  C   UNL     1     -11.499   0.970   7.412  1.00  0.00     0.010 A 
ATOM     65  C   UNL     1     -13.810   1.571   6.981  1.00  0.00     0.010 A 
ATOM     66  C   UNL     1     -11.921   0.044   8.371  1.00  0.00     0.020 A 
ATOM     67  C   UNL     1     -14.234   0.662   7.956  1.00  0.00     0.020 A 
ATOM     68  C   UNL     1     -13.286  -0.107   8.633  1.00  0.00     0.054 A 
BRANCH  68  69
ATOM     69  S   UNL     1     -13.805  -1.306   9.893  1.00  0.00     0.124 S 
ATOM     70  O   UNL     1     -13.584  -2.577   9.207  1.00  0.00    -0.237 OA
ATOM     71  O   UNL     1     -12.895  -1.024  10.999  1.00  0.00    -0.237 OA
ATOM     72  O   UNL     1     -15.205  -0.967  10.139  1.00  0.00    -0.744 OA
ENDBRANCH  68  69
ENDBRANCH  49  63
BRANCH  50  73
ATOM     73  C   UNL     1      -9.632   8.064  -0.513  1.00  0.00    -0.014 A 
ATOM     74  C   UNL     1      -8.519   8.911  -0.381  1.00  0.00     0.010 A 
ATOM     75  C   UNL     1     -10.384   8.101  -1.703  1.00  0.00     0.010 A 
ATOM     76  C   UNL     1      -8.167   9.782  -1.417  1.00  0.00     0.020 A 
ATOM     77  C   UNL     1     -10.020   8.951  -2.750  1.00  0.00     0.020 A 
ATOM     78  C   UNL     1      -8.918   9.794  -2.597  1.00  0.00     0.054 A 
BRANCH  78  79
ATOM     79  S   UNL     1      -8.406  10.885  -3.953  1.00  0.00     0.124 S 
ATOM     80  O   UNL     1      -8.841  12.192  -3.471  1.00  0.00    -0.237 OA
ATOM     81  O   UNL     1      -6.961  10.677  -3.999  1.00  0.00    -0.237 OA
ATOM     82  O   UNL     1      -9.139  10.365  -5.105  1.00  0.00    -0.744 OA
ENDBRANCH  78  79
ENDBRANCH  50  73
BRANCH  62  83
ATOM     83  C   UNL     1     -12.478   8.883   5.806  1.00  0.00    -0.014 A 
ATOM     84  C   UNL     1     -13.674   9.536   5.460  1.00  0.00     0.010 A 
ATOM     85  C   UNL     1     -11.748   9.330   6.922  1.00  0.00     0.010 A 
ATOM     86  C   UNL     1     -14.125  10.626   6.210  1.00  0.00     0.020 A 
ATOM     87  C   UNL     1     -12.207  10.405   7.687  1.00  0.00     0.020 A 
ATOM     88  C   UNL     1     -13.390  11.052   7.321  1.00  0.00     0.054 A 
BRANCH  88  89
ATOM     89  S   UNL     1     -14.031  12.426   8.316  1.00  0.00     0.124 S 
ATOM     90  O   UNL     1     -13.755  13.576   7.460  1.00  0.00    -0.237 OA
ATOM     91  O   UNL     1     -15.443  12.081   8.469  1.00  0.00    -0.237 OA
ATOM     92  O   UNL     1     -13.244  12.361   9.545  1.00  0.00    -0.744 OA
ENDBRANCH  88  89
ENDBRANCH  62  83
ENDBRANCH  36  37
ENDBRANCH  29  31
ENDBRANCH  28  29
ENDBRANCH  27  28
ENDBRANCH   1  27
TORSDOF 18
