REMARK SMILES COc1ccc(OC)c(NC(=O)[C@@H]2[C@@H](C(=O)OCCOC(=O)c3ccc(-c4c5nc(c(-c6ccc(S(=O)(=O)[O-])cc6)c6ccc([nH]6)c(-c6ccc(S(=O)(=O)[O-])cc6)c6nc(c(-c7ccc(S(=O)(=O)[O-])cc7)c7ccc4[nH]7)C=C6)C=C5)cc3)[C@H]3C=C[C@@H]2C3)c1
REMARK SMILES IDX 18 1 17 2 15 3 16 4 14 5 13 6 86 7 83 8 85 9 87 10 84 11
REMARK SMILES IDX 11 12 10 13 12 15 9 16 3 17 4 18 88 19 5 20 6 21 2 22 1 23
REMARK SMILES IDX 7 24 8 25 19 26 20 27 21 28 22 29 23 30 24 31 82 32 25 33
REMARK SMILES IDX 81 34 26 35 27 36 28 37 75 38 29 39 80 40 74 41 76 42 30 43
REMARK SMILES IDX 79 44 73 45 72 46 31 48 61 49 42 50 60 51 43 52 46 53 59 54
REMARK SMILES IDX 77 55 44 56 45 57 58 59 78 60 47 61 32 62 33 63 41 64 34 65
REMARK SMILES IDX 40 66 35 67 36 68 37 69 38 70 39 71 62 72 63 73 71 74 64 75
REMARK SMILES IDX 70 76 65 77 66 78 67 79 68 80 69 81 48 82 49 83 57 84 50 85
REMARK SMILES IDX 56 86 51 87 52 88 53 89 54 90 55 91
REMARK H PARENT 10 14 76 47 46 58
REMARK Flexibility Score: inf
ROOT
ATOM      1  C   UNL     1      -0.511  -2.753   6.560  1.00  0.00     0.274 C 
ENDROOT
BRANCH   1   2
ATOM      2  O   UNL     1       0.877  -2.809   6.136  1.00  0.00    -0.462 OA
BRANCH   2   3
ATOM      3  C   UNL     1       1.636  -3.735   6.791  1.00  0.00     0.310 C 
ATOM      4  O   UNL     1       1.146  -4.535   7.581  1.00  0.00    -0.252 OA
BRANCH   3   5
ATOM      5  C   UNL     1       3.143  -3.575   6.537  1.00  0.00     0.119 C 
ATOM      6  C   UNL     1       3.788  -4.413   5.370  1.00  0.00     0.100 C 
ATOM      7  C   UNL     1       4.848  -5.279   6.146  1.00  0.00     0.025 C 
ATOM      8  C   UNL     1       3.937  -4.082   7.797  1.00  0.00     0.027 C 
ATOM      9  C   UNL     1       4.170  -6.255   7.070  1.00  0.00    -0.027 C 
ATOM     10  C   UNL     1       5.335  -4.287   7.221  1.00  0.00     0.017 C 
ATOM     11  C   UNL     1       3.647  -5.543   8.076  1.00  0.00    -0.027 C 
BRANCH   6  12
ATOM     12  C   UNL     1       4.595  -3.574   4.361  1.00  0.00     0.229 C 
ATOM     13  N   UNL     1       4.073  -2.799   3.386  1.00  0.00    -0.323 N 
ATOM     14  H   UNL     1       4.701  -2.101   3.091  1.00  0.00     0.170 HD
ATOM     15  O   UNL     1       5.827  -3.468   4.459  1.00  0.00    -0.274 OA
BRANCH  13  16
ATOM     16  C   UNL     1       2.862  -2.744   2.695  1.00  0.00     0.087 A 
ATOM     17  C   UNL     1       1.288  -1.262   1.587  1.00  0.00     0.121 A 
ATOM     18  C   UNL     1       0.419  -2.321   1.367  1.00  0.00     0.050 A 
ATOM     19  C   UNL     1       2.498  -1.466   2.243  1.00  0.00     0.076 A 
ATOM     20  C   UNL     1       0.822  -3.608   1.718  1.00  0.00     0.052 A 
ATOM     21  C   UNL     1       2.056  -3.829   2.353  1.00  0.00     0.142 A 
BRANCH  17  22
ATOM     22  O   UNL     1       0.935   0.016   1.248  1.00  0.00    -0.497 OA
ATOM     23  C   UNL     1       1.109   0.212  -0.156  1.00  0.00     0.278 C 
ENDBRANCH  17  22
BRANCH  21  24
ATOM     24  O   UNL     1       2.362  -5.131   2.643  1.00  0.00    -0.495 OA
ATOM     25  C   UNL     1       3.381  -5.667   1.810  1.00  0.00     0.278 C 
ENDBRANCH  21  24
ENDBRANCH  13  16
ENDBRANCH   6  12
ENDBRANCH   3   5
ENDBRANCH   2   3
ENDBRANCH   1   2
BRANCH   1  26
ATOM     26  C   UNL     1      -1.514  -3.550   5.700  1.00  0.00     0.275 C 
BRANCH  26  27
ATOM     27  O   UNL     1      -1.376  -4.987   5.793  1.00  0.00    -0.458 OA
BRANCH  27  28
ATOM     28  C   UNL     1      -0.426  -5.442   4.951  1.00  0.00     0.338 C 
ATOM     29  O   UNL     1       0.236  -4.727   4.226  1.00  0.00    -0.246 OA
BRANCH  28  30
ATOM     30  C   UNL     1      -0.127  -6.875   5.009  1.00  0.00     0.060 A 
ATOM     31  C   UNL     1       1.141  -7.212   5.480  1.00  0.00     0.016 A 
ATOM     32  C   UNL     1      -0.914  -7.837   4.378  1.00  0.00     0.016 A 
ATOM     33  C   UNL     1       1.639  -8.496   5.322  1.00  0.00     0.010 A 
ATOM     34  C   UNL     1      -0.434  -9.154   4.266  1.00  0.00     0.010 A 
ATOM     35  C   UNL     1       0.844  -9.492   4.745  1.00  0.00    -0.014 A 
BRANCH  35  36
ATOM     36  C   UNL     1       1.346 -10.887   4.782  1.00  0.00     0.031 A 
ATOM     37  C   UNL     1       1.851 -11.584   3.553  1.00  0.00     0.074 A 
ATOM     38  C   UNL     1       1.429 -11.491   5.984  1.00  0.00     0.049 A 
ATOM     39  N   UNL     1       2.290 -12.812   3.433  1.00  0.00    -0.248 NA
ATOM     40  C   UNL     1       1.886 -10.807   2.305  1.00  0.00     0.031 C 
ATOM     41  C   UNL     1       1.056 -10.873   7.262  1.00  0.00     0.029 A 
ATOM     42  N   UNL     1       1.879 -12.736   6.339  1.00  0.00    -0.354 N 
ATOM     43  C   UNL     1       2.633 -12.967   2.095  1.00  0.00     0.074 A 
ATOM     44  C   UNL     1       2.358 -11.702   1.444  1.00  0.00     0.031 C 
ATOM     45  C   UNL     1       1.325 -11.727   8.259  1.00  0.00     0.029 A 
ATOM     46  C   UNL     1       1.811 -12.978   7.691  1.00  0.00     0.049 A 
ATOM     47  H   UNL     1       2.218 -13.393   5.689  1.00  0.00     0.167 HD
ATOM     48  C   UNL     1       3.117 -14.070   1.473  1.00  0.00     0.031 A 
ATOM     49  C   UNL     1       2.070 -14.094   8.396  1.00  0.00     0.031 A 
ATOM     50  C   UNL     1       3.380 -15.326   2.131  1.00  0.00     0.049 A 
ATOM     51  C   UNL     1       2.510 -15.327   7.664  1.00  0.00     0.074 A 
ATOM     52  C   UNL     1       3.834 -16.511   1.575  1.00  0.00     0.029 A 
ATOM     53  N   UNL     1       3.213 -15.561   3.487  1.00  0.00    -0.354 N 
ATOM     54  N   UNL     1       2.770 -15.475   6.387  1.00  0.00    -0.248 NA
ATOM     55  C   UNL     1       2.670 -16.549   8.463  1.00  0.00     0.031 C 
ATOM     56  C   UNL     1       3.898 -17.475   2.589  1.00  0.00     0.029 A 
ATOM     57  C   UNL     1       3.530 -16.878   3.783  1.00  0.00     0.049 A 
ATOM     58  H   UNL     1       2.914 -14.892   4.144  1.00  0.00     0.167 HD
ATOM     59  C   UNL     1       3.129 -16.807   6.229  1.00  0.00     0.074 A 
ATOM     60  C   UNL     1       3.076 -17.415   7.544  1.00  0.00     0.031 C 
ATOM     61  C   UNL     1       3.465 -17.468   5.095  1.00  0.00     0.031 A 
BRANCH  48  62
ATOM     62  C   UNL     1       3.337 -13.996  -0.014  1.00  0.00    -0.014 A 
ATOM     63  C   UNL     1       4.468 -13.362  -0.559  1.00  0.00     0.010 A 
ATOM     64  C   UNL     1       2.426 -14.633  -0.877  1.00  0.00     0.010 A 
ATOM     65  C   UNL     1       4.668 -13.345  -1.943  1.00  0.00     0.020 A 
ATOM     66  C   UNL     1       2.632 -14.633  -2.259  1.00  0.00     0.020 A 
ATOM     67  C   UNL     1       3.746 -13.976  -2.785  1.00  0.00     0.054 A 
BRANCH  67  68
ATOM     68  S   UNL     1       4.037 -13.958  -4.577  1.00  0.00     0.124 S 
ATOM     69  O   UNL     1       3.681 -12.585  -4.925  1.00  0.00    -0.237 OA
ATOM     70  O   UNL     1       5.458 -14.282  -4.677  1.00  0.00    -0.237 OA
ATOM     71  O   UNL     1       3.130 -14.984  -5.086  1.00  0.00    -0.744 OA
ENDBRANCH  67  68
ENDBRANCH  48  62
BRANCH  49  72
ATOM     72  C   UNL     1       1.835 -14.114   9.864  1.00  0.00    -0.014 A 
ATOM     73  C   UNL     1       2.905 -14.224  10.767  1.00  0.00     0.010 A 
ATOM     74  C   UNL     1       0.523 -14.014  10.365  1.00  0.00     0.010 A 
ATOM     75  C   UNL     1       2.666 -14.252  12.144  1.00  0.00     0.020 A 
ATOM     76  C   UNL     1       0.282 -14.012  11.740  1.00  0.00     0.020 A 
ATOM     77  C   UNL     1       1.355 -14.148  12.621  1.00  0.00     0.054 A 
BRANCH  77  78
ATOM     78  S   UNL     1       1.061 -14.148  14.411  1.00  0.00     0.124 S 
ATOM     79  O   UNL     1       1.131 -15.571  14.728  1.00  0.00    -0.237 OA
ATOM     80  O   UNL     1       2.161 -13.331  14.918  1.00  0.00    -0.237 OA
ATOM     81  O   UNL     1      -0.263 -13.541  14.537  1.00  0.00    -0.744 OA
ENDBRANCH  77  78
ENDBRANCH  49  72
BRANCH  61  82
ATOM     82  C   UNL     1       3.816 -18.923   5.236  1.00  0.00    -0.014 A 
ATOM     83  C   UNL     1       2.816 -19.891   5.436  1.00  0.00     0.010 A 
ATOM     84  C   UNL     1       5.159 -19.328   5.137  1.00  0.00     0.010 A 
ATOM     85  C   UNL     1       3.157 -21.240   5.563  1.00  0.00     0.020 A 
ATOM     86  C   UNL     1       5.501 -20.678   5.243  1.00  0.00     0.020 A 
ATOM     87  C   UNL     1       4.498 -21.625   5.470  1.00  0.00     0.054 A 
BRANCH  87  88
ATOM     88  S   UNL     1       4.916 -23.385   5.598  1.00  0.00     0.124 S 
ATOM     89  O   UNL     1       4.838 -23.611   7.039  1.00  0.00    -0.237 OA
ATOM     90  O   UNL     1       3.870 -24.025   4.804  1.00  0.00    -0.237 OA
ATOM     91  O   UNL     1       6.258 -23.463   5.026  1.00  0.00    -0.744 OA
ENDBRANCH  87  88
ENDBRANCH  61  82
ENDBRANCH  35  36
ENDBRANCH  28  30
ENDBRANCH  27  28
ENDBRANCH  26  27
ENDBRANCH   1  26
TORSDOF 18
