REMARK SMILES O=C(CCc1ccccc1)Nc1ccccc1Oc1ccsc1C(=O)OCCOC(=O)c1ccc(-c2c3nc(c(-c4ccc(S(=O)(=O)[O-])cc4)c4ccc([nH]4)c(-c4ccc(S(=O)(=O)[O-])cc4)c4nc(c(-c5ccc(S(=O)(=O)[O-])cc5)c5ccc2[nH]5)C=C4)C=C3)cc1
REMARK SMILES IDX 26 1 24 2 25 3 23 4 19 5 20 6 21 7 22 8 18 9 17 10 12 11
REMARK SMILES IDX 13 12 14 13 16 14 15 15 11 16 1 17 2 18 3 20 4 21 5 22 6 23
REMARK SMILES IDX 10 24 7 25 9 26 8 27 27 28 28 29 29 30 30 31 31 32 32 33
REMARK SMILES IDX 33 34 91 35 34 36 90 37 35 38 36 39 37 40 84 41 38 42 89 43
REMARK SMILES IDX 83 44 85 45 39 46 88 47 82 48 81 49 40 51 70 52 51 53 69 54
REMARK SMILES IDX 52 55 55 56 68 57 86 58 53 59 54 60 67 62 87 63 56 64 41 65
REMARK SMILES IDX 42 66 50 67 43 68 49 69 44 70 45 71 46 72 47 73 48 74 71 75
REMARK SMILES IDX 72 76 80 77 73 78 79 79 74 80 75 81 76 82 77 83 78 84 57 85
REMARK SMILES IDX 58 86 66 87 59 88 65 89 60 90 61 91 62 92 63 93 64 94
REMARK H PARENT 11 19 85 50 55 61
REMARK Flexibility Score: inf
ROOT
ATOM      1  O   UNL     1      -1.683   1.493  -0.092  1.00  0.00    -0.458 OA
ENDROOT
BRANCH   1   2
ATOM      2  C   UNL     1      -1.079   1.940   1.049  1.00  0.00     0.352 C 
ATOM      3  O   UNL     1      -1.639   1.989   2.140  1.00  0.00    -0.245 OA
BRANCH   2   4
ATOM      4  C   UNL     1       0.287   2.355   0.773  1.00  0.00     0.155 A 
ATOM      5  C   UNL     1       1.035   2.248  -0.388  1.00  0.00     0.152 A 
ATOM      6  C   UNL     1       2.345   2.799  -0.252  1.00  0.00     0.060 A 
ATOM      7  C   UNL     1       2.586   3.230   1.034  1.00  0.00     0.070 A 
ATOM      8  S   UNL     1       1.224   3.028   2.046  1.00  0.00    -0.133 S 
BRANCH   5   9
ATOM      9  O   UNL     1       0.482   1.668  -1.478  1.00  0.00    -0.453 OA
BRANCH   9  10
ATOM     10  C   UNL     1       1.166   1.113  -2.524  1.00  0.00     0.151 A 
ATOM     11  C   UNL     1       2.253   0.230  -2.459  1.00  0.00     0.084 A 
ATOM     12  C   UNL     1       2.845  -0.198  -3.660  1.00  0.00     0.030 A 
ATOM     13  C   UNL     1       2.308   0.161  -4.899  1.00  0.00     0.002 A 
ATOM     14  C   UNL     1       0.634   1.467  -3.775  1.00  0.00     0.049 A 
ATOM     15  C   UNL     1       1.193   0.987  -4.957  1.00  0.00     0.004 A 
BRANCH  11  16
ATOM     16  N   UNL     1       2.854  -0.271  -1.286  1.00  0.00    -0.323 N 
ATOM     17  O   UNL     1       1.022  -0.726   0.045  1.00  0.00    -0.275 OA
ATOM     18  C   UNL     1       2.233  -0.573  -0.094  1.00  0.00     0.224 C 
ATOM     19  H   UNL     1       3.827  -0.421  -1.323  1.00  0.00     0.170 HD
BRANCH  18  20
ATOM     20  C   UNL     1       3.171  -0.635   1.107  1.00  0.00     0.105 C 
BRANCH  20  21
ATOM     21  C   UNL     1       4.266  -1.700   1.065  1.00  0.00     0.045 C 
BRANCH  21  22
ATOM     22  C   UNL     1       5.386  -1.451   0.080  1.00  0.00    -0.048 A 
ATOM     23  C   UNL     1       5.858  -2.512  -0.704  1.00  0.00     0.004 A 
ATOM     24  C   UNL     1       5.961  -0.181  -0.087  1.00  0.00     0.004 A 
ATOM     25  C   UNL     1       6.836  -2.296  -1.675  1.00  0.00     0.000 A 
ATOM     26  C   UNL     1       6.924   0.037  -1.073  1.00  0.00     0.000 A 
ATOM     27  C   UNL     1       7.356  -1.019  -1.872  1.00  0.00     0.000 A 
ENDBRANCH  21  22
ENDBRANCH  20  21
ENDBRANCH  18  20
ENDBRANCH  11  16
ENDBRANCH   9  10
ENDBRANCH   5   9
ENDBRANCH   2   4
ENDBRANCH   1   2
BRANCH   1  28
ATOM     28  C   UNL     1      -2.936   0.809   0.059  1.00  0.00     0.275 C 
BRANCH  28  29
ATOM     29  C   UNL     1      -2.692  -0.689   0.221  1.00  0.00     0.275 C 
BRANCH  29  30
ATOM     30  O   UNL     1      -1.973  -0.909   1.440  1.00  0.00    -0.458 OA
BRANCH  30  31
ATOM     31  C   UNL     1      -1.557  -2.182   1.624  1.00  0.00     0.338 C 
ATOM     32  O   UNL     1      -1.828  -3.146   0.927  1.00  0.00    -0.246 OA
BRANCH  31  33
ATOM     33  C   UNL     1      -0.790  -2.257   2.886  1.00  0.00     0.060 A 
ATOM     34  C   UNL     1       0.117  -1.258   3.252  1.00  0.00     0.016 A 
ATOM     35  C   UNL     1      -0.964  -3.373   3.706  1.00  0.00     0.016 A 
ATOM     36  C   UNL     1       0.889  -1.401   4.409  1.00  0.00     0.010 A 
ATOM     37  C   UNL     1      -0.241  -3.480   4.897  1.00  0.00     0.010 A 
ATOM     38  C   UNL     1       0.716  -2.512   5.247  1.00  0.00    -0.014 A 
BRANCH  38  39
ATOM     39  C   UNL     1       1.546  -2.702   6.469  1.00  0.00     0.031 A 
ATOM     40  C   UNL     1       2.465  -3.894   6.575  1.00  0.00     0.074 A 
ATOM     41  C   UNL     1       1.460  -1.834   7.497  1.00  0.00     0.049 A 
ATOM     42  N   UNL     1       3.155  -4.320   7.603  1.00  0.00    -0.248 NA
ATOM     43  C   UNL     1       2.623  -4.719   5.365  1.00  0.00     0.031 C 
ATOM     44  C   UNL     1       0.636  -0.624   7.522  1.00  0.00     0.029 A 
ATOM     45  N   UNL     1       2.069  -1.845   8.728  1.00  0.00    -0.354 N 
ATOM     46  C   UNL     1       3.807  -5.472   7.175  1.00  0.00     0.074 A 
ATOM     47  C   UNL     1       3.408  -5.694   5.801  1.00  0.00     0.031 C 
ATOM     48  C   UNL     1       0.802  -0.003   8.702  1.00  0.00     0.029 A 
ATOM     49  C   UNL     1       1.694  -0.800   9.539  1.00  0.00     0.049 A 
ATOM     50  H   UNL     1       2.714  -2.536   9.004  1.00  0.00     0.167 HD
ATOM     51  C   UNL     1       4.665  -6.268   7.856  1.00  0.00     0.031 A 
ATOM     52  C   UNL     1       2.005  -0.527  10.822  1.00  0.00     0.031 A 
ATOM     53  C   UNL     1       5.068  -6.048   9.221  1.00  0.00     0.049 A 
ATOM     54  C   UNL     1       2.908  -1.464  11.578  1.00  0.00     0.074 A 
ATOM     55  C   UNL     1       5.929  -6.804   9.998  1.00  0.00     0.029 A 
ATOM     56  N   UNL     1       4.646  -4.989  10.010  1.00  0.00    -0.354 N 
ATOM     57  N   UNL     1       3.499  -2.559  11.161  1.00  0.00    -0.248 NA
ATOM     58  C   UNL     1       3.186  -1.126  12.982  1.00  0.00     0.031 C 
ATOM     59  C   UNL     1       5.999  -6.222  11.269  1.00  0.00     0.029 A 
ATOM     60  C   UNL     1       5.223  -5.075  11.266  1.00  0.00     0.049 A 
ATOM     61  H   UNL     1       4.028  -4.280   9.720  1.00  0.00     0.167 HD
ATOM     62  C   UNL     1       4.240  -3.023  12.243  1.00  0.00     0.074 A 
ATOM     63  C   UNL     1       4.037  -2.083  13.326  1.00  0.00     0.031 C 
ATOM     64  C   UNL     1       5.019  -4.129  12.332  1.00  0.00     0.031 A 
BRANCH  51  65
ATOM     65  C   UNL     1       5.226  -7.467   7.136  1.00  0.00    -0.014 A 
ATOM     66  C   UNL     1       6.192  -7.316   6.125  1.00  0.00     0.010 A 
ATOM     67  C   UNL     1       4.821  -8.762   7.507  1.00  0.00     0.010 A 
ATOM     68  C   UNL     1       6.719  -8.436   5.476  1.00  0.00     0.020 A 
ATOM     69  C   UNL     1       5.365  -9.887   6.878  1.00  0.00     0.020 A 
ATOM     70  C   UNL     1       6.300  -9.715   5.855  1.00  0.00     0.054 A 
BRANCH  70  71
ATOM     71  S   UNL     1       7.024 -11.151   5.015  1.00  0.00     0.124 S 
ATOM     72  O   UNL     1       6.374 -11.094   3.708  1.00  0.00    -0.237 OA
ATOM     73  O   UNL     1       8.451 -10.839   5.019  1.00  0.00    -0.237 OA
ATOM     74  O   UNL     1       6.633 -12.279   5.857  1.00  0.00    -0.744 OA
ENDBRANCH  70  71
ENDBRANCH  51  65
BRANCH  52  75
ATOM     75  C   UNL     1       1.439   0.676  11.492  1.00  0.00    -0.014 A 
ATOM     76  C   UNL     1       2.272   1.750  11.852  1.00  0.00     0.010 A 
ATOM     77  C   UNL     1       0.068   0.743  11.800  1.00  0.00     0.010 A 
ATOM     78  C   UNL     1       1.752   2.853  12.536  1.00  0.00     0.020 A 
ATOM     79  C   UNL     1      -0.462   1.857  12.457  1.00  0.00     0.020 A 
ATOM     80  C   UNL     1       0.388   2.897  12.838  1.00  0.00     0.054 A 
BRANCH  80  81
ATOM     81  S   UNL     1      -0.271   4.345  13.709  1.00  0.00     0.124 S 
ATOM     82  O   UNL     1       0.171   4.102  15.078  1.00  0.00    -0.237 OA
ATOM     83  O   UNL     1       0.382   5.456  13.021  1.00  0.00    -0.237 OA
ATOM     84  O   UNL     1      -1.712   4.248  13.489  1.00  0.00    -0.744 OA
ENDBRANCH  80  81
ENDBRANCH  52  75
BRANCH  64  85
ATOM     85  C   UNL     1       5.750  -4.355  13.629  1.00  0.00    -0.014 A 
ATOM     86  C   UNL     1       5.072  -4.770  14.788  1.00  0.00     0.010 A 
ATOM     87  C   UNL     1       7.145  -4.177  13.676  1.00  0.00     0.010 A 
ATOM     88  C   UNL     1       5.771  -4.964  15.983  1.00  0.00     0.020 A 
ATOM     89  C   UNL     1       7.851  -4.396  14.862  1.00  0.00     0.020 A 
ATOM     90  C   UNL     1       7.156  -4.771  16.013  1.00  0.00     0.054 A 
BRANCH  90  91
ATOM     91  S   UNL     1       8.047  -5.056  17.568  1.00  0.00     0.124 S 
ATOM     92  O   UNL     1       7.706  -3.862  18.336  1.00  0.00    -0.237 OA
ATOM     93  O   UNL     1       7.461  -6.304  18.052  1.00  0.00    -0.237 OA
ATOM     94  O   UNL     1       9.445  -5.152  17.153  1.00  0.00    -0.744 OA
ENDBRANCH  90  91
ENDBRANCH  64  85
ENDBRANCH  38  39
ENDBRANCH  31  33
ENDBRANCH  30  31
ENDBRANCH  29  30
ENDBRANCH  28  29
ENDBRANCH   1  28
TORSDOF 20
