REMARK SMILES Cc1cc(C)cc(C[N@@H+]2CCO[C@@H](CC(=O)OCCOC(=O)c3ccc(-c4c5nc(c(-c6ccc(S(=O)(=O)[O-])cc6)c6ccc([nH]6)c(-c6ccc(S(=O)(=O)[O-])cc6)c6nc(c(-c7ccc(S(=O)(=O)[O-])cc7)c7ccc4[nH]7)C=C6)C=C5)cc3)C2)c1
REMARK SMILES IDX 18 1 17 2 15 3 16 4 14 5 13 6 9 7 10 8 83 9 11 11 12 12 8 13
REMARK SMILES IDX 7 14 1 15 2 16 3 17 84 18 4 19 5 20 6 21 19 22 20 23 21 24
REMARK SMILES IDX 22 25 23 26 24 27 82 28 25 29 81 30 26 31 27 32 28 33 75 34
REMARK SMILES IDX 29 35 80 36 74 37 76 38 30 39 79 40 73 41 72 42 31 44 61 45
REMARK SMILES IDX 42 46 60 47 43 48 46 49 59 50 77 51 44 52 45 53 58 55 78 56
REMARK SMILES IDX 47 57 32 58 33 59 41 60 34 61 40 62 35 63 36 64 37 65 38 66
REMARK SMILES IDX 39 67 62 68 63 69 71 70 64 71 70 72 65 73 66 74 67 75 68 76
REMARK SMILES IDX 69 77 48 78 49 79 57 80 50 81 56 82 51 83 52 84 53 85 54 86
REMARK SMILES IDX 55 87
REMARK H PARENT 9 10 76 43 46 54
REMARK Flexibility Score: inf
ROOT
ATOM      1  C   UNL     1       3.974  -3.370   3.895  1.00  0.00     0.274 C 
ENDROOT
BRANCH   1   2
ATOM      2  O   UNL     1       2.536  -3.279   3.843  1.00  0.00    -0.462 OA
BRANCH   2   3
ATOM      3  C   UNL     1       1.985  -2.173   4.411  1.00  0.00     0.308 C 
ATOM      4  O   UNL     1       2.622  -1.280   4.956  1.00  0.00    -0.252 OA
BRANCH   3   5
ATOM      5  C   UNL     1       0.484  -2.221   4.401  1.00  0.00     0.160 C 
BRANCH   5   6
ATOM      6  C   UNL     1      -0.230  -2.188   3.049  1.00  0.00     0.184 C 
ATOM      7  N   UNL     1      -0.865  -3.640   1.026  1.00  0.00    -0.327 N 
ATOM      8  C   UNL     1      -2.255  -3.381   1.399  1.00  0.00     0.291 C 
ATOM      9  C   UNL     1       0.062  -3.417   2.149  1.00  0.00     0.295 C 
ATOM     10  H   UNL     1      -0.821  -4.643   0.846  1.00  0.00     0.348 HD
ATOM     11  C   UNL     1      -2.469  -2.130   2.261  1.00  0.00     0.222 C 
ATOM     12  O   UNL     1      -1.633  -2.159   3.415  1.00  0.00    -0.366 OA
BRANCH   7  13
ATOM     13  C   UNL     1      -0.436  -3.168  -0.294  1.00  0.00     0.299 C 
BRANCH  13  14
ATOM     14  C   UNL     1      -0.371  -1.680  -0.547  1.00  0.00     0.007 A 
ATOM     15  C   UNL     1       2.280   1.023  -1.032  1.00  0.00     0.044 C 
ATOM     16  C   UNL     1       0.953   0.345  -0.880  1.00  0.00    -0.050 A 
ATOM     17  C   UNL     1      -0.221   1.103  -0.915  1.00  0.00     0.006 A 
ATOM     18  C   UNL     1       0.867  -1.040  -0.688  1.00  0.00     0.013 A 
ATOM     19  C   UNL     1      -1.470   0.482  -0.822  1.00  0.00    -0.050 A 
ATOM     20  C   UNL     1      -2.719   1.312  -0.796  1.00  0.00     0.044 C 
ATOM     21  C   UNL     1      -1.532  -0.910  -0.688  1.00  0.00     0.013 A 
ENDBRANCH  13  14
ENDBRANCH   7  13
ENDBRANCH   5   6
ENDBRANCH   3   5
ENDBRANCH   2   3
ENDBRANCH   1   2
BRANCH   1  22
ATOM     22  C   UNL     1       4.653  -2.808   2.639  1.00  0.00     0.275 C 
BRANCH  22  23
ATOM     23  O   UNL     1       4.705  -1.367   2.631  1.00  0.00    -0.458 OA
BRANCH  23  24
ATOM     24  C   UNL     1       3.590  -0.775   2.151  1.00  0.00     0.338 C 
ATOM     25  O   UNL     1       2.604  -1.360   1.715  1.00  0.00    -0.246 OA
BRANCH  24  26
ATOM     26  C   UNL     1       3.634   0.688   2.289  1.00  0.00     0.060 A 
ATOM     27  C   UNL     1       2.490   1.335   2.774  1.00  0.00     0.016 A 
ATOM     28  C   UNL     1       4.735   1.429   1.852  1.00  0.00     0.016 A 
ATOM     29  C   UNL     1       2.442   2.726   2.824  1.00  0.00     0.010 A 
ATOM     30  C   UNL     1       4.683   2.826   1.898  1.00  0.00     0.010 A 
ATOM     31  C   UNL     1       3.536   3.481   2.379  1.00  0.00    -0.014 A 
BRANCH  31  32
ATOM     32  C   UNL     1       3.496   4.959   2.470  1.00  0.00     0.031 A 
ATOM     33  C   UNL     1       3.164   5.797   1.270  1.00  0.00     0.074 A 
ATOM     34  C   UNL     1       3.763   5.540   3.653  1.00  0.00     0.049 A 
ATOM     35  N   UNL     1       3.106   7.100   1.167  1.00  0.00    -0.248 NA
ATOM     36  C   UNL     1       2.850   5.081   0.026  1.00  0.00     0.031 C 
ATOM     37  C   UNL     1       4.065   4.822   4.893  1.00  0.00     0.029 A 
ATOM     38  N   UNL     1       3.830   6.862   4.005  1.00  0.00    -0.354 N 
ATOM     39  C   UNL     1       2.745   7.362  -0.149  1.00  0.00     0.074 A 
ATOM     40  C   UNL     1       2.615   6.082  -0.813  1.00  0.00     0.031 C 
ATOM     41  C   UNL     1       4.298   5.715   5.868  1.00  0.00     0.029 A 
ATOM     42  C   UNL     1       4.193   7.062   5.314  1.00  0.00     0.049 A 
ATOM     43  H   UNL     1       3.638   7.598   3.380  1.00  0.00     0.167 HD
ATOM     44  C   UNL     1       2.542   8.561  -0.746  1.00  0.00     0.031 A 
ATOM     45  C   UNL     1       4.439   8.201   5.988  1.00  0.00     0.031 A 
ATOM     46  C   UNL     1       2.706   9.831  -0.087  1.00  0.00     0.049 A 
ATOM     47  C   UNL     1       4.285   9.518   5.282  1.00  0.00     0.074 A 
ATOM     48  C   UNL     1       2.516  11.101  -0.605  1.00  0.00     0.029 A 
ATOM     49  N   UNL     1       3.111   9.993   1.229  1.00  0.00    -0.354 N 
ATOM     50  N   UNL     1       3.918   9.748   4.044  1.00  0.00    -0.248 NA
ATOM     51  C   UNL     1       4.574  10.727   6.063  1.00  0.00     0.031 C 
ATOM     52  C   UNL     1       2.855  12.031   0.385  1.00  0.00     0.029 A 
ATOM     53  C   UNL     1       3.206  11.341   1.534  1.00  0.00     0.049 A 
ATOM     54  H   UNL     1       3.302   9.258   1.856  1.00  0.00     0.167 HD
ATOM     55  C   UNL     1       3.912  11.130   3.903  1.00  0.00     0.074 A 
ATOM     56  C   UNL     1       4.303  11.684   5.184  1.00  0.00     0.031 C 
ATOM     57  C   UNL     1       3.605  11.874   2.811  1.00  0.00     0.031 A 
BRANCH  44  58
ATOM     58  C   UNL     1       2.153   8.560  -2.200  1.00  0.00    -0.014 A 
ATOM     59  C   UNL     1       0.853   8.207  -2.603  1.00  0.00     0.010 A 
ATOM     60  C   UNL     1       3.084   8.968  -3.173  1.00  0.00     0.010 A 
ATOM     61  C   UNL     1       0.499   8.234  -3.955  1.00  0.00     0.020 A 
ATOM     62  C   UNL     1       2.729   9.014  -4.524  1.00  0.00     0.020 A 
ATOM     63  C   UNL     1       1.442   8.633  -4.908  1.00  0.00     0.054 A 
BRANCH  63  64
ATOM     64  S   UNL     1       0.953   8.680  -6.655  1.00  0.00     0.124 S 
ATOM     65  O   UNL     1       0.940   7.261  -7.002  1.00  0.00    -0.237 OA
ATOM     66  O   UNL     1      -0.357   9.325  -6.606  1.00  0.00    -0.237 OA
ATOM     67  O   UNL     1       2.008   9.466  -7.290  1.00  0.00    -0.744 OA
ENDBRANCH  63  64
ENDBRANCH  44  58
BRANCH  45  68
ATOM     68  C   UNL     1       4.879   8.133   7.406  1.00  0.00    -0.014 A 
ATOM     69  C   UNL     1       4.011   8.503   8.446  1.00  0.00     0.010 A 
ATOM     70  C   UNL     1       6.166   7.657   7.721  1.00  0.00     0.010 A 
ATOM     71  C   UNL     1       4.424   8.406   9.778  1.00  0.00     0.020 A 
ATOM     72  C   UNL     1       6.574   7.537   9.051  1.00  0.00     0.020 A 
ATOM     73  C   UNL     1       5.702   7.921  10.072  1.00  0.00     0.054 A 
BRANCH  73  74
ATOM     74  S   UNL     1       6.197   7.740  11.808  1.00  0.00     0.124 S 
ATOM     75  O   UNL     1       6.512   9.116  12.178  1.00  0.00    -0.237 OA
ATOM     76  O   UNL     1       4.998   7.177  12.424  1.00  0.00    -0.237 OA
ATOM     77  O   UNL     1       7.339   6.831  11.743  1.00  0.00    -0.744 OA
ENDBRANCH  73  74
ENDBRANCH  45  68
BRANCH  57  78
ATOM     78  C   UNL     1       3.658  13.369   2.961  1.00  0.00    -0.014 A 
ATOM     79  C   UNL     1       4.886  14.051   2.999  1.00  0.00     0.010 A 
ATOM     80  C   UNL     1       2.460  14.105   3.013  1.00  0.00     0.010 A 
ATOM     81  C   UNL     1       4.916  15.444   3.111  1.00  0.00     0.020 A 
ATOM     82  C   UNL     1       2.486  15.498   3.104  1.00  0.00     0.020 A 
ATOM     83  C   UNL     1       3.715  16.158   3.165  1.00  0.00     0.054 A 
BRANCH  83  84
ATOM     84  S   UNL     1       3.777  17.969   3.263  1.00  0.00     0.124 S 
ATOM     85  O   UNL     1       4.119  18.185   4.666  1.00  0.00    -0.237 OA
ATOM     86  O   UNL     1       4.823  18.309   2.302  1.00  0.00    -0.237 OA
ATOM     87  O   UNL     1       2.429  18.381   2.878  1.00  0.00    -0.744 OA
ENDBRANCH  83  84
ENDBRANCH  57  78
ENDBRANCH  31  32
ENDBRANCH  24  26
ENDBRANCH  23  24
ENDBRANCH  22  23
ENDBRANCH   1  22
TORSDOF 17
