REMARK SMILES COc1ccc(-c2[nH]nc3nc(-c4ccc(C(F)(F)F)cc4)cc(C(=O)OCCOC(=O)c4ccc(-c5c6nc(c(-c7ccc(S(=O)(=O)[O-])cc7)c7ccc([nH]7)c(-c7ccc(S(=O)(=O)[O-])cc7)c7nc(c(-c8ccc(S(=O)(=O)[O-])cc8)c8ccc5[nH]8)C=C7)C=C6)cc4)c23)cc1
REMARK SMILES IDX 29 1 28 2 27 3 25 4 26 5 24 6 7 7 8 8 93 9 9 10 10 12 11 13
REMARK SMILES IDX 23 14 12 15 6 16 3 17 4 18 95 19 5 20 94 21 2 22 1 23 13 24
REMARK SMILES IDX 14 25 22 26 15 27 21 28 16 29 17 30 18 31 19 32 20 33 30 34
REMARK SMILES IDX 31 35 32 36 33 37 34 38 92 39 35 40 91 41 36 42 37 43 38 44
REMARK SMILES IDX 85 45 39 46 90 47 84 48 86 49 40 50 89 51 83 52 82 53 41 55
REMARK SMILES IDX 71 56 52 57 70 58 53 59 56 60 69 61 87 62 54 63 55 64 68 66
REMARK SMILES IDX 88 67 57 68 42 69 43 70 51 71 44 72 50 73 45 74 46 75 47 76
REMARK SMILES IDX 48 77 49 78 72 79 73 80 81 81 74 82 80 83 75 84 76 85 77 86
REMARK SMILES IDX 78 87 79 88 58 89 59 90 67 91 60 92 66 93 61 94 62 95 63 96
REMARK SMILES IDX 64 97 65 98
REMARK H PARENT 8 11 86 54 56 65
REMARK Flexibility Score: inf
ROOT
ATOM      1  C   UNL     1       5.864  -4.422  -1.917  1.00  0.00     0.275 C 
ENDROOT
BRANCH   1   2
ATOM      2  C   UNL     1       4.925  -5.597  -2.131  1.00  0.00     0.275 C 
BRANCH   2   3
ATOM      3  O   UNL     1       4.627  -5.680  -3.531  1.00  0.00    -0.458 OA
BRANCH   3   4
ATOM      4  C   UNL     1       3.337  -5.488  -3.903  1.00  0.00     0.339 C 
ATOM      5  O   UNL     1       2.358  -5.567  -3.188  1.00  0.00    -0.246 OA
BRANCH   4   6
ATOM      6  C   UNL     1       3.327  -5.161  -5.333  1.00  0.00     0.075 A 
ATOM      7  C   UNL     1       1.448  -3.466  -5.577  1.00  0.00     0.075 A 
ATOM      8  N   UNL     1       0.960  -2.890  -6.734  1.00  0.00    -0.275 N 
ATOM      9  C   UNL     1       2.445  -4.324  -6.032  1.00  0.00     0.061 A 
ATOM     10  N   UNL     1       1.527  -3.312  -7.873  1.00  0.00    -0.154 NA
ATOM     11  H   UNL     1       0.244  -2.215  -6.722  1.00  0.00     0.190 HD
ATOM     12  C   UNL     1       2.471  -4.156  -7.464  1.00  0.00     0.182 A 
ATOM     13  N   UNL     1       3.351  -4.804  -8.273  1.00  0.00    -0.226 NA
ATOM     14  C   UNL     1       4.246  -5.782  -6.196  1.00  0.00     0.045 A 
ATOM     15  C   UNL     1       4.217  -5.609  -7.598  1.00  0.00     0.074 A 
BRANCH   7  16
ATOM     16  C   UNL     1       0.988  -2.974  -4.271  1.00  0.00     0.001 A 
ATOM     17  C   UNL     1       0.238  -1.812  -1.797  1.00  0.00     0.118 A 
ATOM     18  C   UNL     1      -0.729  -2.172  -2.737  1.00  0.00     0.047 A 
ATOM     19  C   UNL     1       1.569  -2.081  -2.070  1.00  0.00     0.047 A 
ATOM     20  C   UNL     1      -0.359  -2.741  -3.971  1.00  0.00     0.014 A 
ATOM     21  C   UNL     1       1.925  -2.635  -3.300  1.00  0.00     0.014 A 
BRANCH  17  22
ATOM     22  O   UNL     1      -0.199  -1.275  -0.618  1.00  0.00    -0.497 OA
ATOM     23  C   UNL     1       0.607  -0.206  -0.119  1.00  0.00     0.278 C 
ENDBRANCH  17  22
ENDBRANCH   7  16
BRANCH  15  24
ATOM     24  C   UNL     1       5.121  -6.431  -8.429  1.00  0.00     0.000 A 
ATOM     25  C   UNL     1       5.965  -5.874  -9.400  1.00  0.00     0.011 A 
ATOM     26  C   UNL     1       5.177  -7.824  -8.232  1.00  0.00     0.011 A 
ATOM     27  C   UNL     1       6.855  -6.681 -10.126  1.00  0.00     0.014 A 
ATOM     28  C   UNL     1       6.058  -8.630  -8.954  1.00  0.00     0.014 A 
ATOM     29  C   UNL     1       6.914  -8.066  -9.906  1.00  0.00     0.056 A 
BRANCH  29  30
ATOM     30  C   UNL     1       7.878  -8.932 -10.680  1.00  0.00     0.416 C 
ATOM     31  F   UNL     1       7.658  -8.897 -12.023  1.00  0.00    -0.166 F 
ATOM     32  F   UNL     1       9.177  -8.566 -10.502  1.00  0.00    -0.166 F 
ATOM     33  F   UNL     1       7.819 -10.251 -10.334  1.00  0.00    -0.166 F 
ENDBRANCH  29  30
ENDBRANCH  15  24
ENDBRANCH   4   6
ENDBRANCH   3   4
ENDBRANCH   2   3
ENDBRANCH   1   2
BRANCH   1  34
ATOM     34  O   UNL     1       5.216  -3.212  -2.299  1.00  0.00    -0.458 OA
BRANCH  34  35
ATOM     35  C   UNL     1       5.483  -2.695  -3.519  1.00  0.00     0.338 C 
ATOM     36  O   UNL     1       5.993  -3.257  -4.476  1.00  0.00    -0.246 OA
BRANCH  35  37
ATOM     37  C   UNL     1       5.069  -1.283  -3.465  1.00  0.00     0.060 A 
ATOM     38  C   UNL     1       4.913  -0.535  -4.638  1.00  0.00     0.016 A 
ATOM     39  C   UNL     1       4.897  -0.701  -2.198  1.00  0.00     0.016 A 
ATOM     40  C   UNL     1       4.731   0.835  -4.527  1.00  0.00     0.010 A 
ATOM     41  C   UNL     1       4.694   0.643  -2.089  1.00  0.00     0.010 A 
ATOM     42  C   UNL     1       4.709   1.403  -3.250  1.00  0.00    -0.014 A 
BRANCH  42  43
ATOM     43  C   UNL     1       4.750   2.836  -3.065  1.00  0.00     0.031 A 
ATOM     44  C   UNL     1       3.430   3.498  -3.192  1.00  0.00     0.074 A 
ATOM     45  C   UNL     1       5.875   3.400  -2.573  1.00  0.00     0.049 A 
ATOM     46  N   UNL     1       3.029   4.269  -4.145  1.00  0.00    -0.248 NA
ATOM     47  C   UNL     1       2.356   3.112  -2.256  1.00  0.00     0.031 C 
ATOM     48  C   UNL     1       7.102   2.730  -2.114  1.00  0.00     0.029 A 
ATOM     49  N   UNL     1       6.122   4.693  -2.258  1.00  0.00    -0.354 N 
ATOM     50  C   UNL     1       1.755   4.691  -3.775  1.00  0.00     0.074 A 
ATOM     51  C   UNL     1       1.311   3.769  -2.763  1.00  0.00     0.031 C 
ATOM     52  C   UNL     1       7.832   3.588  -1.362  1.00  0.00     0.029 A 
ATOM     53  C   UNL     1       7.206   4.897  -1.409  1.00  0.00     0.049 A 
ATOM     54  H   UNL     1       5.574   5.435  -2.603  1.00  0.00     0.167 HD
ATOM     55  C   UNL     1       1.314   5.941  -4.094  1.00  0.00     0.031 A 
ATOM     56  C   UNL     1       7.521   6.050  -0.758  1.00  0.00     0.031 A 
ATOM     57  C   UNL     1       2.170   6.551  -5.083  1.00  0.00     0.049 A 
ATOM     58  C   UNL     1       6.790   7.142  -1.455  1.00  0.00     0.074 A 
ATOM     59  C   UNL     1       2.559   6.231  -6.368  1.00  0.00     0.029 A 
ATOM     60  N   UNL     1       3.099   7.454  -4.615  1.00  0.00    -0.354 N 
ATOM     61  N   UNL     1       7.036   7.481  -2.692  1.00  0.00    -0.248 NA
ATOM     62  C   UNL     1       5.459   7.477  -0.971  1.00  0.00     0.031 C 
ATOM     63  C   UNL     1       3.941   6.577  -6.426  1.00  0.00     0.029 A 
ATOM     64  C   UNL     1       4.297   7.179  -5.217  1.00  0.00     0.049 A 
ATOM     65  H   UNL     1       2.930   8.172  -3.963  1.00  0.00     0.167 HD
ATOM     66  C   UNL     1       5.785   7.659  -3.269  1.00  0.00     0.074 A 
ATOM     67  C   UNL     1       4.853   7.717  -2.139  1.00  0.00     0.031 C 
ATOM     68  C   UNL     1       5.583   7.433  -4.602  1.00  0.00     0.031 A 
BRANCH  55  69
ATOM     69  C   UNL     1       0.442   6.785  -3.188  1.00  0.00    -0.014 A 
ATOM     70  C   UNL     1       0.152   8.104  -3.599  1.00  0.00     0.010 A 
ATOM     71  C   UNL     1       0.161   6.463  -1.845  1.00  0.00     0.010 A 
ATOM     72  C   UNL     1      -0.265   9.078  -2.685  1.00  0.00     0.020 A 
ATOM     73  C   UNL     1      -0.298   7.416  -0.933  1.00  0.00     0.020 A 
ATOM     74  C   UNL     1      -0.464   8.729  -1.351  1.00  0.00     0.054 A 
BRANCH  74  75
ATOM     75  S   UNL     1      -0.875  10.021  -0.155  1.00  0.00     0.124 S 
ATOM     76  O   UNL     1       0.343  10.825  -0.155  1.00  0.00    -0.237 OA
ATOM     77  O   UNL     1      -2.047  10.641  -0.766  1.00  0.00    -0.237 OA
ATOM     78  O   UNL     1      -1.138   9.276   1.074  1.00  0.00    -0.744 OA
ENDBRANCH  74  75
ENDBRANCH  55  69
BRANCH  56  79
ATOM     79  C   UNL     1       8.080   6.201   0.616  1.00  0.00    -0.014 A 
ATOM     80  C   UNL     1       8.580   7.433   1.084  1.00  0.00     0.010 A 
ATOM     81  C   UNL     1       7.859   5.190   1.575  1.00  0.00     0.010 A 
ATOM     82  C   UNL     1       8.797   7.660   2.459  1.00  0.00     0.020 A 
ATOM     83  C   UNL     1       8.074   5.406   2.943  1.00  0.00     0.020 A 
ATOM     84  C   UNL     1       8.521   6.648   3.384  1.00  0.00     0.054 A 
BRANCH  84  85
ATOM     85  S   UNL     1       8.633   6.994   5.168  1.00  0.00     0.124 S 
ATOM     86  O   UNL     1      10.072   7.127   5.372  1.00  0.00    -0.237 OA
ATOM     87  O   UNL     1       7.858   8.224   5.306  1.00  0.00    -0.237 OA
ATOM     88  O   UNL     1       8.027   5.814   5.785  1.00  0.00    -0.744 OA
ENDBRANCH  84  85
ENDBRANCH  56  79
BRANCH  68  89
ATOM     89  C   UNL     1       6.787   7.239  -5.495  1.00  0.00    -0.014 A 
ATOM     90  C   UNL     1       7.684   6.155  -5.398  1.00  0.00     0.010 A 
ATOM     91  C   UNL     1       6.907   8.111  -6.590  1.00  0.00     0.010 A 
ATOM     92  C   UNL     1       8.688   5.969  -6.363  1.00  0.00     0.020 A 
ATOM     93  C   UNL     1       7.891   7.922  -7.560  1.00  0.00     0.020 A 
ATOM     94  C   UNL     1       8.786   6.859  -7.438  1.00  0.00     0.054 A 
BRANCH  94  95
ATOM     95  S   UNL     1      10.066   6.612  -8.700  1.00  0.00     0.124 S 
ATOM     96  O   UNL     1      11.295   6.893  -7.965  1.00  0.00    -0.237 OA
ATOM     97  O   UNL     1       9.871   5.218  -9.092  1.00  0.00    -0.237 OA
ATOM     98  O   UNL     1       9.728   7.589  -9.735  1.00  0.00    -0.744 OA
ENDBRANCH  94  95
ENDBRANCH  68  89
ENDBRANCH  42  43
ENDBRANCH  35  37
ENDBRANCH  34  35
ENDBRANCH   1  34
TORSDOF 18
