REMARK SMILES COC[C@H](C)CNC(=O)N[C@@H]1CCCCC[C@@H]1C(=O)OCCOC(=O)c1ccc(-c2c3nc(c(-c4ccc(S(=O)(=O)[O-])cc4)c4ccc([nH]4)c(-c4ccc(S(=O)(=O)[O-])cc4)c4nc(c(-c5ccc(S(=O)(=O)[O-])cc5)c5ccc2[nH]5)C=C4)C=C3)cc1
REMARK SMILES IDX 20 1 18 2 19 3 17 4 11 5 10 6 7 7 8 8 9 10 6 12 4 13 5 14
REMARK SMILES IDX 3 15 2 16 1 17 12 18 13 19 14 20 16 22 15 23 21 25 22 26
REMARK SMILES IDX 23 27 24 28 25 29 26 30 27 31 85 32 28 33 84 34 29 35 30 36
REMARK SMILES IDX 31 37 78 38 32 39 83 40 77 41 79 42 33 43 82 44 76 45 75 46
REMARK SMILES IDX 34 48 64 49 45 50 63 51 46 52 49 53 62 54 80 55 47 56 48 57
REMARK SMILES IDX 61 59 81 60 50 61 35 62 36 63 44 64 37 65 43 66 38 67 39 68
REMARK SMILES IDX 40 69 41 70 42 71 65 72 66 73 74 74 67 75 73 76 68 77 69 78
REMARK SMILES IDX 70 79 71 80 72 81 51 82 52 83 60 84 53 85 59 86 54 87 55 88
REMARK SMILES IDX 56 89 57 90 58 91
REMARK H PARENT 7 9 10 11 79 47 49 58
REMARK Flexibility Score: 100.00
ROOT
ATOM      1  O   UNL     1       2.058   2.094  -8.804  1.00  0.00    -0.462 OA
ENDROOT
BRANCH   1   2
ATOM      2  C   UNL     1       0.737   2.014  -8.479  1.00  0.00     0.311 C 
ATOM      3  O   UNL     1      -0.087   1.294  -9.023  1.00  0.00    -0.252 OA
BRANCH   2   4
ATOM      4  C   UNL     1       0.429   3.022  -7.386  1.00  0.00     0.121 C 
BRANCH   4   5
ATOM      5  C   UNL     1      -0.448   2.481  -6.224  1.00  0.00     0.098 C 
BRANCH   5   6
ATOM      6  N   UNL     1      -0.976   1.131  -6.393  1.00  0.00    -0.335 N 
ATOM      7  N   UNL     1      -1.259   0.343  -4.176  1.00  0.00    -0.338 N 
ATOM      8  C   UNL     1      -1.429   0.221  -5.507  1.00  0.00     0.315 C 
ATOM      9  H   UNL     1      -1.788  -0.294  -3.643  1.00  0.00     0.165 HD
ATOM     10  O   UNL     1      -2.011  -0.773  -5.938  1.00  0.00    -0.249 OA
ATOM     11  H   UNL     1      -1.006   0.827  -7.330  1.00  0.00     0.165 HD
BRANCH   7  12
ATOM     12  C   UNL     1      -0.439   1.240  -3.384  1.00  0.00     0.123 C 
BRANCH  12  13
ATOM     13  C   UNL     1      -0.420   0.948  -1.879  1.00  0.00     0.031 C 
ATOM     14  C   UNL     1       0.291  -0.363  -1.591  1.00  0.00     0.012 C 
BRANCH  13  15
ATOM     15  C   UNL     1       0.286   2.116  -1.168  1.00  0.00     0.164 C 
BRANCH  15  16
ATOM     16  O   UNL     1       0.581   1.885   0.205  1.00  0.00    -0.384 OA
ATOM     17  C   UNL     1      -0.564   1.685   1.020  1.00  0.00     0.194 C 
ENDBRANCH  15  16
ENDBRANCH  13  15
ENDBRANCH  12  13
ENDBRANCH   7  12
ENDBRANCH   5   6
BRANCH   5  18
ATOM     18  C   UNL     1      -1.595   3.409  -5.787  1.00  0.00     0.026 C 
BRANCH  18  19
ATOM     19  C   UNL     1      -1.088   4.696  -5.143  1.00  0.00     0.002 C 
BRANCH  19  20
ATOM     20  C   UNL     1      -0.880   5.821  -6.143  1.00  0.00     0.000 CG0
ATOM     21  G   UNL     1       0.195   5.562  -7.191  1.00  0.00     0.000 G0
ENDBRANCH  19  20
ENDBRANCH  18  19
ENDBRANCH   5  18
ENDBRANCH   4   5
BRANCH   4  22
ATOM     22  C   UNL     1      -0.032   4.324  -8.060  1.00  0.00     0.017 C 
BRANCH  22  23
ATOM     23  C   UNL     1       0.195   5.562  -7.191  1.00  0.00     0.001 CG0
ATOM     24  G   UNL     1      -0.880   5.821  -6.143  1.00  0.00     0.000 G0
ENDBRANCH  22  23
ENDBRANCH   4  22
ENDBRANCH   2   4
ENDBRANCH   1   2
BRANCH   1  25
ATOM     25  C   UNL     1       2.566   1.151  -9.765  1.00  0.00     0.274 C 
BRANCH  25  26
ATOM     26  C   UNL     1       3.818   0.514  -9.169  1.00  0.00     0.275 C 
BRANCH  26  27
ATOM     27  O   UNL     1       3.413  -0.305  -8.057  1.00  0.00    -0.458 OA
BRANCH  27  28
ATOM     28  C   UNL     1       4.116  -0.164  -6.908  1.00  0.00     0.338 C 
ATOM     29  O   UNL     1       5.101   0.528  -6.726  1.00  0.00    -0.246 OA
BRANCH  28  30
ATOM     30  C   UNL     1       3.500  -1.015  -5.870  1.00  0.00     0.060 A 
ATOM     31  C   UNL     1       2.129  -0.955  -5.651  1.00  0.00     0.016 A 
ATOM     32  C   UNL     1       4.295  -1.834  -5.063  1.00  0.00     0.016 A 
ATOM     33  C   UNL     1       1.574  -1.675  -4.594  1.00  0.00     0.010 A 
ATOM     34  C   UNL     1       3.710  -2.615  -4.049  1.00  0.00     0.010 A 
ATOM     35  C   UNL     1       2.338  -2.525  -3.770  1.00  0.00    -0.014 A 
BRANCH  35  36
ATOM     36  C   UNL     1       1.691  -3.211  -2.593  1.00  0.00     0.031 A 
ATOM     37  C   UNL     1       2.199  -2.988  -1.177  1.00  0.00     0.074 A 
ATOM     38  C   UNL     1       0.518  -3.873  -2.734  1.00  0.00     0.049 A 
ATOM     39  N   UNL     1       1.726  -3.461  -0.046  1.00  0.00    -0.248 NA
ATOM     40  C   UNL     1       3.344  -2.080  -1.000  1.00  0.00     0.031 C 
ATOM     41  C   UNL     1      -0.196  -4.072  -3.996  1.00  0.00     0.029 A 
ATOM     42  N   UNL     1      -0.326  -4.427  -1.794  1.00  0.00    -0.354 N 
ATOM     43  C   UNL     1       2.522  -2.926   0.963  1.00  0.00     0.074 A 
ATOM     44  C   UNL     1       3.511  -2.093   0.314  1.00  0.00     0.031 C 
ATOM     45  C   UNL     1      -1.405  -4.593  -3.743  1.00  0.00     0.029 A 
ATOM     46  C   UNL     1      -1.503  -4.911  -2.322  1.00  0.00     0.049 A 
ATOM     47  H   UNL     1      -0.108  -4.472  -0.836  1.00  0.00     0.167 HD
ATOM     48  C   UNL     1       2.448  -3.100   2.306  1.00  0.00     0.031 A 
ATOM     49  C   UNL     1      -2.529  -5.588  -1.764  1.00  0.00     0.031 A 
ATOM     50  C   UNL     1       1.475  -3.915   2.984  1.00  0.00     0.049 A 
ATOM     51  C   UNL     1      -2.476  -5.951  -0.308  1.00  0.00     0.074 A 
ATOM     52  C   UNL     1       1.382  -4.195   4.338  1.00  0.00     0.029 A 
ATOM     53  N   UNL     1       0.434  -4.585   2.368  1.00  0.00    -0.354 N 
ATOM     54  N   UNL     1      -1.643  -5.533   0.613  1.00  0.00    -0.248 NA
ATOM     55  C   UNL     1      -3.470  -6.923   0.174  1.00  0.00     0.031 C 
ATOM     56  C   UNL     1       0.326  -5.094   4.529  1.00  0.00     0.029 A 
ATOM     57  C   UNL     1      -0.272  -5.326   3.303  1.00  0.00     0.049 A 
ATOM     58  H   UNL     1       0.224  -4.541   1.407  1.00  0.00     0.167 HD
ATOM     59  C   UNL     1      -1.990  -6.218   1.773  1.00  0.00     0.074 A 
ATOM     60  C   UNL     1      -3.138  -7.040   1.453  1.00  0.00     0.031 C 
ATOM     61  C   UNL     1      -1.388  -6.180   2.987  1.00  0.00     0.031 A 
BRANCH  48  62
ATOM     62  C   UNL     1       3.527  -2.463   3.141  1.00  0.00    -0.014 A 
ATOM     63  C   UNL     1       3.501  -1.098   3.474  1.00  0.00     0.010 A 
ATOM     64  C   UNL     1       4.573  -3.271   3.625  1.00  0.00     0.010 A 
ATOM     65  C   UNL     1       4.527  -0.545   4.248  1.00  0.00     0.020 A 
ATOM     66  C   UNL     1       5.588  -2.726   4.413  1.00  0.00     0.020 A 
ATOM     67  C   UNL     1       5.568  -1.361   4.705  1.00  0.00     0.054 A 
BRANCH  67  68
ATOM     68  S   UNL     1       6.893  -0.620   5.698  1.00  0.00     0.124 S 
ATOM     69  O   UNL     1       7.617   0.163   4.699  1.00  0.00    -0.237 OA
ATOM     70  O   UNL     1       6.155   0.156   6.691  1.00  0.00    -0.237 OA
ATOM     71  O   UNL     1       7.619  -1.773   6.227  1.00  0.00    -0.744 OA
ENDBRANCH  67  68
ENDBRANCH  48  62
BRANCH  49  72
ATOM     72  C   UNL     1      -3.627  -6.103  -2.635  1.00  0.00    -0.014 A 
ATOM     73  C   UNL     1      -4.952  -5.657  -2.497  1.00  0.00     0.010 A 
ATOM     74  C   UNL     1      -3.327  -7.047  -3.637  1.00  0.00     0.010 A 
ATOM     75  C   UNL     1      -5.949  -6.129  -3.360  1.00  0.00     0.020 A 
ATOM     76  C   UNL     1      -4.309  -7.490  -4.522  1.00  0.00     0.020 A 
ATOM     77  C   UNL     1      -5.618  -7.035  -4.374  1.00  0.00     0.054 A 
BRANCH  77  78
ATOM     78  S   UNL     1      -6.893  -7.571  -5.548  1.00  0.00     0.124 S 
ATOM     79  O   UNL     1      -7.571  -8.623  -4.799  1.00  0.00    -0.237 OA
ATOM     80  O   UNL     1      -7.666  -6.351  -5.766  1.00  0.00    -0.237 OA
ATOM     81  O   UNL     1      -6.120  -8.022  -6.704  1.00  0.00    -0.744 OA
ENDBRANCH  77  78
ENDBRANCH  49  72
BRANCH  61  82
ATOM     82  C   UNL     1      -1.922  -7.088   4.062  1.00  0.00    -0.014 A 
ATOM     83  C   UNL     1      -1.665  -8.470   4.016  1.00  0.00     0.010 A 
ATOM     84  C   UNL     1      -2.632  -6.560   5.155  1.00  0.00     0.010 A 
ATOM     85  C   UNL     1      -2.124  -9.311   5.035  1.00  0.00     0.020 A 
ATOM     86  C   UNL     1      -3.074  -7.395   6.187  1.00  0.00     0.020 A 
ATOM     87  C   UNL     1      -2.825  -8.768   6.115  1.00  0.00     0.054 A 
BRANCH  87  88
ATOM     88  S   UNL     1      -3.364  -9.873   7.450  1.00  0.00     0.124 S 
ATOM     89  O   UNL     1      -4.489 -10.570   6.832  1.00  0.00    -0.237 OA
ATOM     90  O   UNL     1      -2.177 -10.688   7.693  1.00  0.00    -0.237 OA
ATOM     91  O   UNL     1      -3.717  -8.959   8.534  1.00  0.00    -0.744 OA
ENDBRANCH  87  88
ENDBRANCH  61  82
ENDBRANCH  35  36
ENDBRANCH  28  30
ENDBRANCH  27  28
ENDBRANCH  26  27
ENDBRANCH  25  26
ENDBRANCH   1  25
TORSDOF 19
