REMARK SMILES Cc1nsc(NC(=O)[C@@H]2C[NH2+]C[C@H]2C)c1C(=O)OCCOC(=O)c1ccc(-c2c3nc(c(-c4ccc(S(=O)(=O)[O-])cc4)c4ccc([nH]4)c(-c4ccc(S(=O)(=O)[O-])cc4)c4nc(c(-c5ccc(S(=O)(=O)[O-])cc5)c5ccc2[nH]5)C=C4)C=C3)cc1
REMARK SMILES IDX 20 1 19 2 18 3 16 4 17 5 15 6 1 7 2 8 3 9 4 10 5 11 6 12
REMARK SMILES IDX 7 13 8 15 9 16 10 17 13 18 11 19 12 20 14 21 21 24 22 25
REMARK SMILES IDX 23 26 24 27 25 28 83 29 26 30 82 31 27 32 28 33 29 34 76 35
REMARK SMILES IDX 30 36 81 37 75 38 77 39 31 40 80 41 74 42 73 43 32 45 62 46
REMARK SMILES IDX 43 47 61 48 44 49 47 50 60 51 78 52 45 53 46 54 59 56 79 57
REMARK SMILES IDX 48 58 33 59 34 60 42 61 35 62 41 63 36 64 37 65 38 66 39 67
REMARK SMILES IDX 40 68 63 69 64 70 72 71 65 72 71 73 66 74 67 75 68 76 69 77
REMARK SMILES IDX 70 78 49 79 50 80 58 81 51 82 57 83 52 84 53 85 54 86 55 87
REMARK SMILES IDX 56 88
REMARK H PARENT 6 14 11 22 11 23 77 44 47 55
REMARK Flexibility Score: inf
ROOT
ATOM      1  C   UNL     1       3.298   3.544   1.943  1.00  0.00     0.275 C 
ENDROOT
BRANCH   1   2
ATOM      2  C   UNL     1       1.863   3.171   2.293  1.00  0.00     0.275 C 
BRANCH   2   3
ATOM      3  O   UNL     1       1.279   2.344   1.272  1.00  0.00    -0.458 OA
BRANCH   3   4
ATOM      4  C   UNL     1       0.632   2.982   0.255  1.00  0.00     0.343 C 
ATOM      5  O   UNL     1       0.360   4.181   0.264  1.00  0.00    -0.246 OA
BRANCH   4   6
ATOM      6  C   UNL     1       0.351   2.116  -0.883  1.00  0.00     0.117 A 
ATOM      7  C   UNL     1       0.842  -0.244   0.174  1.00  0.00     0.069 C 
ATOM      8  C   UNL     1       0.420   0.670  -0.925  1.00  0.00     0.068 A 
ATOM      9  N   UNL     1       0.091   0.105  -2.087  1.00  0.00    -0.195 NA
ATOM     10  S   UNL     1      -0.147   1.290  -3.199  1.00  0.00    -0.017 S 
ATOM     11  C   UNL     1       0.069   2.604  -2.158  1.00  0.00     0.130 A 
BRANCH  11  12
ATOM     12  N   UNL     1       0.154   3.914  -2.602  1.00  0.00    -0.315 N 
ATOM     13  C   UNL     1      -0.034   4.459  -3.844  1.00  0.00     0.234 C 
ATOM     14  H   UNL     1       0.390   4.566  -1.903  1.00  0.00     0.170 HD
ATOM     15  O   UNL     1       0.810   5.270  -4.234  1.00  0.00    -0.274 OA
BRANCH  13  16
ATOM     16  C   UNL     1      -1.373   4.286  -4.575  1.00  0.00     0.142 C 
ATOM     17  C   UNL     1      -1.458   3.057  -5.477  1.00  0.00     0.274 C 
ATOM     18  C   UNL     1      -1.639   5.466  -5.555  1.00  0.00     0.059 C 
ATOM     19  N   UNL     1      -2.088   3.483  -6.734  1.00  0.00    -0.345 N 
ATOM     20  C   UNL     1      -1.538   4.824  -6.937  1.00  0.00     0.264 C 
ATOM     21  C   UNL     1      -3.018   6.092  -5.325  1.00  0.00     0.015 C 
ATOM     22  H   UNL     1      -3.103   3.512  -6.644  1.00  0.00     0.346 HD
ATOM     23  H   UNL     1      -1.902   2.850  -7.512  1.00  0.00     0.346 HD
ENDBRANCH  13  16
ENDBRANCH  11  12
ENDBRANCH   4   6
ENDBRANCH   3   4
ENDBRANCH   2   3
ENDBRANCH   1   2
BRANCH   1  24
ATOM     24  O   UNL     1       3.359   4.620   1.005  1.00  0.00    -0.458 OA
BRANCH  24  25
ATOM     25  C   UNL     1       3.458   4.239  -0.288  1.00  0.00     0.338 C 
ATOM     26  O   UNL     1       3.154   3.157  -0.759  1.00  0.00    -0.246 OA
BRANCH  25  27
ATOM     27  C   UNL     1       4.149   5.274  -1.055  1.00  0.00     0.060 A 
ATOM     28  C   UNL     1       4.023   5.257  -2.445  1.00  0.00     0.016 A 
ATOM     29  C   UNL     1       5.078   6.099  -0.406  1.00  0.00     0.016 A 
ATOM     30  C   UNL     1       4.913   5.998  -3.198  1.00  0.00     0.010 A 
ATOM     31  C   UNL     1       5.956   6.846  -1.161  1.00  0.00     0.010 A 
ATOM     32  C   UNL     1       5.908   6.742  -2.550  1.00  0.00    -0.014 A 
BRANCH  32  33
ATOM     33  C   UNL     1       6.837   7.499  -3.375  1.00  0.00     0.031 A 
ATOM     34  C   UNL     1       6.189   8.533  -4.221  1.00  0.00     0.074 A 
ATOM     35  C   UNL     1       8.173   7.366  -3.277  1.00  0.00     0.049 A 
ATOM     36  N   UNL     1       6.218   8.644  -5.507  1.00  0.00    -0.248 NA
ATOM     37  C   UNL     1       5.285   9.485  -3.551  1.00  0.00     0.031 C 
ATOM     38  C   UNL     1       8.921   6.569  -2.298  1.00  0.00     0.029 A 
ATOM     39  N   UNL     1       9.154   8.024  -3.956  1.00  0.00    -0.354 N 
ATOM     40  C   UNL     1       5.489   9.791  -5.801  1.00  0.00     0.074 A 
ATOM     41  C   UNL     1       4.816  10.177  -4.588  1.00  0.00     0.031 C 
ATOM     42  C   UNL     1      10.208   6.979  -2.283  1.00  0.00     0.029 A 
ATOM     43  C   UNL     1      10.398   7.952  -3.345  1.00  0.00     0.049 A 
ATOM     44  H   UNL     1       8.995   8.505  -4.800  1.00  0.00     0.167 HD
ATOM     45  C   UNL     1       5.685  10.488  -6.952  1.00  0.00     0.031 A 
ATOM     46  C   UNL     1      11.496   8.686  -3.643  1.00  0.00     0.031 A 
ATOM     47  C   UNL     1       6.374   9.710  -7.945  1.00  0.00     0.049 A 
ATOM     48  C   UNL     1      11.334   9.196  -5.022  1.00  0.00     0.074 A 
ATOM     49  C   UNL     1       6.075   8.599  -8.703  1.00  0.00     0.029 A 
ATOM     50  N   UNL     1       7.736   9.873  -7.989  1.00  0.00    -0.354 N 
ATOM     51  N   UNL     1      11.301   8.421  -6.070  1.00  0.00    -0.248 NA
ATOM     52  C   UNL     1      10.830  10.546  -5.237  1.00  0.00     0.031 C 
ATOM     53  C   UNL     1       7.316   7.924  -8.895  1.00  0.00     0.029 A 
ATOM     54  C   UNL     1       8.323   8.665  -8.270  1.00  0.00     0.049 A 
ATOM     55  H   UNL     1       8.215  10.720  -7.842  1.00  0.00     0.167 HD
ATOM     56  C   UNL     1      10.399   9.025  -6.930  1.00  0.00     0.074 A 
ATOM     57  C   UNL     1      10.275  10.393  -6.443  1.00  0.00     0.031 C 
ATOM     58  C   UNL     1       9.630   8.277  -7.774  1.00  0.00     0.031 A 
BRANCH  45  59
ATOM     59  C   UNL     1       5.661  11.997  -6.997  1.00  0.00    -0.014 A 
ATOM     60  C   UNL     1       5.826  12.650  -8.234  1.00  0.00     0.010 A 
ATOM     61  C   UNL     1       5.789  12.787  -5.833  1.00  0.00     0.010 A 
ATOM     62  C   UNL     1       6.169  14.009  -8.297  1.00  0.00     0.020 A 
ATOM     63  C   UNL     1       6.089  14.148  -5.886  1.00  0.00     0.020 A 
ATOM     64  C   UNL     1       6.316  14.742  -7.118  1.00  0.00     0.054 A 
BRANCH  64  65
ATOM     65  S   UNL     1       6.890  16.456  -7.198  1.00  0.00     0.124 S 
ATOM     66  O   UNL     1       8.252  16.293  -7.695  1.00  0.00    -0.237 OA
ATOM     67  O   UNL     1       5.940  17.058  -8.130  1.00  0.00    -0.237 OA
ATOM     68  O   UNL     1       6.778  16.919  -5.816  1.00  0.00    -0.744 OA
ENDBRANCH  64  65
ENDBRANCH  45  59
BRANCH  46  69
ATOM     69  C   UNL     1      12.522   9.182  -2.697  1.00  0.00    -0.014 A 
ATOM     70  C   UNL     1      13.785   9.616  -3.135  1.00  0.00     0.010 A 
ATOM     71  C   UNL     1      12.158   9.459  -1.362  1.00  0.00     0.010 A 
ATOM     72  C   UNL     1      14.635  10.336  -2.278  1.00  0.00     0.020 A 
ATOM     73  C   UNL     1      13.000  10.169  -0.501  1.00  0.00     0.020 A 
ATOM     74  C   UNL     1      14.230  10.622  -0.970  1.00  0.00     0.054 A 
BRANCH  74  75
ATOM     75  S   UNL     1      15.268  11.678   0.083  1.00  0.00     0.124 S 
ATOM     76  O   UNL     1      16.420  10.819   0.344  1.00  0.00    -0.237 OA
ATOM     77  O   UNL     1      15.521  12.832  -0.776  1.00  0.00    -0.237 OA
ATOM     78  O   UNL     1      14.421  11.947   1.244  1.00  0.00    -0.744 OA
ENDBRANCH  74  75
ENDBRANCH  46  69
BRANCH  58  79
ATOM     79  C   UNL     1      10.057   6.850  -8.027  1.00  0.00    -0.014 A 
ATOM     80  C   UNL     1      10.060   5.851  -7.033  1.00  0.00     0.010 A 
ATOM     81  C   UNL     1      10.353   6.481  -9.350  1.00  0.00     0.010 A 
ATOM     82  C   UNL     1      10.378   4.523  -7.354  1.00  0.00     0.020 A 
ATOM     83  C   UNL     1      10.653   5.157  -9.679  1.00  0.00     0.020 A 
ATOM     84  C   UNL     1      10.674   4.185  -8.678  1.00  0.00     0.054 A 
BRANCH  84  85
ATOM     85  S   UNL     1      11.037   2.457  -9.097  1.00  0.00     0.124 S 
ATOM     86  O   UNL     1      12.346   2.248  -8.483  1.00  0.00    -0.237 OA
ATOM     87  O   UNL     1       9.930   1.731  -8.479  1.00  0.00    -0.237 OA
ATOM     88  O   UNL     1      11.033   2.445 -10.560  1.00  0.00    -0.744 OA
ENDBRANCH  84  85
ENDBRANCH  58  79
ENDBRANCH  32  33
ENDBRANCH  25  27
ENDBRANCH  24  25
ENDBRANCH   1  24
TORSDOF 16
