REMARK SMILES COCC[C@@H](C)NC(=O)N1Cc2nc[nH]c2C[C@@H]1C(=O)OCCOC(=O)c1ccc(-c2c3nc(c(-c4ccc(S(=O)(=O)[O-])cc4)c4ccc([nH]4)c(-c4ccc(S(=O)(=O)[O-])cc4)c4nc(c(-c5ccc(S(=O)(=O)[O-])cc5)c5ccc2[nH]5)C=C4)C=C3)cc1
REMARK SMILES IDX 22 1 21 2 19 3 20 4 18 5 10 6 11 7 12 8 17 9 13 10 16 11
REMARK SMILES IDX 14 12 15 13 8 15 7 16 9 18 5 19 6 20 4 21 3 22 2 23 1 24
REMARK SMILES IDX 23 25 24 26 25 27 26 28 27 29 28 30 86 31 29 32 85 33 30 34
REMARK SMILES IDX 31 35 32 36 79 37 33 38 84 39 78 40 80 41 34 42 83 43 77 44
REMARK SMILES IDX 76 45 35 47 65 48 46 49 64 50 47 51 50 52 63 53 81 54 48 55
REMARK SMILES IDX 49 56 62 58 82 59 51 60 36 61 37 62 45 63 38 64 44 65 39 66
REMARK SMILES IDX 40 67 41 68 42 69 43 70 66 71 67 72 75 73 68 74 74 75 69 76
REMARK SMILES IDX 70 77 71 78 72 79 73 80 52 81 53 82 61 83 54 84 60 85 55 86
REMARK SMILES IDX 56 87 57 88 58 89 59 90
REMARK H PARENT 15 14 7 17 80 46 50 57
REMARK Flexibility Score: inf
ROOT
ATOM      1  C   UNL     1       3.887  -1.729   0.484  1.00  0.00     0.274 C 
ENDROOT
BRANCH   1   2
ATOM      2  O   UNL     1       2.445  -1.887   0.399  1.00  0.00    -0.461 OA
BRANCH   2   3
ATOM      3  C   UNL     1       2.020  -2.945  -0.325  1.00  0.00     0.329 C 
ATOM      4  O   UNL     1       2.820  -3.592  -1.007  1.00  0.00    -0.250 OA
BRANCH   3   5
ATOM      5  C   UNL     1       0.466  -3.145  -0.466  1.00  0.00     0.203 C 
ATOM      6  N   UNL     1      -0.753  -2.953   0.458  1.00  0.00    -0.305 N 
ATOM      7  C   UNL     1      -2.107  -3.277  -0.097  1.00  0.00     0.180 C 
ATOM      8  C   UNL     1      -2.069  -4.336  -1.142  1.00  0.00     0.081 A 
ATOM      9  C   UNL     1       0.431  -4.459  -1.316  1.00  0.00     0.093 C 
ATOM     10  N   UNL     1      -3.158  -4.952  -1.714  1.00  0.00    -0.240 NA
ATOM     11  C   UNL     1      -0.925  -4.834  -1.691  1.00  0.00     0.042 A 
ATOM     12  C   UNL     1      -2.658  -5.815  -2.576  1.00  0.00     0.197 A 
ATOM     13  N   UNL     1      -1.293  -5.755  -2.620  1.00  0.00    -0.348 N 
ATOM     14  H   UNL     1      -0.697  -6.274  -3.207  1.00  0.00     0.167 HD
BRANCH   6  15
ATOM     15  C   UNL     1      -0.787  -3.008   1.835  1.00  0.00     0.318 C 
ATOM     16  N   UNL     1      -0.619  -1.833   2.522  1.00  0.00    -0.335 N 
ATOM     17  H   UNL     1      -0.980  -1.815   3.438  1.00  0.00     0.165 HD
ATOM     18  O   UNL     1      -1.257  -3.966   2.448  1.00  0.00    -0.249 OA
BRANCH  16  19
ATOM     19  C   UNL     1       0.022  -0.615   2.073  1.00  0.00     0.083 C 
ATOM     20  C   UNL     1       1.448  -0.632   2.575  1.00  0.00     0.031 C 
BRANCH  19  21
ATOM     21  C   UNL     1      -0.597   0.700   2.544  1.00  0.00     0.053 C 
BRANCH  21  22
ATOM     22  C   UNL     1       0.041   1.901   1.822  1.00  0.00     0.162 C 
BRANCH  22  23
ATOM     23  O   UNL     1      -0.277   1.923   0.428  1.00  0.00    -0.385 OA
ATOM     24  C   UNL     1       0.732   1.420  -0.439  1.00  0.00     0.194 C 
ENDBRANCH  22  23
ENDBRANCH  21  22
ENDBRANCH  19  21
ENDBRANCH  16  19
ENDBRANCH   6  15
ENDBRANCH   3   5
ENDBRANCH   2   3
ENDBRANCH   1   2
BRANCH   1  25
ATOM     25  C   UNL     1       4.421  -1.890   1.916  1.00  0.00     0.275 C 
BRANCH  25  26
ATOM     26  O   UNL     1       4.365  -3.225   2.466  1.00  0.00    -0.458 OA
BRANCH  26  27
ATOM     27  C   UNL     1       3.150  -3.795   2.673  1.00  0.00     0.338 C 
ATOM     28  O   UNL     1       2.628  -4.547   1.875  1.00  0.00    -0.246 OA
BRANCH  27  29
ATOM     29  C   UNL     1       2.529  -3.470   3.991  1.00  0.00     0.060 A 
ATOM     30  C   UNL     1       1.238  -3.955   4.229  1.00  0.00     0.016 A 
ATOM     31  C   UNL     1       3.143  -2.657   4.948  1.00  0.00     0.016 A 
ATOM     32  C   UNL     1       0.536  -3.580   5.370  1.00  0.00     0.010 A 
ATOM     33  C   UNL     1       2.466  -2.324   6.121  1.00  0.00     0.010 A 
ATOM     34  C   UNL     1       1.161  -2.784   6.338  1.00  0.00    -0.014 A 
BRANCH  34  35
ATOM     35  C   UNL     1       0.604  -2.816   7.704  1.00  0.00     0.031 A 
ATOM     36  C   UNL     1       0.476  -4.227   8.222  1.00  0.00     0.074 A 
ATOM     37  C   UNL     1       0.488  -1.736   8.508  1.00  0.00     0.049 A 
ATOM     38  N   UNL     1      -0.554  -4.819   8.736  1.00  0.00    -0.248 NA
ATOM     39  C   UNL     1       1.615  -5.142   7.975  1.00  0.00     0.031 C 
ATOM     40  C   UNL     1       0.869  -0.355   8.203  1.00  0.00     0.029 A 
ATOM     41  N   UNL     1       0.165  -1.661   9.834  1.00  0.00    -0.354 N 
ATOM     42  C   UNL     1      -0.133  -6.114   9.048  1.00  0.00     0.074 A 
ATOM     43  C   UNL     1       1.125  -6.310   8.383  1.00  0.00     0.031 C 
ATOM     44  C   UNL     1       1.047   0.324   9.360  1.00  0.00     0.029 A 
ATOM     45  C   UNL     1       0.687  -0.536  10.477  1.00  0.00     0.049 A 
ATOM     46  H   UNL     1      -0.385  -2.337  10.293  1.00  0.00     0.167 HD
ATOM     47  C   UNL     1      -0.705  -6.851  10.040  1.00  0.00     0.031 A 
ATOM     48  C   UNL     1       0.913  -0.371  11.812  1.00  0.00     0.031 A 
ATOM     49  C   UNL     1      -2.008  -6.361  10.386  1.00  0.00     0.049 A 
ATOM     50  C   UNL     1       0.143  -1.425  12.522  1.00  0.00     0.074 A 
ATOM     51  C   UNL     1      -3.181  -6.162   9.684  1.00  0.00     0.029 A 
ATOM     52  N   UNL     1      -2.116  -5.604  11.528  1.00  0.00    -0.354 N 
ATOM     53  N   UNL     1      -1.159  -1.466  12.552  1.00  0.00    -0.248 NA
ATOM     54  C   UNL     1       0.819  -2.690  12.774  1.00  0.00     0.031 C 
ATOM     55  C   UNL     1      -3.682  -4.920  10.167  1.00  0.00     0.029 A 
ATOM     56  C   UNL     1      -2.844  -4.492  11.197  1.00  0.00     0.049 A 
ATOM     57  H   UNL     1      -1.741  -5.820  12.413  1.00  0.00     0.167 HD
ATOM     58  C   UNL     1      -1.469  -2.807  12.379  1.00  0.00     0.074 A 
ATOM     59  C   UNL     1      -0.208  -3.522  12.581  1.00  0.00     0.031 C 
ATOM     60  C   UNL     1      -2.646  -3.200  11.809  1.00  0.00     0.031 A 
BRANCH  47  61
ATOM     61  C   UNL     1       0.105  -7.722  10.976  1.00  0.00    -0.014 A 
ATOM     62  C   UNL     1      -0.562  -8.446  11.985  1.00  0.00     0.010 A 
ATOM     63  C   UNL     1       1.509  -7.623  11.088  1.00  0.00     0.010 A 
ATOM     64  C   UNL     1       0.134  -8.972  13.083  1.00  0.00     0.020 A 
ATOM     65  C   UNL     1       2.216  -8.180  12.153  1.00  0.00     0.020 A 
ATOM     66  C   UNL     1       1.519  -8.823  13.164  1.00  0.00     0.054 A 
BRANCH  66  67
ATOM     67  S   UNL     1       2.397  -9.422  14.627  1.00  0.00     0.124 S 
ATOM     68  O   UNL     1       1.870  -8.551  15.672  1.00  0.00    -0.237 OA
ATOM     69  O   UNL     1       1.972 -10.818  14.689  1.00  0.00    -0.237 OA
ATOM     70  O   UNL     1       3.804  -9.219  14.289  1.00  0.00    -0.744 OA
ENDBRANCH  66  67
ENDBRANCH  47  61
BRANCH  48  71
ATOM     71  C   UNL     1       2.033   0.360  12.481  1.00  0.00    -0.014 A 
ATOM     72  C   UNL     1       2.057   0.552  13.880  1.00  0.00     0.010 A 
ATOM     73  C   UNL     1       3.229   0.618  11.781  1.00  0.00     0.010 A 
ATOM     74  C   UNL     1       3.246   0.908  14.552  1.00  0.00     0.020 A 
ATOM     75  C   UNL     1       4.411   0.983  12.439  1.00  0.00     0.020 A 
ATOM     76  C   UNL     1       4.424   1.096  13.825  1.00  0.00     0.054 A 
BRANCH  76  77
ATOM     77  S   UNL     1       6.002   1.345  14.698  1.00  0.00     0.124 S 
ATOM     78  O   UNL     1       5.854   2.693  15.237  1.00  0.00    -0.237 OA
ATOM     79  O   UNL     1       5.997   0.266  15.682  1.00  0.00    -0.237 OA
ATOM     80  O   UNL     1       7.003   1.208  13.641  1.00  0.00    -0.744 OA
ENDBRANCH  76  77
ENDBRANCH  48  71
BRANCH  60  81
ATOM     81  C   UNL     1      -3.748  -2.190  11.612  1.00  0.00    -0.014 A 
ATOM     82  C   UNL     1      -3.619  -0.991  10.883  1.00  0.00     0.010 A 
ATOM     83  C   UNL     1      -5.023  -2.556  12.078  1.00  0.00     0.010 A 
ATOM     84  C   UNL     1      -4.733  -0.163  10.669  1.00  0.00     0.020 A 
ATOM     85  C   UNL     1      -6.137  -1.750  11.850  1.00  0.00     0.020 A 
ATOM     86  C   UNL     1      -5.984  -0.548  11.163  1.00  0.00     0.054 A 
BRANCH  86  87
ATOM     87  S   UNL     1      -7.423   0.526  10.903  1.00  0.00     0.124 S 
ATOM     88  O   UNL     1      -7.086   1.704  11.697  1.00  0.00    -0.237 OA
ATOM     89  O   UNL     1      -7.425   0.722   9.456  1.00  0.00    -0.237 OA
ATOM     90  O   UNL     1      -8.544  -0.262  11.415  1.00  0.00    -0.744 OA
ENDBRANCH  86  87
ENDBRANCH  60  81
ENDBRANCH  34  35
ENDBRANCH  27  29
ENDBRANCH  26  27
ENDBRANCH  25  26
ENDBRANCH   1  25
TORSDOF 19
