REMARK SMILES Cc1ccccc1NC(=O)CSc1nc(C(=O)OCCOC(=O)c2ccc(-c3c4nc(c(-c5ccc(S(=O)(=O)[O-])cc5)c5ccc([nH]5)c(-c5ccc(S(=O)(=O)[O-])cc5)c5nc(c(-c6ccc(S(=O)(=O)[O-])cc6)c6ccc3[nH]6)C=C5)C=C4)cc2)c2ccccc2n1
REMARK SMILES IDX 19 1 18 2 16 3 17 4 15 5 13 6 14 7 90 8 89 9 84 10 88 11
REMARK SMILES IDX 85 12 87 13 86 14 12 15 11 16 9 17 8 18 10 20 7 21 1 22 2 23
REMARK SMILES IDX 3 24 4 25 6 26 5 27 20 28 21 29 22 30 23 31 24 32 25 33
REMARK SMILES IDX 83 34 26 35 82 36 27 37 28 38 29 39 76 40 30 41 81 42 75 43
REMARK SMILES IDX 77 44 31 45 80 46 74 47 73 48 32 50 62 51 43 52 61 53 44 54
REMARK SMILES IDX 47 55 60 56 78 57 45 58 46 59 59 61 79 62 48 63 33 64 34 65
REMARK SMILES IDX 42 66 35 67 41 68 36 69 37 70 38 71 39 72 40 73 63 74 64 75
REMARK SMILES IDX 72 76 65 77 71 78 66 79 67 80 68 81 69 82 70 83 49 84 50 85
REMARK SMILES IDX 58 86 51 87 57 88 52 89 53 90 54 91 55 92 56 93
REMARK H PARENT 8 19 77 49 47 60
REMARK Flexibility Score: inf
ROOT
ATOM      1  C   UNL     1      -3.003   7.932  -6.795  1.00  0.00     0.275 C 
ENDROOT
BRANCH   1   2
ATOM      2  O   UNL     1      -2.092   6.902  -6.395  1.00  0.00    -0.457 OA
BRANCH   2   3
ATOM      3  C   UNL     1      -2.602   5.646  -6.479  1.00  0.00     0.357 C 
ATOM      4  O   UNL     1      -3.605   5.319  -7.070  1.00  0.00    -0.244 OA
BRANCH   3   5
ATOM      5  C   UNL     1      -1.688   4.716  -5.762  1.00  0.00     0.160 A 
ATOM      6  C   UNL     1      -1.441   3.264  -4.022  1.00  0.00     0.189 A 
ATOM      7  N   UNL     1      -2.158   4.232  -4.590  1.00  0.00    -0.215 NA
ATOM      8  N   UNL     1      -0.373   2.691  -4.595  1.00  0.00    -0.222 NA
ATOM      9  C   UNL     1       0.045   3.170  -5.776  1.00  0.00     0.076 A 
ATOM     10  C   UNL     1      -0.550   4.258  -6.414  1.00  0.00     0.034 A 
ATOM     11  C   UNL     1       1.080   2.525  -6.439  1.00  0.00     0.029 A 
ATOM     12  C   UNL     1      -0.030   4.754  -7.638  1.00  0.00     0.013 A 
ATOM     13  C   UNL     1       1.561   2.966  -7.677  1.00  0.00     0.002 A 
ATOM     14  C   UNL     1       1.027   4.105  -8.264  1.00  0.00     0.001 A 
BRANCH   6  15
ATOM     15  S   UNL     1      -2.130   2.427  -2.618  1.00  0.00    -0.076 SA
BRANCH  15  16
ATOM     16  C   UNL     1      -1.656   3.523  -1.244  1.00  0.00     0.178 C 
BRANCH  16  17
ATOM     17  C   UNL     1      -0.187   3.426  -0.879  1.00  0.00     0.234 C 
ATOM     18  N   UNL     1       0.418   2.303  -0.384  1.00  0.00    -0.325 N 
ATOM     19  H   UNL     1       1.377   2.431  -0.202  1.00  0.00     0.169 HD
ATOM     20  O   UNL     1       0.541   4.419  -1.022  1.00  0.00    -0.274 OA
BRANCH  18  21
ATOM     21  C   UNL     1      -0.031   1.001  -0.078  1.00  0.00     0.044 A 
ATOM     22  C   UNL     1       2.392   0.089  -0.176  1.00  0.00     0.046 C 
ATOM     23  C   UNL     1       0.899  -0.063  -0.033  1.00  0.00    -0.027 A 
ATOM     24  C   UNL     1       0.424  -1.387   0.089  1.00  0.00     0.005 A 
ATOM     25  C   UNL     1      -0.932  -1.659   0.238  1.00  0.00     0.000 A 
ATOM     26  C   UNL     1      -1.374   0.708   0.179  1.00  0.00     0.026 A 
ATOM     27  C   UNL     1      -1.828  -0.606   0.316  1.00  0.00     0.002 A 
ENDBRANCH  18  21
ENDBRANCH  16  17
ENDBRANCH  15  16
ENDBRANCH   6  15
ENDBRANCH   3   5
ENDBRANCH   2   3
ENDBRANCH   1   2
BRANCH   1  28
ATOM     28  C   UNL     1      -4.194   8.139  -5.832  1.00  0.00     0.275 C 
BRANCH  28  29
ATOM     29  O   UNL     1      -4.310   7.234  -4.697  1.00  0.00    -0.458 OA
BRANCH  29  30
ATOM     30  C   UNL     1      -3.477   7.004  -3.645  1.00  0.00     0.338 C 
ATOM     31  O   UNL     1      -3.679   6.098  -2.843  1.00  0.00    -0.246 OA
BRANCH  30  32
ATOM     32  C   UNL     1      -2.164   7.679  -3.623  1.00  0.00     0.060 A 
ATOM     33  C   UNL     1      -1.036   6.979  -3.163  1.00  0.00     0.016 A 
ATOM     34  C   UNL     1      -2.012   8.938  -4.175  1.00  0.00     0.016 A 
ATOM     35  C   UNL     1       0.230   7.514  -3.329  1.00  0.00     0.010 A 
ATOM     36  C   UNL     1      -0.775   9.332  -4.608  1.00  0.00     0.010 A 
ATOM     37  C   UNL     1       0.336   8.689  -4.073  1.00  0.00    -0.014 A 
BRANCH  37  38
ATOM     38  C   UNL     1       1.520   9.526  -4.019  1.00  0.00     0.031 A 
ATOM     39  C   UNL     1       2.746   8.978  -4.600  1.00  0.00     0.074 A 
ATOM     40  C   UNL     1       1.358  10.658  -3.288  1.00  0.00     0.049 A 
ATOM     41  N   UNL     1       3.835   8.721  -3.966  1.00  0.00    -0.248 NA
ATOM     42  C   UNL     1       2.774   8.541  -5.999  1.00  0.00     0.031 C 
ATOM     43  C   UNL     1       2.328  11.639  -2.848  1.00  0.00     0.029 A 
ATOM     44  N   UNL     1       0.203  11.012  -2.559  1.00  0.00    -0.354 N 
ATOM     45  C   UNL     1       4.787   8.550  -4.951  1.00  0.00     0.074 A 
ATOM     46  C   UNL     1       4.056   8.190  -6.143  1.00  0.00     0.031 C 
ATOM     47  C   UNL     1       1.881  12.149  -1.677  1.00  0.00     0.029 A 
ATOM     48  C   UNL     1       0.631  11.474  -1.326  1.00  0.00     0.049 A 
ATOM     49  H   UNL     1      -0.730  10.944  -2.868  1.00  0.00     0.167 HD
ATOM     50  C   UNL     1       6.030   9.093  -4.788  1.00  0.00     0.031 A 
ATOM     51  C   UNL     1       0.353  10.727  -0.215  1.00  0.00     0.031 A 
ATOM     52  C   UNL     1       6.080   9.842  -3.528  1.00  0.00     0.049 A 
ATOM     53  C   UNL     1       1.647  10.170   0.335  1.00  0.00     0.074 A 
ATOM     54  C   UNL     1       5.934  11.198  -3.272  1.00  0.00     0.029 A 
ATOM     55  N   UNL     1       5.842   9.192  -2.318  1.00  0.00    -0.354 N 
ATOM     56  N   UNL     1       2.706   9.930  -0.397  1.00  0.00    -0.248 NA
ATOM     57  C   UNL     1       1.888   9.971   1.758  1.00  0.00     0.031 C 
ATOM     58  C   UNL     1       5.495  11.347  -1.929  1.00  0.00     0.029 A 
ATOM     59  C   UNL     1       5.375  10.087  -1.367  1.00  0.00     0.049 A 
ATOM     60  H   UNL     1       5.986   8.231  -2.160  1.00  0.00     0.167 HD
ATOM     61  C   UNL     1       3.783   9.715   0.426  1.00  0.00     0.074 A 
ATOM     62  C   UNL     1       3.208   9.712   1.765  1.00  0.00     0.031 C 
ATOM     63  C   UNL     1       5.077   9.635  -0.013  1.00  0.00     0.031 A 
BRANCH  50  64
ATOM     64  C   UNL     1       6.962   9.320  -5.965  1.00  0.00    -0.014 A 
ATOM     65  C   UNL     1       7.775  10.470  -6.016  1.00  0.00     0.010 A 
ATOM     66  C   UNL     1       7.051   8.447  -7.069  1.00  0.00     0.010 A 
ATOM     67  C   UNL     1       8.556  10.786  -7.139  1.00  0.00     0.020 A 
ATOM     68  C   UNL     1       7.801   8.766  -8.216  1.00  0.00     0.020 A 
ATOM     69  C   UNL     1       8.547   9.940  -8.245  1.00  0.00     0.054 A 
BRANCH  69  70
ATOM     70  S   UNL     1       9.535  10.386  -9.701  1.00  0.00     0.124 S 
ATOM     71  O   UNL     1       9.047  11.725 -10.019  1.00  0.00    -0.237 OA
ATOM     72  O   UNL     1      10.899  10.318  -9.185  1.00  0.00    -0.237 OA
ATOM     73  O   UNL     1       9.190   9.357 -10.681  1.00  0.00    -0.744 OA
ENDBRANCH  69  70
ENDBRANCH  50  64
BRANCH  51  74
ATOM     74  C   UNL     1      -1.046  10.160  -0.112  1.00  0.00    -0.014 A 
ATOM     75  C   UNL     1      -2.101  11.095  -0.264  1.00  0.00     0.010 A 
ATOM     76  C   UNL     1      -1.409   8.798  -0.094  1.00  0.00     0.010 A 
ATOM     77  C   UNL     1      -3.423  10.706  -0.509  1.00  0.00     0.020 A 
ATOM     78  C   UNL     1      -2.758   8.395  -0.318  1.00  0.00     0.020 A 
ATOM     79  C   UNL     1      -3.744   9.355  -0.570  1.00  0.00     0.054 A 
BRANCH  79  80
ATOM     80  S   UNL     1      -5.436   8.944  -1.114  1.00  0.00     0.124 S 
ATOM     81  O   UNL     1      -6.262   9.697  -0.173  1.00  0.00    -0.237 OA
ATOM     82  O   UNL     1      -5.426   9.459  -2.485  1.00  0.00    -0.237 OA
ATOM     83  O   UNL     1      -5.519   7.497  -0.974  1.00  0.00    -0.744 OA
ENDBRANCH  79  80
ENDBRANCH  51  74
BRANCH  63  84
ATOM     84  C   UNL     1       6.262   9.235   0.830  1.00  0.00    -0.014 A 
ATOM     85  C   UNL     1       6.173   8.427   1.970  1.00  0.00     0.010 A 
ATOM     86  C   UNL     1       7.564   9.558   0.367  1.00  0.00     0.010 A 
ATOM     87  C   UNL     1       7.324   8.012   2.650  1.00  0.00     0.020 A 
ATOM     88  C   UNL     1       8.716   9.100   1.000  1.00  0.00     0.020 A 
ATOM     89  C   UNL     1       8.587   8.348   2.159  1.00  0.00     0.054 A 
BRANCH  89  90
ATOM     90  S   UNL     1      10.067   7.735   2.994  1.00  0.00     0.124 S 
ATOM     91  O   UNL     1      10.287   8.766   4.005  1.00  0.00    -0.237 OA
ATOM     92  O   UNL     1       9.639   6.435   3.505  1.00  0.00    -0.237 OA
ATOM     93  O   UNL     1      11.063   7.678   1.927  1.00  0.00    -0.744 OA
ENDBRANCH  89  90
ENDBRANCH  63  84
ENDBRANCH  37  38
ENDBRANCH  30  32
ENDBRANCH  29  30
ENDBRANCH  28  29
ENDBRANCH   1  28
TORSDOF 18
