REMARK SMILES CC[C@@H](C)Nc1cc(OC)c(C(=O)OCCOC(=O)c2ccc(-c3c4nc(c(-c5ccc(S(=O)(=O)[O-])cc5)c5ccc([nH]5)c(-c5ccc(S(=O)(=O)[O-])cc5)c5nc(c(-c6ccc(S(=O)(=O)[O-])cc6)c6ccc3[nH]6)C=C5)C=C4)cc2)cc1Cl
REMARK SMILES IDX 15 1 14 2 12 3 13 4 11 5 6 6 7 7 81 8 8 9 80 10 82 11 5 12
REMARK SMILES IDX 3 14 4 15 2 16 1 17 9 18 10 19 16 20 17 21 18 22 19 23 20 24
REMARK SMILES IDX 21 25 79 26 22 27 78 28 23 29 24 30 25 31 72 32 26 33 77 34
REMARK SMILES IDX 71 35 73 36 27 37 76 38 70 39 69 40 28 42 58 43 39 44 57 45
REMARK SMILES IDX 40 46 43 47 56 48 74 49 41 50 42 51 55 53 75 54 44 55 29 56
REMARK SMILES IDX 30 57 38 58 31 59 37 60 32 61 33 62 34 63 35 64 36 65 59 66
REMARK SMILES IDX 60 67 68 68 61 69 67 70 62 71 63 72 64 73 65 74 66 75 45 76
REMARK SMILES IDX 46 77 54 78 47 79 53 80 48 81 49 82 50 83 51 84 52 85
REMARK H PARENT 5 13 73 41 43 52
REMARK Flexibility Score: inf
ROOT
ATOM      1  C   UNL     1       5.977   9.127  -1.231  1.00  0.00     0.275 C 
ENDROOT
BRANCH   1   2
ATOM      2  O   UNL     1       5.074   8.015  -1.325  1.00  0.00    -0.458 OA
BRANCH   2   3
ATOM      3  C   UNL     1       5.213   7.045  -0.393  1.00  0.00     0.342 C 
ATOM      4  O   UNL     1       6.120   6.915   0.406  1.00  0.00    -0.246 OA
BRANCH   3   5
ATOM      5  C   UNL     1       4.033   6.172  -0.498  1.00  0.00     0.103 A 
ATOM      6  C   UNL     1       1.843   4.434  -0.967  1.00  0.00     0.057 A 
ATOM      7  C   UNL     1       1.960   5.183   0.217  1.00  0.00     0.074 A 
ATOM      8  C   UNL     1       2.868   4.569  -1.916  1.00  0.00     0.065 A 
ATOM      9  C   UNL     1       3.038   6.054   0.475  1.00  0.00     0.135 A 
ATOM     10  C   UNL     1       3.943   5.431  -1.688  1.00  0.00     0.042 A 
ATOM     11  Cl  UNL     1       2.839   3.757  -3.445  1.00  0.00    -0.082 Cl
BRANCH   6  12
ATOM     12  N   UNL     1       0.760   3.563  -1.084  1.00  0.00    -0.381 N 
ATOM     13  H   UNL     1      -0.157   3.920  -1.093  1.00  0.00     0.160 HD
BRANCH  12  14
ATOM     14  C   UNL     1       0.982   2.120  -1.194  1.00  0.00     0.075 C 
ATOM     15  C   UNL     1       0.183   1.591  -2.385  1.00  0.00     0.031 C 
BRANCH  14  16
ATOM     16  C   UNL     1       0.537   1.456   0.124  1.00  0.00     0.021 C 
ATOM     17  C   UNL     1       0.911  -0.017   0.209  1.00  0.00     0.006 C 
ENDBRANCH  14  16
ENDBRANCH  12  14
ENDBRANCH   6  12
BRANCH   9  18
ATOM     18  O   UNL     1       2.893   6.676   1.681  1.00  0.00    -0.496 OA
ATOM     19  C   UNL     1       3.801   7.677   2.110  1.00  0.00     0.278 C 
ENDBRANCH   9  18
ENDBRANCH   3   5
ENDBRANCH   2   3
ENDBRANCH   1   2
BRANCH   1  20
ATOM     20  C   UNL     1       5.238  10.397  -1.657  1.00  0.00     0.275 C 
BRANCH  20  21
ATOM     21  O   UNL     1       4.151  10.672  -0.750  1.00  0.00    -0.458 OA
BRANCH  21  22
ATOM     22  C   UNL     1       2.954  10.132  -1.097  1.00  0.00     0.338 C 
ATOM     23  O   UNL     1       2.698   9.517  -2.118  1.00  0.00    -0.246 OA
BRANCH  22  24
ATOM     24  C   UNL     1       1.999  10.284   0.023  1.00  0.00     0.060 A 
ATOM     25  C   UNL     1       1.135   9.218   0.298  1.00  0.00     0.016 A 
ATOM     26  C   UNL     1       1.947  11.447   0.798  1.00  0.00     0.016 A 
ATOM     27  C   UNL     1       0.234   9.303   1.360  1.00  0.00     0.010 A 
ATOM     28  C   UNL     1       1.025  11.542   1.845  1.00  0.00     0.010 A 
ATOM     29  C   UNL     1       0.163  10.471   2.129  1.00  0.00    -0.014 A 
BRANCH  29  30
ATOM     30  C   UNL     1      -0.883  10.600   3.169  1.00  0.00     0.031 A 
ATOM     31  C   UNL     1      -2.231  11.140   2.786  1.00  0.00     0.074 A 
ATOM     32  C   UNL     1      -0.641  10.206   4.433  1.00  0.00     0.049 A 
ATOM     33  N   UNL     1      -3.299  11.296   3.524  1.00  0.00    -0.248 NA
ATOM     34  C   UNL     1      -2.402  11.547   1.381  1.00  0.00     0.031 C 
ATOM     35  C   UNL     1       0.612   9.622   4.911  1.00  0.00     0.029 A 
ATOM     36  N   UNL     1      -1.444  10.233   5.545  1.00  0.00    -0.354 N 
ATOM     37  C   UNL     1      -4.276  11.793   2.672  1.00  0.00     0.074 A 
ATOM     38  C   UNL     1      -3.666  11.946   1.368  1.00  0.00     0.031 C 
ATOM     39  C   UNL     1       0.494   9.348   6.222  1.00  0.00     0.029 A 
ATOM     40  C   UNL     1      -0.832   9.758   6.681  1.00  0.00     0.049 A 
ATOM     41  H   UNL     1      -2.372  10.562   5.532  1.00  0.00     0.167 HD
ATOM     42  C   UNL     1      -5.568  12.093   2.949  1.00  0.00     0.031 A 
ATOM     43  C   UNL     1      -1.288   9.673   7.947  1.00  0.00     0.031 A 
ATOM     44  C   UNL     1      -6.155  11.998   4.258  1.00  0.00     0.049 A 
ATOM     45  C   UNL     1      -2.696  10.122   8.251  1.00  0.00     0.074 A 
ATOM     46  C   UNL     1      -7.444  12.314   4.649  1.00  0.00     0.029 A 
ATOM     47  N   UNL     1      -5.485  11.569   5.394  1.00  0.00    -0.354 N 
ATOM     48  N   UNL     1      -3.617  10.564   7.427  1.00  0.00    -0.248 NA
ATOM     49  C   UNL     1      -3.127  10.053   9.654  1.00  0.00     0.031 C 
ATOM     50  C   UNL     1      -7.538  12.126   6.032  1.00  0.00     0.029 A 
ATOM     51  C   UNL     1      -6.326  11.636   6.492  1.00  0.00     0.049 A 
ATOM     52  H   UNL     1      -4.550  11.261   5.417  1.00  0.00     0.167 HD
ATOM     53  C   UNL     1      -4.744  10.797   8.208  1.00  0.00     0.074 A 
ATOM     54  C   UNL     1      -4.394  10.435   9.566  1.00  0.00     0.031 C 
ATOM     55  C   UNL     1      -5.961  11.266   7.836  1.00  0.00     0.031 A 
BRANCH  42  56
ATOM     56  C   UNL     1      -6.418  12.587   1.812  1.00  0.00    -0.014 A 
ATOM     57  C   UNL     1      -6.868  11.705   0.812  1.00  0.00     0.010 A 
ATOM     58  C   UNL     1      -6.794  13.941   1.753  1.00  0.00     0.010 A 
ATOM     59  C   UNL     1      -7.650  12.177  -0.246  1.00  0.00     0.020 A 
ATOM     60  C   UNL     1      -7.593  14.412   0.708  1.00  0.00     0.020 A 
ATOM     61  C   UNL     1      -8.003  13.529  -0.294  1.00  0.00     0.054 A 
BRANCH  61  62
ATOM     62  S   UNL     1      -9.026  14.113  -1.673  1.00  0.00     0.124 S 
ATOM     63  O   UNL     1      -8.076  14.088  -2.784  1.00  0.00    -0.237 OA
ATOM     64  O   UNL     1     -10.087  13.111  -1.733  1.00  0.00    -0.237 OA
ATOM     65  O   UNL     1      -9.453  15.444  -1.250  1.00  0.00    -0.744 OA
ENDBRANCH  61  62
ENDBRANCH  42  56
BRANCH  43  66
ATOM     66  C   UNL     1      -0.406   9.165   9.035  1.00  0.00    -0.014 A 
ATOM     67  C   UNL     1      -0.689   7.950   9.684  1.00  0.00     0.010 A 
ATOM     68  C   UNL     1       0.704   9.921   9.457  1.00  0.00     0.010 A 
ATOM     69  C   UNL     1       0.102   7.516  10.754  1.00  0.00     0.020 A 
ATOM     70  C   UNL     1       1.512   9.477  10.507  1.00  0.00     0.020 A 
ATOM     71  C   UNL     1       1.195   8.286  11.161  1.00  0.00     0.054 A 
BRANCH  71  72
ATOM     72  S   UNL     1       2.217   7.700  12.542  1.00  0.00     0.124 S 
ATOM     73  O   UNL     1       1.363   7.982  13.691  1.00  0.00    -0.237 OA
ATOM     74  O   UNL     1       2.402   6.287  12.222  1.00  0.00    -0.237 OA
ATOM     75  O   UNL     1       3.424   8.517  12.443  1.00  0.00    -0.744 OA
ENDBRANCH  71  72
ENDBRANCH  43  66
BRANCH  55  76
ATOM     76  C   UNL     1      -7.019  11.380   8.902  1.00  0.00    -0.014 A 
ATOM     77  C   UNL     1      -6.966  12.391   9.877  1.00  0.00     0.010 A 
ATOM     78  C   UNL     1      -8.116  10.499   8.886  1.00  0.00     0.010 A 
ATOM     79  C   UNL     1      -7.978  12.502  10.835  1.00  0.00     0.020 A 
ATOM     80  C   UNL     1      -9.143  10.623   9.825  1.00  0.00     0.020 A 
ATOM     81  C   UNL     1      -9.061  11.617  10.802  1.00  0.00     0.054 A 
BRANCH  81  82
ATOM     82  S   UNL     1     -10.389  11.814  12.022  1.00  0.00     0.124 S 
ATOM     83  O   UNL     1      -9.773  11.276  13.231  1.00  0.00    -0.237 OA
ATOM     84  O   UNL     1     -10.616  13.258  12.021  1.00  0.00    -0.237 OA
ATOM     85  O   UNL     1     -11.484  11.018  11.472  1.00  0.00    -0.744 OA
ENDBRANCH  81  82
ENDBRANCH  55  76
ENDBRANCH  29  30
ENDBRANCH  22  24
ENDBRANCH  21  22
ENDBRANCH  20  21
ENDBRANCH   1  20
TORSDOF 18
