REMARK SMILES CCc1ccc(C(=O)NC[C@@H](CC(C)C)C(=O)OCCOC(=O)c2ccc(-c3c4nc(c(-c5ccc(S(=O)(=O)[O-])cc5)c5ccc([nH]5)c(-c5ccc(S(=O)(=O)[O-])cc5)c5nc(c(-c6ccc(S(=O)(=O)[O-])cc6)c6ccc3[nH]6)C=C5)C=C4)cc2)s1
REMARK SMILES IDX 19 1 18 2 16 3 17 4 11 5 10 6 9 7 7 8 8 9 6 11 3 12 4 13
REMARK SMILES IDX 84 14 5 15 2 16 1 17 12 18 13 19 14 20 15 21 20 22 21 23
REMARK SMILES IDX 22 24 23 25 24 26 25 27 83 28 26 29 82 30 27 31 28 32 29 33
REMARK SMILES IDX 76 34 30 35 81 36 75 37 77 38 31 39 80 40 74 41 73 42 32 44
REMARK SMILES IDX 62 45 43 46 61 47 44 48 47 49 60 50 78 51 45 52 46 53 59 55
REMARK SMILES IDX 79 56 48 57 33 58 34 59 42 60 35 61 41 62 36 63 37 64 38 65
REMARK SMILES IDX 39 66 40 67 63 68 64 69 72 70 65 71 71 72 66 73 67 74 68 75
REMARK SMILES IDX 69 76 70 77 49 78 50 79 58 80 51 81 57 82 52 83 53 84 54 85
REMARK SMILES IDX 55 86 56 87
REMARK H PARENT 9 10 77 43 47 54
REMARK Flexibility Score: inf
ROOT
ATOM      1  C   UNL     1       4.211   2.295  -9.078  1.00  0.00     0.274 C 
ENDROOT
BRANCH   1   2
ATOM      2  O   UNL     1       3.602   1.077  -8.604  1.00  0.00    -0.462 OA
BRANCH   2   3
ATOM      3  C   UNL     1       4.446   0.033  -8.388  1.00  0.00     0.310 C 
ATOM      4  O   UNL     1       5.663   0.087  -8.523  1.00  0.00    -0.252 OA
BRANCH   3   5
ATOM      5  C   UNL     1       3.726  -1.255  -8.016  1.00  0.00     0.118 C 
BRANCH   5   6
ATOM      6  C   UNL     1       2.304  -1.041  -7.482  1.00  0.00     0.131 C 
BRANCH   6   7
ATOM      7  N   UNL     1       1.839  -2.171  -6.687  1.00  0.00    -0.350 N 
ATOM      8  C   UNL     1       1.381  -2.339  -5.397  1.00  0.00     0.261 C 
ATOM      9  O   UNL     1       1.114  -3.518  -5.132  1.00  0.00    -0.268 OA
ATOM     10  H   UNL     1       1.856  -3.017  -7.191  1.00  0.00     0.163 HD
BRANCH   8  11
ATOM     11  C   UNL     1       1.214  -1.252  -4.432  1.00  0.00     0.092 A 
ATOM     12  C   UNL     1       0.729  -0.077  -2.261  1.00  0.00     0.005 A 
ATOM     13  C   UNL     1       1.050   0.793  -3.278  1.00  0.00     0.016 A 
ATOM     14  S   UNL     1       0.787  -1.695  -2.807  1.00  0.00    -0.135 S 
ATOM     15  C   UNL     1       1.272   0.124  -4.520  1.00  0.00     0.026 A 
BRANCH  12  16
ATOM     16  C   UNL     1       0.302   0.279  -0.863  1.00  0.00     0.043 C 
ATOM     17  C   UNL     1       1.139  -0.362   0.231  1.00  0.00     0.010 C 
ENDBRANCH  12  16
ENDBRANCH   8  11
ENDBRANCH   6   7
ENDBRANCH   5   6
BRANCH   5  18
ATOM     18  C   UNL     1       3.872  -2.301  -9.140  1.00  0.00     0.020 C 
BRANCH  18  19
ATOM     19  C   UNL     1       3.021  -2.154 -10.421  1.00  0.00    -0.017 C 
ATOM     20  C   UNL     1       3.191  -0.815 -11.139  1.00  0.00     0.007 C 
ATOM     21  C   UNL     1       3.388  -3.283 -11.393  1.00  0.00     0.007 C 
ENDBRANCH  18  19
ENDBRANCH   5  18
ENDBRANCH   3   5
ENDBRANCH   2   3
ENDBRANCH   1   2
BRANCH   1  22
ATOM     22  C   UNL     1       4.259   3.361  -7.987  1.00  0.00     0.275 C 
BRANCH  22  23
ATOM     23  O   UNL     1       5.005   2.896  -6.851  1.00  0.00    -0.458 OA
BRANCH  23  24
ATOM     24  C   UNL     1       4.249   2.471  -5.813  1.00  0.00     0.338 C 
ATOM     25  O   UNL     1       3.032   2.509  -5.724  1.00  0.00    -0.246 OA
BRANCH  24  26
ATOM     26  C   UNL     1       5.112   1.837  -4.811  1.00  0.00     0.060 A 
ATOM     27  C   UNL     1       5.168   0.442  -4.762  1.00  0.00     0.016 A 
ATOM     28  C   UNL     1       5.801   2.613  -3.880  1.00  0.00     0.016 A 
ATOM     29  C   UNL     1       5.924  -0.190  -3.777  1.00  0.00     0.010 A 
ATOM     30  C   UNL     1       6.560   1.978  -2.893  1.00  0.00     0.010 A 
ATOM     31  C   UNL     1       6.619   0.575  -2.832  1.00  0.00    -0.014 A 
BRANCH  31  32
ATOM     32  C   UNL     1       7.367  -0.093  -1.742  1.00  0.00     0.031 A 
ATOM     33  C   UNL     1       6.790  -0.130  -0.357  1.00  0.00     0.074 A 
ATOM     34  C   UNL     1       8.560  -0.662  -1.997  1.00  0.00     0.049 A 
ATOM     35  N   UNL     1       7.323  -0.581   0.749  1.00  0.00    -0.248 NA
ATOM     36  C   UNL     1       5.434   0.419  -0.195  1.00  0.00     0.031 C 
ATOM     37  C   UNL     1       9.203  -0.726  -3.310  1.00  0.00     0.029 A 
ATOM     38  N   UNL     1       9.444  -1.291  -1.158  1.00  0.00    -0.354 N 
ATOM     39  C   UNL     1       6.380  -0.355   1.743  1.00  0.00     0.074 A 
ATOM     40  C   UNL     1       5.248   0.290   1.111  1.00  0.00     0.031 C 
ATOM     41  C   UNL     1      10.380  -1.361  -3.188  1.00  0.00     0.029 A 
ATOM     42  C   UNL     1      10.591  -1.711  -1.786  1.00  0.00     0.049 A 
ATOM     43  H   UNL     1       9.273  -1.428  -0.199  1.00  0.00     0.167 HD
ATOM     44  C   UNL     1       6.451  -0.656   3.062  1.00  0.00     0.031 A 
ATOM     45  C   UNL     1      11.698  -2.292  -1.284  1.00  0.00     0.031 A 
ATOM     46  C   UNL     1       7.581  -1.292   3.686  1.00  0.00     0.049 A 
ATOM     47  C   UNL     1      11.774  -2.574   0.191  1.00  0.00     0.074 A 
ATOM     48  C   UNL     1       7.753  -1.635   5.016  1.00  0.00     0.029 A 
ATOM     49  N   UNL     1       8.734  -1.683   3.021  1.00  0.00    -0.354 N 
ATOM     50  N   UNL     1      10.880  -2.337   1.123  1.00  0.00    -0.248 NA
ATOM     51  C   UNL     1      13.007  -3.203   0.682  1.00  0.00     0.031 C 
ATOM     52  C   UNL     1       9.026  -2.201   5.161  1.00  0.00     0.029 A 
ATOM     53  C   UNL     1       9.628  -2.251   3.914  1.00  0.00     0.049 A 
ATOM     54  H   UNL     1       8.893  -1.574   2.056  1.00  0.00     0.167 HD
ATOM     55  C   UNL     1      11.438  -2.801   2.308  1.00  0.00     0.074 A 
ATOM     56  C   UNL     1      12.738  -3.348   1.973  1.00  0.00     0.031 C 
ATOM     57  C   UNL     1      10.922  -2.777   3.562  1.00  0.00     0.031 A 
BRANCH  44  58
ATOM     58  C   UNL     1       5.282  -0.257   3.920  1.00  0.00    -0.014 A 
ATOM     59  C   UNL     1       4.060  -0.951   3.858  1.00  0.00     0.010 A 
ATOM     60  C   UNL     1       5.409   0.829   4.805  1.00  0.00     0.010 A 
ATOM     61  C   UNL     1       2.973  -0.538   4.633  1.00  0.00     0.020 A 
ATOM     62  C   UNL     1       4.331   1.232   5.598  1.00  0.00     0.020 A 
ATOM     63  C   UNL     1       3.112   0.558   5.491  1.00  0.00     0.054 A 
BRANCH  63  64
ATOM     64  S   UNL     1       1.685   1.083   6.480  1.00  0.00     0.124 S 
ATOM     65  O   UNL     1       0.866   1.769   5.484  1.00  0.00    -0.237 OA
ATOM     66  O   UNL     1       1.147  -0.183   6.971  1.00  0.00    -0.237 OA
ATOM     67  O   UNL     1       2.272   1.944   7.504  1.00  0.00    -0.744 OA
ENDBRANCH  63  64
ENDBRANCH  44  58
BRANCH  45  68
ATOM     68  C   UNL     1      12.830  -2.628  -2.187  1.00  0.00    -0.014 A 
ATOM     69  C   UNL     1      13.103  -3.964  -2.524  1.00  0.00     0.010 A 
ATOM     70  C   UNL     1      13.629  -1.606  -2.732  1.00  0.00     0.010 A 
ATOM     71  C   UNL     1      14.160  -4.274  -3.385  1.00  0.00     0.020 A 
ATOM     72  C   UNL     1      14.672  -1.911  -3.611  1.00  0.00     0.020 A 
ATOM     73  C   UNL     1      14.936  -3.245  -3.925  1.00  0.00     0.054 A 
BRANCH  73  74
ATOM     74  S   UNL     1      16.259  -3.661  -5.096  1.00  0.00     0.124 S 
ATOM     75  O   UNL     1      17.315  -4.131  -4.205  1.00  0.00    -0.237 OA
ATOM     76  O   UNL     1      15.635  -4.683  -5.933  1.00  0.00    -0.237 OA
ATOM     77  O   UNL     1      16.526  -2.393  -5.772  1.00  0.00    -0.744 OA
ENDBRANCH  73  74
ENDBRANCH  45  68
BRANCH  57  78
ATOM     78  C   UNL     1      11.760  -3.381   4.656  1.00  0.00    -0.014 A 
ATOM     79  C   UNL     1      12.889  -2.710   5.158  1.00  0.00     0.010 A 
ATOM     80  C   UNL     1      11.399  -4.625   5.203  1.00  0.00     0.010 A 
ATOM     81  C   UNL     1      13.667  -3.293   6.163  1.00  0.00     0.020 A 
ATOM     82  C   UNL     1      12.162  -5.201   6.222  1.00  0.00     0.020 A 
ATOM     83  C   UNL     1      13.302  -4.539   6.683  1.00  0.00     0.054 A 
BRANCH  83  84
ATOM     84  S   UNL     1      14.313  -5.271   8.000  1.00  0.00     0.124 S 
ATOM     85  O   UNL     1      15.444  -5.810   7.249  1.00  0.00    -0.237 OA
ATOM     86  O   UNL     1      14.614  -4.125   8.854  1.00  0.00    -0.237 OA
ATOM     87  O   UNL     1      13.428  -6.269   8.598  1.00  0.00    -0.744 OA
ENDBRANCH  83  84
ENDBRANCH  57  78
ENDBRANCH  31  32
ENDBRANCH  24  26
ENDBRANCH  23  24
ENDBRANCH  22  23
ENDBRANCH   1  22
TORSDOF 20
