REMARK SMILES CS(=O)(=O)c1ccc(/C=C(/C(=O)OCCOC(=O)c2ccc(-c3c4nc(c(-c5ccc(S(=O)(=O)[O-])cc5)c5ccc([nH]5)c(-c5ccc(S(=O)(=O)[O-])cc5)c5nc(c(-c6ccc(S(=O)(=O)[O-])cc6)c6ccc3[nH]6)C=C5)C=C4)cc2)c2ccccc2)cc1
REMARK SMILES IDX 15 1 14 2 13 3 11 4 12 5 10 6 9 7 8 8 5 9 6 10 86 11 7 12
REMARK SMILES IDX 85 13 2 14 1 15 3 16 4 17 79 18 80 19 84 20 81 21 83 22
REMARK SMILES IDX 82 23 16 24 17 25 18 26 19 27 20 28 78 29 21 30 77 31 22 32
REMARK SMILES IDX 23 33 24 34 71 35 25 36 76 37 70 38 72 39 26 40 75 41 69 42
REMARK SMILES IDX 68 43 27 45 57 46 38 47 56 48 39 49 42 50 55 51 73 52 40 53
REMARK SMILES IDX 41 54 54 56 74 57 43 58 28 59 29 60 37 61 30 62 36 63 31 64
REMARK SMILES IDX 32 65 33 66 34 67 35 68 58 69 59 70 67 71 60 72 66 73 61 74
REMARK SMILES IDX 62 75 63 76 64 77 65 78 44 79 45 80 53 81 46 82 52 83 47 84
REMARK SMILES IDX 48 85 49 86 50 87 51 88
REMARK H PARENT 72 44 42 55
REMARK Flexibility Score: inf
ROOT
ATOM      1  C   UNL     1       1.818   9.571   6.415  1.00  0.00     0.275 C 
ENDROOT
BRANCH   1   2
ATOM      2  C   UNL     1       2.469   9.389   5.045  1.00  0.00     0.275 C 
BRANCH   2   3
ATOM      3  O   UNL     1       1.950   8.220   4.379  1.00  0.00    -0.458 OA
BRANCH   3   4
ATOM      4  C   UNL     1       2.742   7.117   4.444  1.00  0.00     0.338 C 
ATOM      5  O   UNL     1       3.842   7.069   4.976  1.00  0.00    -0.246 OA
BRANCH   4   6
ATOM      6  C   UNL     1       2.100   5.925   3.809  1.00  0.00     0.067 C 
ATOM      7  C   UNL     1       1.443   6.081   2.636  1.00  0.00     0.024 C 
BRANCH   7   8
ATOM      8  C   UNL     1       0.970   5.009   1.730  1.00  0.00    -0.025 A 
ATOM      9  C   UNL     1       0.394   2.915  -0.051  1.00  0.00     0.067 A 
ATOM     10  C   UNL     1       0.070   2.783   1.296  1.00  0.00     0.021 A 
ATOM     11  C   UNL     1       0.921   4.113  -0.535  1.00  0.00     0.021 A 
ATOM     12  C   UNL     1       0.332   3.841   2.169  1.00  0.00     0.009 A 
ATOM     13  C   UNL     1       1.206   5.154   0.356  1.00  0.00     0.009 A 
BRANCH   9  14
ATOM     14  S   UNL     1       0.175   1.536  -1.147  1.00  0.00     0.175 S 
ATOM     15  C   UNL     1       0.944   0.165  -0.319  1.00  0.00     0.163 C 
ATOM     16  O   UNL     1       0.954   1.806  -2.341  1.00  0.00    -0.224 OA
ATOM     17  O   UNL     1      -1.252   1.288  -1.230  1.00  0.00    -0.224 OA
ENDBRANCH   9  14
ENDBRANCH   7   8
BRANCH   6  18
ATOM     18  C   UNL     1       2.354   4.601   4.411  1.00  0.00    -0.011 A 
ATOM     19  C   UNL     1       1.414   4.056   5.301  1.00  0.00     0.009 A 
ATOM     20  C   UNL     1       3.489   3.855   4.075  1.00  0.00     0.009 A 
ATOM     21  C   UNL     1       1.584   2.767   5.808  1.00  0.00     0.001 A 
ATOM     22  C   UNL     1       3.667   2.574   4.603  1.00  0.00     0.001 A 
ATOM     23  C   UNL     1       2.712   2.028   5.461  1.00  0.00     0.000 A 
ENDBRANCH   6  18
ENDBRANCH   4   6
ENDBRANCH   3   4
ENDBRANCH   2   3
ENDBRANCH   1   2
BRANCH   1  24
ATOM     24  O   UNL     1       2.148   8.463   7.270  1.00  0.00    -0.458 OA
BRANCH  24  25
ATOM     25  C   UNL     1       1.098   7.736   7.716  1.00  0.00     0.338 C 
ATOM     26  O   UNL     1      -0.085   7.956   7.516  1.00  0.00    -0.246 OA
BRANCH  25  27
ATOM     27  C   UNL     1       1.560   6.569   8.491  1.00  0.00     0.060 A 
ATOM     28  C   UNL     1       2.492   5.694   7.945  1.00  0.00     0.016 A 
ATOM     29  C   UNL     1       0.918   6.237   9.684  1.00  0.00     0.016 A 
ATOM     30  C   UNL     1       2.655   4.425   8.505  1.00  0.00     0.010 A 
ATOM     31  C   UNL     1       1.176   5.005  10.302  1.00  0.00     0.010 A 
ATOM     32  C   UNL     1       1.987   4.041   9.679  1.00  0.00    -0.014 A 
BRANCH  32  33
ATOM     33  C   UNL     1       2.055   2.629  10.188  1.00  0.00     0.031 A 
ATOM     34  C   UNL     1       0.784   1.867  10.522  1.00  0.00     0.074 A 
ATOM     35  C   UNL     1       3.232   1.978  10.317  1.00  0.00     0.049 A 
ATOM     36  N   UNL     1       0.642   0.735  11.167  1.00  0.00    -0.248 NA
ATOM     37  C   UNL     1      -0.492   2.462  10.091  1.00  0.00     0.031 C 
ATOM     38  C   UNL     1       4.551   2.521   9.989  1.00  0.00     0.029 A 
ATOM     39  N   UNL     1       3.506   0.697  10.741  1.00  0.00    -0.354 N 
ATOM     40  C   UNL     1      -0.730   0.538  11.306  1.00  0.00     0.074 A 
ATOM     41  C   UNL     1      -1.379   1.657  10.659  1.00  0.00     0.031 C 
ATOM     42  C   UNL     1       5.476   1.562  10.139  1.00  0.00     0.029 A 
ATOM     43  C   UNL     1       4.842   0.373  10.697  1.00  0.00     0.049 A 
ATOM     44  H   UNL     1       2.810   0.071  11.046  1.00  0.00     0.167 HD
ATOM     45  C   UNL     1      -1.391  -0.474  11.922  1.00  0.00     0.031 A 
ATOM     46  C   UNL     1       5.507  -0.727  11.102  1.00  0.00     0.031 A 
ATOM     47  C   UNL     1      -0.758  -1.639  12.486  1.00  0.00     0.049 A 
ATOM     48  C   UNL     1       4.760  -1.843  11.772  1.00  0.00     0.074 A 
ATOM     49  C   UNL     1      -1.350  -2.717  13.122  1.00  0.00     0.029 A 
ATOM     50  N   UNL     1       0.602  -1.898  12.450  1.00  0.00    -0.354 N 
ATOM     51  N   UNL     1       3.474  -1.950  12.002  1.00  0.00    -0.248 NA
ATOM     52  C   UNL     1       5.560  -2.973  12.266  1.00  0.00     0.031 C 
ATOM     53  C   UNL     1      -0.345  -3.616  13.495  1.00  0.00     0.029 A 
ATOM     54  C   UNL     1       0.868  -3.118  13.050  1.00  0.00     0.049 A 
ATOM     55  H   UNL     1       1.280  -1.303  12.055  1.00  0.00     0.167 HD
ATOM     56  C   UNL     1       3.312  -3.157  12.673  1.00  0.00     0.074 A 
ATOM     57  C   UNL     1       4.624  -3.758  12.783  1.00  0.00     0.031 C 
ATOM     58  C   UNL     1       2.175  -3.709  13.163  1.00  0.00     0.031 A 
BRANCH  45  59
ATOM     59  C   UNL     1      -2.886  -0.352  12.069  1.00  0.00    -0.014 A 
ATOM     60  C   UNL     1      -3.760  -0.550  10.986  1.00  0.00     0.010 A 
ATOM     61  C   UNL     1      -3.427  -0.093  13.344  1.00  0.00     0.010 A 
ATOM     62  C   UNL     1      -5.144  -0.455  11.169  1.00  0.00     0.020 A 
ATOM     63  C   UNL     1      -4.809  -0.024  13.536  1.00  0.00     0.020 A 
ATOM     64  C   UNL     1      -5.660  -0.188  12.442  1.00  0.00     0.054 A 
BRANCH  64  65
ATOM     65  S   UNL     1      -7.459  -0.098  12.661  1.00  0.00     0.124 S 
ATOM     66  O   UNL     1      -7.762   1.218  12.105  1.00  0.00    -0.237 OA
ATOM     67  O   UNL     1      -7.937  -1.235  11.878  1.00  0.00    -0.237 OA
ATOM     68  O   UNL     1      -7.639  -0.222  14.105  1.00  0.00    -0.744 OA
ENDBRANCH  64  65
ENDBRANCH  45  59
BRANCH  46  69
ATOM     69  C   UNL     1       6.986  -0.792  10.941  1.00  0.00    -0.014 A 
ATOM     70  C   UNL     1       7.566  -1.665  10.004  1.00  0.00     0.010 A 
ATOM     71  C   UNL     1       7.819   0.052  11.699  1.00  0.00     0.010 A 
ATOM     72  C   UNL     1       8.952  -1.687   9.824  1.00  0.00     0.020 A 
ATOM     73  C   UNL     1       9.200   0.055  11.498  1.00  0.00     0.020 A 
ATOM     74  C   UNL     1       9.760  -0.820  10.567  1.00  0.00     0.054 A 
BRANCH  74  75
ATOM     75  S   UNL     1      11.546  -0.790  10.252  1.00  0.00     0.124 S 
ATOM     76  O   UNL     1      12.007  -1.944  11.016  1.00  0.00    -0.237 OA
ATOM     77  O   UNL     1      11.618  -0.921   8.799  1.00  0.00    -0.237 OA
ATOM     78  O   UNL     1      11.958   0.513  10.771  1.00  0.00    -0.744 OA
ENDBRANCH  74  75
ENDBRANCH  46  69
BRANCH  58  79
ATOM     79  C   UNL     1       2.296  -5.045  13.842  1.00  0.00    -0.014 A 
ATOM     80  C   UNL     1       2.836  -5.154  15.136  1.00  0.00     0.010 A 
ATOM     81  C   UNL     1       1.834  -6.202  13.190  1.00  0.00     0.010 A 
ATOM     82  C   UNL     1       2.944  -6.404  15.752  1.00  0.00     0.020 A 
ATOM     83  C   UNL     1       1.922  -7.450  13.811  1.00  0.00     0.020 A 
ATOM     84  C   UNL     1       2.492  -7.545  15.082  1.00  0.00     0.054 A 
BRANCH  84  85
ATOM     85  S   UNL     1       2.620  -9.155  15.909  1.00  0.00     0.124 S 
ATOM     86  O   UNL     1       4.040  -9.459  15.761  1.00  0.00    -0.237 OA
ATOM     87  O   UNL     1       2.179  -8.856  17.269  1.00  0.00    -0.237 OA
ATOM     88  O   UNL     1       1.716 -10.010  15.142  1.00  0.00    -0.744 OA
ENDBRANCH  84  85
ENDBRANCH  58  79
ENDBRANCH  32  33
ENDBRANCH  25  27
ENDBRANCH  24  25
ENDBRANCH   1  24
TORSDOF 17
