REMARK SMILES O=C(OCCOC(=O)c1cc(/N=C/c2ccc([N+](=O)[O-])cc2)ccc1O)c1ccc(-c2c3nc(c(-c4ccc(S(=O)(=O)[O-])cc4)c4ccc([nH]4)c(-c4ccc(S(=O)(=O)[O-])cc4)c4nc(c(-c5ccc(S(=O)(=O)[O-])cc5)c5ccc2[nH]5)C=C4)C=C3)cc1
REMARK SMILES IDX 4 1 3 2 2 3 1 4 27 5 28 6 86 7 29 8 85 9 30 10 31 11 32 12
REMARK SMILES IDX 79 13 33 14 84 15 78 16 80 17 34 18 83 19 77 20 76 21 35 23
REMARK SMILES IDX 65 24 46 25 64 26 47 27 50 28 63 29 81 30 48 31 49 32 62 34
REMARK SMILES IDX 82 35 51 36 36 37 37 38 45 39 38 40 44 41 39 42 40 43 41 44
REMARK SMILES IDX 42 45 43 46 66 47 67 48 75 49 68 50 74 51 69 52 70 53 71 54
REMARK SMILES IDX 72 55 73 56 52 57 53 58 61 59 54 60 60 61 55 62 56 63 57 64
REMARK SMILES IDX 58 65 59 66 5 67 6 68 7 69 8 70 9 71 10 72 25 73 11 74 24 75
REMARK SMILES IDX 23 76 26 77 12 79 13 80 14 81 15 82 22 83 16 84 21 85 17 86
REMARK SMILES IDX 18 87 19 88 20 89
REMARK H PARENT 80 22 50 33 26 78
REMARK Flexibility Score: inf
ROOT
ATOM      1  C   UNL     1       3.963  -1.498  -0.569  1.00  0.00     0.275 C 
ENDROOT
BRANCH   1   2
ATOM      2  O   UNL     1       2.977  -1.097   0.399  1.00  0.00    -0.458 OA
BRANCH   2   3
ATOM      3  C   UNL     1       2.861   0.056   1.101  1.00  0.00     0.338 C 
ATOM      4  O   UNL     1       2.036   0.106   2.013  1.00  0.00    -0.246 OA
BRANCH   3   5
ATOM      5  C   UNL     1       3.594   1.315   0.762  1.00  0.00     0.060 A 
ATOM      6  C   UNL     1       4.887   1.399   0.242  1.00  0.00     0.016 A 
ATOM      7  C   UNL     1       2.917   2.519   1.032  1.00  0.00     0.016 A 
ATOM      8  C   UNL     1       5.458   2.636  -0.078  1.00  0.00     0.010 A 
ATOM      9  C   UNL     1       3.479   3.758   0.710  1.00  0.00     0.010 A 
ATOM     10  C   UNL     1       4.758   3.822   0.151  1.00  0.00    -0.014 A 
BRANCH  10  11
ATOM     11  C   UNL     1       5.428   5.125  -0.054  1.00  0.00     0.031 A 
ATOM     12  C   UNL     1       5.977   5.840   1.144  1.00  0.00     0.074 A 
ATOM     13  C   UNL     1       5.585   5.636  -1.289  1.00  0.00     0.049 A 
ATOM     14  N   UNL     1       6.657   6.954   1.194  1.00  0.00    -0.248 NA
ATOM     15  C   UNL     1       5.762   5.200   2.453  1.00  0.00     0.031 C 
ATOM     16  C   UNL     1       5.171   4.984  -2.529  1.00  0.00     0.029 A 
ATOM     17  N   UNL     1       6.125   6.825  -1.707  1.00  0.00    -0.354 N 
ATOM     18  C   UNL     1       6.993   7.122   2.530  1.00  0.00     0.074 A 
ATOM     19  C   UNL     1       6.382   6.039   3.268  1.00  0.00     0.031 C 
ATOM     20  C   UNL     1       5.409   5.808  -3.565  1.00  0.00     0.029 A 
ATOM     21  C   UNL     1       6.011   7.037  -3.061  1.00  0.00     0.049 A 
ATOM     22  H   UNL     1       6.554   7.466  -1.095  1.00  0.00     0.167 HD
ATOM     23  C   UNL     1       7.774   8.076   3.088  1.00  0.00     0.031 A 
ATOM     24  C   UNL     1       6.356   8.104  -3.808  1.00  0.00     0.031 A 
ATOM     25  C   UNL     1       8.332   9.177   2.354  1.00  0.00     0.049 A 
ATOM     26  C   UNL     1       7.082   9.240  -3.141  1.00  0.00     0.074 A 
ATOM     27  C   UNL     1       9.123  10.211   2.817  1.00  0.00     0.029 A 
ATOM     28  N   UNL     1       8.136   9.394   0.997  1.00  0.00    -0.354 N 
ATOM     29  N   UNL     1       7.439   9.357  -1.883  1.00  0.00    -0.248 NA
ATOM     30  C   UNL     1       7.490  10.363  -3.994  1.00  0.00     0.031 C 
ATOM     31  C   UNL     1       9.361  11.084   1.749  1.00  0.00     0.029 A 
ATOM     32  C   UNL     1       8.764  10.563   0.610  1.00  0.00     0.049 A 
ATOM     33  H   UNL     1       7.626   8.802   0.399  1.00  0.00     0.167 HD
ATOM     34  C   UNL     1       8.158  10.543  -1.803  1.00  0.00     0.074 A 
ATOM     35  C   UNL     1       8.177  11.109  -3.138  1.00  0.00     0.031 C 
ATOM     36  C   UNL     1       8.765  11.103  -0.727  1.00  0.00     0.031 A 
BRANCH  23  37
ATOM     37  C   UNL     1       8.033   7.959   4.563  1.00  0.00    -0.014 A 
ATOM     38  C   UNL     1       8.874   6.947   5.066  1.00  0.00     0.010 A 
ATOM     39  C   UNL     1       7.408   8.841   5.460  1.00  0.00     0.010 A 
ATOM     40  C   UNL     1       9.043   6.788   6.444  1.00  0.00     0.020 A 
ATOM     41  C   UNL     1       7.593   8.699   6.838  1.00  0.00     0.020 A 
ATOM     42  C   UNL     1       8.392   7.660   7.321  1.00  0.00     0.054 A 
BRANCH  42  43
ATOM     43  S   UNL     1       8.613   7.421   9.106  1.00  0.00     0.124 S 
ATOM     44  O   UNL     1       7.802   6.231   9.352  1.00  0.00    -0.237 OA
ATOM     45  O   UNL     1      10.056   7.233   9.229  1.00  0.00    -0.237 OA
ATOM     46  O   UNL     1       8.097   8.658   9.687  1.00  0.00    -0.744 OA
ENDBRANCH  42  43
ENDBRANCH  23  37
BRANCH  24  47
ATOM     47  C   UNL     1       6.027   8.141  -5.259  1.00  0.00    -0.014 A 
ATOM     48  C   UNL     1       7.030   8.024  -6.236  1.00  0.00     0.010 A 
ATOM     49  C   UNL     1       4.689   8.298  -5.671  1.00  0.00     0.010 A 
ATOM     50  C   UNL     1       6.706   8.082  -7.596  1.00  0.00     0.020 A 
ATOM     51  C   UNL     1       4.359   8.336  -7.029  1.00  0.00     0.020 A 
ATOM     52  C   UNL     1       5.372   8.238  -7.984  1.00  0.00     0.054 A 
BRANCH  52  53
ATOM     53  S   UNL     1       4.970   8.270  -9.754  1.00  0.00     0.124 S 
ATOM     54  O   UNL     1       5.490   9.571 -10.160  1.00  0.00    -0.237 OA
ATOM     55  O   UNL     1       5.697   7.108 -10.259  1.00  0.00    -0.237 OA
ATOM     56  O   UNL     1       3.514   8.141  -9.774  1.00  0.00    -0.744 OA
ENDBRANCH  52  53
ENDBRANCH  24  47
BRANCH  36  57
ATOM     57  C   UNL     1       9.533  12.373  -0.958  1.00  0.00    -0.014 A 
ATOM     58  C   UNL     1       8.872  13.596  -1.164  1.00  0.00     0.010 A 
ATOM     59  C   UNL     1      10.938  12.348  -0.900  1.00  0.00     0.010 A 
ATOM     60  C   UNL     1       9.607  14.771  -1.333  1.00  0.00     0.020 A 
ATOM     61  C   UNL     1      11.675  13.525  -1.041  1.00  0.00     0.020 A 
ATOM     62  C   UNL     1      11.004  14.728  -1.269  1.00  0.00     0.054 A 
BRANCH  62  63
ATOM     63  S   UNL     1      11.933  16.276  -1.431  1.00  0.00     0.124 S 
ATOM     64  O   UNL     1      11.856  16.526  -2.868  1.00  0.00    -0.237 OA
ATOM     65  O   UNL     1      11.172  17.198  -0.591  1.00  0.00    -0.237 OA
ATOM     66  O   UNL     1      13.261  15.936  -0.927  1.00  0.00    -0.744 OA
ENDBRANCH  62  63
ENDBRANCH  36  57
ENDBRANCH  10  11
ENDBRANCH   3   5
ENDBRANCH   2   3
ENDBRANCH   1   2
BRANCH   1  67
ATOM     67  C   UNL     1       3.653  -1.093  -2.008  1.00  0.00     0.275 C 
BRANCH  67  68
ATOM     68  O   UNL     1       3.243   0.273  -2.135  1.00  0.00    -0.458 OA
BRANCH  68  69
ATOM     69  C   UNL     1       1.909   0.473  -2.297  1.00  0.00     0.342 C 
ATOM     70  O   UNL     1       1.034  -0.380  -2.284  1.00  0.00    -0.246 OA
BRANCH  69  71
ATOM     71  C   UNL     1       1.631   1.919  -2.339  1.00  0.00     0.103 A 
ATOM     72  C   UNL     1       0.771   2.444  -1.364  1.00  0.00     0.048 A 
ATOM     73  C   UNL     1       2.221   2.763  -3.279  1.00  0.00     0.130 A 
ATOM     74  C   UNL     1       0.575   3.824  -1.258  1.00  0.00     0.064 A 
ATOM     75  C   UNL     1       1.987   4.135  -3.217  1.00  0.00     0.049 A 
ATOM     76  C   UNL     1       1.204   4.663  -2.186  1.00  0.00     0.032 A 
BRANCH  73  77
ATOM     77  O   UNL     1       3.038   2.259  -4.250  1.00  0.00    -0.507 OA
ATOM     78  H   UNL     1       3.198   1.337  -4.295  1.00  0.00     0.293 HD
ENDBRANCH  73  77
BRANCH  74  79
ATOM     79  N   UNL     1      -0.152   4.306  -0.153  1.00  0.00    -0.256 NA
ATOM     80  C   UNL     1      -0.951   5.308  -0.324  1.00  0.00     0.119 C 
BRANCH  80  81
ATOM     81  C   UNL     1      -1.779   5.848   0.773  1.00  0.00    -0.007 A 
ATOM     82  C   UNL     1      -2.801   6.744   0.441  1.00  0.00     0.017 A 
ATOM     83  C   UNL     1      -1.591   5.447   2.101  1.00  0.00     0.017 A 
ATOM     84  C   UNL     1      -3.669   7.210   1.430  1.00  0.00     0.086 A 
ATOM     85  C   UNL     1      -2.451   5.919   3.099  1.00  0.00     0.086 A 
ATOM     86  C   UNL     1      -3.500   6.785   2.756  1.00  0.00     0.269 A 
BRANCH  86  87
ATOM     87  N   UNL     1      -4.454   7.226   3.782  1.00  0.00     0.062 N 
ATOM     88  O   UNL     1      -5.409   7.928   3.417  1.00  0.00    -0.258 OA
ATOM     89  O   UNL     1      -4.263   6.856   4.949  1.00  0.00    -0.258 OA
ENDBRANCH  86  87
ENDBRANCH  80  81
ENDBRANCH  74  79
ENDBRANCH  69  71
ENDBRANCH  68  69
ENDBRANCH  67  68
ENDBRANCH   1  67
TORSDOF 18
