REMARK SMILES CC(=O)c1cccc(-c2ccc(C(=O)OCCOC(=O)c3ccc(-c4c5nc(c(-c6ccc(S(=O)(=O)[O-])cc6)c6ccc([nH]6)c(-c6ccc(S(=O)(=O)[O-])cc6)c6nc(c(-c7ccc(S(=O)(=O)[O-])cc7)c7ccc4[nH]7)C=C6)C=C5)cc3)cc2F)c1
REMARK SMILES IDX 17 1 16 2 15 3 13 4 14 5 12 6 9 7 10 8 82 9 11 10 81 11
REMARK SMILES IDX 83 12 8 13 4 14 5 15 84 16 6 17 7 18 2 19 1 20 3 21 18 22
REMARK SMILES IDX 19 23 20 24 21 25 22 26 80 27 23 28 79 29 24 30 25 31 26 32
REMARK SMILES IDX 73 33 27 34 78 35 72 36 74 37 28 38 77 39 71 40 70 41 29 43
REMARK SMILES IDX 59 44 40 45 58 46 41 47 44 48 57 49 75 50 42 51 43 52 56 54
REMARK SMILES IDX 76 55 45 56 30 57 31 58 39 59 32 60 38 61 33 62 34 63 35 64
REMARK SMILES IDX 36 65 37 66 60 67 61 68 69 69 62 70 68 71 63 72 64 73 65 74
REMARK SMILES IDX 66 75 67 76 46 77 47 78 55 79 48 80 54 81 49 82 50 83 51 84
REMARK SMILES IDX 52 85 53 86
REMARK H PARENT 74 42 44 53
REMARK Flexibility Score: inf
ROOT
ATOM      1  C   UNL     1      10.396   0.986   6.568  1.00  0.00     0.275 C 
ENDROOT
BRANCH   1   2
ATOM      2  C   UNL     1      10.086   0.880   5.075  1.00  0.00     0.275 C 
BRANCH   2   3
ATOM      3  O   UNL     1       8.703   1.183   4.799  1.00  0.00    -0.458 OA
BRANCH   3   4
ATOM      4  C   UNL     1       7.892   0.103   4.681  1.00  0.00     0.338 C 
ATOM      5  O   UNL     1       8.220  -1.067   4.778  1.00  0.00    -0.246 OA
BRANCH   4   6
ATOM      6  C   UNL     1       6.484   0.513   4.469  1.00  0.00     0.063 A 
ATOM      7  C   UNL     1       3.767   1.102   3.995  1.00  0.00     0.018 A 
ATOM      8  C   UNL     1       4.131   0.000   4.779  1.00  0.00     0.012 A 
ATOM      9  C   UNL     1       4.794   1.905   3.471  1.00  0.00     0.131 A 
ATOM     10  C   UNL     1       5.474  -0.307   4.986  1.00  0.00     0.016 A 
ATOM     11  C   UNL     1       6.142   1.634   3.713  1.00  0.00     0.055 A 
ATOM     12  F   UNL     1       4.492   2.949   2.683  1.00  0.00    -0.206 F 
BRANCH   7  13
ATOM     13  C   UNL     1       2.350   1.321   3.681  1.00  0.00    -0.015 A 
ATOM     14  C   UNL     1       0.524   1.265   2.067  1.00  0.00     0.018 A 
ATOM     15  C   UNL     1      -0.388   1.564   3.082  1.00  0.00     0.012 A 
ATOM     16  C   UNL     1       1.887   1.156   2.365  1.00  0.00     0.020 A 
ATOM     17  C   UNL     1       0.057   1.728   4.393  1.00  0.00     0.001 A 
ATOM     18  C   UNL     1       1.416   1.603   4.690  1.00  0.00     0.009 A 
BRANCH  14  19
ATOM     19  C   UNL     1       0.012   1.045   0.688  1.00  0.00     0.159 C 
ATOM     20  C   UNL     1       0.765   0.100  -0.213  1.00  0.00     0.093 C 
ATOM     21  O   UNL     1      -1.021   1.601   0.322  1.00  0.00    -0.295 OA
ENDBRANCH  14  19
ENDBRANCH   7  13
ENDBRANCH   4   6
ENDBRANCH   3   4
ENDBRANCH   2   3
ENDBRANCH   1   2
BRANCH   1  22
ATOM     22  O   UNL     1       9.677  -0.021   7.303  1.00  0.00    -0.458 OA
BRANCH  22  23
ATOM     23  C   UNL     1       8.849   0.443   8.266  1.00  0.00     0.338 C 
ATOM     24  O   UNL     1       8.675   1.604   8.594  1.00  0.00    -0.246 OA
BRANCH  23  25
ATOM     25  C   UNL     1       8.119  -0.670   8.899  1.00  0.00     0.060 A 
ATOM     26  C   UNL     1       7.199  -1.397   8.149  1.00  0.00     0.016 A 
ATOM     27  C   UNL     1       8.204  -0.864  10.276  1.00  0.00     0.016 A 
ATOM     28  C   UNL     1       6.271  -2.221   8.786  1.00  0.00     0.010 A 
ATOM     29  C   UNL     1       7.339  -1.771  10.901  1.00  0.00     0.010 A 
ATOM     30  C   UNL     1       6.315  -2.409  10.176  1.00  0.00    -0.014 A 
BRANCH  30  31
ATOM     31  C   UNL     1       5.240  -3.174  10.882  1.00  0.00     0.031 A 
ATOM     32  C   UNL     1       4.431  -2.506  11.973  1.00  0.00     0.074 A 
ATOM     33  C   UNL     1       4.942  -4.445  10.544  1.00  0.00     0.049 A 
ATOM     34  N   UNL     1       3.576  -3.033  12.813  1.00  0.00    -0.248 NA
ATOM     35  C   UNL     1       4.626  -1.058  12.153  1.00  0.00     0.031 C 
ATOM     36  C   UNL     1       5.581  -5.218   9.478  1.00  0.00     0.029 A 
ATOM     37  N   UNL     1       3.999  -5.306  11.053  1.00  0.00    -0.354 N 
ATOM     38  C   UNL     1       3.204  -2.006  13.674  1.00  0.00     0.074 A 
ATOM     39  C   UNL     1       3.914  -0.821  13.246  1.00  0.00     0.031 C 
ATOM     40  C   UNL     1       4.968  -6.408   9.368  1.00  0.00     0.029 A 
ATOM     41  C   UNL     1       3.952  -6.521  10.410  1.00  0.00     0.049 A 
ATOM     42  H   UNL     1       3.411  -5.075  11.809  1.00  0.00     0.167 HD
ATOM     43  C   UNL     1       2.356  -2.042  14.731  1.00  0.00     0.031 A 
ATOM     44  C   UNL     1       3.200  -7.615  10.642  1.00  0.00     0.031 A 
ATOM     45  C   UNL     1       1.581  -3.191  15.115  1.00  0.00     0.049 A 
ATOM     46  C   UNL     1       2.246  -7.630  11.802  1.00  0.00     0.074 A 
ATOM     47  C   UNL     1       0.683  -3.316  16.162  1.00  0.00     0.029 A 
ATOM     48  N   UNL     1       1.587  -4.405  14.448  1.00  0.00    -0.354 N 
ATOM     49  N   UNL     1       1.976  -6.675  12.659  1.00  0.00    -0.248 NA
ATOM     50  C   UNL     1       1.510  -8.881  12.038  1.00  0.00     0.031 C 
ATOM     51  C   UNL     1       0.161  -4.615  16.139  1.00  0.00     0.029 A 
ATOM     52  C   UNL     1       0.709  -5.285  15.058  1.00  0.00     0.049 A 
ATOM     53  H   UNL     1       2.135  -4.612  13.657  1.00  0.00     0.167 HD
ATOM     54  C   UNL     1       1.035  -7.208  13.533  1.00  0.00     0.074 A 
ATOM     55  C   UNL     1       0.768  -8.561  13.090  1.00  0.00     0.031 C 
ATOM     56  C   UNL     1       0.451  -6.628  14.610  1.00  0.00     0.031 A 
BRANCH  43  57
ATOM     57  C   UNL     1       2.268  -0.805  15.585  1.00  0.00    -0.014 A 
ATOM     58  C   UNL     1       1.581   0.345  15.160  1.00  0.00     0.010 A 
ATOM     59  C   UNL     1       2.893  -0.802  16.846  1.00  0.00     0.010 A 
ATOM     60  C   UNL     1       1.568   1.494  15.956  1.00  0.00     0.020 A 
ATOM     61  C   UNL     1       2.862   0.336  17.656  1.00  0.00     0.020 A 
ATOM     62  C   UNL     1       2.221   1.486  17.193  1.00  0.00     0.054 A 
BRANCH  62  63
ATOM     63  S   UNL     1       2.208   2.990  18.209  1.00  0.00     0.124 S 
ATOM     64  O   UNL     1       3.269   3.779  17.587  1.00  0.00    -0.237 OA
ATOM     65  O   UNL     1       0.853   3.502  18.017  1.00  0.00    -0.237 OA
ATOM     66  O   UNL     1       2.500   2.500  19.553  1.00  0.00    -0.744 OA
ENDBRANCH  62  63
ENDBRANCH  43  57
BRANCH  44  67
ATOM     67  C   UNL     1       3.334  -8.802   9.756  1.00  0.00    -0.014 A 
ATOM     68  C   UNL     1       2.319  -9.115   8.835  1.00  0.00     0.010 A 
ATOM     69  C   UNL     1       4.489  -9.604   9.804  1.00  0.00     0.010 A 
ATOM     70  C   UNL     1       2.458 -10.206   7.973  1.00  0.00     0.020 A 
ATOM     71  C   UNL     1       4.642 -10.681   8.927  1.00  0.00     0.020 A 
ATOM     72  C   UNL     1       3.622 -10.978   8.020  1.00  0.00     0.054 A 
BRANCH  72  73
ATOM     73  S   UNL     1       3.829 -12.334   6.831  1.00  0.00     0.124 S 
ATOM     74  O   UNL     1       3.041 -13.398   7.444  1.00  0.00    -0.237 OA
ATOM     75  O   UNL     1       3.281 -11.767   5.601  1.00  0.00    -0.237 OA
ATOM     76  O   UNL     1       5.274 -12.550   6.815  1.00  0.00    -0.744 OA
ENDBRANCH  72  73
ENDBRANCH  44  67
BRANCH  56  77
ATOM     77  C   UNL     1      -0.559  -7.446  15.365  1.00  0.00    -0.014 A 
ATOM     78  C   UNL     1      -0.154  -8.465  16.245  1.00  0.00     0.010 A 
ATOM     79  C   UNL     1      -1.930  -7.170  15.214  1.00  0.00     0.010 A 
ATOM     80  C   UNL     1      -1.107  -9.219  16.936  1.00  0.00     0.020 A 
ATOM     81  C   UNL     1      -2.884  -7.910  15.916  1.00  0.00     0.020 A 
ATOM     82  C   UNL     1      -2.466  -8.941  16.762  1.00  0.00     0.054 A 
BRANCH  82  83
ATOM     83  S   UNL     1      -3.689  -9.913  17.686  1.00  0.00     0.124 S 
ATOM     84  O   UNL     1      -3.765 -11.136  16.893  1.00  0.00    -0.237 OA
ATOM     85  O   UNL     1      -3.067 -10.053  19.000  1.00  0.00    -0.237 OA
ATOM     86  O   UNL     1      -4.886  -9.075  17.658  1.00  0.00    -0.744 OA
ENDBRANCH  82  83
ENDBRANCH  56  77
ENDBRANCH  30  31
ENDBRANCH  23  25
ENDBRANCH  22  23
ENDBRANCH   1  22
TORSDOF 16
