REMARK SMILES CCOC(=O)c1c(NC(=O)[C@@H]2[C@@H]3CC[C@@H](C3)[C@@H]2C(=O)OCCOC(=O)c2ccc(-c3c4nc(c(-c5ccc(S(=O)(=O)[O-])cc5)c5ccc([nH]5)c(-c5ccc(S(=O)(=O)[O-])cc5)c5nc(c(-c6ccc(S(=O)(=O)[O-])cc6)c6ccc3[nH]6)C=C5)C=C4)cc2)sc2c1CCCC2
REMARK SMILES IDX 21 1 20 2 18 3 19 4 17 5 11 6 12 7 13 8 16 9 15 10 14 11
REMARK SMILES IDX 9 12 8 13 10 15 7 16 6 17 88 18 86 19 87 20 89 21 92 22
REMARK SMILES IDX 90 23 91 24 4 25 5 26 3 27 2 28 1 29 22 30 23 31 24 32 25 33
REMARK SMILES IDX 26 34 27 35 85 36 28 37 84 38 29 39 30 40 31 41 78 42 32 43
REMARK SMILES IDX 83 44 77 45 79 46 33 47 82 48 76 49 75 50 34 52 64 53 45 54
REMARK SMILES IDX 63 55 46 56 49 57 62 58 80 59 47 60 48 61 61 63 81 64 50 65
REMARK SMILES IDX 35 66 36 67 44 68 37 69 43 70 38 71 39 72 40 73 41 74 42 75
REMARK SMILES IDX 65 76 66 77 74 78 67 79 73 80 68 81 69 82 70 83 71 84 72 85
REMARK SMILES IDX 51 86 52 87 60 88 53 89 59 90 54 91 55 92 56 93 57 94 58 95
REMARK H PARENT 8 14 79 51 49 62
REMARK Flexibility Score: inf
ROOT
ATOM      1  C   UNL     1       0.474  -4.890   0.846  1.00  0.00     0.274 C 
ENDROOT
BRANCH   1   2
ATOM      2  O   UNL     1       1.645  -4.071   0.637  1.00  0.00    -0.462 OA
BRANCH   2   3
ATOM      3  C   UNL     1       1.568  -3.148  -0.375  1.00  0.00     0.310 C 
ATOM      4  O   UNL     1       0.553  -2.921  -1.013  1.00  0.00    -0.252 OA
BRANCH   3   5
ATOM      5  C   UNL     1       2.968  -2.628  -0.690  1.00  0.00     0.115 C 
ATOM      6  C   UNL     1       3.475  -1.230  -0.251  1.00  0.00     0.096 C 
ATOM      7  C   UNL     1       4.150  -0.698  -1.546  1.00  0.00     0.003 C 
ATOM      8  C   UNL     1       3.100  -0.301  -2.602  1.00  0.00     0.005 C 
ATOM      9  C   UNL     1       4.699  -1.982  -2.168  1.00  0.00     0.009 C 
ATOM     10  C   UNL     1       3.325  -2.664  -2.195  1.00  0.00     0.004 C 
ATOM     11  C   UNL     1       2.502  -1.650  -3.010  1.00  0.00     0.005 C 
BRANCH   6  12
ATOM     12  C   UNL     1       2.490  -0.226   0.265  1.00  0.00     0.229 C 
ATOM     13  N   UNL     1       2.857   0.874   0.966  1.00  0.00    -0.317 N 
ATOM     14  H   UNL     1       2.086   1.460   1.141  1.00  0.00     0.170 HD
ATOM     15  O   UNL     1       1.297  -0.334  -0.026  1.00  0.00    -0.274 OA
BRANCH  13  16
ATOM     16  C   UNL     1       4.012   1.392   1.498  1.00  0.00     0.110 A 
ATOM     17  C   UNL     1       5.355   1.106   1.674  1.00  0.00     0.098 A 
ATOM     18  C   UNL     1       6.037   2.213   2.328  1.00  0.00    -0.017 A 
ATOM     19  S   UNL     1       3.600   2.924   2.165  1.00  0.00    -0.122 S 
ATOM     20  C   UNL     1       5.171   3.221   2.690  1.00  0.00     0.011 A 
ATOM     21  C   UNL     1       7.514   2.320   2.595  1.00  0.00     0.038 C 
ATOM     22  C   UNL     1       5.534   4.452   3.461  1.00  0.00     0.047 C 
ATOM     23  C   UNL     1       7.851   3.429   3.604  1.00  0.00     0.005 C 
ATOM     24  C   UNL     1       7.043   4.710   3.353  1.00  0.00     0.006 C 
BRANCH  17  25
ATOM     25  C   UNL     1       6.077  -0.093   1.296  1.00  0.00     0.341 C 
ATOM     26  O   UNL     1       6.754  -0.180   0.283  1.00  0.00    -0.246 OA
BRANCH  25  27
ATOM     27  O   UNL     1       6.005  -1.046   2.271  1.00  0.00    -0.462 OA
BRANCH  27  28
ATOM     28  C   UNL     1       6.877  -2.178   2.132  1.00  0.00     0.230 C 
ATOM     29  C   UNL     1       6.051  -3.432   1.929  1.00  0.00     0.049 C 
ENDBRANCH  27  28
ENDBRANCH  25  27
ENDBRANCH  17  25
ENDBRANCH  13  16
ENDBRANCH   6  12
ENDBRANCH   3   5
ENDBRANCH   2   3
ENDBRANCH   1   2
BRANCH   1  30
ATOM     30  C   UNL     1       0.095  -4.892   2.323  1.00  0.00     0.275 C 
BRANCH  30  31
ATOM     31  O   UNL     1      -0.289  -3.559   2.695  1.00  0.00    -0.458 OA
BRANCH  31  32
ATOM     32  C   UNL     1       0.410  -2.993   3.706  1.00  0.00     0.338 C 
ATOM     33  O   UNL     1       1.219  -3.542   4.435  1.00  0.00    -0.246 OA
BRANCH  32  34
ATOM     34  C   UNL     1       0.101  -1.548   3.780  1.00  0.00     0.060 A 
ATOM     35  C   UNL     1      -0.050  -0.813   2.615  1.00  0.00     0.016 A 
ATOM     36  C   UNL     1       0.117  -0.877   5.002  1.00  0.00     0.016 A 
ATOM     37  C   UNL     1      -0.005   0.585   2.663  1.00  0.00     0.010 A 
ATOM     38  C   UNL     1       0.032   0.528   5.040  1.00  0.00     0.010 A 
ATOM     39  C   UNL     1       0.075   1.305   3.866  1.00  0.00    -0.014 A 
BRANCH  39  40
ATOM     40  C   UNL     1       0.338   2.801   3.904  1.00  0.00     0.031 A 
ATOM     41  C   UNL     1       1.298   3.389   4.937  1.00  0.00     0.074 A 
ATOM     42  C   UNL     1      -0.140   3.680   2.988  1.00  0.00     0.049 A 
ATOM     43  N   UNL     1       1.432   4.632   5.338  1.00  0.00    -0.248 NA
ATOM     44  C   UNL     1       2.218   2.459   5.613  1.00  0.00     0.031 C 
ATOM     45  C   UNL     1      -0.974   3.364   1.831  1.00  0.00     0.029 A 
ATOM     46  N   UNL     1       0.070   5.040   2.858  1.00  0.00    -0.354 N 
ATOM     47  C   UNL     1       2.328   4.601   6.405  1.00  0.00     0.074 A 
ATOM     48  C   UNL     1       2.741   3.224   6.560  1.00  0.00     0.031 C 
ATOM     49  C   UNL     1      -1.062   4.438   1.034  1.00  0.00     0.029 A 
ATOM     50  C   UNL     1      -0.474   5.584   1.716  1.00  0.00     0.049 A 
ATOM     51  H   UNL     1       0.565   5.572   3.522  1.00  0.00     0.167 HD
ATOM     52  C   UNL     1       2.756   5.618   7.194  1.00  0.00     0.031 A 
ATOM     53  C   UNL     1      -0.577   6.859   1.281  1.00  0.00     0.031 A 
ATOM     54  C   UNL     1       2.478   7.011   6.955  1.00  0.00     0.049 A 
ATOM     55  C   UNL     1      -0.140   7.985   2.175  1.00  0.00     0.074 A 
ATOM     56  C   UNL     1       2.857   8.110   7.711  1.00  0.00     0.029 A 
ATOM     57  N   UNL     1       1.801   7.504   5.853  1.00  0.00    -0.354 N 
ATOM     58  N   UNL     1       0.500   7.932   3.316  1.00  0.00    -0.248 NA
ATOM     59  C   UNL     1      -0.507   9.345   1.750  1.00  0.00     0.031 C 
ATOM     60  C   UNL     1       2.380   9.265   7.080  1.00  0.00     0.029 A 
ATOM     61  C   UNL     1       1.748   8.888   5.909  1.00  0.00     0.049 A 
ATOM     62  H   UNL     1       1.415   6.953   5.135  1.00  0.00     0.167 HD
ATOM     63  C   UNL     1       0.596   9.249   3.755  1.00  0.00     0.074 A 
ATOM     64  C   UNL     1      -0.017  10.079   2.741  1.00  0.00     0.031 C 
ATOM     65  C   UNL     1       1.129   9.719   4.909  1.00  0.00     0.031 A 
BRANCH  52  66
ATOM     66  C   UNL     1       3.494   5.255   8.458  1.00  0.00    -0.014 A 
ATOM     67  C   UNL     1       4.822   4.798   8.463  1.00  0.00     0.010 A 
ATOM     68  C   UNL     1       2.820   5.405   9.688  1.00  0.00     0.010 A 
ATOM     69  C   UNL     1       5.439   4.438   9.667  1.00  0.00     0.020 A 
ATOM     70  C   UNL     1       3.442   5.077  10.894  1.00  0.00     0.020 A 
ATOM     71  C   UNL     1       4.741   4.569  10.873  1.00  0.00     0.054 A 
BRANCH  71  72
ATOM     72  S   UNL     1       5.553   4.079  12.419  1.00  0.00     0.124 S 
ATOM     73  O   UNL     1       5.477   2.622  12.348  1.00  0.00    -0.237 OA
ATOM     74  O   UNL     1       6.892   4.644  12.274  1.00  0.00    -0.237 OA
ATOM     75  O   UNL     1       4.729   4.696  13.455  1.00  0.00    -0.744 OA
ENDBRANCH  71  72
ENDBRANCH  52  66
BRANCH  53  76
ATOM     76  C   UNL     1      -1.234   7.152  -0.028  1.00  0.00    -0.014 A 
ATOM     77  C   UNL     1      -0.495   7.694  -1.094  1.00  0.00     0.010 A 
ATOM     78  C   UNL     1      -2.600   6.871  -0.220  1.00  0.00     0.010 A 
ATOM     79  C   UNL     1      -1.105   7.925  -2.333  1.00  0.00     0.020 A 
ATOM     80  C   UNL     1      -3.201   7.062  -1.465  1.00  0.00     0.020 A 
ATOM     81  C   UNL     1      -2.451   7.594  -2.514  1.00  0.00     0.054 A 
BRANCH  81  82
ATOM     82  S   UNL     1      -3.201   7.795  -4.155  1.00  0.00     0.124 S 
ATOM     83  O   UNL     1      -3.474   9.228  -4.189  1.00  0.00    -0.237 OA
ATOM     84  O   UNL     1      -2.144   7.330  -5.050  1.00  0.00    -0.237 OA
ATOM     85  O   UNL     1      -4.379   6.932  -4.096  1.00  0.00    -0.744 OA
ENDBRANCH  81  82
ENDBRANCH  53  76
BRANCH  65  86
ATOM     86  C   UNL     1       1.094  11.206   5.135  1.00  0.00    -0.014 A 
ATOM     87  C   UNL     1      -0.102  11.857   5.489  1.00  0.00     0.010 A 
ATOM     88  C   UNL     1       2.278  11.958   5.028  1.00  0.00     0.010 A 
ATOM     89  C   UNL     1      -0.118  13.238   5.702  1.00  0.00     0.020 A 
ATOM     90  C   UNL     1       2.269  13.336   5.261  1.00  0.00     0.020 A 
ATOM     91  C   UNL     1       1.067  13.970   5.583  1.00  0.00     0.054 A 
BRANCH  91  92
ATOM     92  S   UNL     1       1.029  15.757   5.897  1.00  0.00     0.124 S 
ATOM     93  O   UNL     1       0.392  16.265   4.685  1.00  0.00    -0.237 OA
ATOM     94  O   UNL     1       0.229  15.853   7.116  1.00  0.00    -0.237 OA
ATOM     95  O   UNL     1       2.438  16.110   6.056  1.00  0.00    -0.744 OA
ENDBRANCH  91  92
ENDBRANCH  65  86
ENDBRANCH  39  40
ENDBRANCH  32  34
ENDBRANCH  31  32
ENDBRANCH  30  31
ENDBRANCH   1  30
TORSDOF 19
