REMARK SMILES CC1=C(C(=O)OCC(C)C)[C@@H](c2ccc(C(=O)OCCOC(=O)c3ccc(-c4c5nc(c(-c6ccc(S(=O)(=O)[O-])cc6)c6ccc([nH]6)c(-c6ccc(S(=O)(=O)[O-])cc6)c6nc(c(-c7ccc(S(=O)(=O)[O-])cc7)c7ccc4[nH]7)C=C6)C=C5)cc3)cc2)c2c(n(C)c(=O)n(C)c2=O)N1
REMARK SMILES IDX 19 1 18 2 16 3 17 4 15 5 12 6 13 7 85 8 14 9 84 10 11 11
REMARK SMILES IDX 1 12 2 13 3 14 96 15 87 16 86 18 88 19 94 20 89 21 90 22
REMARK SMILES IDX 92 23 95 24 91 25 93 26 4 27 5 28 6 29 7 30 8 31 9 32 10 33
REMARK SMILES IDX 20 34 21 35 22 36 23 37 24 38 25 39 83 40 26 41 82 42 27 43
REMARK SMILES IDX 28 44 29 45 76 46 30 47 81 48 75 49 77 50 31 51 80 52 74 53
REMARK SMILES IDX 73 54 32 56 62 57 43 58 61 59 44 60 47 61 60 62 78 63 45 64
REMARK SMILES IDX 46 65 59 67 79 68 48 69 33 70 34 71 42 72 35 73 41 74 36 75
REMARK SMILES IDX 37 76 38 77 39 78 40 79 63 80 64 81 72 82 65 83 71 84 66 85
REMARK SMILES IDX 67 86 68 87 69 88 70 89 49 90 50 91 58 92 51 93 57 94 52 95
REMARK SMILES IDX 53 96 54 97 55 98 56 99
REMARK H PARENT 96 17 77 55 47 66
REMARK Flexibility Score: inf
ROOT
ATOM      1  C   UNL     1      -7.144   2.838   5.582  1.00  0.00     0.275 C 
ENDROOT
BRANCH   1   2
ATOM      2  O   UNL     1      -5.748   2.585   5.322  1.00  0.00    -0.458 OA
BRANCH   2   3
ATOM      3  C   UNL     1      -5.434   1.288   5.083  1.00  0.00     0.338 C 
ATOM      4  O   UNL     1      -6.202   0.338   5.120  1.00  0.00    -0.246 OA
BRANCH   3   5
ATOM      5  C   UNL     1      -4.023   1.147   4.662  1.00  0.00     0.060 A 
ATOM      6  C   UNL     1      -1.362   0.619   3.926  1.00  0.00    -0.035 A 
ATOM      7  C   UNL     1      -2.420  -0.031   3.277  1.00  0.00     0.005 A 
ATOM      8  C   UNL     1      -1.657   1.582   4.909  1.00  0.00     0.005 A 
ATOM      9  C   UNL     1      -3.731   0.201   3.675  1.00  0.00     0.016 A 
ATOM     10  C   UNL     1      -2.985   1.857   5.266  1.00  0.00     0.016 A 
BRANCH   6  11
ATOM     11  C   UNL     1       0.084   0.185   3.644  1.00  0.00     0.098 C 
ATOM     12  C   UNL     1       1.252  -0.159  -0.110  1.00  0.00     0.065 C 
ATOM     13  C   UNL     1       0.802  -0.397   1.312  1.00  0.00     0.025 C 
ATOM     14  C   UNL     1       0.498   0.560   2.221  1.00  0.00     0.068 C 
ATOM     15  N   UNL     1       0.745  -1.732   1.686  1.00  0.00    -0.344 N 
ATOM     16  C   UNL     1       0.494  -2.210   2.961  1.00  0.00     0.123 A 
ATOM     17  H   UNL     1       0.896  -2.401   0.980  1.00  0.00     0.168 HD
ATOM     18  C   UNL     1       0.221  -1.312   3.925  1.00  0.00     0.071 A 
ATOM     19  N   UNL     1       0.504  -3.563   3.263  1.00  0.00    -0.282 N 
ATOM     20  C   UNL     1      -0.015  -1.772   5.308  1.00  0.00     0.262 A 
ATOM     21  C   UNL     1       0.863  -4.532   2.233  1.00  0.00     0.157 C 
ATOM     22  C   UNL     1       0.130  -4.064   4.508  1.00  0.00     0.332 A 
ATOM     23  N   UNL     1      -0.221  -3.123   5.463  1.00  0.00    -0.263 N 
ATOM     24  O   UNL     1      -0.009  -0.969   6.240  1.00  0.00    -0.269 OA
ATOM     25  O   UNL     1       0.131  -5.269   4.766  1.00  0.00    -0.247 OA
ATOM     26  C   UNL     1      -0.671  -3.619   6.749  1.00  0.00     0.158 C 
BRANCH  14  27
ATOM     27  C   UNL     1       0.622   2.020   1.993  1.00  0.00     0.336 C 
ATOM     28  O   UNL     1       1.080   2.784   2.830  1.00  0.00    -0.246 OA
BRANCH  27  29
ATOM     29  O   UNL     1       0.110   2.366   0.792  1.00  0.00    -0.462 OA
BRANCH  29  30
ATOM     30  C   UNL     1       0.183   3.750   0.414  1.00  0.00     0.236 C 
BRANCH  30  31
ATOM     31  C   UNL     1      -1.229   4.337   0.317  1.00  0.00     0.021 C 
ATOM     32  C   UNL     1      -1.945   4.300   1.667  1.00  0.00     0.011 C 
ATOM     33  C   UNL     1      -1.173   5.766  -0.219  1.00  0.00     0.011 C 
ENDBRANCH  30  31
ENDBRANCH  29  30
ENDBRANCH  27  29
ENDBRANCH  14  27
ENDBRANCH   6  11
ENDBRANCH   3   5
ENDBRANCH   2   3
ENDBRANCH   1   2
BRANCH   1  34
ATOM     34  C   UNL     1      -7.840   3.385   4.336  1.00  0.00     0.275 C 
BRANCH  34  35
ATOM     35  O   UNL     1      -7.854   2.385   3.301  1.00  0.00    -0.458 OA
BRANCH  35  36
ATOM     36  C   UNL     1      -7.223   2.718   2.151  1.00  0.00     0.338 C 
ATOM     37  O   UNL     1      -6.705   3.787   1.875  1.00  0.00    -0.246 OA
BRANCH  36  38
ATOM     38  C   UNL     1      -7.224   1.571   1.224  1.00  0.00     0.060 A 
ATOM     39  C   UNL     1      -6.680   0.358   1.630  1.00  0.00     0.016 A 
ATOM     40  C   UNL     1      -7.629   1.740  -0.098  1.00  0.00     0.016 A 
ATOM     41  C   UNL     1      -6.406  -0.637   0.692  1.00  0.00     0.010 A 
ATOM     42  C   UNL     1      -7.479   0.686  -1.010  1.00  0.00     0.010 A 
ATOM     43  C   UNL     1      -6.816  -0.500  -0.642  1.00  0.00    -0.014 A 
BRANCH  43  44
ATOM     44  C   UNL     1      -6.525  -1.568  -1.650  1.00  0.00     0.031 A 
ATOM     45  C   UNL     1      -5.793  -1.233  -2.931  1.00  0.00     0.074 A 
ATOM     46  C   UNL     1      -6.889  -2.849  -1.423  1.00  0.00     0.049 A 
ATOM     47  N   UNL     1      -5.599  -1.978  -3.992  1.00  0.00    -0.248 NA
ATOM     48  C   UNL     1      -5.213   0.116  -3.040  1.00  0.00     0.031 C 
ATOM     49  C   UNL     1      -7.554  -3.345  -0.216  1.00  0.00     0.029 A 
ATOM     50  N   UNL     1      -6.734  -3.977  -2.195  1.00  0.00    -0.354 N 
ATOM     51  C   UNL     1      -4.934  -1.172  -4.911  1.00  0.00     0.074 A 
ATOM     52  C   UNL     1      -4.763   0.122  -4.288  1.00  0.00     0.031 C 
ATOM     53  C   UNL     1      -7.685  -4.677  -0.297  1.00  0.00     0.029 A 
ATOM     54  C   UNL     1      -7.218  -5.122  -1.604  1.00  0.00     0.049 A 
ATOM     55  H   UNL     1      -6.317  -3.966  -3.086  1.00  0.00     0.167 HD
ATOM     56  C   UNL     1      -4.503  -1.479  -6.159  1.00  0.00     0.031 A 
ATOM     57  C   UNL     1      -7.320  -6.384  -2.066  1.00  0.00     0.031 A 
ATOM     58  C   UNL     1      -4.630  -2.780  -6.764  1.00  0.00     0.049 A 
ATOM     59  C   UNL     1      -6.885  -6.690  -3.470  1.00  0.00     0.074 A 
ATOM     60  C   UNL     1      -4.222  -3.186  -8.024  1.00  0.00     0.029 A 
ATOM     61  N   UNL     1      -5.187  -3.890  -6.148  1.00  0.00    -0.354 N 
ATOM     62  N   UNL     1      -6.330  -5.893  -4.350  1.00  0.00    -0.248 NA
ATOM     63  C   UNL     1      -7.116  -8.059  -3.953  1.00  0.00     0.031 C 
ATOM     64  C   UNL     1      -4.569  -4.531  -8.184  1.00  0.00     0.029 A 
ATOM     65  C   UNL     1      -5.145  -4.977  -7.006  1.00  0.00     0.049 A 
ATOM     66  H   UNL     1      -5.558  -3.904  -5.237  1.00  0.00     0.167 HD
ATOM     67  C   UNL     1      -6.143  -6.664  -5.491  1.00  0.00     0.074 A 
ATOM     68  C   UNL     1      -6.619  -7.996  -5.181  1.00  0.00     0.031 C 
ATOM     69  C   UNL     1      -5.628  -6.296  -6.689  1.00  0.00     0.031 A 
BRANCH  56  70
ATOM     70  C   UNL     1      -3.872  -0.380  -6.976  1.00  0.00    -0.014 A 
ATOM     71  C   UNL     1      -2.580   0.095  -6.692  1.00  0.00     0.010 A 
ATOM     72  C   UNL     1      -4.565   0.144  -8.085  1.00  0.00     0.010 A 
ATOM     73  C   UNL     1      -2.006   1.097  -7.480  1.00  0.00     0.020 A 
ATOM     74  C   UNL     1      -3.984   1.128  -8.891  1.00  0.00     0.020 A 
ATOM     75  C   UNL     1      -2.713   1.609  -8.574  1.00  0.00     0.054 A 
BRANCH  75  76
ATOM     76  S   UNL     1      -1.930   2.890  -9.592  1.00  0.00     0.124 S 
ATOM     77  O   UNL     1      -1.971   4.048  -8.702  1.00  0.00    -0.237 OA
ATOM     78  O   UNL     1      -0.601   2.335  -9.838  1.00  0.00    -0.237 OA
ATOM     79  O   UNL     1      -2.793   2.977 -10.767  1.00  0.00    -0.744 OA
ENDBRANCH  75  76
ENDBRANCH  56  70
BRANCH  57  80
ATOM     80  C   UNL     1      -7.903  -7.444  -1.197  1.00  0.00    -0.014 A 
ATOM     81  C   UNL     1      -7.092  -8.471  -0.684  1.00  0.00     0.010 A 
ATOM     82  C   UNL     1      -9.267  -7.411  -0.848  1.00  0.00     0.010 A 
ATOM     83  C   UNL     1      -7.633  -9.442   0.166  1.00  0.00     0.020 A 
ATOM     84  C   UNL     1      -9.803  -8.361   0.025  1.00  0.00     0.020 A 
ATOM     85  C   UNL     1      -8.983  -9.375   0.521  1.00  0.00     0.054 A 
BRANCH  85  86
ATOM     86  S   UNL     1      -9.643 -10.599   1.687  1.00  0.00     0.124 S 
ATOM     87  O   UNL     1      -9.707 -11.800   0.862  1.00  0.00    -0.237 OA
ATOM     88  O   UNL     1      -8.632 -10.607   2.741  1.00  0.00    -0.237 OA
ATOM     89  O   UNL     1     -10.934 -10.037   2.078  1.00  0.00    -0.744 OA
ENDBRANCH  85  86
ENDBRANCH  57  80
BRANCH  69  90
ATOM     90  C   UNL     1      -5.536  -7.351  -7.757  1.00  0.00    -0.014 A 
ATOM     91  C   UNL     1      -6.682  -7.784  -8.446  1.00  0.00     0.010 A 
ATOM     92  C   UNL     1      -4.279  -7.869  -8.118  1.00  0.00     0.010 A 
ATOM     93  C   UNL     1      -6.575  -8.732  -9.467  1.00  0.00     0.020 A 
ATOM     94  C   UNL     1      -4.165  -8.800  -9.154  1.00  0.00     0.020 A 
ATOM     95  C   UNL     1      -5.316  -9.232  -9.816  1.00  0.00     0.054 A 
BRANCH  95  96
ATOM     96  S   UNL     1      -5.199 -10.421 -11.181  1.00  0.00     0.124 S 
ATOM     97  O   UNL     1      -5.765 -11.627 -10.583  1.00  0.00    -0.237 OA
ATOM     98  O   UNL     1      -6.011  -9.794 -12.221  1.00  0.00    -0.237 OA
ATOM     99  O   UNL     1      -3.768 -10.481 -11.467  1.00  0.00    -0.744 OA
ENDBRANCH  95  96
ENDBRANCH  69  90
ENDBRANCH  43  44
ENDBRANCH  36  38
ENDBRANCH  35  36
ENDBRANCH  34  35
ENDBRANCH   1  34
TORSDOF 19
