REMARK SMILES O=C(OCCOC(=O)c1cc(N2CCN(c3ccc(F)cc3)CC2)ccc1NC(=O)C1CCCC1)c1ccc(-c2c3nc(c(-c4ccc(S(=O)(=O)[O-])cc4)c4ccc([nH]4)c(-c4ccc(S(=O)(=O)[O-])cc4)c4nc(c(-c5ccc(S(=O)(=O)[O-])cc5)c5ccc2[nH]5)C=C4)C=C3)cc1
REMARK SMILES IDX 4 1 3 2 2 3 1 4 36 5 37 6 95 7 38 8 94 9 39 10 40 11 41 12
REMARK SMILES IDX 88 13 42 14 93 15 87 16 89 17 43 18 92 19 86 20 85 21 44 23
REMARK SMILES IDX 74 24 55 25 73 26 56 27 59 28 72 29 90 30 57 31 58 32 71 34
REMARK SMILES IDX 91 35 60 36 45 37 46 38 54 39 47 40 53 41 48 42 49 43 50 44
REMARK SMILES IDX 51 45 52 46 75 47 76 48 84 49 77 50 83 51 78 52 79 53 80 54
REMARK SMILES IDX 81 55 82 56 61 57 62 58 70 59 63 60 69 61 64 62 65 63 66 64
REMARK SMILES IDX 67 65 68 66 5 67 6 68 7 69 8 70 9 71 10 72 27 73 11 74 26 75
REMARK SMILES IDX 25 76 28 77 29 78 30 80 31 81 32 82 35 83 33 84 34 85 12 86
REMARK SMILES IDX 13 87 24 88 14 89 23 90 15 91 16 92 17 93 22 94 18 95 21 96
REMARK SMILES IDX 19 97 20 98
REMARK H PARENT 89 22 59 33 28 79
REMARK Flexibility Score: inf
ROOT
ATOM      1  C   UNL     1       4.138  -1.365  -0.372  1.00  0.00     0.275 C 
ENDROOT
BRANCH   1   2
ATOM      2  O   UNL     1       3.128  -0.912   0.547  1.00  0.00    -0.458 OA
BRANCH   2   3
ATOM      3  C   UNL     1       3.023   0.260   1.218  1.00  0.00     0.338 C 
ATOM      4  O   UNL     1       2.141   0.372   2.068  1.00  0.00    -0.246 OA
BRANCH   3   5
ATOM      5  C   UNL     1       3.838   1.475   0.897  1.00  0.00     0.060 A 
ATOM      6  C   UNL     1       5.150   1.487   0.417  1.00  0.00     0.016 A 
ATOM      7  C   UNL     1       3.219   2.715   1.126  1.00  0.00     0.016 A 
ATOM      8  C   UNL     1       5.799   2.687   0.097  1.00  0.00     0.010 A 
ATOM      9  C   UNL     1       3.862   3.916   0.807  1.00  0.00     0.010 A 
ATOM     10  C   UNL     1       5.163   3.913   0.283  1.00  0.00    -0.014 A 
BRANCH  10  11
ATOM     11  C   UNL     1       5.910   5.189   0.137  1.00  0.00     0.031 A 
ATOM     12  C   UNL     1       6.256   5.935   1.392  1.00  0.00     0.074 A 
ATOM     13  C   UNL     1       6.359   5.652  -1.049  1.00  0.00     0.049 A 
ATOM     14  N   UNL     1       6.857   7.085   1.518  1.00  0.00    -0.248 NA
ATOM     15  C   UNL     1       5.951   5.266   2.670  1.00  0.00     0.031 C 
ATOM     16  C   UNL     1       6.315   4.930  -2.315  1.00  0.00     0.029 A 
ATOM     17  N   UNL     1       6.913   6.866  -1.393  1.00  0.00    -0.354 N 
ATOM     18  C   UNL     1       7.105   7.220   2.876  1.00  0.00     0.074 A 
ATOM     19  C   UNL     1       6.462   6.114   3.547  1.00  0.00     0.031 C 
ATOM     20  C   UNL     1       6.701   5.751  -3.308  1.00  0.00     0.029 A 
ATOM     21  C   UNL     1       6.974   7.068  -2.760  1.00  0.00     0.049 A 
ATOM     22  H   UNL     1       7.234   7.522  -0.733  1.00  0.00     0.167 HD
ATOM     23  C   UNL     1       7.881   8.137   3.493  1.00  0.00     0.031 A 
ATOM     24  C   UNL     1       7.141   8.212  -3.459  1.00  0.00     0.031 A 
ATOM     25  C   UNL     1       8.478   9.252   2.818  1.00  0.00     0.049 A 
ATOM     26  C   UNL     1       7.589   9.427  -2.701  1.00  0.00     0.074 A 
ATOM     27  C   UNL     1       9.310  10.230   3.329  1.00  0.00     0.029 A 
ATOM     28  N   UNL     1       8.276   9.552   1.480  1.00  0.00    -0.354 N 
ATOM     29  N   UNL     1       7.763   9.569  -1.411  1.00  0.00    -0.248 NA
ATOM     30  C   UNL     1       7.952  10.603  -3.503  1.00  0.00     0.031 C 
ATOM     31  C   UNL     1       9.547  11.166   2.316  1.00  0.00     0.029 A 
ATOM     32  C   UNL     1       8.918  10.733   1.159  1.00  0.00     0.049 A 
ATOM     33  H   UNL     1       7.753   9.005   0.850  1.00  0.00     0.167 HD
ATOM     34  C   UNL     1       8.360  10.811  -1.256  1.00  0.00     0.074 A 
ATOM     35  C   UNL     1       8.419  11.419  -2.571  1.00  0.00     0.031 C 
ATOM     36  C   UNL     1       8.903  11.351  -0.140  1.00  0.00     0.031 A 
BRANCH  23  37
ATOM     37  C   UNL     1       8.121   7.942   4.960  1.00  0.00    -0.014 A 
ATOM     38  C   UNL     1       8.921   6.878   5.422  1.00  0.00     0.010 A 
ATOM     39  C   UNL     1       7.537   8.818   5.888  1.00  0.00     0.010 A 
ATOM     40  C   UNL     1       9.096   6.669   6.791  1.00  0.00     0.020 A 
ATOM     41  C   UNL     1       7.730   8.626   7.258  1.00  0.00     0.020 A 
ATOM     42  C   UNL     1       8.495   7.543   7.700  1.00  0.00     0.054 A 
BRANCH  42  43
ATOM     43  S   UNL     1       8.740   7.254   9.472  1.00  0.00     0.124 S 
ATOM     44  O   UNL     1       7.931   6.058   9.696  1.00  0.00    -0.237 OA
ATOM     45  O   UNL     1      10.185   7.061   9.567  1.00  0.00    -0.237 OA
ATOM     46  O   UNL     1       8.235   8.474  10.096  1.00  0.00    -0.744 OA
ENDBRANCH  42  43
ENDBRANCH  23  37
BRANCH  24  47
ATOM     47  C   UNL     1       6.817   8.345  -4.912  1.00  0.00    -0.014 A 
ATOM     48  C   UNL     1       7.586   7.773  -5.934  1.00  0.00     0.010 A 
ATOM     49  C   UNL     1       5.698   9.127  -5.273  1.00  0.00     0.010 A 
ATOM     50  C   UNL     1       7.220   7.942  -7.281  1.00  0.00     0.020 A 
ATOM     51  C   UNL     1       5.334   9.306  -6.612  1.00  0.00     0.020 A 
ATOM     52  C   UNL     1       6.092   8.701  -7.611  1.00  0.00     0.054 A 
BRANCH  52  53
ATOM     53  S   UNL     1       5.532   8.826  -9.337  1.00  0.00     0.124 S 
ATOM     54  O   UNL     1       6.067  10.122  -9.740  1.00  0.00    -0.237 OA
ATOM     55  O   UNL     1       6.145   7.663  -9.974  1.00  0.00    -0.237 OA
ATOM     56  O   UNL     1       4.077   8.760  -9.213  1.00  0.00    -0.744 OA
ENDBRANCH  52  53
ENDBRANCH  24  47
BRANCH  36  57
ATOM     57  C   UNL     1       9.669  12.624  -0.325  1.00  0.00    -0.014 A 
ATOM     58  C   UNL     1       9.024  13.850  -0.545  1.00  0.00     0.010 A 
ATOM     59  C   UNL     1      11.075  12.573  -0.280  1.00  0.00     0.010 A 
ATOM     60  C   UNL     1       9.779  15.006  -0.747  1.00  0.00     0.020 A 
ATOM     61  C   UNL     1      11.830  13.730  -0.448  1.00  0.00     0.020 A 
ATOM     62  C   UNL     1      11.176  14.938  -0.695  1.00  0.00     0.054 A 
BRANCH  62  63
ATOM     63  S   UNL     1      12.132  16.461  -0.911  1.00  0.00     0.124 S 
ATOM     64  O   UNL     1      12.019  16.688  -2.349  1.00  0.00    -0.237 OA
ATOM     65  O   UNL     1      11.414  17.411  -0.065  1.00  0.00    -0.237 OA
ATOM     66  O   UNL     1      13.467  16.101  -0.438  1.00  0.00    -0.744 OA
ENDBRANCH  62  63
ENDBRANCH  36  57
ENDBRANCH  10  11
ENDBRANCH   3   5
ENDBRANCH   2   3
ENDBRANCH   1   2
BRANCH   1  67
ATOM     67  C   UNL     1       3.945  -0.916  -1.824  1.00  0.00     0.275 C 
BRANCH  67  68
ATOM     68  O   UNL     1       3.499   0.443  -1.950  1.00  0.00    -0.458 OA
BRANCH  68  69
ATOM     69  C   UNL     1       2.150   0.604  -2.096  1.00  0.00     0.340 C 
ATOM     70  O   UNL     1       1.333  -0.282  -2.208  1.00  0.00    -0.246 OA
BRANCH  69  71
ATOM     71  C   UNL     1       1.803   2.039  -1.923  1.00  0.00     0.085 A 
ATOM     72  C   UNL     1       0.646   2.314  -1.161  1.00  0.00     0.043 A 
ATOM     73  C   UNL     1       2.550   3.097  -2.457  1.00  0.00     0.055 A 
ATOM     74  C   UNL     1       0.268   3.627  -0.853  1.00  0.00     0.038 A 
ATOM     75  C   UNL     1       2.228   4.382  -2.026  1.00  0.00     0.029 A 
ATOM     76  C   UNL     1       1.103   4.656  -1.256  1.00  0.00     0.028 A 
BRANCH  73  77
ATOM     77  N   UNL     1       3.604   2.890  -3.372  1.00  0.00    -0.325 N 
ATOM     78  C   UNL     1       4.065   3.687  -4.403  1.00  0.00     0.227 C 
ATOM     79  H   UNL     1       4.090   2.041  -3.257  1.00  0.00     0.169 HD
ATOM     80  O   UNL     1       5.071   3.308  -5.007  1.00  0.00    -0.274 OA
BRANCH  78  81
ATOM     81  C   UNL     1       3.265   4.918  -4.830  1.00  0.00     0.079 C 
ATOM     82  C   UNL     1       3.744   6.277  -4.325  1.00  0.00     0.013 C 
ATOM     83  C   UNL     1       3.288   5.214  -6.334  1.00  0.00     0.013 C 
ATOM     84  C   UNL     1       2.771   7.209  -5.015  1.00  0.00     0.001 C 
ATOM     85  C   UNL     1       2.715   6.640  -6.433  1.00  0.00     0.001 C 
ENDBRANCH  78  81
ENDBRANCH  73  77
BRANCH  74  86
ATOM     86  N   UNL     1      -0.917   3.883  -0.191  1.00  0.00    -0.368 N 
ATOM     87  C   UNL     1      -0.887   4.290   1.230  1.00  0.00     0.138 C 
ATOM     88  C   UNL     1      -2.009   4.434  -1.017  1.00  0.00     0.138 C 
ATOM     89  C   UNL     1      -1.170   5.800   1.452  1.00  0.00     0.138 C 
ATOM     90  C   UNL     1      -2.235   5.941  -0.775  1.00  0.00     0.138 C 
ATOM     91  N   UNL     1      -2.330   6.250   0.659  1.00  0.00    -0.368 N 
BRANCH  91  92
ATOM     92  C   UNL     1      -3.549   6.453   1.275  1.00  0.00     0.037 A 
ATOM     93  C   UNL     1      -3.682   7.445   2.260  1.00  0.00     0.029 A 
ATOM     94  C   UNL     1      -4.697   5.723   0.935  1.00  0.00     0.029 A 
ATOM     95  C   UNL     1      -4.915   7.714   2.864  1.00  0.00     0.041 A 
ATOM     96  C   UNL     1      -5.929   5.970   1.548  1.00  0.00     0.041 A 
ATOM     97  C   UNL     1      -6.028   6.971   2.502  1.00  0.00     0.123 A 
ATOM     98  F   UNL     1      -7.212   7.223   3.075  1.00  0.00    -0.207 F 
ENDBRANCH  91  92
ENDBRANCH  74  86
ENDBRANCH  69  71
ENDBRANCH  68  69
ENDBRANCH  67  68
ENDBRANCH   1  67
TORSDOF 18
