REMARK SMILES O=C(OCCOC(=O)[C@H](Cc1ccc(O)cc1)NC(=O)c1ccc(Cl)s1)c1ccc(-c2c3nc(c(-c4ccc(S(=O)(=O)[O-])cc4)c4ccc([nH]4)c(-c4ccc(S(=O)(=O)[O-])cc4)c4nc(c(-c5ccc(S(=O)(=O)[O-])cc5)c5ccc2[nH]5)C=C4)C=C3)cc1
REMARK SMILES IDX 4 1 3 2 2 3 1 4 27 5 28 6 86 7 29 8 85 9 30 10 31 11 32 12
REMARK SMILES IDX 79 13 33 14 84 15 78 16 80 17 34 18 83 19 77 20 76 21 35 23
REMARK SMILES IDX 65 24 46 25 64 26 47 27 50 28 63 29 81 30 48 31 49 32 62 34
REMARK SMILES IDX 82 35 51 36 36 37 37 38 45 39 38 40 44 41 39 42 40 43 41 44
REMARK SMILES IDX 42 45 43 46 66 47 67 48 75 49 68 50 74 51 69 52 70 53 71 54
REMARK SMILES IDX 72 55 73 56 52 57 53 58 61 59 54 60 60 61 55 62 56 63 57 64
REMARK SMILES IDX 58 65 59 66 5 67 6 68 7 69 8 70 9 71 18 72 19 73 20 75 21 76
REMARK SMILES IDX 22 77 26 78 23 79 24 80 25 81 10 82 11 83 12 84 17 85 13 86
REMARK SMILES IDX 16 87 14 88 15 89
REMARK H PARENT 80 22 50 33 18 74 15 90
REMARK Flexibility Score: inf
ROOT
ATOM      1  C   UNL     1       3.216  -5.153  -1.242  1.00  0.00     0.275 C 
ENDROOT
BRANCH   1   2
ATOM      2  O   UNL     1       3.067  -3.936  -1.995  1.00  0.00    -0.458 OA
BRANCH   2   3
ATOM      3  C   UNL     1       2.226  -2.895  -1.789  1.00  0.00     0.338 C 
ATOM      4  O   UNL     1       2.548  -1.805  -2.265  1.00  0.00    -0.246 OA
BRANCH   3   5
ATOM      5  C   UNL     1       1.019  -2.927  -0.886  1.00  0.00     0.060 A 
ATOM      6  C   UNL     1       0.481  -4.014  -0.215  1.00  0.00     0.016 A 
ATOM      7  C   UNL     1       0.493  -1.675  -0.551  1.00  0.00     0.016 A 
ATOM      8  C   UNL     1      -0.300  -3.813   0.934  1.00  0.00     0.010 A 
ATOM      9  C   UNL     1      -0.117  -1.455   0.692  1.00  0.00     0.010 A 
ATOM     10  C   UNL     1      -0.428  -2.534   1.517  1.00  0.00    -0.014 A 
BRANCH  10  11
ATOM     11  C   UNL     1      -1.054  -2.272   3.116  1.00  0.00     0.031 A 
ATOM     12  C   UNL     1      -2.757  -2.030   2.416  1.00  0.00     0.074 A 
ATOM     13  C   UNL     1      -0.485  -2.518   4.921  1.00  0.00     0.049 A 
ATOM     14  N   UNL     1      -3.867  -2.460   2.995  1.00  0.00    -0.248 NA
ATOM     15  C   UNL     1      -3.054  -1.323   1.156  1.00  0.00     0.031 C 
ATOM     16  C   UNL     1       0.823  -3.296   5.708  1.00  0.00     0.029 A 
ATOM     17  N   UNL     1      -1.184  -2.474   6.303  1.00  0.00    -0.354 N 
ATOM     18  C   UNL     1      -4.928  -1.911   2.350  1.00  0.00     0.074 A 
ATOM     19  C   UNL     1      -4.391  -1.338   1.135  1.00  0.00     0.031 C 
ATOM     20  C   UNL     1       0.683  -3.453   7.024  1.00  0.00     0.029 A 
ATOM     21  C   UNL     1      -0.608  -3.006   7.407  1.00  0.00     0.049 A 
ATOM     22  H   UNL     1      -2.069  -2.048   6.380  1.00  0.00     0.167 HD
ATOM     23  C   UNL     1      -6.192  -1.812   2.824  1.00  0.00     0.031 A 
ATOM     24  C   UNL     1      -1.182  -3.158   8.610  1.00  0.00     0.031 A 
ATOM     25  C   UNL     1      -6.614  -2.064   4.200  1.00  0.00     0.049 A 
ATOM     26  C   UNL     1      -2.678  -2.994   8.709  1.00  0.00     0.074 A 
ATOM     27  C   UNL     1      -7.890  -1.912   4.713  1.00  0.00     0.029 A 
ATOM     28  N   UNL     1      -5.805  -2.406   5.302  1.00  0.00    -0.354 N 
ATOM     29  N   UNL     1      -3.567  -2.829   7.744  1.00  0.00    -0.248 NA
ATOM     30  C   UNL     1      -3.243  -3.098  10.048  1.00  0.00     0.031 C 
ATOM     31  C   UNL     1      -7.827  -2.020   6.108  1.00  0.00     0.029 A 
ATOM     32  C   UNL     1      -6.528  -2.335   6.498  1.00  0.00     0.049 A 
ATOM     33  H   UNL     1      -4.856  -2.661   5.239  1.00  0.00     0.167 HD
ATOM     34  C   UNL     1      -4.815  -2.786   8.363  1.00  0.00     0.074 A 
ATOM     35  C   UNL     1      -4.539  -3.032   9.780  1.00  0.00     0.031 C 
ATOM     36  C   UNL     1      -6.072  -2.556   7.875  1.00  0.00     0.031 A 
BRANCH  23  37
ATOM     37  C   UNL     1      -7.196  -1.361   1.806  1.00  0.00    -0.014 A 
ATOM     38  C   UNL     1      -7.514  -2.235   0.749  1.00  0.00     0.010 A 
ATOM     39  C   UNL     1      -7.836  -0.114   1.887  1.00  0.00     0.010 A 
ATOM     40  C   UNL     1      -8.444  -1.867  -0.218  1.00  0.00     0.020 A 
ATOM     41  C   UNL     1      -8.790   0.250   0.930  1.00  0.00     0.020 A 
ATOM     42  C   UNL     1      -9.082  -0.629  -0.119  1.00  0.00     0.054 A 
BRANCH  42  43
ATOM     43  S   UNL     1     -10.324  -0.215  -1.371  1.00  0.00     0.124 S 
ATOM     44  O   UNL     1      -9.504  -0.066  -2.571  1.00  0.00    -0.237 OA
ATOM     45  O   UNL     1     -11.195  -1.387  -1.348  1.00  0.00    -0.237 OA
ATOM     46  O   UNL     1     -10.926   1.018  -0.870  1.00  0.00    -0.744 OA
ENDBRANCH  42  43
ENDBRANCH  23  37
BRANCH  24  47
ATOM     47  C   UNL     1      -0.273  -3.436   9.742  1.00  0.00    -0.014 A 
ATOM     48  C   UNL     1      -0.288  -4.638  10.458  1.00  0.00     0.010 A 
ATOM     49  C   UNL     1       0.742  -2.486  10.001  1.00  0.00     0.010 A 
ATOM     50  C   UNL     1       0.708  -4.888  11.409  1.00  0.00     0.020 A 
ATOM     51  C   UNL     1       1.753  -2.747  10.918  1.00  0.00     0.020 A 
ATOM     52  C   UNL     1       1.724  -3.946  11.624  1.00  0.00     0.054 A 
BRANCH  52  53
ATOM     53  S   UNL     1       3.042  -4.326  12.806  1.00  0.00     0.124 S 
ATOM     54  O   UNL     1       2.334  -4.250  14.080  1.00  0.00    -0.237 OA
ATOM     55  O   UNL     1       3.460  -5.663  12.390  1.00  0.00    -0.237 OA
ATOM     56  O   UNL     1       4.029  -3.273  12.575  1.00  0.00    -0.744 OA
ENDBRANCH  52  53
ENDBRANCH  24  47
BRANCH  36  57
ATOM     57  C   UNL     1      -7.157  -2.540   8.947  1.00  0.00    -0.014 A 
ATOM     58  C   UNL     1      -7.202  -1.538   9.941  1.00  0.00     0.010 A 
ATOM     59  C   UNL     1      -8.126  -3.560   8.972  1.00  0.00     0.010 A 
ATOM     60  C   UNL     1      -8.132  -1.611  10.984  1.00  0.00     0.020 A 
ATOM     61  C   UNL     1      -9.089  -3.607   9.985  1.00  0.00     0.020 A 
ATOM     62  C   UNL     1      -9.065  -2.652  11.002  1.00  0.00     0.054 A 
BRANCH  62  63
ATOM     63  S   UNL     1     -10.250  -2.739  12.373  1.00  0.00     0.124 S 
ATOM     64  O   UNL     1      -9.400  -3.156  13.484  1.00  0.00    -0.237 OA
ATOM     65  O   UNL     1     -10.756  -1.370  12.447  1.00  0.00    -0.237 OA
ATOM     66  O   UNL     1     -11.223  -3.734  11.927  1.00  0.00    -0.744 OA
ENDBRANCH  62  63
ENDBRANCH  36  57
ENDBRANCH  10  11
ENDBRANCH   3   5
ENDBRANCH   2   3
ENDBRANCH   1   2
BRANCH   1  67
ATOM     67  C   UNL     1       3.789  -4.973   0.169  1.00  0.00     0.274 C 
BRANCH  67  68
ATOM     68  O   UNL     1       3.267  -3.804   0.814  1.00  0.00    -0.461 OA
BRANCH  68  69
ATOM     69  C   UNL     1       4.076  -2.699   0.908  1.00  0.00     0.329 C 
ATOM     70  O   UNL     1       5.265  -2.677   0.625  1.00  0.00    -0.250 OA
BRANCH  69  71
ATOM     71  C   UNL     1       3.287  -1.550   1.553  1.00  0.00     0.197 C 
BRANCH  71  72
ATOM     72  N   UNL     1       3.348  -1.815   2.960  1.00  0.00    -0.338 N 
ATOM     73  C   UNL     1       2.347  -1.974   3.856  1.00  0.00     0.262 C 
ATOM     74  H   UNL     1       4.257  -1.894   3.331  1.00  0.00     0.164 HD
ATOM     75  O   UNL     1       2.737  -1.697   4.997  1.00  0.00    -0.268 OA
BRANCH  73  76
ATOM     76  C   UNL     1       0.927  -2.355   3.514  1.00  0.00     0.093 A 
ATOM     77  C   UNL     1      -0.107  -3.906   3.615  1.00  0.00     0.027 A 
ATOM     78  S   UNL     1      -0.316  -0.475   4.131  1.00  0.00    -0.118 S 
ATOM     79  C   UNL     1      -1.975  -3.542   4.258  1.00  0.00     0.033 A 
ATOM     80  C   UNL     1      -2.242  -1.715   4.570  1.00  0.00     0.094 A 
ATOM     81  Cl  UNL     1      -3.389  -0.665   5.364  1.00  0.00    -0.072 Cl
ENDBRANCH  73  76
ENDBRANCH  71  72
BRANCH  71  82
ATOM     82  C   UNL     1       3.829  -0.130   1.237  1.00  0.00     0.072 C 
BRANCH  82  83
ATOM     83  C   UNL     1       2.825   1.020   1.340  1.00  0.00    -0.045 A 
ATOM     84  C   UNL     1       2.857   1.992   2.350  1.00  0.00     0.007 A 
ATOM     85  C   UNL     1       1.861   1.180   0.340  1.00  0.00     0.007 A 
ATOM     86  C   UNL     1       1.927   3.053   2.366  1.00  0.00     0.046 A 
ATOM     87  C   UNL     1       0.875   2.170   0.398  1.00  0.00     0.046 A 
ATOM     88  C   UNL     1       0.926   3.117   1.402  1.00  0.00     0.115 A 
BRANCH  88  89
ATOM     89  O   UNL     1      -0.002   4.115   1.370  1.00  0.00    -0.508 OA
ATOM     90  H   UNL     1      -0.001   4.777   2.033  1.00  0.00     0.293 HD
ENDBRANCH  88  89
ENDBRANCH  82  83
ENDBRANCH  71  82
ENDBRANCH  69  71
ENDBRANCH  68  69
ENDBRANCH  67  68
ENDBRANCH   1  67
TORSDOF 19
