REMARK SMILES O=C(OCCOC(=O)[C@@H]1C[C@@H]1C(=O)N1CCN(c2ncc(C(F)(F)F)cc2Cl)CC1)c1ccc(-c2c3nc(c(-c4ccc(S(=O)(=O)[O-])cc4)c4ccc([nH]4)c(-c4ccc(S(=O)(=O)[O-])cc4)c4nc(c(-c5ccc(S(=O)(=O)[O-])cc5)c5ccc2[nH]5)C=C4)C=C3)cc1
REMARK SMILES IDX 4 1 3 2 2 3 1 4 31 5 32 6 90 7 33 8 89 9 34 10 35 11 36 12
REMARK SMILES IDX 83 13 37 14 88 15 82 16 84 17 38 18 87 19 81 20 80 21 39 23
REMARK SMILES IDX 69 24 50 25 68 26 51 27 54 28 67 29 85 30 52 31 53 32 66 34
REMARK SMILES IDX 86 35 55 36 40 37 41 38 49 39 42 40 48 41 43 42 44 43 45 44
REMARK SMILES IDX 46 45 47 46 70 47 71 48 79 49 72 50 78 51 73 52 74 53 75 54
REMARK SMILES IDX 76 55 77 56 56 57 57 58 65 59 58 60 64 61 59 62 60 63 61 64
REMARK SMILES IDX 62 65 63 66 5 67 6 68 7 69 8 70 9 71 10 72 11 73 12 74 13 75
REMARK SMILES IDX 14 76 15 77 30 78 16 79 29 80 17 81 18 82 19 83 27 84 20 85
REMARK SMILES IDX 26 86 28 87 21 88 22 89 23 90 24 91 25 92
REMARK H PARENT 84 22 54 33
REMARK Flexibility Score: inf
ROOT
ATOM      1  C   UNL     1       3.913  -1.218  -1.078  1.00  0.00     0.275 C 
ENDROOT
BRANCH   1   2
ATOM      2  O   UNL     1       2.920  -0.980  -0.062  1.00  0.00    -0.458 OA
BRANCH   2   3
ATOM      3  C   UNL     1       2.930  -0.061   0.936  1.00  0.00     0.338 C 
ATOM      4  O   UNL     1       2.031  -0.089   1.776  1.00  0.00    -0.246 OA
BRANCH   3   5
ATOM      5  C   UNL     1       3.890   1.085   0.980  1.00  0.00     0.060 A 
ATOM      6  C   UNL     1       5.231   1.050   0.579  1.00  0.00     0.016 A 
ATOM      7  C   UNL     1       3.380   2.294   1.473  1.00  0.00     0.016 A 
ATOM      8  C   UNL     1       6.008   2.216   0.540  1.00  0.00     0.010 A 
ATOM      9  C   UNL     1       4.169   3.443   1.484  1.00  0.00     0.010 A 
ATOM     10  C   UNL     1       5.478   3.427   0.980  1.00  0.00    -0.014 A 
BRANCH  10  11
ATOM     11  C   UNL     1       6.313   4.651   1.064  1.00  0.00     0.031 A 
ATOM     12  C   UNL     1       6.769   5.095   2.425  1.00  0.00     0.074 A 
ATOM     13  C   UNL     1       6.567   5.398  -0.031  1.00  0.00     0.049 A 
ATOM     14  N   UNL     1       7.444   6.159   2.767  1.00  0.00    -0.248 NA
ATOM     15  C   UNL     1       6.401   4.225   3.556  1.00  0.00     0.031 C 
ATOM     16  C   UNL     1       6.173   5.064  -1.401  1.00  0.00     0.029 A 
ATOM     17  N   UNL     1       7.155   6.637  -0.154  1.00  0.00    -0.354 N 
ATOM     18  C   UNL     1       7.557   6.103   4.149  1.00  0.00     0.074 A 
ATOM     19  C   UNL     1       6.869   4.909   4.586  1.00  0.00     0.031 C 
ATOM     20  C   UNL     1       6.465   6.098  -2.212  1.00  0.00     0.029 A 
ATOM     21  C   UNL     1       7.042   7.178  -1.419  1.00  0.00     0.049 A 
ATOM     22  H   UNL     1       7.612   7.093   0.589  1.00  0.00     0.167 HD
ATOM     23  C   UNL     1       8.165   6.977   4.986  1.00  0.00     0.031 A 
ATOM     24  C   UNL     1       7.317   8.423  -1.864  1.00  0.00     0.031 A 
ATOM     25  C   UNL     1       8.711   8.235   4.555  1.00  0.00     0.049 A 
ATOM     26  C   UNL     1       7.905   9.416  -0.898  1.00  0.00     0.074 A 
ATOM     27  C   UNL     1       9.331   9.213   5.309  1.00  0.00     0.029 A 
ATOM     28  N   UNL     1       8.658   8.707   3.248  1.00  0.00    -0.354 N 
ATOM     29  N   UNL     1       8.170   9.274   0.380  1.00  0.00    -0.248 NA
ATOM     30  C   UNL     1       8.270  10.728  -1.448  1.00  0.00     0.031 C 
ATOM     31  C   UNL     1       9.599  10.301   4.469  1.00  0.00     0.029 A 
ATOM     32  C   UNL     1       9.202   9.979   3.179  1.00  0.00     0.049 A 
ATOM     33  H   UNL     1       8.287   8.210   2.483  1.00  0.00     0.167 HD
ATOM     34  C   UNL     1       8.805  10.448   0.768  1.00  0.00     0.074 A 
ATOM     35  C   UNL     1       8.860  11.297  -0.406  1.00  0.00     0.031 C 
ATOM     36  C   UNL     1       9.308  10.784   1.983  1.00  0.00     0.031 A 
BRANCH  23  37
ATOM     37  C   UNL     1       8.211   6.582   6.440  1.00  0.00    -0.014 A 
ATOM     38  C   UNL     1       8.962   5.459   6.843  1.00  0.00     0.010 A 
ATOM     39  C   UNL     1       7.449   7.271   7.399  1.00  0.00     0.010 A 
ATOM     40  C   UNL     1       8.888   4.986   8.155  1.00  0.00     0.020 A 
ATOM     41  C   UNL     1       7.398   6.819   8.724  1.00  0.00     0.020 A 
ATOM     42  C   UNL     1       8.093   5.661   9.084  1.00  0.00     0.054 A 
BRANCH  42  43
ATOM     43  S   UNL     1       7.978   4.998  10.769  1.00  0.00     0.124 S 
ATOM     44  O   UNL     1       7.075   3.865  10.583  1.00  0.00    -0.237 OA
ATOM     45  O   UNL     1       9.364   4.652  11.075  1.00  0.00    -0.237 OA
ATOM     46  O   UNL     1       7.432   6.111  11.541  1.00  0.00    -0.744 OA
ENDBRANCH  42  43
ENDBRANCH  23  37
BRANCH  24  47
ATOM     47  C   UNL     1       6.975   8.847  -3.255  1.00  0.00    -0.014 A 
ATOM     48  C   UNL     1       7.922   8.924  -4.287  1.00  0.00     0.010 A 
ATOM     49  C   UNL     1       5.659   9.248  -3.533  1.00  0.00     0.010 A 
ATOM     50  C   UNL     1       7.548   9.383  -5.562  1.00  0.00     0.020 A 
ATOM     51  C   UNL     1       5.266   9.670  -4.805  1.00  0.00     0.020 A 
ATOM     52  C   UNL     1       6.220   9.747  -5.815  1.00  0.00     0.054 A 
BRANCH  52  53
ATOM     53  S   UNL     1       5.743  10.309  -7.475  1.00  0.00     0.124 S 
ATOM     54  O   UNL     1       6.310  11.653  -7.516  1.00  0.00    -0.237 OA
ATOM     55  O   UNL     1       6.386   9.324  -8.341  1.00  0.00    -0.237 OA
ATOM     56  O   UNL     1       4.283  10.248  -7.451  1.00  0.00    -0.744 OA
ENDBRANCH  52  53
ENDBRANCH  24  47
BRANCH  36  57
ATOM     57  C   UNL     1      10.052  12.092   2.098  1.00  0.00    -0.014 A 
ATOM     58  C   UNL     1       9.393  13.327   1.993  1.00  0.00     0.010 A 
ATOM     59  C   UNL     1      11.423  12.081   2.414  1.00  0.00     0.010 A 
ATOM     60  C   UNL     1      10.080  14.524   2.202  1.00  0.00     0.020 A 
ATOM     61  C   UNL     1      12.112  13.274   2.651  1.00  0.00     0.020 A 
ATOM     62  C   UNL     1      11.434  14.489   2.544  1.00  0.00     0.054 A 
BRANCH  62  63
ATOM     63  S   UNL     1      12.276  16.056   2.890  1.00  0.00     0.124 S 
ATOM     64  O   UNL     1      12.233  16.721   1.591  1.00  0.00    -0.237 OA
ATOM     65  O   UNL     1      11.432  16.644   3.926  1.00  0.00    -0.237 OA
ATOM     66  O   UNL     1      13.606  15.645   3.334  1.00  0.00    -0.744 OA
ENDBRANCH  62  63
ENDBRANCH  36  57
ENDBRANCH  10  11
ENDBRANCH   3   5
ENDBRANCH   2   3
ENDBRANCH   1   2
BRANCH   1  67
ATOM     67  C   UNL     1       3.873  -0.245  -2.264  1.00  0.00     0.274 C 
BRANCH  67  68
ATOM     68  O   UNL     1       3.468   1.067  -1.845  1.00  0.00    -0.462 OA
BRANCH  68  69
ATOM     69  C   UNL     1       2.449   1.627  -2.549  1.00  0.00     0.309 C 
ATOM     70  O   UNL     1       2.086   1.277  -3.664  1.00  0.00    -0.252 OA
BRANCH  69  71
ATOM     71  C   UNL     1       1.580   2.434  -1.660  1.00  0.00     0.112 C 
ATOM     72  C   UNL     1       0.583   3.374  -2.286  1.00  0.00     0.030 C 
ATOM     73  C   UNL     1       1.632   3.908  -1.333  1.00  0.00     0.094 C 
BRANCH  73  74
ATOM     74  C   UNL     1       2.531   4.960  -1.893  1.00  0.00     0.226 C 
ATOM     75  O   UNL     1       3.087   4.761  -2.966  1.00  0.00    -0.275 OA
ATOM     76  N   UNL     1       2.540   6.191  -1.220  1.00  0.00    -0.339 N 
ATOM     77  C   UNL     1       2.991   7.372  -1.973  1.00  0.00     0.141 C 
ATOM     78  C   UNL     1       2.756   6.268   0.234  1.00  0.00     0.141 C 
ATOM     79  C   UNL     1       2.678   8.724  -1.282  1.00  0.00     0.139 C 
ATOM     80  C   UNL     1       2.463   7.637   0.873  1.00  0.00     0.139 C 
ATOM     81  N   UNL     1       3.146   8.676   0.110  1.00  0.00    -0.352 N 
BRANCH  81  82
ATOM     82  C   UNL     1       3.794   9.758   0.673  1.00  0.00     0.147 A 
ATOM     83  N   UNL     1       3.605  10.957   0.062  1.00  0.00    -0.237 NA
ATOM     84  C   UNL     1       4.638   9.698   1.802  1.00  0.00     0.084 A 
ATOM     85  C   UNL     1       4.186  12.072   0.575  1.00  0.00     0.126 A 
ATOM     86  C   UNL     1       5.227  10.865   2.312  1.00  0.00     0.039 A 
ATOM     87  Cl  UNL     1       5.058   8.243   2.623  1.00  0.00    -0.080 Cl
ATOM     88  C   UNL     1       4.982  12.090   1.704  1.00  0.00     0.075 A 
BRANCH  88  89
ATOM     89  C   UNL     1       5.492  13.384   2.252  1.00  0.00     0.417 C 
ATOM     90  F   UNL     1       6.051  14.178   1.299  1.00  0.00    -0.166 F 
ATOM     91  F   UNL     1       4.494  14.126   2.811  1.00  0.00    -0.166 F 
ATOM     92  F   UNL     1       6.429  13.237   3.225  1.00  0.00    -0.166 F 
ENDBRANCH  88  89
ENDBRANCH  81  82
ENDBRANCH  73  74
ENDBRANCH  69  71
ENDBRANCH  68  69
ENDBRANCH  67  68
ENDBRANCH   1  67
TORSDOF 17
