REMARK SMILES COc1cccc(NC(=O)c2ccnc(C(=O)OCCOC(=O)c3ccc(-c4c5nc(c(-c6ccc(S(=O)(=O)[O-])cc6)c6ccc([nH]6)c(-c6ccc(S(=O)(=O)[O-])cc6)c6nc(c(-c7ccc(S(=O)(=O)[O-])cc7)c7ccc4[nH]7)C=C6)C=C5)cc3)c2)c1
REMARK SMILES IDX 19 1 18 2 16 3 17 4 15 5 11 6 12 7 84 8 13 9 14 10 9 11 8 12
REMARK SMILES IDX 10 14 7 15 3 16 4 17 85 18 5 19 6 20 2 21 1 22 20 23 21 24
REMARK SMILES IDX 22 25 23 26 24 27 25 28 83 29 26 30 82 31 27 32 28 33 29 34
REMARK SMILES IDX 76 35 30 36 81 37 75 38 77 39 31 40 80 41 74 42 73 43 32 45
REMARK SMILES IDX 62 46 43 47 61 48 44 49 47 50 60 51 78 52 45 53 46 54 59 56
REMARK SMILES IDX 79 57 48 58 33 59 34 60 42 61 35 62 41 63 36 64 37 65 38 66
REMARK SMILES IDX 39 67 40 68 63 69 64 70 72 71 65 72 71 73 66 74 67 75 68 76
REMARK SMILES IDX 69 77 70 78 49 79 50 80 58 81 51 82 57 83 52 84 53 85 54 86
REMARK SMILES IDX 55 87 56 88
REMARK H PARENT 8 13 77 44 47 55
REMARK Flexibility Score: inf
ROOT
ATOM      1  C   UNL     1       4.587   2.555  11.171  1.00  0.00     0.275 C 
ENDROOT
BRANCH   1   2
ATOM      2  O   UNL     1       4.420   1.692  10.028  1.00  0.00    -0.457 OA
BRANCH   2   3
ATOM      3  C   UNL     1       3.793   0.509  10.273  1.00  0.00     0.357 C 
ATOM      4  O   UNL     1       3.446   0.115  11.377  1.00  0.00    -0.244 OA
BRANCH   3   5
ATOM      5  C   UNL     1       3.506  -0.225   8.997  1.00  0.00     0.149 A 
ATOM      6  C   UNL     1       3.745  -0.635   6.667  1.00  0.00     0.044 A 
ATOM      7  C   UNL     1       2.782  -1.641   6.752  1.00  0.00     0.034 A 
ATOM      8  C   UNL     1       4.136   0.079   7.802  1.00  0.00     0.050 A 
ATOM      9  C   UNL     1       2.214  -1.877   7.985  1.00  0.00     0.113 A 
ATOM     10  N   UNL     1       2.558  -1.199   9.098  1.00  0.00    -0.249 NA
BRANCH   6  11
ATOM     11  C   UNL     1       4.440  -0.377   5.394  1.00  0.00     0.255 C 
ATOM     12  N   UNL     1       3.766  -0.210   4.208  1.00  0.00    -0.322 N 
ATOM     13  H   UNL     1       4.325  -0.361   3.412  1.00  0.00     0.170 HD
ATOM     14  O   UNL     1       5.671  -0.399   5.399  1.00  0.00    -0.269 OA
BRANCH  12  15
ATOM     15  C   UNL     1       2.434   0.135   3.904  1.00  0.00     0.045 A 
ATOM     16  C   UNL     1       0.751   0.361   2.152  1.00  0.00     0.120 A 
ATOM     17  C   UNL     1      -0.159   0.827   3.100  1.00  0.00     0.046 A 
ATOM     18  C   UNL     1       2.043   0.017   2.558  1.00  0.00     0.072 A 
ATOM     19  C   UNL     1       0.223   0.969   4.432  1.00  0.00     0.006 A 
ATOM     20  C   UNL     1       1.520   0.640   4.830  1.00  0.00     0.026 A 
BRANCH  16  21
ATOM     21  O   UNL     1       0.262   0.304   0.876  1.00  0.00    -0.497 OA
ATOM     22  C   UNL     1       1.113  -0.232  -0.127  1.00  0.00     0.278 C 
ENDBRANCH  16  21
ENDBRANCH  12  15
ENDBRANCH   6  11
ENDBRANCH   3   5
ENDBRANCH   2   3
ENDBRANCH   1   2
BRANCH   1  23
ATOM     23  C   UNL     1       3.542   3.678  11.199  1.00  0.00     0.275 C 
BRANCH  23  24
ATOM     24  O   UNL     1       2.208   3.191  11.434  1.00  0.00    -0.458 OA
BRANCH  24  25
ATOM     25  C   UNL     1       1.510   2.874  10.318  1.00  0.00     0.338 C 
ATOM     26  O   UNL     1       1.892   2.976   9.162  1.00  0.00    -0.246 OA
BRANCH  25  27
ATOM     27  C   UNL     1       0.224   2.249  10.676  1.00  0.00     0.060 A 
ATOM     28  C   UNL     1      -0.031   0.974  10.169  1.00  0.00     0.016 A 
ATOM     29  C   UNL     1      -0.754   2.921  11.414  1.00  0.00     0.016 A 
ATOM     30  C   UNL     1      -1.262   0.364  10.383  1.00  0.00     0.010 A 
ATOM     31  C   UNL     1      -1.995   2.304  11.633  1.00  0.00     0.010 A 
ATOM     32  C   UNL     1      -2.262   1.026  11.108  1.00  0.00    -0.014 A 
BRANCH  32  33
ATOM     33  C   UNL     1      -3.591   0.381  11.263  1.00  0.00     0.031 A 
ATOM     34  C   UNL     1      -4.771   0.891  10.479  1.00  0.00     0.074 A 
ATOM     35  C   UNL     1      -3.725  -0.705  12.049  1.00  0.00     0.049 A 
ATOM     36  N   UNL     1      -6.014   0.484  10.501  1.00  0.00    -0.248 NA
ATOM     37  C   UNL     1      -4.517   1.998   9.542  1.00  0.00     0.031 C 
ATOM     38  C   UNL     1      -2.645  -1.338  12.809  1.00  0.00     0.029 A 
ATOM     39  N   UNL     1      -4.824  -1.480  12.326  1.00  0.00    -0.354 N 
ATOM     40  C   UNL     1      -6.693   1.284   9.590  1.00  0.00     0.074 A 
ATOM     41  C   UNL     1      -5.729   2.217   9.048  1.00  0.00     0.031 C 
ATOM     42  C   UNL     1      -3.132  -2.412  13.453  1.00  0.00     0.029 A 
ATOM     43  C   UNL     1      -4.565  -2.517  13.192  1.00  0.00     0.049 A 
ATOM     44  H   UNL     1      -5.714  -1.309  11.942  1.00  0.00     0.167 HD
ATOM     45  C   UNL     1      -7.999   1.242   9.232  1.00  0.00     0.031 A 
ATOM     46  C   UNL     1      -5.391  -3.434  13.732  1.00  0.00     0.031 A 
ATOM     47  C   UNL     1      -8.960   0.316   9.773  1.00  0.00     0.049 A 
ATOM     48  C   UNL     1      -6.855  -3.402  13.382  1.00  0.00     0.074 A 
ATOM     49  C   UNL     1     -10.314   0.222   9.498  1.00  0.00     0.029 A 
ATOM     50  N   UNL     1      -8.668  -0.682  10.689  1.00  0.00    -0.354 N 
ATOM     51  N   UNL     1      -7.486  -2.610  12.547  1.00  0.00    -0.248 NA
ATOM     52  C   UNL     1      -7.720  -4.386  14.050  1.00  0.00     0.031 C 
ATOM     53  C   UNL     1     -10.848  -0.812  10.275  1.00  0.00     0.029 A 
ATOM     54  C   UNL     1      -9.817  -1.392  10.996  1.00  0.00     0.049 A 
ATOM     55  H   UNL     1      -7.776  -0.860  11.066  1.00  0.00     0.167 HD
ATOM     56  C   UNL     1      -8.816  -3.017  12.575  1.00  0.00     0.074 A 
ATOM     57  C   UNL     1      -8.896  -4.134  13.492  1.00  0.00     0.031 C 
ATOM     58  C   UNL     1      -9.877  -2.509  11.903  1.00  0.00     0.031 A 
BRANCH  45  59
ATOM     59  C   UNL     1      -8.476   2.242   8.213  1.00  0.00    -0.014 A 
ATOM     60  C   UNL     1      -8.165   2.090   6.851  1.00  0.00     0.010 A 
ATOM     61  C   UNL     1      -9.298   3.311   8.615  1.00  0.00     0.010 A 
ATOM     62  C   UNL     1      -8.648   3.004   5.910  1.00  0.00     0.020 A 
ATOM     63  C   UNL     1      -9.801   4.214   7.674  1.00  0.00     0.020 A 
ATOM     64  C   UNL     1      -9.462   4.061   6.328  1.00  0.00     0.054 A 
BRANCH  64  65
ATOM     65  S   UNL     1     -10.105   5.211   5.080  1.00  0.00     0.124 S 
ATOM     66  O   UNL     1      -8.915   5.991   4.748  1.00  0.00    -0.237 OA
ATOM     67  O   UNL     1     -10.580   4.314   4.030  1.00  0.00    -0.237 OA
ATOM     68  O   UNL     1     -11.150   5.944   5.790  1.00  0.00    -0.744 OA
ENDBRANCH  64  65
ENDBRANCH  45  59
BRANCH  46  69
ATOM     69  C   UNL     1      -4.872  -4.437  14.703  1.00  0.00    -0.014 A 
ATOM     70  C   UNL     1      -4.845  -5.805  14.380  1.00  0.00     0.010 A 
ATOM     71  C   UNL     1      -4.442  -4.027  15.978  1.00  0.00     0.010 A 
ATOM     72  C   UNL     1      -4.434  -6.748  15.328  1.00  0.00     0.020 A 
ATOM     73  C   UNL     1      -4.002  -4.964  16.917  1.00  0.00     0.020 A 
ATOM     74  C   UNL     1      -4.022  -6.321  16.593  1.00  0.00     0.054 A 
BRANCH  74  75
ATOM     75  S   UNL     1      -3.485  -7.555  17.810  1.00  0.00     0.124 S 
ATOM     76  O   UNL     1      -4.760  -8.082  18.286  1.00  0.00    -0.237 OA
ATOM     77  O   UNL     1      -2.682  -8.472  17.004  1.00  0.00    -0.237 OA
ATOM     78  O   UNL     1      -2.729  -6.768  18.782  1.00  0.00    -0.744 OA
ENDBRANCH  74  75
ENDBRANCH  46  69
BRANCH  58  79
ATOM     79  C   UNL     1     -11.208  -3.183  12.100  1.00  0.00    -0.014 A 
ATOM     80  C   UNL     1     -11.941  -3.013  13.288  1.00  0.00     0.010 A 
ATOM     81  C   UNL     1     -11.752  -3.961  11.063  1.00  0.00     0.010 A 
ATOM     82  C   UNL     1     -13.181  -3.636  13.447  1.00  0.00     0.020 A 
ATOM     83  C   UNL     1     -13.002  -4.567  11.209  1.00  0.00     0.020 A 
ATOM     84  C   UNL     1     -13.703  -4.411  12.406  1.00  0.00     0.054 A 
BRANCH  84  85
ATOM     85  S   UNL     1     -15.335  -5.177  12.618  1.00  0.00     0.124 S 
ATOM     86  O   UNL     1     -15.030  -6.303  13.495  1.00  0.00    -0.237 OA
ATOM     87  O   UNL     1     -16.119  -4.103  13.222  1.00  0.00    -0.237 OA
ATOM     88  O   UNL     1     -15.727  -5.535  11.257  1.00  0.00    -0.744 OA
ENDBRANCH  84  85
ENDBRANCH  58  79
ENDBRANCH  32  33
ENDBRANCH  25  27
ENDBRANCH  24  25
ENDBRANCH  23  24
ENDBRANCH   1  23
TORSDOF 17
