REMARK SMILES CCCc1cc2c(cc1Cl)C=C(C(=O)OCCOC(=O)c1ccc(-c3c4nc(c(-c5ccc(S(=O)(=O)[O-])cc5)c5ccc([nH]5)c(-c5ccc(S(=O)(=O)[O-])cc5)c5nc(c(-c6ccc(S(=O)(=O)[O-])cc6)c6ccc3[nH]6)C=C5)C=C4)cc1)[C@H](C(F)(F)F)O2
REMARK SMILES IDX 17 1 16 2 15 3 13 4 14 5 12 6 4 7 5 8 9 9 6 10 8 11 10 12
REMARK SMILES IDX 7 13 86 14 11 15 81 16 3 17 2 18 1 19 82 20 83 21 84 22
REMARK SMILES IDX 85 23 18 24 19 25 20 26 21 27 22 28 80 29 23 30 79 31 24 32
REMARK SMILES IDX 25 33 26 34 73 35 27 36 78 37 72 38 74 39 28 40 77 41 71 42
REMARK SMILES IDX 70 43 29 45 59 46 40 47 58 48 41 49 44 50 57 51 75 52 42 53
REMARK SMILES IDX 43 54 56 56 76 57 45 58 30 59 31 60 39 61 32 62 38 63 33 64
REMARK SMILES IDX 34 65 35 66 36 67 37 68 60 69 61 70 69 71 62 72 68 73 63 74
REMARK SMILES IDX 64 75 65 76 66 77 67 78 46 79 47 80 55 81 48 82 54 83 49 84
REMARK SMILES IDX 50 85 51 86 52 87 53 88
REMARK H PARENT 74 44 44 55
REMARK Flexibility Score: inf
ROOT
ATOM      1  C   UNL     1      -4.026   9.671   0.922  1.00  0.00     0.275 C 
ENDROOT
BRANCH   1   2
ATOM      2  C   UNL     1      -3.850   8.874  -0.375  1.00  0.00     0.275 C 
BRANCH   2   3
ATOM      3  O   UNL     1      -3.561   7.487  -0.098  1.00  0.00    -0.459 OA
BRANCH   3   4
ATOM      4  C   UNL     1      -2.288   7.088  -0.306  1.00  0.00     0.338 C 
ATOM      5  O   UNL     1      -1.408   7.759  -0.811  1.00  0.00    -0.246 OA
BRANCH   4   6
ATOM      6  C   UNL     1      -2.060   5.740   0.259  1.00  0.00     0.087 C 
ATOM      7  C   UNL     1       0.209   1.616   2.041  1.00  0.00    -0.026 A 
ATOM      8  C   UNL     1      -1.028   1.862   1.404  1.00  0.00     0.052 A 
ATOM      9  C   UNL     1       1.008   2.719   2.391  1.00  0.00     0.045 A 
ATOM     10  C   UNL     1      -1.390   3.150   1.013  1.00  0.00     0.128 A 
ATOM     11  C   UNL     1       0.653   4.004   1.985  1.00  0.00     0.032 A 
ATOM     12  Cl  UNL     1       2.472   2.560   3.295  1.00  0.00    -0.084 Cl
ATOM     13  C   UNL     1      -0.518   4.204   1.252  1.00  0.00     0.019 A 
ATOM     14  O   UNL     1      -2.562   3.310   0.318  1.00  0.00    -0.475 OA
ATOM     15  C   UNL     1      -0.806   5.491   0.662  1.00  0.00     0.027 C 
ATOM     16  C   UNL     1      -3.121   4.671   0.273  1.00  0.00     0.316 C 
BRANCH   7  17
ATOM     17  C   UNL     1       0.653   0.193   2.311  1.00  0.00     0.037 C 
BRANCH  17  18
ATOM     18  C   UNL     1       0.418  -0.794   1.156  1.00  0.00     0.001 C 
ATOM     19  C   UNL     1       1.086  -0.374  -0.149  1.00  0.00     0.004 C 
ENDBRANCH  17  18
ENDBRANCH   7  17
BRANCH  16  20
ATOM     20  C   UNL     1      -4.220   4.789   1.345  1.00  0.00     0.430 C 
ATOM     21  F   UNL     1      -5.095   3.752   1.224  1.00  0.00    -0.167 F 
ATOM     22  F   UNL     1      -3.730   4.747   2.601  1.00  0.00    -0.167 F 
ATOM     23  F   UNL     1      -4.965   5.908   1.219  1.00  0.00    -0.167 F 
ENDBRANCH  16  20
ENDBRANCH   4   6
ENDBRANCH   3   4
ENDBRANCH   2   3
ENDBRANCH   1   2
BRANCH   1  24
ATOM     24  O   UNL     1      -2.760   9.910   1.569  1.00  0.00    -0.458 OA
BRANCH  24  25
ATOM     25  C   UNL     1      -2.463   9.079   2.594  1.00  0.00     0.338 C 
ATOM     26  O   UNL     1      -3.148   8.165   3.024  1.00  0.00    -0.246 OA
BRANCH  25  27
ATOM     27  C   UNL     1      -1.074   9.305   3.021  1.00  0.00     0.060 A 
ATOM     28  C   UNL     1      -0.714  10.240   3.985  1.00  0.00     0.016 A 
ATOM     29  C   UNL     1      -0.112   8.453   2.490  1.00  0.00     0.016 A 
ATOM     30  C   UNL     1       0.630  10.320   4.385  1.00  0.00     0.010 A 
ATOM     31  C   UNL     1       1.201   8.474   2.942  1.00  0.00     0.010 A 
ATOM     32  C   UNL     1       1.602   9.428   3.879  1.00  0.00    -0.014 A 
BRANCH  32  33
ATOM     33  C   UNL     1       3.023   9.466   4.330  1.00  0.00     0.031 A 
ATOM     34  C   UNL     1       4.147   9.689   3.345  1.00  0.00     0.074 A 
ATOM     35  C   UNL     1       3.314   9.243   5.628  1.00  0.00     0.049 A 
ATOM     36  N   UNL     1       5.435   9.770   3.572  1.00  0.00    -0.248 NA
ATOM     37  C   UNL     1       3.792   9.803   1.919  1.00  0.00     0.031 C 
ATOM     38  C   UNL     1       2.335   8.915   6.666  1.00  0.00     0.029 A 
ATOM     39  N   UNL     1       4.512   9.272   6.301  1.00  0.00    -0.354 N 
ATOM     40  C   UNL     1       6.036   9.929   2.327  1.00  0.00     0.074 A 
ATOM     41  C   UNL     1       4.983   9.866   1.340  1.00  0.00     0.031 C 
ATOM     42  C   UNL     1       2.958   8.851   7.853  1.00  0.00     0.029 A 
ATOM     43  C   UNL     1       4.385   9.091   7.660  1.00  0.00     0.049 A 
ATOM     44  H   UNL     1       5.379   9.409   5.854  1.00  0.00     0.167 HD
ATOM     45  C   UNL     1       7.339  10.152   2.033  1.00  0.00     0.031 A 
ATOM     46  C   UNL     1       5.303   9.138   8.647  1.00  0.00     0.031 A 
ATOM     47  C   UNL     1       8.378  10.268   3.023  1.00  0.00     0.049 A 
ATOM     48  C   UNL     1       6.735   9.447   8.308  1.00  0.00     0.074 A 
ATOM     49  C   UNL     1       9.713  10.575   2.829  1.00  0.00     0.029 A 
ATOM     50  N   UNL     1       8.200  10.100   4.387  1.00  0.00    -0.354 N 
ATOM     51  N   UNL     1       7.266   9.678   7.131  1.00  0.00    -0.248 NA
ATOM     52  C   UNL     1       7.688   9.518   9.424  1.00  0.00     0.031 C 
ATOM     53  C   UNL     1      10.352  10.547   4.069  1.00  0.00     0.029 A 
ATOM     54  C   UNL     1       9.403  10.286   5.045  1.00  0.00     0.049 A 
ATOM     55  H   UNL     1       7.344   9.882   4.823  1.00  0.00     0.167 HD
ATOM     56  C   UNL     1       8.612   9.935   7.367  1.00  0.00     0.074 A 
ATOM     57  C   UNL     1       8.811   9.854   8.799  1.00  0.00     0.031 C 
ATOM     58  C   UNL     1       9.592  10.208   6.472  1.00  0.00     0.031 A 
BRANCH  45  59
ATOM     59  C   UNL     1       7.729  10.349   0.588  1.00  0.00    -0.014 A 
ATOM     60  C   UNL     1       8.599   9.440  -0.042  1.00  0.00     0.010 A 
ATOM     61  C   UNL     1       7.338  11.509  -0.106  1.00  0.00     0.010 A 
ATOM     62  C   UNL     1       9.094   9.701  -1.324  1.00  0.00     0.020 A 
ATOM     63  C   UNL     1       7.805  11.758  -1.399  1.00  0.00     0.020 A 
ATOM     64  C   UNL     1       8.700  10.864  -1.990  1.00  0.00     0.054 A 
BRANCH  64  65
ATOM     65  S   UNL     1       9.373  11.206  -3.640  1.00  0.00     0.124 S 
ATOM     66  O   UNL     1      10.729  11.652  -3.334  1.00  0.00    -0.237 OA
ATOM     67  O   UNL     1       9.269   9.909  -4.304  1.00  0.00    -0.237 OA
ATOM     68  O   UNL     1       8.480  12.236  -4.167  1.00  0.00    -0.744 OA
ENDBRANCH  64  65
ENDBRANCH  45  59
BRANCH  46  69
ATOM     69  C   UNL     1       4.856   8.973  10.059  1.00  0.00    -0.014 A 
ATOM     70  C   UNL     1       4.390   7.731  10.526  1.00  0.00     0.010 A 
ATOM     71  C   UNL     1       4.799  10.089  10.914  1.00  0.00     0.010 A 
ATOM     72  C   UNL     1       3.825   7.618  11.800  1.00  0.00     0.020 A 
ATOM     73  C   UNL     1       4.261   9.974  12.200  1.00  0.00     0.020 A 
ATOM     74  C   UNL     1       3.748   8.746  12.622  1.00  0.00     0.054 A 
BRANCH  74  75
ATOM     75  S   UNL     1       2.952   8.594  14.245  1.00  0.00     0.124 S 
ATOM     76  O   UNL     1       1.537   8.577  13.884  1.00  0.00    -0.237 OA
ATOM     77  O   UNL     1       3.488   7.332  14.748  1.00  0.00    -0.237 OA
ATOM     78  O   UNL     1       3.401   9.786  14.959  1.00  0.00    -0.744 OA
ENDBRANCH  74  75
ENDBRANCH  46  69
BRANCH  58  79
ATOM     79  C   UNL     1      10.988  10.444   6.987  1.00  0.00    -0.014 A 
ATOM     80  C   UNL     1      11.568  11.721   6.868  1.00  0.00     0.010 A 
ATOM     81  C   UNL     1      11.775   9.372   7.440  1.00  0.00     0.010 A 
ATOM     82  C   UNL     1      12.922  11.914   7.152  1.00  0.00     0.020 A 
ATOM     83  C   UNL     1      13.124   9.567   7.751  1.00  0.00     0.020 A 
ATOM     84  C   UNL     1      13.695  10.831   7.577  1.00  0.00     0.054 A 
BRANCH  84  85
ATOM     85  S   UNL     1      15.463  11.087   7.891  1.00  0.00     0.124 S 
ATOM     86  O   UNL     1      16.011  11.137   6.539  1.00  0.00    -0.237 OA
ATOM     87  O   UNL     1      15.480  12.351   8.624  1.00  0.00    -0.237 OA
ATOM     88  O   UNL     1      15.845   9.916   8.677  1.00  0.00    -0.744 OA
ENDBRANCH  84  85
ENDBRANCH  58  79
ENDBRANCH  32  33
ENDBRANCH  25  27
ENDBRANCH  24  25
ENDBRANCH   1  24
TORSDOF 17
