REMARK SMILES Cc1cc(C(=O)N2C[C@@H](C(=O)OCCOC(=O)c3ccc(-c4c5nc(c(-c6ccc(S(=O)(=O)[O-])cc6)c6ccc([nH]6)c(-c6ccc(S(=O)(=O)[O-])cc6)c6nc(c(-c7ccc(S(=O)(=O)[O-])cc7)c7ccc4[nH]7)C=C6)C=C5)cc3)[C@H](C(C)C)C2)cs1
REMARK SMILES IDX 14 1 13 2 12 3 10 4 11 5 9 6 7 7 8 8 82 9 78 10 5 11 6 12
REMARK SMILES IDX 4 13 1 14 2 15 3 16 84 17 83 18 79 19 80 20 81 21 15 22
REMARK SMILES IDX 16 23 17 24 18 25 19 26 77 27 20 28 76 29 21 30 22 31 23 32
REMARK SMILES IDX 70 33 24 34 75 35 69 36 71 37 25 38 74 39 68 40 67 41 26 43
REMARK SMILES IDX 56 44 37 45 55 46 38 47 41 48 54 49 72 50 39 51 40 52 53 54
REMARK SMILES IDX 73 55 42 56 27 57 28 58 36 59 29 60 35 61 30 62 31 63 32 64
REMARK SMILES IDX 33 65 34 66 57 67 58 68 66 69 59 70 65 71 60 72 61 73 62 74
REMARK SMILES IDX 63 75 64 76 43 77 44 78 52 79 45 80 51 81 46 82 47 83 48 84
REMARK SMILES IDX 49 85 50 86
REMARK H PARENT 71 42 41 53
REMARK Flexibility Score: inf
ROOT
ATOM      1  C   UNL     1      -0.586  -8.741   2.767  1.00  0.00     0.275 C 
ENDROOT
BRANCH   1   2
ATOM      2  C   UNL     1       0.377  -7.560   2.669  1.00  0.00     0.274 C 
BRANCH   2   3
ATOM      3  O   UNL     1      -0.233  -6.460   1.950  1.00  0.00    -0.462 OA
BRANCH   3   4
ATOM      4  C   UNL     1       0.238  -6.215   0.700  1.00  0.00     0.311 C 
ATOM      5  O   UNL     1       1.085  -6.899   0.138  1.00  0.00    -0.252 OA
BRANCH   4   6
ATOM      6  C   UNL     1      -0.383  -4.997   0.041  1.00  0.00     0.124 C 
ATOM      7  N   UNL     1      -1.982  -3.329   0.154  1.00  0.00    -0.337 N 
ATOM      8  C   UNL     1      -1.034  -4.016   1.004  1.00  0.00     0.135 C 
ATOM      9  C   UNL     1      -2.613  -4.285  -0.722  1.00  0.00     0.124 C 
ATOM     10  C   UNL     1      -1.498  -5.322  -0.998  1.00  0.00     0.027 C 
BRANCH   7  11
ATOM     11  C   UNL     1      -2.276  -1.986   0.051  1.00  0.00     0.254 C 
ATOM     12  O   UNL     1      -3.394  -1.604  -0.289  1.00  0.00    -0.269 OA
BRANCH  11  13
ATOM     13  C   UNL     1      -1.183  -1.027   0.240  1.00  0.00     0.050 A 
ATOM     14  C   UNL     1       2.456   0.053   0.055  1.00  0.00     0.056 C 
ATOM     15  C   UNL     1       0.982  -0.097   0.204  1.00  0.00     0.002 A 
ATOM     16  C   UNL     1       0.227  -1.241   0.058  1.00  0.00     0.029 A 
ATOM     17  S   UNL     1       0.001   1.256   0.548  1.00  0.00    -0.148 S 
ATOM     18  C   UNL     1      -1.424   0.316   0.478  1.00  0.00     0.079 A 
ENDBRANCH  11  13
ENDBRANCH   7  11
BRANCH  10  19
ATOM     19  C   UNL     1      -1.026  -5.248  -2.482  1.00  0.00    -0.012 C 
ATOM     20  C   UNL     1       0.261  -6.028  -2.769  1.00  0.00     0.008 C 
ATOM     21  C   UNL     1      -2.150  -5.701  -3.430  1.00  0.00     0.008 C 
ENDBRANCH  10  19
ENDBRANCH   4   6
ENDBRANCH   3   4
ENDBRANCH   2   3
ENDBRANCH   1   2
BRANCH   1  22
ATOM     22  O   UNL     1      -0.751  -9.297   1.455  1.00  0.00    -0.458 OA
BRANCH  22  23
ATOM     23  C   UNL     1      -1.997  -9.714   1.128  1.00  0.00     0.338 C 
ATOM     24  O   UNL     1      -2.966  -9.786   1.862  1.00  0.00    -0.246 OA
BRANCH  23  25
ATOM     25  C   UNL     1      -2.029 -10.008  -0.320  1.00  0.00     0.060 A 
ATOM     26  C   UNL     1      -1.490  -9.075  -1.197  1.00  0.00     0.016 A 
ATOM     27  C   UNL     1      -2.686 -11.128  -0.826  1.00  0.00     0.016 A 
ATOM     28  C   UNL     1      -1.702  -9.195  -2.565  1.00  0.00     0.010 A 
ATOM     29  C   UNL     1      -2.814 -11.293  -2.217  1.00  0.00     0.010 A 
ATOM     30  C   UNL     1      -2.373 -10.295  -3.105  1.00  0.00    -0.014 A 
BRANCH  30  31
ATOM     31  C   UNL     1      -2.701 -10.289  -4.564  1.00  0.00     0.031 A 
ATOM     32  C   UNL     1      -4.143 -10.324  -5.012  1.00  0.00     0.074 A 
ATOM     33  C   UNL     1      -1.744 -10.104  -5.500  1.00  0.00     0.049 A 
ATOM     34  N   UNL     1      -4.632 -10.386  -6.225  1.00  0.00    -0.248 NA
ATOM     35  C   UNL     1      -5.167 -10.275  -3.957  1.00  0.00     0.031 C 
ATOM     36  C   UNL     1      -0.314  -9.932  -5.234  1.00  0.00     0.029 A 
ATOM     37  N   UNL     1      -1.839  -9.982  -6.867  1.00  0.00    -0.354 N 
ATOM     38  C   UNL     1      -6.014 -10.441  -6.077  1.00  0.00     0.074 A 
ATOM     39  C   UNL     1      -6.284 -10.408  -4.655  1.00  0.00     0.031 C 
ATOM     40  C   UNL     1       0.319  -9.658  -6.385  1.00  0.00     0.029 A 
ATOM     41  C   UNL     1      -0.635  -9.738  -7.487  1.00  0.00     0.049 A 
ATOM     42  H   UNL     1      -2.689 -10.062  -7.357  1.00  0.00     0.167 HD
ATOM     43  C   UNL     1      -6.975 -10.520  -7.029  1.00  0.00     0.031 A 
ATOM     44  C   UNL     1      -0.314  -9.627  -8.793  1.00  0.00     0.031 A 
ATOM     45  C   UNL     1      -6.724 -10.527  -8.445  1.00  0.00     0.049 A 
ATOM     46  C   UNL     1      -1.383  -9.789  -9.838  1.00  0.00     0.074 A 
ATOM     47  C   UNL     1      -7.634 -10.666  -9.480  1.00  0.00     0.029 A 
ATOM     48  N   UNL     1      -5.477 -10.371  -9.029  1.00  0.00    -0.354 N 
ATOM     49  N   UNL     1      -2.672  -9.962  -9.676  1.00  0.00    -0.248 NA
ATOM     50  C   UNL     1      -0.949  -9.763 -11.242  1.00  0.00     0.031 C 
ATOM     51  C   UNL     1      -6.930 -10.636 -10.689  1.00  0.00     0.029 A 
ATOM     52  C   UNL     1      -5.590 -10.422 -10.409  1.00  0.00     0.049 A 
ATOM     53  H   UNL     1      -4.635 -10.242  -8.536  1.00  0.00     0.167 HD
ATOM     54  C   UNL     1      -3.204 -10.062 -10.958  1.00  0.00     0.074 A 
ATOM     55  C   UNL     1      -2.102  -9.905 -11.884  1.00  0.00     0.031 C 
ATOM     56  C   UNL     1      -4.491 -10.273 -11.329  1.00  0.00     0.031 A 
BRANCH  43  57
ATOM     57  C   UNL     1      -8.390 -10.693  -6.547  1.00  0.00    -0.014 A 
ATOM     58  C   UNL     1      -9.110  -9.636  -5.961  1.00  0.00     0.010 A 
ATOM     59  C   UNL     1      -8.996 -11.958  -6.659  1.00  0.00     0.010 A 
ATOM     60  C   UNL     1     -10.386  -9.861  -5.435  1.00  0.00     0.020 A 
ATOM     61  C   UNL     1     -10.281 -12.178  -6.160  1.00  0.00     0.020 A 
ATOM     62  C   UNL     1     -10.956 -11.135  -5.524  1.00  0.00     0.054 A 
BRANCH  62  63
ATOM     63  S   UNL     1     -12.594 -11.417  -4.798  1.00  0.00     0.124 S 
ATOM     64  O   UNL     1     -12.280 -11.485  -3.372  1.00  0.00    -0.237 OA
ATOM     65  O   UNL     1     -13.343 -10.236  -5.220  1.00  0.00    -0.237 OA
ATOM     66  O   UNL     1     -13.028 -12.675  -5.401  1.00  0.00    -0.744 OA
ENDBRANCH  62  63
ENDBRANCH  43  57
BRANCH  44  67
ATOM     67  C   UNL     1       1.109  -9.418  -9.185  1.00  0.00    -0.014 A 
ATOM     68  C   UNL     1       1.532  -8.210  -9.767  1.00  0.00     0.010 A 
ATOM     69  C   UNL     1       2.057 -10.432  -8.951  1.00  0.00     0.010 A 
ATOM     70  C   UNL     1       2.878  -8.021 -10.102  1.00  0.00     0.020 A 
ATOM     71  C   UNL     1       3.405 -10.235  -9.255  1.00  0.00     0.020 A 
ATOM     72  C   UNL     1       3.807  -9.032  -9.836  1.00  0.00     0.054 A 
BRANCH  72  73
ATOM     73  S   UNL     1       5.561  -8.738 -10.197  1.00  0.00     0.124 S 
ATOM     74  O   UNL     1       5.606  -8.910 -11.645  1.00  0.00    -0.237 OA
ATOM     75  O   UNL     1       5.760  -7.374  -9.713  1.00  0.00    -0.237 OA
ATOM     76  O   UNL     1       6.245  -9.770  -9.420  1.00  0.00    -0.744 OA
ENDBRANCH  72  73
ENDBRANCH  44  67
BRANCH  56  77
ATOM     77  C   UNL     1      -4.792 -10.325 -12.804  1.00  0.00    -0.014 A 
ATOM     78  C   UNL     1      -4.419 -11.432 -13.586  1.00  0.00     0.010 A 
ATOM     79  C   UNL     1      -5.507  -9.273 -13.405  1.00  0.00     0.010 A 
ATOM     80  C   UNL     1      -4.728 -11.473 -14.949  1.00  0.00     0.020 A 
ATOM     81  C   UNL     1      -5.839  -9.320 -14.762  1.00  0.00     0.020 A 
ATOM     82  C   UNL     1      -5.435 -10.414 -15.529  1.00  0.00     0.054 A 
BRANCH  82  83
ATOM     83  S   UNL     1      -5.862 -10.507 -17.291  1.00  0.00     0.124 S 
ATOM     84  O   UNL     1      -4.580 -10.221 -17.929  1.00  0.00    -0.237 OA
ATOM     85  O   UNL     1      -6.344 -11.878 -17.434  1.00  0.00    -0.237 OA
ATOM     86  O   UNL     1      -6.884  -9.475 -17.454  1.00  0.00    -0.744 OA
ENDBRANCH  82  83
ENDBRANCH  56  77
ENDBRANCH  30  31
ENDBRANCH  23  25
ENDBRANCH  22  23
ENDBRANCH   1  22
TORSDOF 17
