REMARK SMILES CCCCCCNC(=O)Oc1cccc(-c2ccc([C@@H](C)C(=O)OCCOC(=O)c3ccc(-c4c5nc(c(-c6ccc(S(=O)(=O)[O-])cc6)c6ccc([nH]6)c(-c6ccc(S(=O)(=O)[O-])cc6)c6nc(c(-c7ccc(S(=O)(=O)[O-])cc7)c7ccc4[nH]7)C=C6)C=C5)cc3)cc2[N+](=O)[O-])c1
REMARK SMILES IDX 20 1 21 2 19 3 16 4 17 5 91 6 18 7 90 8 15 9 11 10 12 11
REMARK SMILES IDX 95 12 13 13 14 14 10 15 8 16 7 17 9 19 6 20 5 21 4 22 3 23
REMARK SMILES IDX 2 24 1 25 92 26 93 27 94 28 22 29 23 30 24 31 25 32 26 33
REMARK SMILES IDX 27 34 28 35 29 36 30 37 31 38 89 39 32 40 88 41 33 42 34 43
REMARK SMILES IDX 35 44 82 45 36 46 87 47 81 48 83 49 37 50 86 51 80 52 79 53
REMARK SMILES IDX 38 55 68 56 49 57 67 58 50 59 53 60 66 61 84 62 51 63 52 64
REMARK SMILES IDX 65 66 85 67 54 68 39 69 40 70 48 71 41 72 47 73 42 74 43 75
REMARK SMILES IDX 44 76 45 77 46 78 69 79 70 80 78 81 71 82 77 83 72 84 73 85
REMARK SMILES IDX 74 86 75 87 76 88 55 89 56 90 64 91 57 92 63 93 58 94 59 95
REMARK SMILES IDX 60 96 61 97 62 98
REMARK H PARENT 7 18 83 54 53 65
REMARK Flexibility Score: inf
ROOT
ATOM      1  C   UNL     1      -4.707  12.827  -5.103  1.00  0.00     0.126 C 
ATOM      2  C   UNL     1      -5.930  13.739  -5.163  1.00  0.00     0.025 C 
ENDROOT
BRANCH   1   3
ATOM      3  C   UNL     1      -4.809  11.792  -3.992  1.00  0.00    -0.027 A 
ATOM      4  C   UNL     1      -4.988   9.811  -1.928  1.00  0.00     0.060 A 
ATOM      5  C   UNL     1      -5.008  11.187  -1.636  1.00  0.00     0.016 A 
ATOM      6  C   UNL     1      -4.883   9.460  -3.286  1.00  0.00     0.277 A 
ATOM      7  C   UNL     1      -4.932  12.157  -2.645  1.00  0.00     0.006 A 
ATOM      8  C   UNL     1      -4.787  10.425  -4.306  1.00  0.00     0.091 A 
BRANCH   4   9
ATOM      9  C   UNL     1      -5.083   8.842  -0.822  1.00  0.00    -0.008 A 
ATOM     10  C   UNL     1      -4.212   6.975   0.456  1.00  0.00     0.133 A 
ATOM     11  C   UNL     1      -5.346   6.963   1.265  1.00  0.00     0.047 A 
ATOM     12  C   UNL     1      -4.071   7.900  -0.581  1.00  0.00     0.056 A 
ATOM     13  C   UNL     1      -6.347   7.903   1.049  1.00  0.00     0.004 A 
ATOM     14  C   UNL     1      -6.217   8.832   0.013  1.00  0.00     0.009 A 
BRANCH  10  15
ATOM     15  O   UNL     1      -3.299   5.922   0.636  1.00  0.00    -0.410 OA
BRANCH  15  16
ATOM     16  C   UNL     1      -1.948   6.216   0.742  1.00  0.00     0.412 C 
ATOM     17  N   UNL     1      -1.159   5.099   0.775  1.00  0.00    -0.321 N 
ATOM     18  H   UNL     1      -0.189   5.246   0.853  1.00  0.00     0.167 HD
ATOM     19  O   UNL     1      -1.461   7.338   0.824  1.00  0.00    -0.224 OA
BRANCH  17  20
ATOM     20  C   UNL     1      -1.602   3.719   0.710  1.00  0.00     0.119 C 
BRANCH  20  21
ATOM     21  C   UNL     1      -0.990   2.965  -0.470  1.00  0.00     0.021 C 
BRANCH  21  22
ATOM     22  C   UNL     1       0.538   2.835  -0.436  1.00  0.00     0.002 C 
BRANCH  22  23
ATOM     23  C   UNL     1       1.119   2.156   0.810  1.00  0.00    -0.000 C 
BRANCH  23  24
ATOM     24  C   UNL     1       0.630   0.730   1.073  1.00  0.00    -0.003 C 
ATOM     25  C   UNL     1       1.010  -0.250  -0.027  1.00  0.00     0.004 C 
ENDBRANCH  23  24
ENDBRANCH  22  23
ENDBRANCH  21  22
ENDBRANCH  20  21
ENDBRANCH  17  20
ENDBRANCH  15  16
ENDBRANCH  10  15
ENDBRANCH   4   9
BRANCH   6  26
ATOM     26  N   UNL     1      -4.938   8.067  -3.706  1.00  0.00     0.063 N 
ATOM     27  O   UNL     1      -4.026   7.664  -4.441  1.00  0.00    -0.258 OA
ATOM     28  O   UNL     1      -5.922   7.403  -3.353  1.00  0.00    -0.258 OA
ENDBRANCH   6  26
ENDBRANCH   1   3
BRANCH   1  29
ATOM     29  C   UNL     1      -3.431  13.663  -5.129  1.00  0.00     0.313 C 
ATOM     30  O   UNL     1      -3.007  14.171  -6.163  1.00  0.00    -0.252 OA
BRANCH  29  31
ATOM     31  O   UNL     1      -2.850  13.816  -3.911  1.00  0.00    -0.462 OA
BRANCH  31  32
ATOM     32  C   UNL     1      -1.586  14.506  -3.873  1.00  0.00     0.274 C 
BRANCH  32  33
ATOM     33  C   UNL     1      -0.427  13.520  -3.707  1.00  0.00     0.275 C 
BRANCH  33  34
ATOM     34  O   UNL     1      -0.247  12.722  -4.891  1.00  0.00    -0.458 OA
BRANCH  34  35
ATOM     35  C   UNL     1      -0.864  11.517  -4.874  1.00  0.00     0.338 C 
ATOM     36  O   UNL     1      -1.517  11.030  -3.968  1.00  0.00    -0.246 OA
BRANCH  35  37
ATOM     37  C   UNL     1      -0.741  10.900  -6.201  1.00  0.00     0.060 A 
ATOM     38  C   UNL     1      -1.873  10.852  -7.016  1.00  0.00     0.016 A 
ATOM     39  C   UNL     1       0.458  10.319  -6.612  1.00  0.00     0.016 A 
ATOM     40  C   UNL     1      -1.819  10.213  -8.251  1.00  0.00     0.010 A 
ATOM     41  C   UNL     1       0.517   9.691  -7.860  1.00  0.00     0.010 A 
ATOM     42  C   UNL     1      -0.622   9.629  -8.683  1.00  0.00    -0.014 A 
BRANCH  42  43
ATOM     43  C   UNL     1      -0.565   8.939  -9.993  1.00  0.00     0.031 A 
ATOM     44  C   UNL     1      -0.468   7.441 -10.047  1.00  0.00     0.074 A 
ATOM     45  C   UNL     1      -0.600   9.661 -11.129  1.00  0.00     0.049 A 
ATOM     46  N   UNL     1      -0.291   6.665 -11.084  1.00  0.00    -0.248 NA
ATOM     47  C   UNL     1      -0.582   6.724  -8.767  1.00  0.00     0.031 C 
ATOM     48  C   UNL     1      -0.751  11.116 -11.202  1.00  0.00     0.029 A 
ATOM     49  N   UNL     1      -0.506   9.269 -12.440  1.00  0.00    -0.354 N 
ATOM     50  C   UNL     1      -0.242   5.370 -10.582  1.00  0.00     0.074 A 
ATOM     51  C   UNL     1      -0.401   5.467  -9.146  1.00  0.00     0.031 C 
ATOM     52  C   UNL     1      -0.746  11.492 -12.491  1.00  0.00     0.029 A 
ATOM     53  C   UNL     1      -0.531  10.317 -13.330  1.00  0.00     0.049 A 
ATOM     54  H   UNL     1      -0.427   8.328 -12.718  1.00  0.00     0.167 HD
ATOM     55  C   UNL     1      -0.074   4.209 -11.259  1.00  0.00     0.031 A 
ATOM     56  C   UNL     1      -0.363  10.333 -14.666  1.00  0.00     0.031 A 
ATOM     57  C   UNL     1       0.075   4.124 -12.688  1.00  0.00     0.049 A 
ATOM     58  C   UNL     1      -0.094   9.040 -15.384  1.00  0.00     0.074 A 
ATOM     59  C   UNL     1       0.223   2.994 -13.473  1.00  0.00     0.029 A 
ATOM     60  N   UNL     1       0.100   5.213 -13.547  1.00  0.00    -0.354 N 
ATOM     61  N   UNL     1      -0.047   7.823 -14.897  1.00  0.00    -0.248 NA
ATOM     62  C   UNL     1       0.161   9.124 -16.829  1.00  0.00     0.031 C 
ATOM     63  C   UNL     1       0.390   3.403 -14.800  1.00  0.00     0.029 A 
ATOM     64  C   UNL     1       0.297   4.785 -14.849  1.00  0.00     0.049 A 
ATOM     65  H   UNL     1      -0.007   6.152 -13.272  1.00  0.00     0.167 HD
ATOM     66  C   UNL     1       0.233   6.994 -15.977  1.00  0.00     0.074 A 
ATOM     67  C   UNL     1       0.329   7.846 -17.145  1.00  0.00     0.031 C 
ATOM     68  C   UNL     1       0.398   5.649 -15.998  1.00  0.00     0.031 A 
BRANCH  55  69
ATOM     69  C   UNL     1       0.008   2.940 -10.455  1.00  0.00    -0.014 A 
ATOM     70  C   UNL     1      -1.132   2.373  -9.859  1.00  0.00     0.010 A 
ATOM     71  C   UNL     1       1.248   2.287 -10.322  1.00  0.00     0.010 A 
ATOM     72  C   UNL     1      -1.027   1.195  -9.112  1.00  0.00     0.020 A 
ATOM     73  C   UNL     1       1.353   1.098  -9.594  1.00  0.00     0.020 A 
ATOM     74  C   UNL     1       0.217   0.569  -8.979  1.00  0.00     0.054 A 
BRANCH  74  75
ATOM     75  S   UNL     1       0.327  -0.964  -8.014  1.00  0.00     0.124 S 
ATOM     76  O   UNL     1       0.231  -0.466  -6.644  1.00  0.00    -0.237 OA
ATOM     77  O   UNL     1      -0.826  -1.726  -8.486  1.00  0.00    -0.237 OA
ATOM     78  O   UNL     1       1.628  -1.515  -8.385  1.00  0.00    -0.744 OA
ENDBRANCH  74  75
ENDBRANCH  55  69
BRANCH  56  79
ATOM     79  C   UNL     1      -0.400  11.626 -15.402  1.00  0.00    -0.014 A 
ATOM     80  C   UNL     1      -1.475  11.932 -16.253  1.00  0.00     0.010 A 
ATOM     81  C   UNL     1       0.634  12.566 -15.239  1.00  0.00     0.010 A 
ATOM     82  C   UNL     1      -1.512  13.154 -16.933  1.00  0.00     0.020 A 
ATOM     83  C   UNL     1       0.588  13.798 -15.897  1.00  0.00     0.020 A 
ATOM     84  C   UNL     1      -0.482  14.080 -16.748  1.00  0.00     0.054 A 
BRANCH  84  85
ATOM     85  S   UNL     1      -0.582  15.684 -17.590  1.00  0.00     0.124 S 
ATOM     86  O   UNL     1      -0.219  15.331 -18.959  1.00  0.00    -0.237 OA
ATOM     87  O   UNL     1      -1.976  16.066 -17.383  1.00  0.00    -0.237 OA
ATOM     88  O   UNL     1       0.393  16.506 -16.875  1.00  0.00    -0.744 OA
ENDBRANCH  84  85
ENDBRANCH  56  79
BRANCH  68  89
ATOM     89  C   UNL     1       0.688   5.009 -17.328  1.00  0.00    -0.014 A 
ATOM     90  C   UNL     1       1.965   5.098 -17.907  1.00  0.00     0.010 A 
ATOM     91  C   UNL     1      -0.308   4.251 -17.969  1.00  0.00     0.010 A 
ATOM     92  C   UNL     1       2.238   4.450 -19.114  1.00  0.00     0.020 A 
ATOM     93  C   UNL     1      -0.032   3.583 -19.165  1.00  0.00     0.020 A 
ATOM     94  C   UNL     1       1.238   3.694 -19.734  1.00  0.00     0.054 A 
BRANCH  94  95
ATOM     95  S   UNL     1       1.636   2.807 -21.265  1.00  0.00     0.124 S 
ATOM     96  O   UNL     1       1.654   3.887 -22.247  1.00  0.00    -0.237 OA
ATOM     97  O   UNL     1       2.936   2.211 -20.964  1.00  0.00    -0.237 OA
ATOM     98  O   UNL     1       0.539   1.853 -21.408  1.00  0.00    -0.744 OA
ENDBRANCH  94  95
ENDBRANCH  68  89
ENDBRANCH  42  43
ENDBRANCH  35  37
ENDBRANCH  34  35
ENDBRANCH  33  34
ENDBRANCH  32  33
ENDBRANCH  31  32
ENDBRANCH  29  31
ENDBRANCH   1  29
TORSDOF 24
