REMARK SMILES COc1ccc(Cl)c(C[C@H]([NH3+])C(=O)OCCOC(=O)c2ccc(-c3c4nc(c(-c5ccc(S(=O)(=O)[O-])cc5)c5ccc([nH]5)c(-c5ccc(S(=O)(=O)[O-])cc5)c5nc(c(-c6ccc(S(=O)(=O)[O-])cc6)c6ccc3[nH]6)C=C5)C=C4)cc2)c1F
REMARK SMILES IDX 15 1 14 2 12 3 13 4 10 5 9 6 8 7 3 8 4 9 80 10 5 11 81 12
REMARK SMILES IDX 6 13 7 14 2 15 1 16 11 17 16 21 17 22 18 23 19 24 20 25
REMARK SMILES IDX 21 26 79 27 22 28 78 29 23 30 24 31 25 32 72 33 26 34 77 35
REMARK SMILES IDX 71 36 73 37 27 38 76 39 70 40 69 41 28 43 58 44 39 45 57 46
REMARK SMILES IDX 40 47 43 48 56 49 74 50 41 51 42 52 55 54 75 55 44 56 29 57
REMARK SMILES IDX 30 58 38 59 31 60 37 61 32 62 33 63 34 64 35 65 36 66 59 67
REMARK SMILES IDX 60 68 68 69 61 70 67 71 62 72 63 73 64 74 65 75 66 76 45 77
REMARK SMILES IDX 46 78 54 79 47 80 53 81 48 82 49 83 50 84 51 85 52 86
REMARK H PARENT 11 18 11 19 11 20 73 42 43 53
REMARK Flexibility Score: inf
ROOT
ATOM      1  C   UNL     1       7.679   0.630   6.477  1.00  0.00     0.274 C 
ENDROOT
BRANCH   1   2
ATOM      2  O   UNL     1       6.248   0.721   6.335  1.00  0.00    -0.458 OA
BRANCH   2   3
ATOM      3  C   UNL     1       5.766   1.964   6.031  1.00  0.00     0.365 C 
ATOM      4  O   UNL     1       6.471   2.957   5.911  1.00  0.00    -0.245 OA
BRANCH   3   5
ATOM      5  C   UNL     1       4.237   1.971   5.837  1.00  0.00     0.296 C 
BRANCH   5   6
ATOM      6  C   UNL     1       3.536   2.563   7.076  1.00  0.00     0.117 C 
BRANCH   6   7
ATOM      7  C   UNL     1       3.079   3.997   6.862  1.00  0.00     0.017 A 
ATOM      8  C   UNL     1       1.294   5.523   6.166  1.00  0.00     0.154 A 
ATOM      9  C   UNL     1       2.158   6.607   6.255  1.00  0.00     0.051 A 
ATOM     10  C   UNL     1       1.767   4.230   6.416  1.00  0.00     0.169 A 
ATOM     11  C   UNL     1       3.457   6.405   6.715  1.00  0.00     0.025 A 
ATOM     12  F   UNL     1       0.940   3.186   6.246  1.00  0.00    -0.203 F 
ATOM     13  C   UNL     1       3.899   5.120   7.059  1.00  0.00     0.047 A 
ATOM     14  Cl  UNL     1       5.444   5.012   7.818  1.00  0.00    -0.084 Cl
BRANCH   8  15
ATOM     15  O   UNL     1      -0.002   5.794   5.816  1.00  0.00    -0.494 OA
ATOM     16  C   UNL     1      -0.916   5.337   6.814  1.00  0.00     0.278 C 
ENDBRANCH   8  15
ENDBRANCH   6   7
ENDBRANCH   5   6
BRANCH   5  17
ATOM     17  N   UNL     1       3.742   0.605   5.509  1.00  0.00    -0.346 N 
ATOM     18  H   UNL     1       3.954  -0.027   6.281  1.00  0.00     0.345 HD
ATOM     19  H   UNL     1       4.201   0.272   4.661  1.00  0.00     0.345 HD
ATOM     20  H   UNL     1       2.734   0.635   5.361  1.00  0.00     0.345 HD
ENDBRANCH   5  17
ENDBRANCH   3   5
ENDBRANCH   2   3
ENDBRANCH   1   2
BRANCH   1  21
ATOM     21  C   UNL     1       8.395   0.310   5.156  1.00  0.00     0.275 C 
BRANCH  21  22
ATOM     22  O   UNL     1       8.392   1.411   4.227  1.00  0.00    -0.458 OA
BRANCH  22  23
ATOM     23  C   UNL     1       7.315   1.469   3.405  1.00  0.00     0.338 C 
ATOM     24  O   UNL     1       6.392   0.671   3.361  1.00  0.00    -0.246 OA
BRANCH  23  25
ATOM     25  C   UNL     1       7.304   2.746   2.663  1.00  0.00     0.060 A 
ATOM     26  C   UNL     1       6.140   3.519   2.727  1.00  0.00     0.016 A 
ATOM     27  C   UNL     1       8.377   3.159   1.871  1.00  0.00     0.016 A 
ATOM     28  C   UNL     1       6.037   4.705   2.007  1.00  0.00     0.010 A 
ATOM     29  C   UNL     1       8.269   4.348   1.135  1.00  0.00     0.010 A 
ATOM     30  C   UNL     1       7.095   5.122   1.193  1.00  0.00    -0.014 A 
BRANCH  30  31
ATOM     31  C   UNL     1       6.936   6.339   0.363  1.00  0.00     0.031 A 
ATOM     32  C   UNL     1       6.675   6.205  -1.111  1.00  0.00     0.074 A 
ATOM     33  C   UNL     1       6.982   7.557   0.936  1.00  0.00     0.049 A 
ATOM     34  N   UNL     1       6.577   7.140  -2.019  1.00  0.00    -0.248 NA
ATOM     35  C   UNL     1       6.498   4.838  -1.630  1.00  0.00     0.031 C 
ATOM     36  C   UNL     1       7.155   7.813   2.368  1.00  0.00     0.029 A 
ATOM     37  N   UNL     1       6.884   8.809   0.383  1.00  0.00    -0.354 N 
ATOM     38  C   UNL     1       6.354   6.478  -3.221  1.00  0.00     0.074 A 
ATOM     39  C   UNL     1       6.334   5.061  -2.928  1.00  0.00     0.031 C 
ATOM     40  C   UNL     1       7.152   9.140   2.578  1.00  0.00     0.029 A 
ATOM     41  C   UNL     1       7.027   9.827   1.296  1.00  0.00     0.049 A 
ATOM     42  H   UNL     1       6.725   8.963  -0.576  1.00  0.00     0.167 HD
ATOM     43  C   UNL     1       6.188   7.006  -4.457  1.00  0.00     0.031 A 
ATOM     44  C   UNL     1       7.087  11.161   1.113  1.00  0.00     0.031 A 
ATOM     45  C   UNL     1       6.197   8.417  -4.740  1.00  0.00     0.049 A 
ATOM     46  C   UNL     1       6.979  11.715  -0.283  1.00  0.00     0.074 A 
ATOM     47  C   UNL     1       6.019   9.050  -5.959  1.00  0.00     0.029 A 
ATOM     48  N   UNL     1       6.395   9.414  -3.797  1.00  0.00    -0.354 N 
ATOM     49  N   UNL     1       6.772  11.076  -1.410  1.00  0.00    -0.248 NA
ATOM     50  C   UNL     1       7.119  13.171  -0.432  1.00  0.00     0.031 C 
ATOM     51  C   UNL     1       6.163  10.427  -5.761  1.00  0.00     0.029 A 
ATOM     52  C   UNL     1       6.376  10.655  -4.411  1.00  0.00     0.049 A 
ATOM     53  H   UNL     1       6.530   9.262  -2.834  1.00  0.00     0.167 HD
ATOM     54  C   UNL     1       6.734  12.055  -2.398  1.00  0.00     0.074 A 
ATOM     55  C   UNL     1       6.923  13.328  -1.734  1.00  0.00     0.031 C 
ATOM     56  C   UNL     1       6.560  11.913  -3.735  1.00  0.00     0.031 A 
BRANCH  43  57
ATOM     57  C   UNL     1       6.029   6.057  -5.612  1.00  0.00    -0.014 A 
ATOM     58  C   UNL     1       4.824   5.370  -5.838  1.00  0.00     0.010 A 
ATOM     59  C   UNL     1       7.086   5.909  -6.530  1.00  0.00     0.010 A 
ATOM     60  C   UNL     1       4.686   4.536  -6.952  1.00  0.00     0.020 A 
ATOM     61  C   UNL     1       6.944   5.094  -7.655  1.00  0.00     0.020 A 
ATOM     62  C   UNL     1       5.747   4.404  -7.854  1.00  0.00     0.054 A 
BRANCH  62  63
ATOM     63  S   UNL     1       5.524   3.356  -9.318  1.00  0.00     0.124 S 
ATOM     64  O   UNL     1       5.579   2.015  -8.740  1.00  0.00    -0.237 OA
ATOM     65  O   UNL     1       4.215   3.772  -9.815  1.00  0.00    -0.237 OA
ATOM     66  O   UNL     1       6.654   3.710 -10.175  1.00  0.00    -0.744 OA
ENDBRANCH  62  63
ENDBRANCH  43  57
BRANCH  44  67
ATOM     67  C   UNL     1       7.312  12.070   2.271  1.00  0.00    -0.014 A 
ATOM     68  C   UNL     1       6.311  12.962   2.691  1.00  0.00     0.010 A 
ATOM     69  C   UNL     1       8.551  12.069   2.939  1.00  0.00     0.010 A 
ATOM     70  C   UNL     1       6.553  13.857   3.737  1.00  0.00     0.020 A 
ATOM     71  C   UNL     1       8.787  12.941   4.005  1.00  0.00     0.020 A 
ATOM     72  C   UNL     1       7.792  13.843   4.385  1.00  0.00     0.054 A 
BRANCH  72  73
ATOM     73  S   UNL     1       8.081  14.997   5.756  1.00  0.00     0.124 S 
ATOM     74  O   UNL     1       8.303  16.255   5.050  1.00  0.00    -0.237 OA
ATOM     75  O   UNL     1       6.837  14.907   6.515  1.00  0.00    -0.237 OA
ATOM     76  O   UNL     1       9.253  14.439   6.428  1.00  0.00    -0.744 OA
ENDBRANCH  72  73
ENDBRANCH  44  67
BRANCH  56  77
ATOM     77  C   UNL     1       6.527  13.167  -4.565  1.00  0.00    -0.014 A 
ATOM     78  C   UNL     1       7.700  13.892  -4.836  1.00  0.00     0.010 A 
ATOM     79  C   UNL     1       5.309  13.597  -5.123  1.00  0.00     0.010 A 
ATOM     80  C   UNL     1       7.651  15.044  -5.626  1.00  0.00     0.020 A 
ATOM     81  C   UNL     1       5.260  14.733  -5.934  1.00  0.00     0.020 A 
ATOM     82  C   UNL     1       6.430  15.458  -6.169  1.00  0.00     0.054 A 
BRANCH  82  83
ATOM     83  S   UNL     1       6.397  16.932  -7.226  1.00  0.00     0.124 S 
ATOM     84  O   UNL     1       6.505  18.010  -6.247  1.00  0.00    -0.237 OA
ATOM     85  O   UNL     1       7.566  16.741  -8.081  1.00  0.00    -0.237 OA
ATOM     86  O   UNL     1       5.110  16.837  -7.911  1.00  0.00    -0.744 OA
ENDBRANCH  82  83
ENDBRANCH  56  77
ENDBRANCH  30  31
ENDBRANCH  23  25
ENDBRANCH  22  23
ENDBRANCH  21  22
ENDBRANCH   1  21
TORSDOF 18
