REMARK SMILES CC(C)(O)CC[C@@H](C(=O)OCCOC(=O)c1ccc(-c2c3nc(c(-c4ccc(S(=O)(=O)[O-])cc4)c4ccc([nH]4)c(-c4ccc(S(=O)(=O)[O-])cc4)c4nc(c(-c5ccc(S(=O)(=O)[O-])cc5)c5ccc2[nH]5)C=C4)C=C3)cc1)[C@@H]1CCS(=O)(=O)C1
REMARK SMILES IDX 11 1 10 2 8 3 9 4 7 5 6 6 5 7 2 8 1 9 3 10 4 11 76 13 77 14
REMARK SMILES IDX 82 15 78 16 79 17 80 18 81 19 12 20 13 21 14 22 15 23 16 24
REMARK SMILES IDX 17 25 75 26 18 27 74 28 19 29 20 30 21 31 68 32 22 33 73 34
REMARK SMILES IDX 67 35 69 36 23 37 72 38 66 39 65 40 24 42 54 43 35 44 53 45
REMARK SMILES IDX 36 46 39 47 52 48 70 49 37 50 38 51 51 53 71 54 40 55 25 56
REMARK SMILES IDX 26 57 34 58 27 59 33 60 28 61 29 62 30 63 31 64 32 65 55 66
REMARK SMILES IDX 56 67 64 68 57 69 63 70 58 71 59 72 60 73 61 74 62 75 41 76
REMARK SMILES IDX 42 77 50 78 43 79 49 80 44 81 45 82 46 83 47 84 48 85
REMARK H PARENT 4 12 69 41 39 52
REMARK Flexibility Score: inf
ROOT
ATOM      1  C   UNL     1       4.472   0.374  -2.035  1.00  0.00     0.274 C 
ENDROOT
BRANCH   1   2
ATOM      2  O   UNL     1       3.039   0.348  -2.210  1.00  0.00    -0.462 OA
BRANCH   2   3
ATOM      3  C   UNL     1       2.324   1.430  -1.813  1.00  0.00     0.309 C 
ATOM      4  O   UNL     1       2.830   2.452  -1.369  1.00  0.00    -0.252 OA
BRANCH   3   5
ATOM      5  C   UNL     1       0.799   1.213  -1.899  1.00  0.00     0.103 C 
BRANCH   5   6
ATOM      6  C   UNL     1       0.410  -0.165  -2.485  1.00  0.00     0.018 C 
BRANCH   6   7
ATOM      7  C   UNL     1       0.812  -1.427  -1.691  1.00  0.00     0.035 C 
BRANCH   7   8
ATOM      8  C   UNL     1       0.345  -1.568  -0.225  1.00  0.00     0.059 C 
ATOM      9  C   UNL     1       0.974  -0.577   0.764  1.00  0.00     0.042 C 
ATOM     10  C   UNL     1       0.699  -2.983   0.254  1.00  0.00     0.042 C 
BRANCH   8  11
ATOM     11  O   UNL     1      -1.075  -1.434  -0.213  1.00  0.00    -0.390 OA
ATOM     12  H   UNL     1      -1.400  -1.518   0.697  1.00  0.00     0.211 HD
ENDBRANCH   8  11
ENDBRANCH   7   8
ENDBRANCH   6   7
ENDBRANCH   5   6
BRANCH   5  13
ATOM     13  C   UNL     1      -0.007   2.357  -2.614  1.00  0.00     0.019 C 
ATOM     14  C   UNL     1       0.418   3.804  -2.275  1.00  0.00     0.021 C 
ATOM     15  C   UNL     1      -1.500   2.357  -2.213  1.00  0.00     0.141 C 
ATOM     16  C   UNL     1      -0.004   4.077  -0.837  1.00  0.00     0.137 C 
ATOM     17  S   UNL     1      -1.595   3.277  -0.680  1.00  0.00     0.150 S 
ATOM     18  O   UNL     1      -1.542   2.339   0.421  1.00  0.00    -0.229 OA
ATOM     19  O   UNL     1      -2.646   4.267  -0.799  1.00  0.00    -0.229 OA
ENDBRANCH   5  13
ENDBRANCH   3   5
ENDBRANCH   2   3
ENDBRANCH   1   2
BRANCH   1  20
ATOM     20  C   UNL     1       5.158   0.112  -3.374  1.00  0.00     0.275 C 
BRANCH  20  21
ATOM     21  O   UNL     1       4.854   1.184  -4.286  1.00  0.00    -0.458 OA
BRANCH  21  22
ATOM     22  C   UNL     1       3.950   0.892  -5.253  1.00  0.00     0.338 C 
ATOM     23  O   UNL     1       3.466  -0.193  -5.520  1.00  0.00    -0.246 OA
BRANCH  22  24
ATOM     24  C   UNL     1       3.444   2.160  -5.801  1.00  0.00     0.060 A 
ATOM     25  C   UNL     1       2.381   2.739  -5.120  1.00  0.00     0.016 A 
ATOM     26  C   UNL     1       3.924   2.744  -6.966  1.00  0.00     0.016 A 
ATOM     27  C   UNL     1       1.776   3.900  -5.584  1.00  0.00     0.010 A 
ATOM     28  C   UNL     1       3.346   3.944  -7.414  1.00  0.00     0.010 A 
ATOM     29  C   UNL     1       2.273   4.536  -6.719  1.00  0.00    -0.014 A 
BRANCH  29  30
ATOM     30  C   UNL     1       1.658   5.814  -7.160  1.00  0.00     0.031 A 
ATOM     31  C   UNL     1       0.869   5.866  -8.435  1.00  0.00     0.074 A 
ATOM     32  C   UNL     1       1.769   6.921  -6.395  1.00  0.00     0.049 A 
ATOM     33  N   UNL     1       0.429   6.908  -9.087  1.00  0.00    -0.248 NA
ATOM     34  C   UNL     1       0.517   4.575  -9.047  1.00  0.00     0.031 C 
ATOM     35  C   UNL     1       2.387   6.981  -5.067  1.00  0.00     0.029 A 
ATOM     36  N   UNL     1       1.371   8.216  -6.630  1.00  0.00    -0.354 N 
ATOM     37  C   UNL     1      -0.210   6.407 -10.214  1.00  0.00     0.074 A 
ATOM     38  C   UNL     1      -0.120   4.964 -10.145  1.00  0.00     0.031 C 
ATOM     39  C   UNL     1       2.341   8.245  -4.617  1.00  0.00     0.029 A 
ATOM     40  C   UNL     1       1.779   9.100  -5.657  1.00  0.00     0.049 A 
ATOM     41  H   UNL     1       0.846   8.485  -7.418  1.00  0.00     0.167 HD
ATOM     42  C   UNL     1      -0.796   7.095 -11.221  1.00  0.00     0.031 A 
ATOM     43  C   UNL     1       1.774  10.448  -5.635  1.00  0.00     0.031 A 
ATOM     44  C   UNL     1      -0.887   8.531 -11.270  1.00  0.00     0.049 A 
ATOM     45  C   UNL     1       1.243  11.192  -6.833  1.00  0.00     0.074 A 
ATOM     46  C   UNL     1      -1.452   9.321 -12.257  1.00  0.00     0.029 A 
ATOM     47  N   UNL     1      -0.397   9.392 -10.301  1.00  0.00    -0.354 N 
ATOM     48  N   UNL     1       0.680  10.713  -7.917  1.00  0.00    -0.248 NA
ATOM     49  C   UNL     1       1.367  12.657  -6.817  1.00  0.00     0.031 C 
ATOM     50  C   UNL     1      -1.237  10.660 -11.920  1.00  0.00     0.029 A 
ATOM     51  C   UNL     1      -0.604  10.705 -10.688  1.00  0.00     0.049 A 
ATOM     52  H   UNL     1       0.033   9.112  -9.461  1.00  0.00     0.167 HD
ATOM     53  C   UNL     1       0.368  11.820  -8.701  1.00  0.00     0.074 A 
ATOM     54  C   UNL     1       0.777  12.991  -7.956  1.00  0.00     0.031 C 
ATOM     55  C   UNL     1      -0.197  11.862  -9.933  1.00  0.00     0.031 A 
BRANCH  42  56
ATOM     56  C   UNL     1      -1.314   6.320 -12.402  1.00  0.00    -0.014 A 
ATOM     57  C   UNL     1      -2.508   5.583 -12.341  1.00  0.00     0.010 A 
ATOM     58  C   UNL     1      -0.626   6.414 -13.627  1.00  0.00     0.010 A 
ATOM     59  C   UNL     1      -3.001   4.947 -13.485  1.00  0.00     0.020 A 
ATOM     60  C   UNL     1      -1.128   5.802 -14.777  1.00  0.00     0.020 A 
ATOM     61  C   UNL     1      -2.310   5.066 -14.697  1.00  0.00     0.054 A 
BRANCH  61  62
ATOM     62  S   UNL     1      -3.008   4.286 -16.179  1.00  0.00     0.124 S 
ATOM     63  O   UNL     1      -2.820   2.867 -15.890  1.00  0.00    -0.237 OA
ATOM     64  O   UNL     1      -4.392   4.753 -16.162  1.00  0.00    -0.237 OA
ATOM     65  O   UNL     1      -2.189   4.813 -17.268  1.00  0.00    -0.744 OA
ENDBRANCH  61  62
ENDBRANCH  42  56
BRANCH  43  66
ATOM     66  C   UNL     1       2.403  11.192  -4.504  1.00  0.00    -0.014 A 
ATOM     67  C   UNL     1       1.650  12.063  -3.697  1.00  0.00     0.010 A 
ATOM     68  C   UNL     1       3.787  11.074  -4.267  1.00  0.00     0.010 A 
ATOM     69  C   UNL     1       2.273  12.829  -2.706  1.00  0.00     0.020 A 
ATOM     70  C   UNL     1       4.407  11.807  -3.252  1.00  0.00     0.020 A 
ATOM     71  C   UNL     1       3.649  12.698  -2.492  1.00  0.00     0.054 A 
BRANCH  71  72
ATOM     72  S   UNL     1       4.438  13.698  -1.201  1.00  0.00     0.124 S 
ATOM     73  O   UNL     1       4.423  15.030  -1.798  1.00  0.00    -0.237 OA
ATOM     74  O   UNL     1       3.545  13.503  -0.062  1.00  0.00    -0.237 OA
ATOM     75  O   UNL     1       5.760  13.091  -1.059  1.00  0.00    -0.744 OA
ENDBRANCH  71  72
ENDBRANCH  43  66
BRANCH  55  76
ATOM     76  C   UNL     1      -0.432  13.217 -10.546  1.00  0.00    -0.014 A 
ATOM     77  C   UNL     1       0.639  13.998 -11.017  1.00  0.00     0.010 A 
ATOM     78  C   UNL     1      -1.748  13.684 -10.719  1.00  0.00     0.010 A 
ATOM     79  C   UNL     1       0.399  15.230 -11.629  1.00  0.00     0.020 A 
ATOM     80  C   UNL     1      -1.994  14.901 -11.360  1.00  0.00     0.020 A 
ATOM     81  C   UNL     1      -0.917  15.671 -11.802  1.00  0.00     0.054 A 
BRANCH  81  82
ATOM     82  S   UNL     1      -1.202  17.244 -12.659  1.00  0.00     0.124 S 
ATOM     83  O   UNL     1      -0.733  18.216 -11.676  1.00  0.00    -0.237 OA
ATOM     84  O   UNL     1      -0.373  17.110 -13.855  1.00  0.00    -0.237 OA
ATOM     85  O   UNL     1      -2.642  17.251 -12.904  1.00  0.00    -0.744 OA
ENDBRANCH  81  82
ENDBRANCH  55  76
ENDBRANCH  29  30
ENDBRANCH  22  24
ENDBRANCH  21  22
ENDBRANCH  20  21
ENDBRANCH   1  20
TORSDOF 19
