REMARK SMILES [NH3+][C@@H]1C=C[C@H](C(=O)NC[C@H](O)C(=O)OCCOC(=O)c2ccc(-c3c4nc(c(-c5ccc(S(=O)(=O)[O-])cc5)c5ccc([nH]5)c(-c5ccc(S(=O)(=O)[O-])cc5)c5nc(c(-c6ccc(S(=O)(=O)[O-])cc6)c6ccc3[nH]6)C=C5)C=C4)cc2)C1
REMARK SMILES IDX 15 1 14 2 12 3 13 4 10 5 9 6 8 7 6 8 7 9 5 11 2 12 3 13
REMARK SMILES IDX 80 14 4 15 1 16 11 20 16 22 17 23 18 24 19 25 20 26 21 27
REMARK SMILES IDX 79 28 22 29 78 30 23 31 24 32 25 33 72 34 26 35 77 36 71 37
REMARK SMILES IDX 73 38 27 39 76 40 70 41 69 42 28 44 58 45 39 46 57 47 40 48
REMARK SMILES IDX 43 49 56 50 74 51 41 52 42 53 55 55 75 56 44 57 29 58 30 59
REMARK SMILES IDX 38 60 31 61 37 62 32 63 33 64 34 65 35 66 36 67 59 68 60 69
REMARK SMILES IDX 68 70 61 71 67 72 62 73 63 74 64 75 65 76 66 77 45 78 46 79
REMARK SMILES IDX 54 80 47 81 53 82 48 83 49 84 50 85 51 86 52 87
REMARK H PARENT 8 10 1 17 1 18 1 19 11 21 73 43 43 54
REMARK Flexibility Score: inf
ROOT
ATOM      1  C   UNL     1      -1.752  -4.218   1.169  1.00  0.00     0.274 C 
ENDROOT
BRANCH   1   2
ATOM      2  O   UNL     1      -1.765  -3.812  -0.214  1.00  0.00    -0.460 OA
BRANCH   2   3
ATOM      3  C   UNL     1      -2.661  -2.863  -0.608  1.00  0.00     0.336 C 
ATOM      4  O   UNL     1      -3.531  -2.378   0.100  1.00  0.00    -0.249 OA
BRANCH   3   5
ATOM      5  C   UNL     1      -2.439  -2.490  -2.084  1.00  0.00     0.243 C 
BRANCH   5   6
ATOM      6  C   UNL     1      -3.694  -2.840  -2.919  1.00  0.00     0.159 C 
BRANCH   6   7
ATOM      7  N   UNL     1      -3.405  -3.614  -4.119  1.00  0.00    -0.352 N 
ATOM      8  C   UNL     1      -3.489  -4.936  -4.409  1.00  0.00     0.227 C 
ATOM      9  O   UNL     1      -3.142  -5.258  -5.552  1.00  0.00    -0.274 OA
ATOM     10  H   UNL     1      -3.084  -3.066  -4.872  1.00  0.00     0.163 HD
BRANCH   8  11
ATOM     11  C   UNL     1      -4.100  -5.968  -3.442  1.00  0.00     0.107 C 
ATOM     12  C   UNL     1      -2.457  -6.848  -1.835  1.00  0.00     0.205 C 
ATOM     13  C   UNL     1      -2.685  -7.802  -2.954  1.00  0.00     0.033 C 
ATOM     14  C   UNL     1      -3.687  -5.948  -1.970  1.00  0.00     0.087 C 
ATOM     15  C   UNL     1      -3.605  -7.346  -3.816  1.00  0.00    -0.012 C 
BRANCH  12  16
ATOM     16  N   UNL     1      -1.188  -6.164  -2.007  1.00  0.00    -0.352 N 
ATOM     17  H   UNL     1      -0.424  -6.832  -1.902  1.00  0.00     0.345 HD
ATOM     18  H   UNL     1      -1.099  -5.432  -1.303  1.00  0.00     0.345 HD
ATOM     19  H   UNL     1      -1.150  -5.747  -2.937  1.00  0.00     0.345 HD
ENDBRANCH  12  16
ENDBRANCH   8  11
ENDBRANCH   6   7
ENDBRANCH   5   6
BRANCH   5  20
ATOM     20  O   UNL     1      -1.254  -3.045  -2.660  1.00  0.00    -0.380 OA
ATOM     21  H   UNL     1      -1.323  -4.012  -2.674  1.00  0.00     0.211 HD
ENDBRANCH   5  20
ENDBRANCH   3   5
ENDBRANCH   2   3
ENDBRANCH   1   2
BRANCH   1  22
ATOM     22  C   UNL     1      -0.324  -4.106   1.712  1.00  0.00     0.275 C 
BRANCH  22  23
ATOM     23  O   UNL     1       0.019  -2.724   1.924  1.00  0.00    -0.458 OA
BRANCH  23  24
ATOM     24  C   UNL     1       0.377  -2.043   0.809  1.00  0.00     0.338 C 
ATOM     25  O   UNL     1       0.597  -2.498  -0.302  1.00  0.00    -0.246 OA
BRANCH  24  26
ATOM     26  C   UNL     1       0.165  -0.609   1.060  1.00  0.00     0.060 A 
ATOM     27  C   UNL     1      -0.583   0.088   0.107  1.00  0.00     0.016 A 
ATOM     28  C   UNL     1       0.653   0.039   2.196  1.00  0.00     0.016 A 
ATOM     29  C   UNL     1      -0.860   1.435   0.281  1.00  0.00     0.010 A 
ATOM     30  C   UNL     1       0.389   1.400   2.365  1.00  0.00     0.010 A 
ATOM     31  C   UNL     1      -0.362   2.100   1.404  1.00  0.00    -0.014 A 
BRANCH  31  32
ATOM     32  C   UNL     1      -0.544   3.562   1.506  1.00  0.00     0.031 A 
ATOM     33  C   UNL     1       0.609   4.455   1.157  1.00  0.00     0.074 A 
ATOM     34  C   UNL     1      -1.740   4.069   1.852  1.00  0.00     0.049 A 
ATOM     35  N   UNL     1       0.702   5.754   1.252  1.00  0.00    -0.248 NA
ATOM     36  C   UNL     1       1.816   3.797   0.628  1.00  0.00     0.031 C 
ATOM     37  C   UNL     1      -2.946   3.285   2.127  1.00  0.00     0.029 A 
ATOM     38  N   UNL     1      -2.138   5.368   2.025  1.00  0.00    -0.354 N 
ATOM     39  C   UNL     1       1.984   6.069   0.817  1.00  0.00     0.074 A 
ATOM     40  C   UNL     1       2.636   4.825   0.469  1.00  0.00     0.031 C 
ATOM     41  C   UNL     1      -3.950   4.123   2.435  1.00  0.00     0.029 A 
ATOM     42  C   UNL     1      -3.446   5.493   2.426  1.00  0.00     0.049 A 
ATOM     43  H   UNL     1      -1.544   6.139   1.875  1.00  0.00     0.167 HD
ATOM     44  C   UNL     1       2.561   7.288   0.720  1.00  0.00     0.031 A 
ATOM     45  C   UNL     1      -4.144   6.590   2.777  1.00  0.00     0.031 A 
ATOM     46  C   UNL     1       1.900   8.513   1.079  1.00  0.00     0.049 A 
ATOM     47  C   UNL     1      -3.453   7.926   2.740  1.00  0.00     0.074 A 
ATOM     48  C   UNL     1       2.397   9.803   1.051  1.00  0.00     0.029 A 
ATOM     49  N   UNL     1       0.589   8.597   1.527  1.00  0.00    -0.354 N 
ATOM     50  N   UNL     1      -2.226   8.208   2.368  1.00  0.00    -0.248 NA
ATOM     51  C   UNL     1      -4.236   9.090   3.175  1.00  0.00     0.031 C 
ATOM     52  C   UNL     1       1.399  10.663   1.521  1.00  0.00     0.029 A 
ATOM     53  C   UNL     1       0.263   9.914   1.792  1.00  0.00     0.049 A 
ATOM     54  H   UNL     1      -0.019   7.831   1.640  1.00  0.00     0.167 HD
ATOM     55  C   UNL     1      -2.096   9.585   2.503  1.00  0.00     0.074 A 
ATOM     56  C   UNL     1      -3.374  10.079   2.977  1.00  0.00     0.031 C 
ATOM     57  C   UNL     1      -1.020  10.373   2.260  1.00  0.00     0.031 A 
BRANCH  44  58
ATOM     58  C   UNL     1       3.990   7.341   0.253  1.00  0.00    -0.014 A 
ATOM     59  C   UNL     1       4.327   7.105  -1.092  1.00  0.00     0.010 A 
ATOM     60  C   UNL     1       5.010   7.641   1.173  1.00  0.00     0.010 A 
ATOM     61  C   UNL     1       5.663   7.132  -1.500  1.00  0.00     0.020 A 
ATOM     62  C   UNL     1       6.345   7.693   0.764  1.00  0.00     0.020 A 
ATOM     63  C   UNL     1       6.665   7.421  -0.568  1.00  0.00     0.054 A 
BRANCH  63  64
ATOM     64  S   UNL     1       8.390   7.462  -1.126  1.00  0.00     0.124 S 
ATOM     65  O   UNL     1       8.686   6.041  -1.292  1.00  0.00    -0.237 OA
ATOM     66  O   UNL     1       8.310   8.236  -2.362  1.00  0.00    -0.237 OA
ATOM     67  O   UNL     1       9.094   8.120  -0.027  1.00  0.00    -0.744 OA
ENDBRANCH  63  64
ENDBRANCH  44  58
BRANCH  45  68
ATOM     68  C   UNL     1      -5.556   6.467   3.230  1.00  0.00    -0.014 A 
ATOM     69  C   UNL     1      -6.609   6.970   2.446  1.00  0.00     0.010 A 
ATOM     70  C   UNL     1      -5.856   5.843   4.455  1.00  0.00     0.010 A 
ATOM     71  C   UNL     1      -7.932   6.868   2.886  1.00  0.00     0.020 A 
ATOM     72  C   UNL     1      -7.180   5.715   4.886  1.00  0.00     0.020 A 
ATOM     73  C   UNL     1      -8.209   6.241   4.105  1.00  0.00     0.054 A 
BRANCH  73  74
ATOM     74  S   UNL     1      -9.936   6.079   4.638  1.00  0.00     0.124 S 
ATOM     75  O   UNL     1     -10.241   7.432   5.091  1.00  0.00    -0.237 OA
ATOM     76  O   UNL     1     -10.608   5.655   3.412  1.00  0.00    -0.237 OA
ATOM     77  O   UNL     1      -9.874   5.065   5.688  1.00  0.00    -0.744 OA
ENDBRANCH  73  74
ENDBRANCH  45  68
BRANCH  57  78
ATOM     78  C   UNL     1      -1.193  11.852   2.466  1.00  0.00    -0.014 A 
ATOM     79  C   UNL     1      -1.237  12.405   3.757  1.00  0.00     0.010 A 
ATOM     80  C   UNL     1      -1.255  12.703   1.347  1.00  0.00     0.010 A 
ATOM     81  C   UNL     1      -1.371  13.786   3.926  1.00  0.00     0.020 A 
ATOM     82  C   UNL     1      -1.363  14.085   1.512  1.00  0.00     0.020 A 
ATOM     83  C   UNL     1      -1.434  14.616   2.802  1.00  0.00     0.054 A 
BRANCH  83  84
ATOM     84  S   UNL     1      -1.560  16.409   3.045  1.00  0.00     0.124 S 
ATOM     85  O   UNL     1      -2.962  16.564   3.425  1.00  0.00    -0.237 OA
ATOM     86  O   UNL     1      -0.590  16.658   4.108  1.00  0.00    -0.237 OA
ATOM     87  O   UNL     1      -1.202  16.960   1.741  1.00  0.00    -0.744 OA
ENDBRANCH  83  84
ENDBRANCH  57  78
ENDBRANCH  31  32
ENDBRANCH  24  26
ENDBRANCH  23  24
ENDBRANCH  22  23
ENDBRANCH   1  22
TORSDOF 19
