REMARK SMILES COc1ccc(/C=C2/C(=O)N(c3ccccc3)C(=O)N=C2OCCOC(=O)c2ccc(-c3c4nc(c(-c5ccc(S(=O)(=O)[O-])cc5)c5ccc([nH]5)c(-c5ccc(S(=O)(=O)[O-])cc5)c5nc(c(-c6ccc(S(=O)(=O)[O-])cc6)c6ccc3[nH]6)C=C5)C=C4)cc2)cc1C(=O)[O-]
REMARK SMILES IDX 24 1 23 2 22 3 21 4 7 5 8 6 9 7 10 8 11 9 20 10 18 11 19 12
REMARK SMILES IDX 6 13 3 14 4 15 89 16 5 17 88 18 2 19 1 20 90 21 91 22 92 23
REMARK SMILES IDX 12 24 13 25 17 26 14 27 16 28 15 29 25 30 26 31 27 32 28 33
REMARK SMILES IDX 29 34 87 35 30 36 86 37 31 38 32 39 33 40 80 41 34 42 85 43
REMARK SMILES IDX 79 44 81 45 35 46 84 47 78 48 77 49 36 51 66 52 47 53 65 54
REMARK SMILES IDX 48 55 51 56 64 57 82 58 49 59 50 60 63 62 83 63 52 64 37 65
REMARK SMILES IDX 38 66 46 67 39 68 45 69 40 70 41 71 42 72 43 73 44 74 67 75
REMARK SMILES IDX 68 76 76 77 69 78 75 79 70 80 71 81 72 82 73 83 74 84 53 85
REMARK SMILES IDX 54 86 62 87 55 88 61 89 56 90 57 91 58 92 59 93 60 94
REMARK H PARENT 81 50 51 61
REMARK Flexibility Score: inf
ROOT
ATOM      1  C   UNL     1      -2.970   4.720   4.445  1.00  0.00     0.274 C 
ENDROOT
BRANCH   1   2
ATOM      2  C   UNL     1      -1.844   5.405   3.664  1.00  0.00     0.273 C 
BRANCH   2   3
ATOM      3  O   UNL     1      -0.550   4.945   4.126  1.00  0.00    -0.473 OA
BRANCH   3   4
ATOM      4  C   UNL     1       0.405   5.834   4.475  1.00  0.00     0.231 C 
ATOM      5  C   UNL     1       2.344   4.223   4.186  1.00  0.00     0.027 C 
ATOM      6  C   UNL     1       1.680   5.210   4.820  1.00  0.00     0.103 C 
ATOM      7  C   UNL     1       2.360   5.886   5.969  1.00  0.00     0.272 C 
ATOM      8  O   UNL     1       3.209   5.285   6.625  1.00  0.00    -0.268 OA
ATOM      9  N   UNL     1       1.985   7.218   6.133  1.00  0.00    -0.226 N 
ATOM     10  N   UNL     1       0.186   7.093   4.602  1.00  0.00    -0.156 NA
ATOM     11  C   UNL     1       1.210   7.846   5.145  1.00  0.00     0.358 C 
ATOM     12  O   UNL     1       1.363   9.004   4.772  1.00  0.00    -0.245 OA
BRANCH   5  13
ATOM     13  C   UNL     1       2.057   3.433   2.967  1.00  0.00    -0.024 A 
ATOM     14  C   UNL     1       1.672   1.794   0.678  1.00  0.00     0.127 A 
ATOM     15  C   UNL     1       0.872   2.915   0.897  1.00  0.00     0.048 A 
ATOM     16  C   UNL     1       2.729   1.533   1.553  1.00  0.00     0.040 A 
ATOM     17  C   UNL     1       1.091   3.743   2.006  1.00  0.00     0.012 A 
ATOM     18  C   UNL     1       2.889   2.332   2.702  1.00  0.00     0.022 A 
BRANCH  14  19
ATOM     19  O   UNL     1       1.456   1.109  -0.486  1.00  0.00    -0.496 OA
ATOM     20  C   UNL     1       0.773  -0.127  -0.259  1.00  0.00     0.278 C 
ENDBRANCH  14  19
BRANCH  16  21
ATOM     21  C   UNL     1       3.799   0.544   1.299  1.00  0.00     0.075 C 
ATOM     22  O   UNL     1       4.960   0.673   1.649  1.00  0.00    -0.545 OA
ATOM     23  O   UNL     1       3.396  -0.580   0.689  1.00  0.00    -0.545 OA
ENDBRANCH  16  21
ENDBRANCH   5  13
BRANCH   9  24
ATOM     24  C   UNL     1       2.437   7.951   7.289  1.00  0.00     0.054 A 
ATOM     25  C   UNL     1       2.405   7.327   8.554  1.00  0.00     0.027 A 
ATOM     26  C   UNL     1       2.752   9.316   7.248  1.00  0.00     0.027 A 
ATOM     27  C   UNL     1       2.591   8.062   9.731  1.00  0.00     0.002 A 
ATOM     28  C   UNL     1       2.982  10.041   8.425  1.00  0.00     0.002 A 
ATOM     29  C   UNL     1       2.872   9.422   9.665  1.00  0.00     0.000 A 
ENDBRANCH   9  24
ENDBRANCH   3   4
ENDBRANCH   2   3
ENDBRANCH   1   2
BRANCH   1  30
ATOM     30  O   UNL     1      -3.240   5.464   5.646  1.00  0.00    -0.458 OA
BRANCH  30  31
ATOM     31  C   UNL     1      -2.616   5.015   6.757  1.00  0.00     0.338 C 
ATOM     32  O   UNL     1      -2.015   3.965   6.901  1.00  0.00    -0.246 OA
BRANCH  31  33
ATOM     33  C   UNL     1      -2.502   6.150   7.681  1.00  0.00     0.060 A 
ATOM     34  C   UNL     1      -1.269   6.792   7.684  1.00  0.00     0.016 A 
ATOM     35  C   UNL     1      -3.517   6.565   8.541  1.00  0.00     0.016 A 
ATOM     36  C   UNL     1      -1.032   7.842   8.552  1.00  0.00     0.010 A 
ATOM     37  C   UNL     1      -3.264   7.617   9.439  1.00  0.00     0.010 A 
ATOM     38  C   UNL     1      -2.003   8.241   9.470  1.00  0.00    -0.014 A 
BRANCH  38  39
ATOM     39  C   UNL     1      -1.566   9.159  10.557  1.00  0.00     0.031 A 
ATOM     40  C   UNL     1      -1.386   8.605  11.946  1.00  0.00     0.074 A 
ATOM     41  C   UNL     1      -1.126  10.403  10.286  1.00  0.00     0.049 A 
ATOM     42  N   UNL     1      -1.039   9.221  13.046  1.00  0.00    -0.248 NA
ATOM     43  C   UNL     1      -1.613   7.160  12.110  1.00  0.00     0.031 C 
ATOM     44  C   UNL     1      -1.077  11.011   8.955  1.00  0.00     0.029 A 
ATOM     45  N   UNL     1      -0.576  11.356  11.108  1.00  0.00    -0.354 N 
ATOM     46  C   UNL     1      -1.069   8.253  14.044  1.00  0.00     0.074 A 
ATOM     47  C   UNL     1      -1.449   7.007  13.415  1.00  0.00     0.031 C 
ATOM     48  C   UNL     1      -0.472  12.207   9.044  1.00  0.00     0.029 A 
ATOM     49  C   UNL     1      -0.169  12.489  10.444  1.00  0.00     0.049 A 
ATOM     50  H   UNL     1      -0.483  11.239  12.081  1.00  0.00     0.167 HD
ATOM     51  C   UNL     1      -0.822   8.393  15.369  1.00  0.00     0.031 A 
ATOM     52  C   UNL     1       0.361  13.638  10.911  1.00  0.00     0.031 A 
ATOM     53  C   UNL     1      -0.424   9.627  15.989  1.00  0.00     0.049 A 
ATOM     54  C   UNL     1       0.571  13.798  12.393  1.00  0.00     0.074 A 
ATOM     55  C   UNL     1      -0.236   9.899  17.333  1.00  0.00     0.029 A 
ATOM     56  N   UNL     1      -0.132  10.795  15.301  1.00  0.00    -0.354 N 
ATOM     57  N   UNL     1       0.388  12.920  13.351  1.00  0.00    -0.248 NA
ATOM     58  C   UNL     1       1.034  15.112  12.858  1.00  0.00     0.031 C 
ATOM     59  C   UNL     1       0.131  11.245  17.459  1.00  0.00     0.029 A 
ATOM     60  C   UNL     1       0.225  11.795  16.190  1.00  0.00     0.049 A 
ATOM     61  H   UNL     1      -0.174  10.899  14.322  1.00  0.00     0.167 HD
ATOM     62  C   UNL     1       0.697  13.581  14.535  1.00  0.00     0.074 A 
ATOM     63  C   UNL     1       1.122  14.917  14.167  1.00  0.00     0.031 C 
ATOM     64  C   UNL     1       0.618  13.129  15.812  1.00  0.00     0.031 A 
BRANCH  51  65
ATOM     65  C   UNL     1      -1.093   7.192  16.234  1.00  0.00    -0.014 A 
ATOM     66  C   UNL     1      -0.249   6.068  16.239  1.00  0.00     0.010 A 
ATOM     67  C   UNL     1      -2.260   7.178  17.022  1.00  0.00     0.010 A 
ATOM     68  C   UNL     1      -0.600   4.927  16.967  1.00  0.00     0.020 A 
ATOM     69  C   UNL     1      -2.600   6.050  17.771  1.00  0.00     0.020 A 
ATOM     70  C   UNL     1      -1.782   4.921  17.716  1.00  0.00     0.054 A 
BRANCH  70  71
ATOM     71  S   UNL     1      -2.243   3.417  18.619  1.00  0.00     0.124 S 
ATOM     72  O   UNL     1      -2.730   2.558  17.542  1.00  0.00    -0.237 OA
ATOM     73  O   UNL     1      -0.981   3.005  19.228  1.00  0.00    -0.237 OA
ATOM     74  O   UNL     1      -3.263   3.876  19.558  1.00  0.00    -0.744 OA
ENDBRANCH  70  71
ENDBRANCH  51  65
BRANCH  52  75
ATOM     75  C   UNL     1       0.660  14.750   9.966  1.00  0.00    -0.014 A 
ATOM     76  C   UNL     1       1.982  15.155   9.712  1.00  0.00     0.010 A 
ATOM     77  C   UNL     1      -0.392  15.394   9.287  1.00  0.00     0.010 A 
ATOM     78  C   UNL     1       2.246  16.173   8.789  1.00  0.00     0.020 A 
ATOM     79  C   UNL     1      -0.131  16.389   8.342  1.00  0.00     0.020 A 
ATOM     80  C   UNL     1       1.187  16.777   8.102  1.00  0.00     0.054 A 
BRANCH  80  81
ATOM     81  S   UNL     1       1.549  18.026   6.836  1.00  0.00     0.124 S 
ATOM     82  O   UNL     1       1.806  19.213   7.646  1.00  0.00    -0.237 OA
ATOM     83  O   UNL     1       2.711  17.462   6.154  1.00  0.00    -0.237 OA
ATOM     84  O   UNL     1       0.326  18.063   6.037  1.00  0.00    -0.744 OA
ENDBRANCH  80  81
ENDBRANCH  52  75
BRANCH  64  85
ATOM     85  C   UNL     1       0.993  14.095  16.905  1.00  0.00    -0.014 A 
ATOM     86  C   UNL     1       0.155  15.176  17.233  1.00  0.00     0.010 A 
ATOM     87  C   UNL     1       2.184  13.907  17.628  1.00  0.00     0.010 A 
ATOM     88  C   UNL     1       0.525  16.080  18.233  1.00  0.00     0.020 A 
ATOM     89  C   UNL     1       2.546  14.794  18.646  1.00  0.00     0.020 A 
ATOM     90  C   UNL     1       1.724  15.888  18.927  1.00  0.00     0.054 A 
BRANCH  90  91
ATOM     91  S   UNL     1       2.183  17.069  20.224  1.00  0.00     0.124 S 
ATOM     92  O   UNL     1       2.650  18.211  19.442  1.00  0.00    -0.237 OA
ATOM     93  O   UNL     1       0.925  17.269  20.940  1.00  0.00    -0.237 OA
ATOM     94  O   UNL     1       3.217  16.367  20.981  1.00  0.00    -0.744 OA
ENDBRANCH  90  91
ENDBRANCH  64  85
ENDBRANCH  38  39
ENDBRANCH  31  33
ENDBRANCH  30  31
ENDBRANCH   1  30
TORSDOF 17
