REMARK SMILES O=C(OCCOC(=O)[C@H]1C=C[C@@H](NS(=O)(=O)c2ccc(Br)cc2)C1)c1ccc(-c2c3nc(c(-c4ccc(S(=O)(=O)[O-])cc4)c4ccc([nH]4)c(-c4ccc(S(=O)(=O)[O-])cc4)c4nc(c(-c5ccc(S(=O)(=O)[O-])cc5)c5ccc2[nH]5)C=C4)C=C3)cc1
REMARK SMILES IDX 4 1 3 2 2 3 1 4 25 5 26 6 84 7 27 8 83 9 28 10 29 11 30 12
REMARK SMILES IDX 77 13 31 14 82 15 76 16 78 17 32 18 81 19 75 20 74 21 33 23
REMARK SMILES IDX 63 24 44 25 62 26 45 27 48 28 61 29 79 30 46 31 47 32 60 34
REMARK SMILES IDX 80 35 49 36 34 37 35 38 43 39 36 40 42 41 37 42 38 43 39 44
REMARK SMILES IDX 40 45 41 46 64 47 65 48 73 49 66 50 72 51 67 52 68 53 69 54
REMARK SMILES IDX 70 55 71 56 50 57 51 58 59 59 52 60 58 61 53 62 54 63 55 64
REMARK SMILES IDX 56 65 57 66 5 67 6 68 7 69 8 70 9 71 10 72 24 73 11 74 12 75
REMARK SMILES IDX 13 76 14 78 15 79 16 80 17 81 18 82 23 83 19 84 22 85 20 86
REMARK SMILES IDX 21 87
REMARK H PARENT 78 22 48 33 13 77
REMARK Flexibility Score: inf
ROOT
ATOM      1  C   UNL     1       4.179  -1.380   0.634  1.00  0.00     0.275 C 
ENDROOT
BRANCH   1   2
ATOM      2  O   UNL     1       3.298  -0.334   1.061  1.00  0.00    -0.458 OA
BRANCH   2   3
ATOM      3  C   UNL     1       3.444   0.999   0.866  1.00  0.00     0.338 C 
ATOM      4  O   UNL     1       2.873   1.770   1.634  1.00  0.00    -0.246 OA
BRANCH   3   5
ATOM      5  C   UNL     1       4.075   1.574  -0.368  1.00  0.00     0.060 A 
ATOM      6  C   UNL     1       5.119   1.024  -1.120  1.00  0.00     0.016 A 
ATOM      7  C   UNL     1       3.509   2.778  -0.823  1.00  0.00     0.016 A 
ATOM      8  C   UNL     1       5.527   1.600  -2.333  1.00  0.00     0.010 A 
ATOM      9  C   UNL     1       3.879   3.328  -2.052  1.00  0.00     0.010 A 
ATOM     10  C   UNL     1       4.894   2.741  -2.821  1.00  0.00    -0.014 A 
BRANCH  10  11
ATOM     11  C   UNL     1       5.362   3.434  -4.047  1.00  0.00     0.031 A 
ATOM     12  C   UNL     1       5.949   4.808  -3.888  1.00  0.00     0.074 A 
ATOM     13  C   UNL     1       5.196   2.902  -5.274  1.00  0.00     0.049 A 
ATOM     14  N   UNL     1       6.245   5.696  -4.798  1.00  0.00    -0.248 NA
ATOM     15  C   UNL     1       6.192   5.250  -2.505  1.00  0.00     0.031 C 
ATOM     16  C   UNL     1       4.654   1.575  -5.568  1.00  0.00     0.029 A 
ATOM     17  N   UNL     1       5.440   3.438  -6.515  1.00  0.00    -0.354 N 
ATOM     18  C   UNL     1       6.655   6.820  -4.091  1.00  0.00     0.074 A 
ATOM     19  C   UNL     1       6.508   6.520  -2.685  1.00  0.00     0.031 C 
ATOM     20  C   UNL     1       4.564   1.418  -6.900  1.00  0.00     0.029 A 
ATOM     21  C   UNL     1       5.040   2.632  -7.556  1.00  0.00     0.049 A 
ATOM     22  H   UNL     1       5.863   4.318  -6.647  1.00  0.00     0.167 HD
ATOM     23  C   UNL     1       7.145   7.990  -4.565  1.00  0.00     0.031 A 
ATOM     24  C   UNL     1       5.053   2.853  -8.886  1.00  0.00     0.031 A 
ATOM     25  C   UNL     1       7.336   8.261  -5.959  1.00  0.00     0.049 A 
ATOM     26  C   UNL     1       5.628   4.145  -9.405  1.00  0.00     0.074 A 
ATOM     27  C   UNL     1       7.884   9.379  -6.556  1.00  0.00     0.029 A 
ATOM     28  N   UNL     1       6.992   7.383  -6.976  1.00  0.00    -0.354 N 
ATOM     29  N   UNL     1       6.071   5.175  -8.724  1.00  0.00    -0.248 NA
ATOM     30  C   UNL     1       5.738   4.292 -10.863  1.00  0.00     0.031 C 
ATOM     31  C   UNL     1       7.862   9.181  -7.941  1.00  0.00     0.029 A 
ATOM     32  C   UNL     1       7.327   7.927  -8.200  1.00  0.00     0.049 A 
ATOM     33  H   UNL     1       6.571   6.503  -6.845  1.00  0.00     0.167 HD
ATOM     34  C   UNL     1       6.556   6.073  -9.669  1.00  0.00     0.074 A 
ATOM     35  C   UNL     1       6.342   5.470 -10.969  1.00  0.00     0.031 C 
ATOM     36  C   UNL     1       7.138   7.282  -9.476  1.00  0.00     0.031 A 
BRANCH  23  37
ATOM     37  C   UNL     1       7.490   9.031  -3.537  1.00  0.00    -0.014 A 
ATOM     38  C   UNL     1       8.565   8.836  -2.648  1.00  0.00     0.010 A 
ATOM     39  C   UNL     1       6.663  10.156  -3.379  1.00  0.00     0.010 A 
ATOM     40  C   UNL     1       8.735   9.684  -1.552  1.00  0.00     0.020 A 
ATOM     41  C   UNL     1       6.853  11.027  -2.303  1.00  0.00     0.020 A 
ATOM     42  C   UNL     1       7.861  10.758  -1.372  1.00  0.00     0.054 A 
BRANCH  42  43
ATOM     43  S   UNL     1       8.035  11.788   0.110  1.00  0.00     0.124 S 
ATOM     44  O   UNL     1       7.358  10.975   1.117  1.00  0.00    -0.237 OA
ATOM     45  O   UNL     1       9.484  11.896   0.264  1.00  0.00    -0.237 OA
ATOM     46  O   UNL     1       7.356  13.029  -0.253  1.00  0.00    -0.744 OA
ENDBRANCH  42  43
ENDBRANCH  23  37
BRANCH  24  47
ATOM     47  C   UNL     1       4.542   1.810  -9.818  1.00  0.00    -0.014 A 
ATOM     48  C   UNL     1       5.435   1.009 -10.551  1.00  0.00     0.010 A 
ATOM     49  C   UNL     1       3.159   1.592  -9.957  1.00  0.00     0.010 A 
ATOM     50  C   UNL     1       4.957   0.017 -11.413  1.00  0.00     0.020 A 
ATOM     51  C   UNL     1       2.676   0.589 -10.804  1.00  0.00     0.020 A 
ATOM     52  C   UNL     1       3.579  -0.189 -11.532  1.00  0.00     0.054 A 
BRANCH  52  53
ATOM     53  S   UNL     1       2.986  -1.526 -12.609  1.00  0.00     0.124 S 
ATOM     54  O   UNL     1       3.247  -0.983 -13.938  1.00  0.00    -0.237 OA
ATOM     55  O   UNL     1       3.829  -2.649 -12.206  1.00  0.00    -0.237 OA
ATOM     56  O   UNL     1       1.577  -1.654 -12.248  1.00  0.00    -0.744 OA
ENDBRANCH  52  53
ENDBRANCH  24  47
BRANCH  36  57
ATOM     57  C   UNL     1       7.658   8.017 -10.678  1.00  0.00    -0.014 A 
ATOM     58  C   UNL     1       6.795   8.754 -11.505  1.00  0.00     0.010 A 
ATOM     59  C   UNL     1       9.049   8.098 -10.878  1.00  0.00     0.010 A 
ATOM     60  C   UNL     1       7.319   9.579 -12.504  1.00  0.00     0.020 A 
ATOM     61  C   UNL     1       9.575   8.935 -11.863  1.00  0.00     0.020 A 
ATOM     62  C   UNL     1       8.706   9.675 -12.667  1.00  0.00     0.054 A 
BRANCH  62  63
ATOM     63  S   UNL     1       9.365  10.859 -13.873  1.00  0.00     0.124 S 
ATOM     64  O   UNL     1       9.137  10.165 -15.137  1.00  0.00    -0.237 OA
ATOM     65  O   UNL     1       8.540  12.043 -13.646  1.00  0.00    -0.237 OA
ATOM     66  O   UNL     1      10.767  11.003 -13.484  1.00  0.00    -0.744 OA
ENDBRANCH  62  63
ENDBRANCH  36  57
ENDBRANCH  10  11
ENDBRANCH   3   5
ENDBRANCH   2   3
ENDBRANCH   1   2
BRANCH   1  67
ATOM     67  C   UNL     1       3.704  -2.105  -0.627  1.00  0.00     0.274 C 
BRANCH  67  68
ATOM     68  O   UNL     1       3.058  -1.252  -1.591  1.00  0.00    -0.462 OA
BRANCH  68  69
ATOM     69  C   UNL     1       1.698  -1.386  -1.675  1.00  0.00     0.312 C 
ATOM     70  O   UNL     1       1.038  -2.132  -0.960  1.00  0.00    -0.252 OA
BRANCH  69  71
ATOM     71  C   UNL     1       1.118  -0.606  -2.862  1.00  0.00     0.123 C 
ATOM     72  C   UNL     1      -0.346  -0.340  -2.668  1.00  0.00    -0.015 C 
ATOM     73  C   UNL     1       1.650   0.819  -3.002  1.00  0.00     0.043 C 
ATOM     74  C   UNL     1      -0.678   0.924  -2.954  1.00  0.00    -0.011 C 
ATOM     75  C   UNL     1       0.482   1.720  -3.443  1.00  0.00     0.093 C 
BRANCH  75  76
ATOM     76  N   UNL     1       0.586   3.018  -2.788  1.00  0.00    -0.204 NA
ATOM     77  H   UNL     1       1.495   3.393  -3.056  1.00  0.00     0.142 HD
BRANCH  76  78
ATOM     78  S   UNL     1      -0.509   4.265  -3.019  1.00  0.00     0.241 S 
ATOM     79  O   UNL     1      -1.818   3.724  -3.298  1.00  0.00    -0.207 OA
ATOM     80  O   UNL     1      -0.289   5.135  -1.880  1.00  0.00    -0.207 OA
BRANCH  78  81
ATOM     81  C   UNL     1       0.014   5.156  -4.465  1.00  0.00     0.082 A 
ATOM     82  C   UNL     1       0.181   6.546  -4.393  1.00  0.00     0.023 A 
ATOM     83  C   UNL     1       0.102   4.502  -5.697  1.00  0.00     0.023 A 
ATOM     84  C   UNL     1       0.424   7.279  -5.559  1.00  0.00     0.017 A 
ATOM     85  C   UNL     1       0.365   5.236  -6.857  1.00  0.00     0.017 A 
ATOM     86  C   UNL     1       0.512   6.620  -6.785  1.00  0.00     0.018 A 
ATOM     87  Br  UNL     1       0.781   7.614  -8.370  1.00  0.00    -0.051 Br
ENDBRANCH  78  81
ENDBRANCH  76  78
ENDBRANCH  75  76
ENDBRANCH  69  71
ENDBRANCH  68  69
ENDBRANCH  67  68
ENDBRANCH   1  67
TORSDOF 17
