REMARK SMILES Cc1ccc(S(=O)(=O)n2cc(C(=O)C(=O)N[C@@H](Cc3c[nH]c4ccccc34)C(=O)NCC(=O)OCCOC(=O)c3ccc(-c4c5nc(c(-c6ccc(S(=O)(=O)[O-])cc6)c6ccc([nH]6)c(-c6ccc(S(=O)(=O)[O-])cc6)c6nc(c(-c7ccc(S(=O)(=O)[O-])cc7)c7ccc4[nH]7)C=C6)C=C5)cc3)c3ccccc32)cc1
REMARK SMILES IDX 32 1 33 2 31 3 30 4 28 5 29 6 17 8 16 9 14 10 15 11 12 13
REMARK SMILES IDX 13 14 11 15 9 16 10 17 105 18 100 19 104 20 101 21 103 22
REMARK SMILES IDX 102 23 6 24 7 25 8 26 5 27 1 28 2 29 3 30 107 31 4 32 106 33
REMARK SMILES IDX 18 34 19 35 20 36 27 37 21 38 22 39 26 40 23 42 25 43 24 44
REMARK SMILES IDX 34 45 35 46 36 47 37 48 38 49 39 50 40 51 41 52 99 53 42 54
REMARK SMILES IDX 98 55 43 56 44 57 45 58 92 59 46 60 97 61 91 62 93 63 47 64
REMARK SMILES IDX 96 65 90 66 89 67 48 69 78 70 59 71 77 72 60 73 63 74 76 75
REMARK SMILES IDX 94 76 61 77 62 78 75 80 95 81 64 82 49 83 50 84 58 85 51 86
REMARK SMILES IDX 57 87 52 88 53 89 54 90 55 91 56 92 79 93 80 94 88 95 81 96
REMARK SMILES IDX 87 97 82 98 83 99 84 100 85 101 86 102 65 103 66 104 74 105
REMARK SMILES IDX 67 106 73 107 68 108 69 109 70 110 71 111 72 112
REMARK H PARENT 30 7 16 12 21 41 93 68 63 79
REMARK Flexibility Score: inf
ROOT
ATOM      1  C   UNL     1     -10.589   3.348  -4.654  1.00  0.00     0.325 C 
ATOM      2  O   UNL     1     -11.266   2.850  -5.540  1.00  0.00    -0.250 OA
ENDROOT
BRANCH   1   3
ATOM      3  C   UNL     1     -10.260   2.673  -3.307  1.00  0.00     0.238 C 
BRANCH   3   4
ATOM      4  N   UNL     1     -11.378   1.999  -2.648  1.00  0.00    -0.343 N 
ATOM      5  C   UNL     1     -11.526   1.513  -1.376  1.00  0.00     0.243 C 
ATOM      6  O   UNL     1     -12.596   0.943  -1.125  1.00  0.00    -0.273 OA
ATOM      7  H   UNL     1     -12.167   1.871  -3.223  1.00  0.00     0.164 HD
BRANCH   5   8
ATOM      8  C   UNL     1     -10.377   1.507  -0.311  1.00  0.00     0.176 C 
BRANCH   8   9
ATOM      9  N   UNL     1      -9.238   2.371  -0.587  1.00  0.00    -0.337 N 
ATOM     10  C   UNL     1      -7.927   2.140  -0.917  1.00  0.00     0.293 C 
ATOM     11  O   UNL     1      -7.129   3.059  -1.049  1.00  0.00    -0.265 OA
ATOM     12  H   UNL     1      -9.456   3.329  -0.523  1.00  0.00     0.164 HD
BRANCH  10  13
ATOM     13  C   UNL     1      -7.493   0.729  -1.241  1.00  0.00     0.252 C 
ATOM     14  O   UNL     1      -8.166   0.156  -2.101  1.00  0.00    -0.283 OA
BRANCH  13  15
ATOM     15  C   UNL     1      -6.418   0.052  -0.520  1.00  0.00     0.054 A 
ATOM     16  N   UNL     1      -4.488  -0.564   0.475  1.00  0.00    -0.240 N 
ATOM     17  C   UNL     1      -5.181   0.520  -0.071  1.00  0.00     0.117 A 
ATOM     18  C   UNL     1      -5.428  -1.585   0.689  1.00  0.00     0.065 A 
ATOM     19  C   UNL     1      -6.467  -1.336  -0.202  1.00  0.00     0.012 A 
ATOM     20  C   UNL     1      -5.327  -2.810   1.371  1.00  0.00     0.028 A 
ATOM     21  C   UNL     1      -7.324  -2.395  -0.568  1.00  0.00     0.011 A 
ATOM     22  C   UNL     1      -6.164  -3.853   0.965  1.00  0.00     0.002 A 
ATOM     23  C   UNL     1      -7.121  -3.662  -0.023  1.00  0.00     0.001 A 
BRANCH  16  24
ATOM     24  S   UNL     1      -2.999  -1.174  -0.239  1.00  0.00     0.268 S 
ATOM     25  O   UNL     1      -3.300  -1.251  -1.660  1.00  0.00    -0.201 OA
ATOM     26  O   UNL     1      -2.724  -2.387   0.521  1.00  0.00    -0.201 OA
BRANCH  24  27
ATOM     27  C   UNL     1      -1.487  -0.287  -0.105  1.00  0.00     0.088 A 
ATOM     28  C   UNL     1       2.593   1.113   0.079  1.00  0.00     0.044 C 
ATOM     29  C   UNL     1       1.163   0.665  -0.017  1.00  0.00    -0.051 A 
ATOM     30  C   UNL     1       0.917  -0.643  -0.417  1.00  0.00     0.005 A 
ATOM     31  C   UNL     1       0.074   1.484   0.349  1.00  0.00     0.005 A 
ATOM     32  C   UNL     1      -0.388  -1.101  -0.470  1.00  0.00     0.022 A 
ATOM     33  C   UNL     1      -1.263   1.016   0.309  1.00  0.00     0.022 A 
ENDBRANCH  24  27
ENDBRANCH  16  24
ENDBRANCH  13  15
ENDBRANCH  10  13
ENDBRANCH   8   9
BRANCH   8  34
ATOM     34  C   UNL     1     -10.926   1.801   1.125  1.00  0.00     0.072 C 
BRANCH  34  35
ATOM     35  C   UNL     1     -11.570   3.157   1.377  1.00  0.00    -0.020 A 
ATOM     36  C   UNL     1     -12.826   3.287   1.996  1.00  0.00     0.087 A 
ATOM     37  C   UNL     1     -11.137   4.482   0.988  1.00  0.00     0.003 A 
ATOM     38  N   UNL     1     -13.419   4.542   1.919  1.00  0.00    -0.361 N 
ATOM     39  C   UNL     1     -12.655   5.394   1.165  1.00  0.00     0.046 A 
ATOM     40  C   UNL     1      -9.696   5.312   0.190  1.00  0.00     0.010 A 
ATOM     41  H   UNL     1     -14.271   4.786   2.347  1.00  0.00     0.166 HD
ATOM     42  C   UNL     1     -12.902   6.940   0.221  1.00  0.00     0.026 A 
ATOM     43  C   UNL     1      -9.820   7.012  -0.491  1.00  0.00     0.001 A 
ATOM     44  C   UNL     1     -11.475   7.749  -0.634  1.00  0.00     0.002 A 
ENDBRANCH  34  35
ENDBRANCH   8  34
ENDBRANCH   5   8
ENDBRANCH   3   4
ENDBRANCH   1   3
BRANCH   1  45
ATOM     45  O   UNL     1      -9.983   4.564  -4.729  1.00  0.00    -0.461 OA
BRANCH  45  46
ATOM     46  C   UNL     1     -10.162   5.469  -5.851  1.00  0.00     0.274 C 
BRANCH  46  47
ATOM     47  C   UNL     1     -11.574   5.669  -6.457  1.00  0.00     0.275 C 
BRANCH  47  48
ATOM     48  O   UNL     1     -12.496   6.322  -5.567  1.00  0.00    -0.458 OA
BRANCH  48  49
ATOM     49  C   UNL     1     -13.311   5.495  -4.853  1.00  0.00     0.338 C 
ATOM     50  O   UNL     1     -14.110   4.707  -5.325  1.00  0.00    -0.246 OA
BRANCH  49  51
ATOM     51  C   UNL     1     -12.870   5.534  -3.440  1.00  0.00     0.060 A 
ATOM     52  C   UNL     1     -13.415   4.778  -2.441  1.00  0.00     0.016 A 
ATOM     53  C   UNL     1     -11.664   6.124  -3.166  1.00  0.00     0.016 A 
ATOM     54  C   UNL     1     -12.819   4.863  -1.149  1.00  0.00     0.010 A 
ATOM     55  C   UNL     1     -10.942   5.785  -2.030  1.00  0.00     0.010 A 
ATOM     56  C   UNL     1     -11.557   5.666  -0.697  1.00  0.00    -0.014 A 
BRANCH  56  57
ATOM     57  C   UNL     1     -11.013   6.656   1.123  1.00  0.00     0.031 A 
ATOM     58  C   UNL     1      -9.888   6.149   2.349  1.00  0.00     0.074 A 
ATOM     59  C   UNL     1     -11.167   8.015   1.681  1.00  0.00     0.049 A 
ATOM     60  N   UNL     1      -8.594   6.402   2.377  1.00  0.00    -0.248 NA
ATOM     61  C   UNL     1     -10.319   5.309   3.487  1.00  0.00     0.031 C 
ATOM     62  C   UNL     1     -10.262   8.786   2.564  1.00  0.00     0.029 A 
ATOM     63  N   UNL     1     -12.092   9.056   1.393  1.00  0.00    -0.354 N 
ATOM     64  C   UNL     1      -8.044   5.755   3.481  1.00  0.00     0.074 A 
ATOM     65  C   UNL     1      -9.148   4.979   4.035  1.00  0.00     0.031 C 
ATOM     66  C   UNL     1     -10.822   9.963   2.908  1.00  0.00     0.029 A 
ATOM     67  C   UNL     1     -12.175   9.966   2.408  1.00  0.00     0.049 A 
ATOM     68  H   UNL     1     -12.612   9.114   0.559  1.00  0.00     0.167 HD
ATOM     69  C   UNL     1      -7.254   6.420   4.375  1.00  0.00     0.031 A 
ATOM     70  C   UNL     1     -13.353  10.160   3.066  1.00  0.00     0.031 A 
ATOM     71  C   UNL     1      -7.856   7.588   4.987  1.00  0.00     0.049 A 
ATOM     72  C   UNL     1     -13.100   9.823   4.505  1.00  0.00     0.074 A 
ATOM     73  C   UNL     1      -7.582   8.943   4.947  1.00  0.00     0.029 A 
ATOM     74  N   UNL     1      -9.032   7.450   5.717  1.00  0.00    -0.354 N 
ATOM     75  N   UNL     1     -12.158   8.998   4.876  1.00  0.00    -0.248 NA
ATOM     76  C   UNL     1     -13.780  10.448   5.631  1.00  0.00     0.031 C 
ATOM     77  C   UNL     1      -8.666   9.621   5.571  1.00  0.00     0.029 A 
ATOM     78  C   UNL     1      -9.578   8.675   6.016  1.00  0.00     0.049 A 
ATOM     79  H   UNL     1      -9.422   6.587   5.984  1.00  0.00     0.167 HD
ATOM     80  C   UNL     1     -11.932   9.177   6.202  1.00  0.00     0.074 A 
ATOM     81  C   UNL     1     -13.047   9.989   6.662  1.00  0.00     0.031 C 
ATOM     82  C   UNL     1     -10.788   8.778   6.820  1.00  0.00     0.031 A 
BRANCH  69  83
ATOM     83  C   UNL     1      -5.793   6.026   4.412  1.00  0.00    -0.014 A 
ATOM     84  C   UNL     1      -4.833   6.790   5.106  1.00  0.00     0.010 A 
ATOM     85  C   UNL     1      -5.329   4.849   3.778  1.00  0.00     0.010 A 
ATOM     86  C   UNL     1      -3.474   6.419   5.136  1.00  0.00     0.020 A 
ATOM     87  C   UNL     1      -3.979   4.466   3.811  1.00  0.00     0.020 A 
ATOM     88  C   UNL     1      -3.054   5.260   4.482  1.00  0.00     0.054 A 
BRANCH  88  89
ATOM     89  S   UNL     1      -1.295   4.804   4.498  1.00  0.00     0.124 S 
ATOM     90  O   UNL     1      -0.663   5.952   3.854  1.00  0.00    -0.237 OA
ATOM     91  O   UNL     1      -1.018   4.647   5.922  1.00  0.00    -0.237 OA
ATOM     92  O   UNL     1      -1.251   3.566   3.718  1.00  0.00    -0.744 OA
ENDBRANCH  88  89
ENDBRANCH  69  83
BRANCH  70  93
ATOM     93  C   UNL     1     -14.593   9.885   2.253  1.00  0.00    -0.014 A 
ATOM     94  C   UNL     1     -14.746  10.615   1.043  1.00  0.00     0.010 A 
ATOM     95  C   UNL     1     -15.361   8.717   2.409  1.00  0.00     0.010 A 
ATOM     96  C   UNL     1     -15.491  10.109  -0.032  1.00  0.00     0.020 A 
ATOM     97  C   UNL     1     -16.147   8.227   1.343  1.00  0.00     0.020 A 
ATOM     98  C   UNL     1     -16.158   8.895   0.112  1.00  0.00     0.054 A 
BRANCH  98  99
ATOM     99  S   UNL     1     -16.765   8.049  -1.394  1.00  0.00     0.124 S 
ATOM    100  O   UNL     1     -18.073   8.664  -1.585  1.00  0.00    -0.237 OA
ATOM    101  O   UNL     1     -15.748   8.399  -2.384  1.00  0.00    -0.237 OA
ATOM    102  O   UNL     1     -16.774   6.643  -0.996  1.00  0.00    -0.744 OA
ENDBRANCH  98  99
ENDBRANCH  70  93
BRANCH  82 103
ATOM    103  C   UNL     1     -10.698   8.590   8.297  1.00  0.00    -0.014 A 
ATOM    104  C   UNL     1     -11.822   8.252   9.067  1.00  0.00     0.010 A 
ATOM    105  C   UNL     1      -9.433   8.563   8.920  1.00  0.00     0.010 A 
ATOM    106  C   UNL     1     -11.701   7.977  10.428  1.00  0.00     0.020 A 
ATOM    107  C   UNL     1      -9.297   8.249  10.269  1.00  0.00     0.020 A 
ATOM    108  C   UNL     1     -10.439   7.986  11.021  1.00  0.00     0.054 A 
BRANCH 108 109
ATOM    109  S   UNL     1     -10.283   7.582  12.774  1.00  0.00     0.124 S 
ATOM    110  O   UNL     1     -10.417   8.898  13.392  1.00  0.00    -0.237 OA
ATOM    111  O   UNL     1     -11.399   6.666  13.000  1.00  0.00    -0.237 OA
ATOM    112  O   UNL     1      -8.959   6.973  12.863  1.00  0.00    -0.744 OA
ENDBRANCH 108 109
ENDBRANCH  82 103
ENDBRANCH  56  57
ENDBRANCH  49  51
ENDBRANCH  48  49
ENDBRANCH  47  48
ENDBRANCH  46  47
ENDBRANCH  45  46
ENDBRANCH   1  45
TORSDOF 23
