REMARK SMILES COc1ccc(C)cc1Nc1nc(OCC(=O)OCCOC(=O)c2ccc(-c3c4nc(c(-c5ccc(S(=O)(=O)[O-])cc5)c5ccc([nH]5)c(-c5ccc(S(=O)(=O)[O-])cc5)c5nc(c(-c6ccc(S(=O)(=O)[O-])cc6)c6ccc3[nH]6)C=C5)C=C4)cc2)cc(C(C)(C)C)n1
REMARK SMILES IDX 19 1 18 2 16 3 17 4 15 5 14 6 13 7 11 8 12 9 90 10 85 11
REMARK SMILES IDX 84 12 10 13 9 15 3 16 4 17 5 18 8 19 6 20 7 21 2 22 1 23
REMARK SMILES IDX 86 24 87 25 88 26 89 27 20 28 21 29 22 30 23 31 24 32 25 33
REMARK SMILES IDX 83 34 26 35 82 36 27 37 28 38 29 39 76 40 30 41 81 42 75 43
REMARK SMILES IDX 77 44 31 45 80 46 74 47 73 48 32 50 62 51 43 52 61 53 44 54
REMARK SMILES IDX 47 55 60 56 78 57 45 58 46 59 59 61 79 62 48 63 33 64 34 65
REMARK SMILES IDX 42 66 35 67 41 68 36 69 37 70 38 71 39 72 40 73 63 74 64 75
REMARK SMILES IDX 72 76 65 77 71 78 66 79 67 80 68 81 69 82 70 83 49 84 50 85
REMARK SMILES IDX 58 86 51 87 57 88 52 89 53 90 54 91 55 92 56 93
REMARK H PARENT 10 14 77 49 47 60
REMARK Flexibility Score: inf
ROOT
ATOM      1  C   UNL     1      -2.683  -9.014   0.438  1.00  0.00     0.274 C 
ENDROOT
BRANCH   1   2
ATOM      2  O   UNL     1      -3.538  -7.801  -0.500  1.00  0.00    -0.460 OA
BRANCH   2   3
ATOM      3  C   UNL     1      -3.967  -6.544  -0.932  1.00  0.00     0.344 C 
ATOM      4  O   UNL     1      -4.302  -6.524  -2.140  1.00  0.00    -0.248 OA
BRANCH   3   5
ATOM      5  C   UNL     1      -4.182  -4.965  -0.171  1.00  0.00     0.353 C 
BRANCH   5   6
ATOM      6  O   UNL     1      -4.774  -4.209   0.938  1.00  0.00    -0.466 OA
BRANCH   6   7
ATOM      7  C   UNL     1      -3.913  -3.752   1.931  1.00  0.00     0.218 A 
ATOM      8  C   UNL     1      -1.947  -2.824   2.416  1.00  0.00     0.230 A 
ATOM      9  N   UNL     1      -2.917  -2.983   1.518  1.00  0.00    -0.177 NA
ATOM     10  N   UNL     1      -1.905  -3.333   3.663  1.00  0.00    -0.217 NA
ATOM     11  C   UNL     1      -2.955  -4.052   4.100  1.00  0.00     0.055 A 
ATOM     12  C   UNL     1      -4.073  -4.130   3.283  1.00  0.00     0.093 A 
BRANCH   8  13
ATOM     13  N   UNL     1      -0.843  -2.140   1.947  1.00  0.00    -0.321 N 
ATOM     14  H   UNL     1      -0.930  -1.169   1.812  1.00  0.00     0.170 HD
BRANCH  13  15
ATOM     15  C   UNL     1       0.397  -2.731   1.648  1.00  0.00     0.084 A 
ATOM     16  C   UNL     1       1.444  -1.906   1.227  1.00  0.00     0.142 A 
ATOM     17  C   UNL     1       2.683  -2.446   0.894  1.00  0.00     0.049 A 
ATOM     18  C   UNL     1       2.879  -3.829   0.958  1.00  0.00     0.007 A 
ATOM     19  C   UNL     1       0.613  -4.117   1.730  1.00  0.00     0.033 A 
ATOM     20  C   UNL     1       1.848  -4.675   1.379  1.00  0.00    -0.049 A 
ATOM     21  C   UNL     1       2.020  -6.165   1.436  1.00  0.00     0.044 C 
BRANCH  16  22
ATOM     22  O   UNL     1       1.230  -0.548   1.225  1.00  0.00    -0.495 OA
ATOM     23  C   UNL     1       1.304  -0.004  -0.086  1.00  0.00     0.278 C 
ENDBRANCH  16  22
ENDBRANCH  13  15
ENDBRANCH   8  13
BRANCH  11  24
ATOM     24  C   UNL     1      -2.736  -4.771   5.459  1.00  0.00     0.004 C 
ATOM     25  C   UNL     1      -1.368  -5.528   5.472  1.00  0.00     0.017 C 
ATOM     26  C   UNL     1      -2.638  -3.696   6.559  1.00  0.00     0.017 C 
ATOM     27  C   UNL     1      -3.811  -5.774   5.944  1.00  0.00     0.017 C 
ENDBRANCH  11  24
ENDBRANCH   6   7
ENDBRANCH   5   6
ENDBRANCH   3   5
ENDBRANCH   2   3
ENDBRANCH   1   2
BRANCH   1  28
ATOM     28  C   UNL     1      -2.428  -9.149   2.336  1.00  0.00     0.275 C 
BRANCH  28  29
ATOM     29  O   UNL     1      -3.815  -8.864   3.605  1.00  0.00    -0.458 OA
BRANCH  29  30
ATOM     30  C   UNL     1      -5.322  -8.037   3.835  1.00  0.00     0.338 C 
ATOM     31  O   UNL     1      -5.712  -8.168   5.012  1.00  0.00    -0.246 OA
BRANCH  30  32
ATOM     32  C   UNL     1      -6.649  -7.221   2.768  1.00  0.00     0.060 A 
ATOM     33  C   UNL     1      -7.985  -7.541   3.023  1.00  0.00     0.016 A 
ATOM     34  C   UNL     1      -6.675  -6.718   1.351  1.00  0.00     0.016 A 
ATOM     35  C   UNL     1      -8.889  -7.928   1.889  1.00  0.00     0.010 A 
ATOM     36  C   UNL     1      -7.608  -6.891   0.290  1.00  0.00     0.010 A 
ATOM     37  C   UNL     1      -8.504  -7.881   0.512  1.00  0.00    -0.014 A 
BRANCH  37  38
ATOM     38  C   UNL     1      -8.540  -8.987  -0.595  1.00  0.00     0.031 A 
ATOM     39  C   UNL     1      -9.052  -8.592  -1.915  1.00  0.00     0.074 A 
ATOM     40  C   UNL     1      -7.877 -10.193  -0.774  1.00  0.00     0.049 A 
ATOM     41  N   UNL     1     -10.296  -8.600  -2.253  1.00  0.00    -0.248 NA
ATOM     42  C   UNL     1      -8.110  -8.278  -3.004  1.00  0.00     0.031 C 
ATOM     43  C   UNL     1      -8.234 -11.345  -1.625  1.00  0.00     0.029 A 
ATOM     44  N   UNL     1      -6.913 -10.831  -0.032  1.00  0.00    -0.354 N 
ATOM     45  C   UNL     1     -10.257  -8.720  -3.628  1.00  0.00     0.074 A 
ATOM     46  C   UNL     1      -8.941  -8.247  -4.049  1.00  0.00     0.031 C 
ATOM     47  C   UNL     1      -7.960 -12.493  -0.942  1.00  0.00     0.029 A 
ATOM     48  C   UNL     1      -7.307 -12.132   0.304  1.00  0.00     0.049 A 
ATOM     49  H   UNL     1      -6.055 -10.426   0.229  1.00  0.00     0.167 HD
ATOM     50  C   UNL     1     -10.925  -9.728  -4.272  1.00  0.00     0.031 A 
ATOM     51  C   UNL     1      -7.670 -12.329   1.622  1.00  0.00     0.031 A 
ATOM     52  C   UNL     1     -11.280 -10.846  -3.379  1.00  0.00     0.049 A 
ATOM     53  C   UNL     1      -9.216 -12.268   1.729  1.00  0.00     0.074 A 
ATOM     54  C   UNL     1     -10.937 -12.193  -3.386  1.00  0.00     0.029 A 
ATOM     55  N   UNL     1     -11.839 -10.614  -2.123  1.00  0.00    -0.354 N 
ATOM     56  N   UNL     1      -9.973 -12.115   0.679  1.00  0.00    -0.248 NA
ATOM     57  C   UNL     1     -10.032 -12.299   2.951  1.00  0.00     0.031 C 
ATOM     58  C   UNL     1     -11.214 -12.740  -2.107  1.00  0.00     0.029 A 
ATOM     59  C   UNL     1     -11.735 -11.735  -1.318  1.00  0.00     0.049 A 
ATOM     60  H   UNL     1     -12.253  -9.765  -1.846  1.00  0.00     0.167 HD
ATOM     61  C   UNL     1     -11.285 -11.956   1.022  1.00  0.00     0.074 A 
ATOM     62  C   UNL     1     -11.282 -12.123   2.464  1.00  0.00     0.031 C 
ATOM     63  C   UNL     1     -12.224 -11.709   0.059  1.00  0.00     0.031 A 
BRANCH  50  64
ATOM     64  C   UNL     1     -10.905  -9.826  -5.784  1.00  0.00    -0.014 A 
ATOM     65  C   UNL     1     -11.216 -11.032  -6.436  1.00  0.00     0.010 A 
ATOM     66  C   UNL     1     -10.671  -8.706  -6.614  1.00  0.00     0.010 A 
ATOM     67  C   UNL     1     -11.215 -11.144  -7.831  1.00  0.00     0.020 A 
ATOM     68  C   UNL     1     -10.646  -8.807  -8.013  1.00  0.00     0.020 A 
ATOM     69  C   UNL     1     -10.921 -10.031  -8.613  1.00  0.00     0.054 A 
BRANCH  69  70
ATOM     70  S   UNL     1     -10.960 -10.204 -10.415  1.00  0.00     0.124 S 
ATOM     71  O   UNL     1      -9.985 -11.266 -10.649  1.00  0.00    -0.237 OA
ATOM     72  O   UNL     1     -12.354 -10.564 -10.662  1.00  0.00    -0.237 OA
ATOM     73  O   UNL     1     -10.564  -8.884 -10.900  1.00  0.00    -0.744 OA
ENDBRANCH  69  70
ENDBRANCH  50  64
BRANCH  51  74
ATOM     74  C   UNL     1      -6.713 -11.485   2.500  1.00  0.00    -0.014 A 
ATOM     75  C   UNL     1      -5.356 -11.711   2.559  1.00  0.00     0.010 A 
ATOM     76  C   UNL     1      -6.957 -10.146   2.370  1.00  0.00     0.010 A 
ATOM     77  C   UNL     1      -4.399 -10.627   2.278  1.00  0.00     0.020 A 
ATOM     78  C   UNL     1      -5.987  -9.253   1.662  1.00  0.00     0.020 A 
ATOM     79  C   UNL     1      -4.648  -9.212   1.732  1.00  0.00     0.054 A 
BRANCH  79  80
ATOM     80  S   UNL     1      -3.534  -7.149   2.091  1.00  0.00     0.124 S 
ATOM     81  O   UNL     1      -2.942  -7.005   3.410  1.00  0.00    -0.237 OA
ATOM     82  O   UNL     1      -2.469  -6.872   1.143  1.00  0.00    -0.237 OA
ATOM     83  O   UNL     1      -4.611  -6.210   2.040  1.00  0.00    -0.744 OA
ENDBRANCH  79  80
ENDBRANCH  51  74
BRANCH  63  84
ATOM     84  C   UNL     1     -13.713 -11.549   0.237  1.00  0.00    -0.014 A 
ATOM     85  C   UNL     1     -14.361 -11.158   1.413  1.00  0.00     0.010 A 
ATOM     86  C   UNL     1     -14.530 -11.771  -0.904  1.00  0.00     0.010 A 
ATOM     87  C   UNL     1     -15.764 -11.073   1.463  1.00  0.00     0.020 A 
ATOM     88  C   UNL     1     -15.914 -11.647  -0.880  1.00  0.00     0.020 A 
ATOM     89  C   UNL     1     -16.529 -11.336   0.321  1.00  0.00     0.054 A 
BRANCH  89  90
ATOM     90  S   UNL     1     -18.334 -11.258   0.394  1.00  0.00     0.124 S 
ATOM     91  O   UNL     1     -18.667 -12.575   0.928  1.00  0.00    -0.237 OA
ATOM     92  O   UNL     1     -18.575 -10.134   1.296  1.00  0.00    -0.237 OA
ATOM     93  O   UNL     1     -18.727 -11.029  -0.995  1.00  0.00    -0.744 OA
ENDBRANCH  89  90
ENDBRANCH  63  84
ENDBRANCH  37  38
ENDBRANCH  30  32
ENDBRANCH  29  30
ENDBRANCH  28  29
ENDBRANCH   1  28
TORSDOF 20
