REMARK SMILES O=C(OCCOC(=O)c1ccc(-c2c3nc(c(-c4ccc(S(=O)(=O)[O-])cc4)c4ccc([nH]4)c(-c4ccc(S(=O)(=O)[O-])cc4)c4nc(c(-c5ccc(S(=O)(=O)[O-])cc5)c5ccc2[nH]5)C=C4)C=C3)cc1)C1=Cc2cc(Cl)c(Cl)cc2O[C@@H]1C(F)(F)F
REMARK SMILES IDX 5 1 4 2 3 3 2 4 1 5 69 6 70 7 80 8 71 9 79 10 72 11 78 12
REMARK SMILES IDX 73 13 77 14 74 15 75 16 76 17 81 18 82 19 83 20 84 21 6 22
REMARK SMILES IDX 7 23 8 24 9 25 10 26 68 27 11 28 67 29 12 30 13 31 14 32
REMARK SMILES IDX 61 33 15 34 66 35 60 36 62 37 16 38 65 39 59 40 58 41 17 43
REMARK SMILES IDX 47 44 28 45 46 46 29 47 32 48 45 49 63 50 30 51 31 52 44 54
REMARK SMILES IDX 64 55 33 56 18 57 19 58 27 59 20 60 26 61 21 62 22 63 23 64
REMARK SMILES IDX 24 65 25 66 48 67 49 68 57 69 50 70 56 71 51 72 52 73 53 74
REMARK SMILES IDX 54 75 55 76 34 77 35 78 43 79 36 80 42 81 37 82 38 83 39 84
REMARK SMILES IDX 40 85 41 86
REMARK H PARENT 62 42 32 53
REMARK Flexibility Score: inf
ROOT
ATOM      1  C   UNL     1       4.761  -0.712  -0.356  1.00  0.00     0.275 C 
ENDROOT
BRANCH   1   2
ATOM      2  C   UNL     1       4.032   1.309  -0.070  1.00  0.00     0.275 C 
BRANCH   2   3
ATOM      3  O   UNL     1       3.334   2.196  -1.151  1.00  0.00    -0.459 OA
BRANCH   3   4
ATOM      4  C   UNL     1       3.596   1.816  -2.406  1.00  0.00     0.338 C 
ATOM      5  O   UNL     1       3.182   2.228  -3.458  1.00  0.00    -0.246 OA
BRANCH   4   6
ATOM      6  C   UNL     1       4.299   0.621  -2.029  1.00  0.00     0.087 C 
ATOM      7  C   UNL     1       5.669   0.971  -1.559  1.00  0.00     0.027 C 
ATOM      8  C   UNL     1       2.911  -0.144  -0.915  1.00  0.00     0.316 C 
ATOM      9  C   UNL     1       6.184   0.848   0.178  1.00  0.00     0.019 A 
ATOM     10  O   UNL     1       3.437  -0.244   0.930  1.00  0.00    -0.475 OA
ATOM     11  C   UNL     1       7.402   1.344   0.547  1.00  0.00     0.034 A 
ATOM     12  C   UNL     1       5.091   0.328   1.426  1.00  0.00     0.129 A 
ATOM     13  C   UNL     1       7.636   1.376   1.938  1.00  0.00     0.060 A 
ATOM     14  C   UNL     1       5.397   0.373   2.756  1.00  0.00     0.069 A 
ATOM     15  Cl  UNL     1       9.182   2.062   2.379  1.00  0.00    -0.083 Cl
ATOM     16  C   UNL     1       6.692   0.919   2.979  1.00  0.00     0.063 A 
ATOM     17  Cl  UNL     1       7.161   1.079   4.653  1.00  0.00    -0.083 Cl
BRANCH   8  18
ATOM     18  C   UNL     1       2.307  -1.230  -1.857  1.00  0.00     0.430 C 
ATOM     19  F   UNL     1       1.125  -1.677  -1.411  1.00  0.00    -0.167 F 
ATOM     20  F   UNL     1       2.030  -0.628  -3.051  1.00  0.00    -0.167 F 
ATOM     21  F   UNL     1       3.117  -2.251  -2.190  1.00  0.00    -0.167 F 
ENDBRANCH   8  18
ENDBRANCH   4   6
ENDBRANCH   3   4
ENDBRANCH   2   3
ENDBRANCH   1   2
BRANCH   1  22
ATOM     22  O   UNL     1       3.914  -2.134  -0.062  1.00  0.00    -0.458 OA
BRANCH  22  23
ATOM     23  C   UNL     1       3.166  -2.789   0.875  1.00  0.00     0.338 C 
ATOM     24  O   UNL     1       2.848  -2.456   1.999  1.00  0.00    -0.246 OA
BRANCH  23  25
ATOM     25  C   UNL     1       2.575  -3.930   0.122  1.00  0.00     0.060 A 
ATOM     26  C   UNL     1       1.223  -3.886  -0.250  1.00  0.00     0.016 A 
ATOM     27  C   UNL     1       3.450  -4.809  -0.515  1.00  0.00     0.016 A 
ATOM     28  C   UNL     1       0.811  -4.530  -1.427  1.00  0.00     0.010 A 
ATOM     29  C   UNL     1       3.023  -5.490  -1.650  1.00  0.00     0.010 A 
ATOM     30  C   UNL     1       1.729  -5.294  -2.161  1.00  0.00    -0.014 A 
BRANCH  30  31
ATOM     31  C   UNL     1       1.338  -6.097  -3.345  1.00  0.00     0.031 A 
ATOM     32  C   UNL     1       0.808  -7.466  -3.060  1.00  0.00     0.074 A 
ATOM     33  C   UNL     1       1.625  -5.716  -4.606  1.00  0.00     0.049 A 
ATOM     34  N   UNL     1       0.658  -8.483  -3.861  1.00  0.00    -0.248 NA
ATOM     35  C   UNL     1       0.461  -7.731  -1.654  1.00  0.00     0.031 C 
ATOM     36  C   UNL     1       2.145  -4.410  -5.011  1.00  0.00     0.029 A 
ATOM     37  N   UNL     1       1.559  -6.424  -5.785  1.00  0.00    -0.354 N 
ATOM     38  C   UNL     1       0.243  -9.525  -3.045  1.00  0.00     0.074 A 
ATOM     39  C   UNL     1       0.193  -9.023  -1.691  1.00  0.00     0.031 C 
ATOM     40  C   UNL     1       2.380  -4.421  -6.338  1.00  0.00     0.029 A 
ATOM     41  C   UNL     1       2.062  -5.745  -6.874  1.00  0.00     0.049 A 
ATOM     42  H   UNL     1       1.186  -7.333  -5.845  1.00  0.00     0.167 HD
ATOM     43  C   UNL     1      -0.061 -10.798  -3.385  1.00  0.00     0.031 A 
ATOM     44  C   UNL     1       2.266  -6.160  -8.144  1.00  0.00     0.031 A 
ATOM     45  C   UNL     1       0.038 -11.305  -4.720  1.00  0.00     0.049 A 
ATOM     46  C   UNL     1       1.923  -7.587  -8.512  1.00  0.00     0.074 A 
ATOM     47  C   UNL     1      -0.249 -12.573  -5.184  1.00  0.00     0.029 A 
ATOM     48  N   UNL     1       0.476 -10.561  -5.807  1.00  0.00    -0.354 N 
ATOM     49  N   UNL     1       1.473  -8.552  -7.742  1.00  0.00    -0.248 NA
ATOM     50  C   UNL     1       2.110  -7.983  -9.916  1.00  0.00     0.031 C 
ATOM     51  C   UNL     1       0.050 -12.607  -6.550  1.00  0.00     0.029 A 
ATOM     52  C   UNL     1       0.469 -11.344  -6.944  1.00  0.00     0.049 A 
ATOM     53  H   UNL     1       0.750  -9.616  -5.772  1.00  0.00     0.167 HD
ATOM     54  C   UNL     1       1.288  -9.653  -8.574  1.00  0.00     0.074 A 
ATOM     55  C   UNL     1       1.677  -9.238  -9.906  1.00  0.00     0.031 C 
ATOM     56  C   UNL     1       0.834 -10.893  -8.266  1.00  0.00     0.031 A 
BRANCH  43  57
ATOM     57  C   UNL     1      -0.459 -11.700  -2.253  1.00  0.00    -0.014 A 
ATOM     58  C   UNL     1      -1.659 -11.482  -1.548  1.00  0.00     0.010 A 
ATOM     59  C   UNL     1       0.436 -12.685  -1.804  1.00  0.00     0.010 A 
ATOM     60  C   UNL     1      -1.906 -12.161  -0.354  1.00  0.00     0.020 A 
ATOM     61  C   UNL     1       0.173 -13.395  -0.630  1.00  0.00     0.020 A 
ATOM     62  C   UNL     1      -0.977 -13.099   0.107  1.00  0.00     0.054 A 
BRANCH  62  63
ATOM     63  S   UNL     1      -1.280 -13.912   1.697  1.00  0.00     0.124 S 
ATOM     64  O   UNL     1      -0.904 -12.865   2.644  1.00  0.00    -0.237 OA
ATOM     65  O   UNL     1      -2.707 -14.219   1.637  1.00  0.00    -0.237 OA
ATOM     66  O   UNL     1      -0.394 -15.073   1.665  1.00  0.00    -0.744 OA
ENDBRANCH  62  63
ENDBRANCH  43  57
BRANCH  44  67
ATOM     67  C   UNL     1       2.819  -5.227  -9.173  1.00  0.00    -0.014 A 
ATOM     68  C   UNL     1       1.997  -4.735 -10.204  1.00  0.00     0.010 A 
ATOM     69  C   UNL     1       4.169  -4.830  -9.141  1.00  0.00     0.010 A 
ATOM     70  C   UNL     1       2.511  -3.876 -11.183  1.00  0.00     0.020 A 
ATOM     71  C   UNL     1       4.683  -3.953 -10.106  1.00  0.00     0.020 A 
ATOM     72  C   UNL     1       3.851  -3.485 -11.125  1.00  0.00     0.054 A 
BRANCH  72  73
ATOM     73  S   UNL     1       4.477  -2.314 -12.367  1.00  0.00     0.124 S 
ATOM     74  O   UNL     1       4.529  -3.141 -13.569  1.00  0.00    -0.237 OA
ATOM     75  O   UNL     1       3.454  -1.272 -12.362  1.00  0.00    -0.237 OA
ATOM     76  O   UNL     1       5.774  -1.907 -11.832  1.00  0.00    -0.744 OA
ENDBRANCH  72  73
ENDBRANCH  44  67
BRANCH  56  77
ATOM     77  C   UNL     1       0.656 -11.889  -9.381  1.00  0.00    -0.014 A 
ATOM     78  C   UNL     1       1.752 -12.563  -9.945  1.00  0.00     0.010 A 
ATOM     79  C   UNL     1      -0.650 -12.264  -9.753  1.00  0.00     0.010 A 
ATOM     80  C   UNL     1       1.544 -13.602 -10.857  1.00  0.00     0.020 A 
ATOM     81  C   UNL     1      -0.861 -13.317 -10.645  1.00  0.00     0.020 A 
ATOM     82  C   UNL     1       0.238 -13.980 -11.192  1.00  0.00     0.054 A 
BRANCH  82  83
ATOM     83  S   UNL     1      -0.007 -15.406 -12.286  1.00  0.00     0.124 S 
ATOM     84  O   UNL     1       0.361 -14.858 -13.588  1.00  0.00    -0.237 OA
ATOM     85  O   UNL     1       0.916 -16.396 -11.736  1.00  0.00    -0.237 OA
ATOM     86  O   UNL     1      -1.424 -15.728 -12.124  1.00  0.00    -0.744 OA
ENDBRANCH  82  83
ENDBRANCH  56  77
ENDBRANCH  30  31
ENDBRANCH  23  25
ENDBRANCH  22  23
ENDBRANCH   1  22
TORSDOF 15
