REMARK SMILES O=C(Cc1ccccc1[N+](=O)[O-])N[C@@H]1C=C[C@H](C(=O)OCCOC(=O)c2ccc(-c3c4nc(c(-c5ccc(S(=O)(=O)[O-])cc5)c5ccc([nH]5)c(-c5ccc(S(=O)(=O)[O-])cc5)c5nc(c(-c6ccc(S(=O)(=O)[O-])cc6)c6ccc3[nH]6)C=C5)C=C4)cc2)C1
REMARK SMILES IDX 21 1 20 2 18 3 19 4 17 5 14 6 15 7 86 8 16 9 13 10 1 11 2 12
REMARK SMILES IDX 3 14 4 15 5 16 9 17 6 18 8 19 7 20 10 21 11 22 12 23 22 24
REMARK SMILES IDX 23 25 24 26 25 27 26 28 27 29 85 30 28 31 84 32 29 33 30 34
REMARK SMILES IDX 31 35 78 36 32 37 83 38 77 39 79 40 33 41 82 42 76 43 75 44
REMARK SMILES IDX 34 46 64 47 45 48 63 49 46 50 49 51 62 52 80 53 47 54 48 55
REMARK SMILES IDX 61 57 81 58 50 59 35 60 36 61 44 62 37 63 43 64 38 65 39 66
REMARK SMILES IDX 40 67 41 68 42 69 65 70 66 71 74 72 67 73 73 74 68 75 69 76
REMARK SMILES IDX 70 77 71 78 72 79 51 80 52 81 60 82 53 83 59 84 54 85 55 86
REMARK SMILES IDX 56 87 57 88 58 89
REMARK H PARENT 13 13 79 45 49 56
REMARK Flexibility Score: inf
ROOT
ATOM      1  C   UNL     1      -0.348   5.768  -3.799  1.00  0.00     0.274 C 
ENDROOT
BRANCH   1   2
ATOM      2  O   UNL     1      -0.174   4.863  -2.694  1.00  0.00    -0.462 OA
BRANCH   2   3
ATOM      3  C   UNL     1       1.101   4.451  -2.450  1.00  0.00     0.312 C 
ATOM      4  O   UNL     1       2.074   4.722  -3.143  1.00  0.00    -0.252 OA
BRANCH   3   5
ATOM      5  C   UNL     1       1.182   3.678  -1.138  1.00  0.00     0.124 C 
ATOM      6  C   UNL     1       2.545   1.660  -1.398  1.00  0.00     0.106 C 
ATOM      7  C   UNL     1       1.085   1.342  -1.309  1.00  0.00    -0.006 C 
ATOM      8  C   UNL     1       2.592   3.103  -0.891  1.00  0.00     0.048 C 
ATOM      9  C   UNL     1       0.338   2.442  -1.161  1.00  0.00    -0.014 C 
BRANCH   6  10
ATOM     10  N   UNL     1       2.944   1.552  -2.780  1.00  0.00    -0.350 N 
ATOM     11  O   UNL     1       3.543  -0.660  -2.649  1.00  0.00    -0.275 OA
ATOM     12  C   UNL     1       3.404   0.368  -3.307  1.00  0.00     0.225 C 
ATOM     13  H   UNL     1       2.885   2.345  -3.360  1.00  0.00     0.164 HD
BRANCH  12  14
ATOM     14  C   UNL     1       3.653   0.404  -4.803  1.00  0.00     0.142 C 
BRANCH  14  15
ATOM     15  C   UNL     1       2.450  -0.107  -5.573  1.00  0.00     0.039 A 
ATOM     16  C   UNL     1       2.458  -1.464  -5.950  1.00  0.00     0.011 A 
ATOM     17  C   UNL     1       1.288   0.641  -5.862  1.00  0.00     0.273 A 
ATOM     18  C   UNL     1       1.365  -2.049  -6.595  1.00  0.00     0.001 A 
ATOM     19  C   UNL     1       0.188   0.049  -6.511  1.00  0.00     0.086 A 
ATOM     20  C   UNL     1       0.230  -1.294  -6.874  1.00  0.00     0.007 A 
BRANCH  17  21
ATOM     21  N   UNL     1       1.151   2.057  -5.510  1.00  0.00     0.063 N 
ATOM     22  O   UNL     1       0.019   2.465  -5.207  1.00  0.00    -0.258 OA
ATOM     23  O   UNL     1       2.160   2.768  -5.559  1.00  0.00    -0.258 OA
ENDBRANCH  17  21
ENDBRANCH  14  15
ENDBRANCH  12  14
ENDBRANCH   6  10
ENDBRANCH   3   5
ENDBRANCH   2   3
ENDBRANCH   1   2
BRANCH   1  24
ATOM     24  C   UNL     1      -0.513   7.206  -3.296  1.00  0.00     0.275 C 
BRANCH  24  25
ATOM     25  O   UNL     1       0.709   7.726  -2.738  1.00  0.00    -0.458 OA
BRANCH  25  26
ATOM     26  C   UNL     1       0.888   7.507  -1.413  1.00  0.00     0.338 C 
ATOM     27  O   UNL     1       0.119   6.958  -0.643  1.00  0.00    -0.246 OA
BRANCH  26  28
ATOM     28  C   UNL     1       2.257   7.898  -1.040  1.00  0.00     0.060 A 
ATOM     29  C   UNL     1       3.120   6.904  -0.571  1.00  0.00     0.016 A 
ATOM     30  C   UNL     1       2.678   9.225  -1.117  1.00  0.00     0.016 A 
ATOM     31  C   UNL     1       4.423   7.223  -0.202  1.00  0.00     0.010 A 
ATOM     32  C   UNL     1       3.985   9.547  -0.739  1.00  0.00     0.010 A 
ATOM     33  C   UNL     1       4.865   8.547  -0.288  1.00  0.00    -0.014 A 
BRANCH  33  34
ATOM     34  C   UNL     1       6.256   8.888   0.083  1.00  0.00     0.031 A 
ATOM     35  C   UNL     1       6.539   9.578   1.383  1.00  0.00     0.074 A 
ATOM     36  C   UNL     1       7.259   8.579  -0.761  1.00  0.00     0.049 A 
ATOM     37  N   UNL     1       7.669  10.060   1.830  1.00  0.00    -0.248 NA
ATOM     38  C   UNL     1       5.402   9.746   2.303  1.00  0.00     0.031 C 
ATOM     39  C   UNL     1       7.106   7.854  -2.024  1.00  0.00     0.029 A 
ATOM     40  N   UNL     1       8.602   8.847  -0.689  1.00  0.00    -0.354 N 
ATOM     41  C   UNL     1       7.381  10.605   3.074  1.00  0.00     0.074 A 
ATOM     42  C   UNL     1       5.966  10.403   3.308  1.00  0.00     0.031 C 
ATOM     43  C   UNL     1       8.308   7.745  -2.613  1.00  0.00     0.029 A 
ATOM     44  C   UNL     1       9.301   8.439  -1.800  1.00  0.00     0.049 A 
ATOM     45  H   UNL     1       9.024   9.288   0.083  1.00  0.00     0.167 HD
ATOM     46  C   UNL     1       8.222  11.222   3.938  1.00  0.00     0.031 A 
ATOM     47  C   UNL     1      10.588   8.642  -2.144  1.00  0.00     0.031 A 
ATOM     48  C   UNL     1       9.624  11.429   3.686  1.00  0.00     0.049 A 
ATOM     49  C   UNL     1      11.476   9.426  -1.218  1.00  0.00     0.074 A 
ATOM     50  C   UNL     1      10.566  12.029   4.503  1.00  0.00     0.029 A 
ATOM     51  N   UNL     1      10.283  11.054   2.524  1.00  0.00    -0.354 N 
ATOM     52  N   UNL     1      11.194   9.930  -0.040  1.00  0.00    -0.248 NA
ATOM     53  C   UNL     1      12.849   9.682  -1.673  1.00  0.00     0.031 C 
ATOM     54  C   UNL     1      11.781  12.070   3.810  1.00  0.00     0.029 A 
ATOM     55  C   UNL     1      11.609  11.447   2.584  1.00  0.00     0.049 A 
ATOM     56  H   UNL     1       9.869  10.578   1.768  1.00  0.00     0.167 HD
ATOM     57  C   UNL     1      12.357  10.556   0.391  1.00  0.00     0.074 A 
ATOM     58  C   UNL     1      13.352  10.350  -0.642  1.00  0.00     0.031 C 
ATOM     59  C   UNL     1      12.581  11.243   1.538  1.00  0.00     0.031 A 
BRANCH  46  60
ATOM     60  C   UNL     1       7.638  11.759   5.216  1.00  0.00    -0.014 A 
ATOM     61  C   UNL     1       7.253  10.902   6.261  1.00  0.00     0.010 A 
ATOM     62  C   UNL     1       7.506  13.150   5.386  1.00  0.00     0.010 A 
ATOM     63  C   UNL     1       6.715  11.424   7.441  1.00  0.00     0.020 A 
ATOM     64  C   UNL     1       6.989  13.677   6.573  1.00  0.00     0.020 A 
ATOM     65  C   UNL     1       6.581  12.809   7.587  1.00  0.00     0.054 A 
BRANCH  65  66
ATOM     66  S   UNL     1       5.893  13.460   9.134  1.00  0.00     0.124 S 
ATOM     67  O   UNL     1       4.478  13.122   8.999  1.00  0.00    -0.237 OA
ATOM     68  O   UNL     1       6.623  12.710  10.152  1.00  0.00    -0.237 OA
ATOM     69  O   UNL     1       6.199  14.887   9.077  1.00  0.00    -0.744 OA
ENDBRANCH  65  66
ENDBRANCH  46  60
BRANCH  47  70
ATOM     70  C   UNL     1      11.090   8.145  -3.454  1.00  0.00    -0.014 A 
ATOM     71  C   UNL     1      12.010   7.084  -3.514  1.00  0.00     0.010 A 
ATOM     72  C   UNL     1      10.634   8.724  -4.653  1.00  0.00     0.010 A 
ATOM     73  C   UNL     1      12.469   6.617  -4.749  1.00  0.00     0.020 A 
ATOM     74  C   UNL     1      11.071   8.243  -5.890  1.00  0.00     0.020 A 
ATOM     75  C   UNL     1      11.994   7.197  -5.929  1.00  0.00     0.054 A 
BRANCH  75  76
ATOM     76  S   UNL     1      12.559   6.535  -7.522  1.00  0.00     0.124 S 
ATOM     77  O   UNL     1      13.919   7.060  -7.603  1.00  0.00    -0.237 OA
ATOM     78  O   UNL     1      12.448   5.093  -7.323  1.00  0.00    -0.237 OA
ATOM     79  O   UNL     1      11.612   7.098  -8.481  1.00  0.00    -0.744 OA
ENDBRANCH  75  76
ENDBRANCH  47  70
BRANCH  59  80
ATOM     80  C   UNL     1      13.954  11.823   1.741  1.00  0.00    -0.014 A 
ATOM     81  C   UNL     1      14.359  12.974   1.043  1.00  0.00     0.010 A 
ATOM     82  C   UNL     1      14.818  11.257   2.695  1.00  0.00     0.010 A 
ATOM     83  C   UNL     1      15.612  13.542   1.286  1.00  0.00     0.020 A 
ATOM     84  C   UNL     1      16.062  11.836   2.959  1.00  0.00     0.020 A 
ATOM     85  C   UNL     1      16.454  12.972   2.246  1.00  0.00     0.054 A 
BRANCH  85  86
ATOM     86  S   UNL     1      18.045  13.771   2.595  1.00  0.00     0.124 S 
ATOM     87  O   UNL     1      18.828  13.416   1.414  1.00  0.00    -0.237 OA
ATOM     88  O   UNL     1      17.679  15.180   2.706  1.00  0.00    -0.237 OA
ATOM     89  O   UNL     1      18.481  13.146   3.842  1.00  0.00    -0.744 OA
ENDBRANCH  85  86
ENDBRANCH  59  80
ENDBRANCH  33  34
ENDBRANCH  26  28
ENDBRANCH  25  26
ENDBRANCH  24  25
ENDBRANCH   1  24
TORSDOF 18
