REMARK SMILES CC1=CC[C@@](C(=O)N/N=C/C2=C([O-])CC(C)(C)CC2=O)(C(=O)OCCOC(=O)c2ccc(-c3c4nc(c(-c5ccc(S(=O)(=O)[O-])cc5)c5ccc([nH]5)c(-c5ccc(S(=O)(=O)[O-])cc5)c5nc(c(-c6ccc(S(=O)(=O)[O-])cc6)c6ccc3[nH]6)C=C5)C=C4)cc2)C[C@@H]1c1ccccc1
REMARK SMILES IDX 24 1 23 2 21 3 22 4 5 5 1 6 2 7 3 8 90 9 4 10 89 11 91 12
REMARK SMILES IDX 92 13 96 14 93 15 95 16 94 17 6 18 7 19 8 20 9 22 10 23
REMARK SMILES IDX 11 24 12 25 19 26 13 27 14 28 18 29 20 30 15 31 16 32 17 33
REMARK SMILES IDX 25 34 26 35 27 36 28 37 29 38 30 39 88 40 31 41 87 42 32 43
REMARK SMILES IDX 33 44 34 45 81 46 35 47 86 48 80 49 82 50 36 51 85 52 79 53
REMARK SMILES IDX 78 54 37 56 67 57 48 58 66 59 49 60 52 61 65 62 83 63 50 64
REMARK SMILES IDX 51 65 64 67 84 68 53 69 38 70 39 71 47 72 40 73 46 74 41 75
REMARK SMILES IDX 42 76 43 77 44 78 45 79 68 80 69 81 77 82 70 83 76 84 71 85
REMARK SMILES IDX 72 86 73 87 74 88 75 89 54 90 55 91 63 92 56 93 62 94 57 95
REMARK SMILES IDX 58 96 59 97 60 98 61 99
REMARK H PARENT 8 21 82 55 52 66
REMARK Flexibility Score: inf
ROOT
ATOM      1  C   UNL     1      -5.342   1.208  -0.116  1.00  0.00     0.274 C 
ENDROOT
BRANCH   1   2
ATOM      2  O   UNL     1      -3.940   1.185   0.226  1.00  0.00    -0.461 OA
BRANCH   2   3
ATOM      3  C   UNL     1      -3.531   0.061   0.883  1.00  0.00     0.322 C 
ATOM      4  O   UNL     1      -4.311  -0.754   1.368  1.00  0.00    -0.251 OA
BRANCH   3   5
ATOM      5  C   UNL     1      -2.000  -0.099   0.891  1.00  0.00     0.152 C 
ATOM      6  C   UNL     1       1.708  -2.020  -0.620  1.00  0.00     0.040 C 
ATOM      7  C   UNL     1       0.361  -1.478  -0.227  1.00  0.00    -0.070 C 
ATOM      8  C   UNL     1      -0.193  -0.453  -0.902  1.00  0.00    -0.026 C 
ATOM      9  C   UNL     1      -0.403  -2.213   0.848  1.00  0.00     0.046 C 
ATOM     10  C   UNL     1      -1.476   0.238  -0.517  1.00  0.00     0.056 C 
ATOM     11  C   UNL     1      -1.780  -1.611   1.183  1.00  0.00     0.042 C 
BRANCH   9  12
ATOM     12  C   UNL     1       0.280  -2.581   2.155  1.00  0.00    -0.041 A 
ATOM     13  C   UNL     1      -0.089  -3.807   2.749  1.00  0.00     0.004 A 
ATOM     14  C   UNL     1       1.092  -1.707   2.880  1.00  0.00     0.004 A 
ATOM     15  C   UNL     1       0.300  -4.126   4.047  1.00  0.00     0.000 A 
ATOM     16  C   UNL     1       1.484  -2.029   4.184  1.00  0.00     0.000 A 
ATOM     17  C   UNL     1       1.076  -3.228   4.770  1.00  0.00     0.000 A 
ENDBRANCH   9  12
BRANCH   5  18
ATOM     18  C   UNL     1      -1.458   0.748   2.068  1.00  0.00     0.257 C 
ATOM     19  O   UNL     1      -2.070   0.803   3.144  1.00  0.00    -0.272 OA
ATOM     20  N   UNL     1      -0.255   1.414   2.024  1.00  0.00    -0.246 N 
ATOM     21  H   UNL     1       0.070   1.832   2.854  1.00  0.00     0.193 HD
BRANCH  20  22
ATOM     22  N   UNL     1       0.509   1.531   0.920  1.00  0.00    -0.181 NA
ATOM     23  C   UNL     1       1.762   1.817   1.063  1.00  0.00     0.144 C 
BRANCH  23  24
ATOM     24  C   UNL     1       2.712   1.813  -0.086  1.00  0.00     0.026 C 
ATOM     25  C   UNL     1       4.020   1.520   0.073  1.00  0.00    -0.119 C 
ATOM     26  C   UNL     1       2.215   2.012  -1.482  1.00  0.00     0.164 C 
ATOM     27  O   UNL     1       4.639   1.312   1.293  1.00  0.00    -0.875 OA
ATOM     28  C   UNL     1       4.981   1.283  -1.075  1.00  0.00     0.026 C 
ATOM     29  C   UNL     1       2.989   1.355  -2.604  1.00  0.00     0.087 C 
ATOM     30  O   UNL     1       1.221   2.698  -1.712  1.00  0.00    -0.294 OA
ATOM     31  C   UNL     1       4.483   1.670  -2.484  1.00  0.00    -0.025 C 
ATOM     32  C   UNL     1       4.730   3.167  -2.755  1.00  0.00     0.012 C 
ATOM     33  C   UNL     1       5.261   0.857  -3.536  1.00  0.00     0.012 C 
ENDBRANCH  23  24
ENDBRANCH  20  22
ENDBRANCH   5  18
ENDBRANCH   3   5
ENDBRANCH   2   3
ENDBRANCH   1   2
BRANCH   1  34
ATOM     34  C   UNL     1      -5.499   0.956  -1.616  1.00  0.00     0.275 C 
BRANCH  34  35
ATOM     35  O   UNL     1      -4.854  -0.283  -1.966  1.00  0.00    -0.458 OA
BRANCH  35  36
ATOM     36  C   UNL     1      -4.491  -0.405  -3.267  1.00  0.00     0.338 C 
ATOM     37  O   UNL     1      -4.772   0.383  -4.163  1.00  0.00    -0.246 OA
BRANCH  36  38
ATOM     38  C   UNL     1      -3.657  -1.621  -3.473  1.00  0.00     0.060 A 
ATOM     39  C   UNL     1      -3.062  -2.288  -2.401  1.00  0.00     0.016 A 
ATOM     40  C   UNL     1      -3.406  -2.082  -4.767  1.00  0.00     0.016 A 
ATOM     41  C   UNL     1      -2.168  -3.340  -2.617  1.00  0.00     0.010 A 
ATOM     42  C   UNL     1      -2.605  -3.217  -4.972  1.00  0.00     0.010 A 
ATOM     43  C   UNL     1      -1.962  -3.861  -3.900  1.00  0.00    -0.014 A 
BRANCH  43  44
ATOM     44  C   UNL     1      -1.118  -5.081  -4.119  1.00  0.00     0.031 A 
ATOM     45  C   UNL     1      -0.025  -5.088  -5.163  1.00  0.00     0.074 A 
ATOM     46  C   UNL     1      -1.346  -6.216  -3.418  1.00  0.00     0.049 A 
ATOM     47  N   UNL     1       0.611  -6.108  -5.685  1.00  0.00    -0.248 NA
ATOM     48  C   UNL     1       0.393  -3.785  -5.704  1.00  0.00     0.031 C 
ATOM     49  C   UNL     1      -2.338  -6.382  -2.352  1.00  0.00     0.029 A 
ATOM     50  N   UNL     1      -0.759  -7.459  -3.507  1.00  0.00    -0.354 N 
ATOM     51  C   UNL     1       1.438  -5.580  -6.671  1.00  0.00     0.074 A 
ATOM     52  C   UNL     1       1.240  -4.146  -6.660  1.00  0.00     0.031 C 
ATOM     53  C   UNL     1      -2.264  -7.628  -1.863  1.00  0.00     0.029 A 
ATOM     54  C   UNL     1      -1.305  -8.390  -2.652  1.00  0.00     0.049 A 
ATOM     55  H   UNL     1      -0.019  -7.662  -4.123  1.00  0.00     0.167 HD
ATOM     56  C   UNL     1       2.275  -6.231  -7.516  1.00  0.00     0.031 A 
ATOM     57  C   UNL     1      -1.123  -9.722  -2.547  1.00  0.00     0.031 A 
ATOM     58  C   UNL     1       2.530  -7.649  -7.483  1.00  0.00     0.049 A 
ATOM     59  C   UNL     1      -0.203 -10.423  -3.503  1.00  0.00     0.074 A 
ATOM     60  C   UNL     1       3.398  -8.383  -8.276  1.00  0.00     0.029 A 
ATOM     61  N   UNL     1       1.937  -8.545  -6.609  1.00  0.00    -0.354 N 
ATOM     62  N   UNL     1       0.527  -9.913  -4.465  1.00  0.00    -0.248 NA
ATOM     63  C   UNL     1      -0.105 -11.885  -3.378  1.00  0.00     0.031 C 
ATOM     64  C   UNL     1       3.300  -9.729  -7.907  1.00  0.00     0.029 A 
ATOM     65  C   UNL     1       2.405  -9.825  -6.856  1.00  0.00     0.049 A 
ATOM     66  H   UNL     1       1.280  -8.307  -5.915  1.00  0.00     0.167 HD
ATOM     67  C   UNL     1       1.164 -10.993  -5.065  1.00  0.00     0.074 A 
ATOM     68  C   UNL     1       0.763 -12.178  -4.337  1.00  0.00     0.031 C 
ATOM     69  C   UNL     1       1.996 -11.001  -6.134  1.00  0.00     0.031 A 
BRANCH  56  70
ATOM     70  C   UNL     1       2.962  -5.431  -8.591  1.00  0.00    -0.014 A 
ATOM     71  C   UNL     1       4.063  -4.606  -8.308  1.00  0.00     0.010 A 
ATOM     72  C   UNL     1       2.551  -5.591  -9.929  1.00  0.00     0.010 A 
ATOM     73  C   UNL     1       4.729  -3.940  -9.342  1.00  0.00     0.020 A 
ATOM     74  C   UNL     1       3.229  -4.946 -10.967  1.00  0.00     0.020 A 
ATOM     75  C   UNL     1       4.309  -4.115 -10.665  1.00  0.00     0.054 A 
BRANCH  75  76
ATOM     76  S   UNL     1       5.227  -3.285 -11.992  1.00  0.00     0.124 S 
ATOM     77  O   UNL     1       4.784  -1.901 -11.842  1.00  0.00    -0.237 OA
ATOM     78  O   UNL     1       6.619  -3.540 -11.628  1.00  0.00    -0.237 OA
ATOM     79  O   UNL     1       4.770  -3.958 -13.205  1.00  0.00    -0.744 OA
ENDBRANCH  75  76
ENDBRANCH  56  70
BRANCH  57  80
ATOM     80  C   UNL     1      -1.912 -10.501  -1.552  1.00  0.00    -0.014 A 
ATOM     81  C   UNL     1      -1.287 -11.086  -0.437  1.00  0.00     0.010 A 
ATOM     82  C   UNL     1      -3.301 -10.657  -1.718  1.00  0.00     0.010 A 
ATOM     83  C   UNL     1      -2.036 -11.821   0.487  1.00  0.00     0.020 A 
ATOM     84  C   UNL     1      -4.057 -11.363  -0.780  1.00  0.00     0.020 A 
ATOM     85  C   UNL     1      -3.417 -11.953   0.311  1.00  0.00     0.054 A 
BRANCH  85  86
ATOM     86  S   UNL     1      -4.385 -12.857   1.550  1.00  0.00     0.124 S 
ATOM     87  O   UNL     1      -4.143 -14.244   1.169  1.00  0.00    -0.237 OA
ATOM     88  O   UNL     1      -3.775 -12.430   2.807  1.00  0.00    -0.237 OA
ATOM     89  O   UNL     1      -5.747 -12.373   1.334  1.00  0.00    -0.744 OA
ENDBRANCH  85  86
ENDBRANCH  57  80
BRANCH  69  90
ATOM     90  C   UNL     1       2.539 -12.332  -6.573  1.00  0.00    -0.014 A 
ATOM     91  C   UNL     1       1.728 -13.249  -7.266  1.00  0.00     0.010 A 
ATOM     92  C   UNL     1       3.883 -12.658  -6.321  1.00  0.00     0.010 A 
ATOM     93  C   UNL     1       2.244 -14.482  -7.671  1.00  0.00     0.020 A 
ATOM     94  C   UNL     1       4.409 -13.881  -6.744  1.00  0.00     0.020 A 
ATOM     95  C   UNL     1       3.582 -14.792  -7.404  1.00  0.00     0.054 A 
BRANCH  95  96
ATOM     96  S   UNL     1       4.240 -16.386  -7.967  1.00  0.00     0.124 S 
ATOM     97  O   UNL     1       3.676 -17.311  -6.988  1.00  0.00    -0.237 OA
ATOM     98  O   UNL     1       3.702 -16.498  -9.321  1.00  0.00    -0.237 OA
ATOM     99  O   UNL     1       5.689 -16.206  -7.893  1.00  0.00    -0.744 OA
ENDBRANCH  95  96
ENDBRANCH  69  90
ENDBRANCH  43  44
ENDBRANCH  36  38
ENDBRANCH  35  36
ENDBRANCH  34  35
ENDBRANCH   1  34
TORSDOF 18
