REMARK SMILES [NH3+][C@H](CS[C@@H]1CC(=O)N(c2ccc3ccccc3c2)C1=O)C(=O)OCCOC(=O)c1ccc(-c2c3nc(c(-c4ccc(S(=O)(=O)[O-])cc4)c4ccc([nH]4)c(-c4ccc(S(=O)(=O)[O-])cc4)c4nc(c(-c5ccc(S(=O)(=O)[O-])cc5)c5ccc2[nH]5)C=C4)C=C3)cc1
REMARK SMILES IDX 25 1 24 2 22 3 23 4 2 5 1 6 3 10 4 11 5 12 6 13 20 14 7 15
REMARK SMILES IDX 9 16 21 17 8 18 10 19 11 20 19 21 12 22 18 23 13 24 17 25
REMARK SMILES IDX 14 26 16 27 15 28 26 29 27 30 28 31 29 32 30 33 31 34 89 35
REMARK SMILES IDX 32 36 88 37 33 38 34 39 35 40 82 41 36 42 87 43 81 44 83 45
REMARK SMILES IDX 37 46 86 47 80 48 79 49 38 51 68 52 49 53 67 54 50 55 53 56
REMARK SMILES IDX 66 57 84 58 51 59 52 60 65 62 85 63 54 64 39 65 40 66 48 67
REMARK SMILES IDX 41 68 47 69 42 70 43 71 44 72 45 73 46 74 69 75 70 76 78 77
REMARK SMILES IDX 71 78 77 79 72 80 73 81 74 82 75 83 76 84 55 85 56 86 64 87
REMARK SMILES IDX 57 88 63 89 58 90 59 91 60 92 61 93 62 94
REMARK H PARENT 1 7 1 8 1 9 83 50 53 61
REMARK Flexibility Score: inf
ROOT
ATOM      1  C   UNL     1      -3.234  -1.002  -1.940  1.00  0.00     0.274 C 
ENDROOT
BRANCH   1   2
ATOM      2  O   UNL     1      -1.923  -1.305  -1.400  1.00  0.00    -0.458 OA
BRANCH   2   3
ATOM      3  C   UNL     1      -0.902  -1.297  -2.306  1.00  0.00     0.365 C 
ATOM      4  O   UNL     1      -1.077  -1.253  -3.523  1.00  0.00    -0.245 OA
BRANCH   3   5
ATOM      5  C   UNL     1       0.512  -1.331  -1.681  1.00  0.00     0.301 C 
BRANCH   5   6
ATOM      6  N   UNL     1       1.141  -2.653  -1.923  1.00  0.00    -0.345 N 
ATOM      7  H   UNL     1       0.962  -2.944  -2.885  1.00  0.00     0.345 HD
ATOM      8  H   UNL     1       0.746  -3.340  -1.281  1.00  0.00     0.345 HD
ATOM      9  H   UNL     1       2.147  -2.584  -1.772  1.00  0.00     0.345 HD
ENDBRANCH   5   6
BRANCH   5  10
ATOM     10  C   UNL     1       0.750  -0.834  -0.236  1.00  0.00     0.147 C 
BRANCH  10  11
ATOM     11  S   UNL     1       0.252  -1.896   1.189  1.00  0.00    -0.141 SA
BRANCH  11  12
ATOM     12  C   UNL     1      -1.317  -1.133   1.724  1.00  0.00     0.146 C 
ATOM     13  C   UNL     1      -1.399   0.367   1.610  1.00  0.00     0.125 C 
ATOM     14  C   UNL     1      -1.643  -1.303   3.206  1.00  0.00     0.247 C 
ATOM     15  C   UNL     1      -2.511   0.693   2.537  1.00  0.00     0.235 C 
ATOM     16  N   UNL     1      -2.466  -0.238   3.546  1.00  0.00    -0.250 N 
ATOM     17  O   UNL     1      -1.327  -2.258   3.901  1.00  0.00    -0.273 OA
ATOM     18  O   UNL     1      -3.229   1.670   2.392  1.00  0.00    -0.274 OA
BRANCH  16  19
ATOM     19  C   UNL     1      -3.104  -0.025   4.790  1.00  0.00     0.052 A 
ATOM     20  C   UNL     1      -4.320   0.670   4.854  1.00  0.00     0.027 A 
ATOM     21  C   UNL     1      -2.469  -0.378   5.985  1.00  0.00     0.035 A 
ATOM     22  C   UNL     1      -4.872   1.047   6.077  1.00  0.00     0.011 A 
ATOM     23  C   UNL     1      -2.980   0.051   7.223  1.00  0.00    -0.016 A 
ATOM     24  C   UNL     1      -4.196   0.772   7.267  1.00  0.00    -0.018 A 
ATOM     25  C   UNL     1      -2.279  -0.175   8.416  1.00  0.00     0.009 A 
ATOM     26  C   UNL     1      -4.687   1.231   8.497  1.00  0.00     0.009 A 
ATOM     27  C   UNL     1      -2.768   0.308   9.632  1.00  0.00     0.001 A 
ATOM     28  C   UNL     1      -3.971   1.007   9.672  1.00  0.00     0.001 A 
ENDBRANCH  16  19
ENDBRANCH  11  12
ENDBRANCH  10  11
ENDBRANCH   5  10
ENDBRANCH   3   5
ENDBRANCH   2   3
ENDBRANCH   1   2
BRANCH   1  29
ATOM     29  C   UNL     1      -3.841   0.264  -1.305  1.00  0.00     0.275 C 
BRANCH  29  30
ATOM     30  O   UNL     1      -3.410   1.533  -1.852  1.00  0.00    -0.458 OA
BRANCH  30  31
ATOM     31  C   UNL     1      -2.106   1.833  -1.758  1.00  0.00     0.338 C 
ATOM     32  O   UNL     1      -1.200   1.092  -1.390  1.00  0.00    -0.246 OA
BRANCH  31  33
ATOM     33  C   UNL     1      -1.737   3.192  -2.112  1.00  0.00     0.060 A 
ATOM     34  C   UNL     1      -0.455   3.343  -2.663  1.00  0.00     0.016 A 
ATOM     35  C   UNL     1      -2.522   4.293  -1.774  1.00  0.00     0.016 A 
ATOM     36  C   UNL     1       0.046   4.605  -2.901  1.00  0.00     0.010 A 
ATOM     37  C   UNL     1      -2.030   5.565  -2.047  1.00  0.00     0.010 A 
ATOM     38  C   UNL     1      -0.758   5.715  -2.629  1.00  0.00    -0.014 A 
BRANCH  38  39
ATOM     39  C   UNL     1      -0.322   7.029  -3.119  1.00  0.00     0.031 A 
ATOM     40  C   UNL     1       0.212   8.055  -2.182  1.00  0.00     0.074 A 
ATOM     41  C   UNL     1      -0.446   7.246  -4.440  1.00  0.00     0.049 A 
ATOM     42  N   UNL     1       0.547   9.290  -2.434  1.00  0.00    -0.248 NA
ATOM     43  C   UNL     1       0.389   7.648  -0.779  1.00  0.00     0.031 C 
ATOM     44  C   UNL     1      -0.931   6.256  -5.412  1.00  0.00     0.029 A 
ATOM     45  N   UNL     1      -0.189   8.354  -5.194  1.00  0.00    -0.354 N 
ATOM     46  C   UNL     1       0.953   9.824  -1.219  1.00  0.00     0.074 A 
ATOM     47  C   UNL     1       0.822   8.775  -0.229  1.00  0.00     0.031 C 
ATOM     48  C   UNL     1      -0.938   6.806  -6.633  1.00  0.00     0.029 A 
ATOM     49  C   UNL     1      -0.517   8.195  -6.518  1.00  0.00     0.049 A 
ATOM     50  H   UNL     1       0.194   9.183  -4.826  1.00  0.00     0.167 HD
ATOM     51  C   UNL     1       1.376  11.085  -0.969  1.00  0.00     0.031 A 
ATOM     52  C   UNL     1      -0.518   9.088  -7.521  1.00  0.00     0.031 A 
ATOM     53  C   UNL     1       1.458  12.103  -1.984  1.00  0.00     0.049 A 
ATOM     54  C   UNL     1      -0.077  10.485  -7.211  1.00  0.00     0.074 A 
ATOM     55  C   UNL     1       1.857  13.421  -1.858  1.00  0.00     0.029 A 
ATOM     56  N   UNL     1       1.122  11.911  -3.319  1.00  0.00    -0.354 N 
ATOM     57  N   UNL     1       0.298  10.983  -6.056  1.00  0.00    -0.248 NA
ATOM     58  C   UNL     1      -0.054  11.435  -8.325  1.00  0.00     0.031 C 
ATOM     59  C   UNL     1       1.726  14.034  -3.111  1.00  0.00     0.029 A 
ATOM     60  C   UNL     1       1.291  13.087  -4.027  1.00  0.00     0.049 A 
ATOM     61  H   UNL     1       0.810  11.060  -3.705  1.00  0.00     0.167 HD
ATOM     62  C   UNL     1       0.619  12.309  -6.304  1.00  0.00     0.074 A 
ATOM     63  C   UNL     1       0.400  12.527  -7.723  1.00  0.00     0.031 C 
ATOM     64  C   UNL     1       1.056  13.258  -5.441  1.00  0.00     0.031 A 
BRANCH  51  65
ATOM     65  C   UNL     1       1.711  11.429   0.457  1.00  0.00    -0.014 A 
ATOM     66  C   UNL     1       2.868  10.927   1.081  1.00  0.00     0.010 A 
ATOM     67  C   UNL     1       0.845  12.258   1.193  1.00  0.00     0.010 A 
ATOM     68  C   UNL     1       3.123  11.204   2.429  1.00  0.00     0.020 A 
ATOM     69  C   UNL     1       1.107  12.555   2.534  1.00  0.00     0.020 A 
ATOM     70  C   UNL     1       2.233  12.006   3.150  1.00  0.00     0.054 A 
BRANCH  70  71
ATOM     71  S   UNL     1       2.571  12.332   4.903  1.00  0.00     0.124 S 
ATOM     72  O   UNL     1       2.171  11.072   5.525  1.00  0.00    -0.237 OA
ATOM     73  O   UNL     1       4.005  12.608   4.911  1.00  0.00    -0.237 OA
ATOM     74  O   UNL     1       1.718  13.477   5.212  1.00  0.00    -0.744 OA
ENDBRANCH  70  71
ENDBRANCH  51  65
BRANCH  52  75
ATOM     75  C   UNL     1      -0.972   8.661  -8.868  1.00  0.00    -0.014 A 
ATOM     76  C   UNL     1      -0.043   8.429  -9.895  1.00  0.00     0.010 A 
ATOM     77  C   UNL     1      -2.331   8.365  -9.093  1.00  0.00     0.010 A 
ATOM     78  C   UNL     1      -0.462   7.900 -11.119  1.00  0.00     0.020 A 
ATOM     79  C   UNL     1      -2.749   7.814 -10.306  1.00  0.00     0.020 A 
ATOM     80  C   UNL     1      -1.811   7.588 -11.314  1.00  0.00     0.054 A 
BRANCH  80  81
ATOM     81  S   UNL     1      -2.316   6.805 -12.872  1.00  0.00     0.124 S 
ATOM     82  O   UNL     1      -2.307   7.935 -13.795  1.00  0.00    -0.237 OA
ATOM     83  O   UNL     1      -1.268   5.809 -13.081  1.00  0.00    -0.237 OA
ATOM     84  O   UNL     1      -3.634   6.254 -12.566  1.00  0.00    -0.744 OA
ENDBRANCH  80  81
ENDBRANCH  52  75
BRANCH  64  85
ATOM     85  C   UNL     1       1.352  14.608  -6.025  1.00  0.00    -0.014 A 
ATOM     86  C   UNL     1       0.315  15.502  -6.341  1.00  0.00     0.010 A 
ATOM     87  C   UNL     1       2.690  15.002  -6.202  1.00  0.00     0.010 A 
ATOM     88  C   UNL     1       0.614  16.769  -6.844  1.00  0.00     0.020 A 
ATOM     89  C   UNL     1       2.991  16.276  -6.685  1.00  0.00     0.020 A 
ATOM     90  C   UNL     1       1.950  17.147  -7.012  1.00  0.00     0.054 A 
BRANCH  90  91
ATOM     91  S   UNL     1       2.316  18.820  -7.608  1.00  0.00     0.124 S 
ATOM     92  O   UNL     1       2.046  18.697  -9.037  1.00  0.00    -0.237 OA
ATOM     93  O   UNL     1       1.372  19.644  -6.857  1.00  0.00    -0.237 OA
ATOM     94  O   UNL     1       3.720  19.012  -7.252  1.00  0.00    -0.744 OA
ENDBRANCH  90  91
ENDBRANCH  64  85
ENDBRANCH  38  39
ENDBRANCH  31  33
ENDBRANCH  30  31
ENDBRANCH  29  30
ENDBRANCH   1  29
TORSDOF 19
