REMARK SMILES O=C(OCCOC(=O)[C@@H](CCO)NC(=O)c1c(F)ccc([N+](=O)[O-])c1F)c1ccc(-c2c3nc(c(-c4ccc(S(=O)(=O)[O-])cc4)c4ccc([nH]4)c(-c4ccc(S(=O)(=O)[O-])cc4)c4nc(c(-c5ccc(S(=O)(=O)[O-])cc5)c5ccc2[nH]5)C=C4)C=C3)cc1
REMARK SMILES IDX 4 1 3 2 2 3 1 4 27 5 28 6 86 7 29 8 85 9 30 10 31 11 32 12
REMARK SMILES IDX 79 13 33 14 84 15 78 16 80 17 34 18 83 19 77 20 76 21 35 23
REMARK SMILES IDX 65 24 46 25 64 26 47 27 50 28 63 29 81 30 48 31 49 32 62 34
REMARK SMILES IDX 82 35 51 36 36 37 37 38 45 39 38 40 44 41 39 42 40 43 41 44
REMARK SMILES IDX 42 45 43 46 66 47 67 48 75 49 68 50 74 51 69 52 70 53 71 54
REMARK SMILES IDX 72 55 73 56 52 57 53 58 61 59 54 60 60 61 55 62 56 63 57 64
REMARK SMILES IDX 58 65 59 66 5 67 6 68 7 69 8 70 9 71 10 72 11 73 12 74 13 76
REMARK SMILES IDX 14 77 15 79 16 80 17 81 25 82 18 83 19 84 21 85 26 86 20 87
REMARK SMILES IDX 22 88 23 89 24 90
REMARK H PARENT 80 22 50 33 12 75 13 78
REMARK Flexibility Score: inf
ROOT
ATOM      1  C   UNL     1       4.554  -0.656  -1.453  1.00  0.00     0.275 C 
ENDROOT
BRANCH   1   2
ATOM      2  O   UNL     1       3.639  -1.404  -0.620  1.00  0.00    -0.458 OA
BRANCH   2   3
ATOM      3  C   UNL     1       3.313  -1.281   0.691  1.00  0.00     0.338 C 
ATOM      4  O   UNL     1       2.275  -1.818   1.080  1.00  0.00    -0.246 OA
BRANCH   3   5
ATOM      5  C   UNL     1       4.087  -0.476   1.698  1.00  0.00     0.060 A 
ATOM      6  C   UNL     1       5.445  -0.152   1.629  1.00  0.00     0.016 A 
ATOM      7  C   UNL     1       3.362   0.011   2.808  1.00  0.00     0.016 A 
ATOM      8  C   UNL     1       6.016   0.770   2.537  1.00  0.00     0.010 A 
ATOM      9  C   UNL     1       3.930   0.915   3.723  1.00  0.00     0.010 A 
ATOM     10  C   UNL     1       5.258   1.344   3.571  1.00  0.00    -0.014 A 
BRANCH  10  11
ATOM     11  C   UNL     1       5.912   2.201   4.606  1.00  0.00     0.031 A 
ATOM     12  C   UNL     1       6.380   1.486   5.841  1.00  0.00     0.074 A 
ATOM     13  C   UNL     1       6.106   3.537   4.498  1.00  0.00     0.049 A 
ATOM     14  N   UNL     1       7.125   1.925   6.817  1.00  0.00    -0.248 NA
ATOM     15  C   UNL     1       5.923   0.093   6.003  1.00  0.00     0.031 C 
ATOM     16  C   UNL     1       5.598   4.401   3.445  1.00  0.00     0.029 A 
ATOM     17  N   UNL     1       6.791   4.429   5.297  1.00  0.00    -0.354 N 
ATOM     18  C   UNL     1       7.246   0.856   7.693  1.00  0.00     0.074 A 
ATOM     19  C   UNL     1       6.435  -0.222   7.179  1.00  0.00     0.031 C 
ATOM     20  C   UNL     1       6.016   5.662   3.606  1.00  0.00     0.029 A 
ATOM     21  C   UNL     1       6.822   5.723   4.804  1.00  0.00     0.049 A 
ATOM     22  H   UNL     1       7.221   4.168   6.144  1.00  0.00     0.167 HD
ATOM     23  C   UNL     1       7.994   0.766   8.814  1.00  0.00     0.031 A 
ATOM     24  C   UNL     1       7.431   6.840   5.248  1.00  0.00     0.031 A 
ATOM     25  C   UNL     1       8.738   1.864   9.353  1.00  0.00     0.049 A 
ATOM     26  C   UNL     1       8.243   6.726   6.502  1.00  0.00     0.074 A 
ATOM     27  C   UNL     1       9.531   1.900  10.483  1.00  0.00     0.029 A 
ATOM     28  N   UNL     1       8.754   3.139   8.803  1.00  0.00    -0.354 N 
ATOM     29  N   UNL     1       8.447   5.665   7.247  1.00  0.00    -0.248 NA
ATOM     30  C   UNL     1       8.917   7.942   6.971  1.00  0.00     0.031 C 
ATOM     31  C   UNL     1       9.995   3.211  10.639  1.00  0.00     0.029 A 
ATOM     32  C   UNL     1       9.535   3.975   9.576  1.00  0.00     0.049 A 
ATOM     33  H   UNL     1       8.279   3.407   7.984  1.00  0.00     0.167 HD
ATOM     34  C   UNL     1       9.297   6.078   8.260  1.00  0.00     0.074 A 
ATOM     35  C   UNL     1       9.582   7.481   8.021  1.00  0.00     0.031 C 
ATOM     36  C   UNL     1       9.799   5.364   9.296  1.00  0.00     0.031 A 
BRANCH  23  37
ATOM     37  C   UNL     1       7.994  -0.571   9.498  1.00  0.00    -0.014 A 
ATOM     38  C   UNL     1       8.603  -1.684   8.884  1.00  0.00     0.010 A 
ATOM     39  C   UNL     1       7.297  -0.747  10.704  1.00  0.00     0.010 A 
ATOM     40  C   UNL     1       8.449  -2.961   9.425  1.00  0.00     0.020 A 
ATOM     41  C   UNL     1       7.166  -2.021  11.264  1.00  0.00     0.020 A 
ATOM     42  C   UNL     1       7.717  -3.123  10.604  1.00  0.00     0.054 A 
BRANCH  42  43
ATOM     43  S   UNL     1       7.490  -4.798  11.258  1.00  0.00     0.124 S 
ATOM     44  O   UNL     1       6.509  -5.351  10.327  1.00  0.00    -0.237 OA
ATOM     45  O   UNL     1       8.833  -5.364  11.163  1.00  0.00    -0.237 OA
ATOM     46  O   UNL     1       7.004  -4.575  12.617  1.00  0.00    -0.744 OA
ENDBRANCH  42  43
ENDBRANCH  23  37
BRANCH  24  47
ATOM     47  C   UNL     1       7.342   8.132   4.495  1.00  0.00    -0.014 A 
ATOM     48  C   UNL     1       8.477   8.666   3.855  1.00  0.00     0.010 A 
ATOM     49  C   UNL     1       6.131   8.847   4.416  1.00  0.00     0.010 A 
ATOM     50  C   UNL     1       8.414   9.897   3.189  1.00  0.00     0.020 A 
ATOM     51  C   UNL     1       6.056  10.065   3.726  1.00  0.00     0.020 A 
ATOM     52  C   UNL     1       7.204  10.592   3.132  1.00  0.00     0.054 A 
BRANCH  52  53
ATOM     53  S   UNL     1       7.149  12.184   2.255  1.00  0.00     0.124 S 
ATOM     54  O   UNL     1       7.898  13.053   3.157  1.00  0.00    -0.237 OA
ATOM     55  O   UNL     1       7.808  11.870   0.990  1.00  0.00    -0.237 OA
ATOM     56  O   UNL     1       5.721  12.473   2.153  1.00  0.00    -0.744 OA
ENDBRANCH  52  53
ENDBRANCH  24  47
BRANCH  36  57
ATOM     57  C   UNL     1      10.749   6.078  10.209  1.00  0.00    -0.014 A 
ATOM     58  C   UNL     1      10.294   7.035  11.130  1.00  0.00     0.010 A 
ATOM     59  C   UNL     1      12.111   5.732  10.175  1.00  0.00     0.010 A 
ATOM     60  C   UNL     1      11.198   7.656  11.992  1.00  0.00     0.020 A 
ATOM     61  C   UNL     1      13.011   6.329  11.055  1.00  0.00     0.020 A 
ATOM     62  C   UNL     1      12.549   7.296  11.951  1.00  0.00     0.054 A 
BRANCH  62  63
ATOM     63  S   UNL     1      13.694   8.066  13.124  1.00  0.00     0.124 S 
ATOM     64  O   UNL     1      13.874   9.393  12.542  1.00  0.00    -0.237 OA
ATOM     65  O   UNL     1      12.945   8.024  14.377  1.00  0.00    -0.237 OA
ATOM     66  O   UNL     1      14.869   7.199  13.079  1.00  0.00    -0.744 OA
ENDBRANCH  62  63
ENDBRANCH  36  57
ENDBRANCH  10  11
ENDBRANCH   3   5
ENDBRANCH   2   3
ENDBRANCH   1   2
BRANCH   1  67
ATOM     67  C   UNL     1       3.955   0.610  -2.079  1.00  0.00     0.274 C 
BRANCH  67  68
ATOM     68  O   UNL     1       3.084   1.270  -1.161  1.00  0.00    -0.461 OA
BRANCH  68  69
ATOM     69  C   UNL     1       2.383   2.348  -1.630  1.00  0.00     0.328 C 
ATOM     70  O   UNL     1       2.314   2.656  -2.814  1.00  0.00    -0.250 OA
BRANCH  69  71
ATOM     71  C   UNL     1       1.681   3.109  -0.476  1.00  0.00     0.194 C 
BRANCH  71  72
ATOM     72  C   UNL     1       2.148   2.565   0.865  1.00  0.00     0.065 C 
BRANCH  72  73
ATOM     73  C   UNL     1       3.641   2.770   1.079  1.00  0.00     0.159 C 
BRANCH  73  74
ATOM     74  O   UNL     1       4.219   3.855   0.372  1.00  0.00    -0.396 OA
ATOM     75  H   UNL     1       4.142   3.697  -0.582  1.00  0.00     0.210 HD
ENDBRANCH  73  74
ENDBRANCH  72  73
ENDBRANCH  71  72
BRANCH  71  76
ATOM     76  N   UNL     1       1.939   4.562  -0.466  1.00  0.00    -0.338 N 
ATOM     77  C   UNL     1       1.328   5.477   0.349  1.00  0.00     0.258 C 
ATOM     78  H   UNL     1       2.609   4.904  -1.101  1.00  0.00     0.164 HD
ATOM     79  O   UNL     1       1.907   6.472   0.799  1.00  0.00    -0.269 OA
BRANCH  77  80
ATOM     80  C   UNL     1      -0.079   5.280   0.642  1.00  0.00     0.118 A 
ATOM     81  C   UNL     1      -0.516   4.733   1.845  1.00  0.00     0.139 A 
ATOM     82  C   UNL     1      -0.973   5.576  -0.381  1.00  0.00     0.216 A 
ATOM     83  F   UNL     1       0.334   4.471   2.846  1.00  0.00    -0.206 F 
ATOM     84  C   UNL     1      -1.853   4.382   2.000  1.00  0.00     0.047 A 
ATOM     85  C   UNL     1      -2.313   5.256  -0.219  1.00  0.00     0.305 A 
ATOM     86  F   UNL     1      -0.506   6.124  -1.512  1.00  0.00    -0.198 F 
ATOM     87  C   UNL     1      -2.757   4.632   0.963  1.00  0.00     0.092 A 
BRANCH  85  88
ATOM     88  N   UNL     1      -3.264   5.536  -1.290  1.00  0.00     0.065 N 
ATOM     89  O   UNL     1      -2.894   6.207  -2.260  1.00  0.00    -0.258 OA
ATOM     90  O   UNL     1      -4.409   5.078  -1.160  1.00  0.00    -0.258 OA
ENDBRANCH  85  88
ENDBRANCH  77  80
ENDBRANCH  71  76
ENDBRANCH  69  71
ENDBRANCH  68  69
ENDBRANCH  67  68
ENDBRANCH   1  67
TORSDOF 20
