REMARK SMILES CC(=O)N1CCN(C(=O)c2ccc(=O)n(CCC(=O)OCCOC(=O)c3ccc(-c4c5nc(c(-c6ccc(S(=O)(=O)[O-])cc6)c6ccc([nH]6)c(-c6ccc(S(=O)(=O)[O-])cc6)c6nc(c(-c7ccc(S(=O)(=O)[O-])cc7)c7ccc4[nH]7)C=C6)C=C5)cc3)n2)CC1
REMARK SMILES IDX 21 1 20 2 18 3 19 4 17 5 16 6 15 7 10 8 11 9 86 10 12 11
REMARK SMILES IDX 13 12 14 13 8 14 1 15 2 16 3 17 4 18 5 19 88 20 6 21 87 22
REMARK SMILES IDX 7 23 9 24 22 25 23 26 24 27 25 28 26 29 27 30 85 31 28 32
REMARK SMILES IDX 84 33 29 34 30 35 31 36 78 37 32 38 83 39 77 40 79 41 33 42
REMARK SMILES IDX 82 43 76 44 75 45 34 47 64 48 45 49 63 50 46 51 49 52 62 53
REMARK SMILES IDX 80 54 47 55 48 56 61 58 81 59 50 60 35 61 36 62 44 63 37 64
REMARK SMILES IDX 43 65 38 66 39 67 40 68 41 69 42 70 65 71 66 72 74 73 67 74
REMARK SMILES IDX 73 75 68 76 69 77 70 78 71 79 72 80 51 81 52 82 60 83 53 84
REMARK SMILES IDX 59 85 54 86 55 87 56 88 57 89 58 90
REMARK H PARENT 79 46 49 57
REMARK Flexibility Score: inf
ROOT
ATOM      1  C   UNL     1       7.806   3.727   8.698  1.00  0.00     0.274 C 
ENDROOT
BRANCH   1   2
ATOM      2  O   UNL     1       6.963   4.199   7.631  1.00  0.00    -0.462 OA
BRANCH   2   3
ATOM      3  C   UNL     1       7.327   5.336   6.996  1.00  0.00     0.307 C 
ATOM      4  O   UNL     1       8.223   6.084   7.367  1.00  0.00    -0.252 OA
BRANCH   3   5
ATOM      5  C   UNL     1       6.456   5.635   5.798  1.00  0.00     0.146 C 
BRANCH   5   6
ATOM      6  C   UNL     1       6.161   4.431   4.903  1.00  0.00     0.160 C 
BRANCH   6   7
ATOM      7  N   UNL     1       5.091   3.596   5.444  1.00  0.00    -0.229 N 
ATOM      8  C   UNL     1       2.857   3.314   5.708  1.00  0.00     0.149 A 
ATOM      9  C   UNL     1       3.031   2.389   6.838  1.00  0.00     0.042 A 
ATOM     10  N   UNL     1       3.803   3.962   5.104  1.00  0.00    -0.164 NA
ATOM     11  C   UNL     1       4.275   1.954   7.028  1.00  0.00     0.076 A 
ATOM     12  C   UNL     1       5.372   2.434   6.161  1.00  0.00     0.266 A 
ATOM     13  O   UNL     1       6.432   1.824   6.191  1.00  0.00    -0.268 OA
BRANCH   8  14
ATOM     14  C   UNL     1       1.451   3.416   5.170  1.00  0.00     0.274 C 
ATOM     15  C   UNL     1       1.224   0.161  -0.173  1.00  0.00     0.114 C 
ATOM     16  C   UNL     1       0.372   1.327   0.257  1.00  0.00     0.219 C 
ATOM     17  O   UNL     1      -0.747   1.480  -0.234  1.00  0.00    -0.275 OA
ATOM     18  N   UNL     1       0.857   2.138   1.265  1.00  0.00    -0.339 N 
ATOM     19  C   UNL     1      -0.057   3.066   1.942  1.00  0.00     0.141 C 
ATOM     20  C   UNL     1       2.212   2.109   1.833  1.00  0.00     0.141 C 
ATOM     21  C   UNL     1      -0.147   2.706   3.434  1.00  0.00     0.141 C 
ATOM     22  C   UNL     1       2.161   1.796   3.337  1.00  0.00     0.141 C 
ATOM     23  N   UNL     1       1.188   2.660   4.035  1.00  0.00    -0.334 N 
ATOM     24  O   UNL     1       0.640   4.092   5.788  1.00  0.00    -0.267 OA
ENDBRANCH   8  14
ENDBRANCH   6   7
ENDBRANCH   5   6
ENDBRANCH   3   5
ENDBRANCH   2   3
ENDBRANCH   1   2
BRANCH   1  25
ATOM     25  C   UNL     1       8.880   2.761   8.192  1.00  0.00     0.275 C 
BRANCH  25  26
ATOM     26  O   UNL     1       9.906   3.466   7.478  1.00  0.00    -0.458 OA
BRANCH  26  27
ATOM     27  C   UNL     1       9.837   3.418   6.129  1.00  0.00     0.338 C 
ATOM     28  O   UNL     1       9.058   2.812   5.424  1.00  0.00    -0.246 OA
BRANCH  27  29
ATOM     29  C   UNL     1      10.848   4.325   5.593  1.00  0.00     0.060 A 
ATOM     30  C   UNL     1      12.190   3.963   5.666  1.00  0.00     0.016 A 
ATOM     31  C   UNL     1      10.443   5.523   4.997  1.00  0.00     0.016 A 
ATOM     32  C   UNL     1      13.147   4.844   5.182  1.00  0.00     0.010 A 
ATOM     33  C   UNL     1      11.401   6.393   4.493  1.00  0.00     0.010 A 
ATOM     34  C   UNL     1      12.759   6.067   4.605  1.00  0.00    -0.014 A 
BRANCH  34  35
ATOM     35  C   UNL     1      13.792   7.003   4.120  1.00  0.00     0.031 A 
ATOM     36  C   UNL     1      14.076   8.266   4.872  1.00  0.00     0.074 A 
ATOM     37  C   UNL     1      14.491   6.677   3.018  1.00  0.00     0.049 A 
ATOM     38  N   UNL     1      15.021   9.144   4.666  1.00  0.00    -0.248 NA
ATOM     39  C   UNL     1      13.186   8.590   5.999  1.00  0.00     0.031 C 
ATOM     40  C   UNL     1      14.266   5.473   2.216  1.00  0.00     0.029 A 
ATOM     41  N   UNL     1      15.541   7.303   2.403  1.00  0.00    -0.354 N 
ATOM     42  C   UNL     1      14.858  10.110   5.650  1.00  0.00     0.074 A 
ATOM     43  C   UNL     1      13.677   9.752   6.405  1.00  0.00     0.031 C 
ATOM     44  C   UNL     1      15.188   5.421   1.244  1.00  0.00     0.029 A 
ATOM     45  C   UNL     1      16.040   6.605   1.330  1.00  0.00     0.049 A 
ATOM     46  H   UNL     1      15.904   8.169   2.700  1.00  0.00     0.167 HD
ATOM     47  C   UNL     1      15.646  11.176   5.917  1.00  0.00     0.031 A 
ATOM     48  C   UNL     1      17.078   6.877   0.514  1.00  0.00     0.031 A 
ATOM     49  C   UNL     1      16.803  11.523   5.131  1.00  0.00     0.049 A 
ATOM     50  C   UNL     1      17.911   8.095   0.791  1.00  0.00     0.074 A 
ATOM     51  C   UNL     1      17.675  12.580   5.309  1.00  0.00     0.029 A 
ATOM     52  N   UNL     1      17.245  10.822   4.015  1.00  0.00    -0.354 N 
ATOM     53  N   UNL     1      17.779   8.974   1.757  1.00  0.00    -0.248 NA
ATOM     54  C   UNL     1      19.038   8.355  -0.112  1.00  0.00     0.031 C 
ATOM     55  C   UNL     1      18.597  12.563   4.260  1.00  0.00     0.029 A 
ATOM     56  C   UNL     1      18.360  11.443   3.477  1.00  0.00     0.049 A 
ATOM     57  H   UNL     1      16.828  10.005   3.659  1.00  0.00     0.167 HD
ATOM     58  C   UNL     1      18.814   9.885   1.590  1.00  0.00     0.074 A 
ATOM     59  C   UNL     1      19.576   9.438   0.439  1.00  0.00     0.031 C 
ATOM     60  C   UNL     1      19.103  10.990   2.322  1.00  0.00     0.031 A 
BRANCH  47  61
ATOM     61  C   UNL     1      15.297  12.033   7.110  1.00  0.00    -0.014 A 
ATOM     62  C   UNL     1      14.949  13.384   6.937  1.00  0.00     0.010 A 
ATOM     63  C   UNL     1      15.387  11.517   8.418  1.00  0.00     0.010 A 
ATOM     64  C   UNL     1      14.716  14.207   8.043  1.00  0.00     0.020 A 
ATOM     65  C   UNL     1      15.118  12.327   9.525  1.00  0.00     0.020 A 
ATOM     66  C   UNL     1      14.805  13.673   9.332  1.00  0.00     0.054 A 
BRANCH  66  67
ATOM     67  S   UNL     1      14.496  14.755  10.755  1.00  0.00     0.124 S 
ATOM     68  O   UNL     1      15.706  15.569  10.792  1.00  0.00    -0.237 OA
ATOM     69  O   UNL     1      13.274  15.456  10.364  1.00  0.00    -0.237 OA
ATOM     70  O   UNL     1      14.336  13.821  11.867  1.00  0.00    -0.744 OA
ENDBRANCH  66  67
ENDBRANCH  47  61
BRANCH  48  71
ATOM     71  C   UNL     1      17.393   5.910  -0.574  1.00  0.00    -0.014 A 
ATOM     72  C   UNL     1      16.480   5.713  -1.629  1.00  0.00     0.010 A 
ATOM     73  C   UNL     1      18.508   5.062  -0.470  1.00  0.00     0.010 A 
ATOM     74  C   UNL     1      16.625   4.631  -2.500  1.00  0.00     0.020 A 
ATOM     75  C   UNL     1      18.674   3.996  -1.361  1.00  0.00     0.020 A 
ATOM     76  C   UNL     1      17.708   3.763  -2.343  1.00  0.00     0.054 A 
BRANCH  76  77
ATOM     77  S   UNL     1      17.796   2.288  -3.396  1.00  0.00     0.124 S 
ATOM     78  O   UNL     1      16.703   1.476  -2.864  1.00  0.00    -0.237 OA
ATOM     79  O   UNL     1      17.579   2.838  -4.731  1.00  0.00    -0.237 OA
ATOM     80  O   UNL     1      19.137   1.768  -3.147  1.00  0.00    -0.744 OA
ENDBRANCH  76  77
ENDBRANCH  48  71
BRANCH  60  81
ATOM     81  C   UNL     1      20.289  11.827   1.911  1.00  0.00    -0.014 A 
ATOM     82  C   UNL     1      21.388  11.954   2.783  1.00  0.00     0.010 A 
ATOM     83  C   UNL     1      20.244  12.617   0.749  1.00  0.00     0.010 A 
ATOM     84  C   UNL     1      22.389  12.895   2.531  1.00  0.00     0.020 A 
ATOM     85  C   UNL     1      21.262  13.534   0.475  1.00  0.00     0.020 A 
ATOM     86  C   UNL     1      22.311  13.690   1.385  1.00  0.00     0.054 A 
BRANCH  86  87
ATOM     87  S   UNL     1      23.581  14.956   1.115  1.00  0.00     0.124 S 
ATOM     88  O   UNL     1      23.238  15.956   2.121  1.00  0.00    -0.237 OA
ATOM     89  O   UNL     1      24.821  14.220   1.354  1.00  0.00    -0.237 OA
ATOM     90  O   UNL     1      23.368  15.367  -0.271  1.00  0.00    -0.744 OA
ENDBRANCH  86  87
ENDBRANCH  60  81
ENDBRANCH  34  35
ENDBRANCH  27  29
ENDBRANCH  26  27
ENDBRANCH  25  26
ENDBRANCH   1  25
TORSDOF 17
