REMARK SMILES COc1cc(-c2ccc(NC(=O)CCC(=O)OCCOC(=O)c3ccc(-c4c5nc(c(-c6ccc(S(=O)(=O)[O-])cc6)c6ccc([nH]6)c(-c6ccc(S(=O)(=O)[O-])cc6)c6nc(c(-c7ccc(S(=O)(=O)[O-])cc7)c7ccc4[nH]7)C=C6)C=C5)cc3)c(OC)c2)ccc1N
REMARK SMILES IDX 18 1 17 2 15 3 16 4 14 5 13 6 11 7 10 8 12 10 9 11 6 12 7 13
REMARK SMILES IDX 86 14 8 15 83 16 5 17 3 18 4 19 89 20 88 21 87 22 2 23 1 24
REMARK SMILES IDX 90 25 84 28 85 29 19 30 20 31 21 32 22 33 23 34 24 35 82 36
REMARK SMILES IDX 25 37 81 38 26 39 27 40 28 41 75 42 29 43 80 44 74 45 76 46
REMARK SMILES IDX 30 47 79 48 73 49 72 50 31 52 61 53 42 54 60 55 43 56 46 57
REMARK SMILES IDX 59 58 77 59 44 60 45 61 58 63 78 64 47 65 32 66 33 67 41 68
REMARK SMILES IDX 34 69 40 70 35 71 36 72 37 73 38 74 39 75 62 76 63 77 71 78
REMARK SMILES IDX 64 79 70 80 65 81 66 82 67 83 68 84 69 85 48 86 49 87 57 88
REMARK SMILES IDX 50 89 56 90 51 91 52 92 53 93 54 94 55 95
REMARK H PARENT 10 9 90 26 90 27 76 51 46 62
REMARK Flexibility Score: inf
ROOT
ATOM      1  C   UNL     1      -4.767  -5.411  -2.044  1.00  0.00     0.274 C 
ENDROOT
BRANCH   1   2
ATOM      2  O   UNL     1      -4.832  -5.960  -3.386  1.00  0.00    -0.462 OA
BRANCH   2   3
ATOM      3  C   UNL     1      -5.351  -5.214  -4.395  1.00  0.00     0.306 C 
ATOM      4  O   UNL     1      -5.941  -4.155  -4.216  1.00  0.00    -0.252 OA
BRANCH   3   5
ATOM      5  C   UNL     1      -5.232  -5.890  -5.767  1.00  0.00     0.132 C 
BRANCH   5   6
ATOM      6  C   UNL     1      -3.891  -5.860  -6.535  1.00  0.00     0.112 C 
BRANCH   6   7
ATOM      7  C   UNL     1      -3.353  -7.233  -6.992  1.00  0.00     0.225 C 
ATOM      8  N   UNL     1      -2.033  -7.628  -6.827  1.00  0.00    -0.323 N 
ATOM      9  H   UNL     1      -1.723  -8.328  -7.445  1.00  0.00     0.170 HD
ATOM     10  O   UNL     1      -4.088  -7.981  -7.652  1.00  0.00    -0.275 OA
BRANCH   8  11
ATOM     11  C   UNL     1      -1.068  -7.172  -5.900  1.00  0.00     0.083 A 
ATOM     12  C   UNL     1       0.775  -5.710  -4.263  1.00  0.00    -0.014 A 
ATOM     13  C   UNL     1       1.226  -6.627  -5.226  1.00  0.00     0.011 A 
ATOM     14  C   UNL     1      -0.591  -5.758  -4.033  1.00  0.00     0.057 A 
ATOM     15  C   UNL     1       0.309  -7.330  -6.067  1.00  0.00     0.031 A 
ATOM     16  C   UNL     1      -1.451  -6.602  -4.716  1.00  0.00     0.142 A 
BRANCH  12  17
ATOM     17  C   UNL     1       1.585  -4.709  -3.503  1.00  0.00    -0.014 A 
ATOM     18  C   UNL     1       1.692  -2.986  -1.720  1.00  0.00     0.142 A 
ATOM     19  C   UNL     1       1.070  -4.077  -2.340  1.00  0.00     0.057 A 
ATOM     20  C   UNL     1       2.947  -2.563  -2.155  1.00  0.00     0.074 A 
ATOM     21  C   UNL     1       3.484  -3.183  -3.291  1.00  0.00     0.030 A 
ATOM     22  C   UNL     1       2.821  -4.236  -3.953  1.00  0.00     0.011 A 
BRANCH  18  23
ATOM     23  O   UNL     1       1.018  -2.449  -0.649  1.00  0.00    -0.495 OA
ATOM     24  C   UNL     1       0.751  -1.048  -0.765  1.00  0.00     0.278 C 
ENDBRANCH  18  23
BRANCH  20  25
ATOM     25  N   UNL     1       3.620  -1.506  -1.558  1.00  0.00    -0.396 N 
ATOM     26  H   UNL     1       3.244  -1.070  -0.760  1.00  0.00     0.156 HD
ATOM     27  H   UNL     1       4.475  -1.192  -1.934  1.00  0.00     0.156 HD
ENDBRANCH  20  25
ENDBRANCH  12  17
BRANCH  16  28
ATOM     28  O   UNL     1      -2.654  -6.830  -4.135  1.00  0.00    -0.495 OA
ATOM     29  C   UNL     1      -2.979  -8.207  -3.966  1.00  0.00     0.278 C 
ENDBRANCH  16  28
ENDBRANCH   8  11
ENDBRANCH   6   7
ENDBRANCH   5   6
ENDBRANCH   3   5
ENDBRANCH   2   3
ENDBRANCH   1   2
BRANCH   1  30
ATOM     30  C   UNL     1      -3.405  -4.793  -1.689  1.00  0.00     0.275 C 
BRANCH  30  31
ATOM     31  O   UNL     1      -3.275  -3.420  -2.102  1.00  0.00    -0.458 OA
BRANCH  31  32
ATOM     32  C   UNL     1      -3.041  -3.238  -3.407  1.00  0.00     0.338 C 
ATOM     33  O   UNL     1      -2.900  -4.085  -4.280  1.00  0.00    -0.246 OA
BRANCH  32  34
ATOM     34  C   UNL     1      -3.001  -1.861  -3.809  1.00  0.00     0.060 A 
ATOM     35  C   UNL     1      -4.180  -1.329  -4.326  1.00  0.00     0.016 A 
ATOM     36  C   UNL     1      -1.771  -1.202  -3.886  1.00  0.00     0.016 A 
ATOM     37  C   UNL     1      -4.150  -0.063  -4.864  1.00  0.00     0.010 A 
ATOM     38  C   UNL     1      -1.748   0.088  -4.386  1.00  0.00     0.010 A 
ATOM     39  C   UNL     1      -2.950   0.664  -4.822  1.00  0.00    -0.014 A 
BRANCH  39  40
ATOM     40  C   UNL     1      -3.069   2.120  -4.927  1.00  0.00     0.031 A 
ATOM     41  C   UNL     1      -2.797   2.823  -6.205  1.00  0.00     0.074 A 
ATOM     42  C   UNL     1      -3.535   2.723  -3.817  1.00  0.00     0.049 A 
ATOM     43  N   UNL     1      -3.003   4.077  -6.492  1.00  0.00    -0.248 NA
ATOM     44  C   UNL     1      -2.222   2.028  -7.300  1.00  0.00     0.031 C 
ATOM     45  C   UNL     1      -3.826   2.031  -2.550  1.00  0.00     0.029 A 
ATOM     46  N   UNL     1      -3.901   4.013  -3.577  1.00  0.00    -0.354 N 
ATOM     47  C   UNL     1      -2.579   4.233  -7.803  1.00  0.00     0.074 A 
ATOM     48  C   UNL     1      -2.092   2.946  -8.251  1.00  0.00     0.031 C 
ATOM     49  C   UNL     1      -4.385   2.892  -1.693  1.00  0.00     0.029 A 
ATOM     50  C   UNL     1      -4.444   4.197  -2.328  1.00  0.00     0.049 A 
ATOM     51  H   UNL     1      -3.787   4.739  -4.231  1.00  0.00     0.167 HD
ATOM     52  C   UNL     1      -2.596   5.368  -8.538  1.00  0.00     0.031 A 
ATOM     53  C   UNL     1      -4.943   5.308  -1.763  1.00  0.00     0.031 A 
ATOM     54  C   UNL     1      -3.062   6.626  -8.011  1.00  0.00     0.049 A 
ATOM     55  C   UNL     1      -4.952   6.543  -2.607  1.00  0.00     0.074 A 
ATOM     56  C   UNL     1      -3.103   7.863  -8.626  1.00  0.00     0.029 A 
ATOM     57  N   UNL     1      -3.569   6.800  -6.726  1.00  0.00    -0.354 N 
ATOM     58  N   UNL     1      -4.550   6.683  -3.850  1.00  0.00    -0.248 NA
ATOM     59  C   UNL     1      -5.474   7.763  -1.990  1.00  0.00     0.031 C 
ATOM     60  C   UNL     1      -3.595   8.790  -7.699  1.00  0.00     0.029 A 
ATOM     61  C   UNL     1      -3.909   8.124  -6.522  1.00  0.00     0.049 A 
ATOM     62  H   UNL     1      -3.670   6.083  -6.059  1.00  0.00     0.167 HD
ATOM     63  C   UNL     1      -4.766   8.012  -4.169  1.00  0.00     0.074 A 
ATOM     64  C   UNL     1      -5.365   8.623  -2.994  1.00  0.00     0.031 C 
ATOM     65  C   UNL     1      -4.487   8.675  -5.319  1.00  0.00     0.031 A 
BRANCH  52  66
ATOM     66  C   UNL     1      -2.047   5.298  -9.936  1.00  0.00    -0.014 A 
ATOM     67  C   UNL     1      -2.743   4.637 -10.965  1.00  0.00     0.010 A 
ATOM     68  C   UNL     1      -0.811   5.901 -10.230  1.00  0.00     0.010 A 
ATOM     69  C   UNL     1      -2.195   4.547 -12.250  1.00  0.00     0.020 A 
ATOM     70  C   UNL     1      -0.269   5.831 -11.517  1.00  0.00     0.020 A 
ATOM     71  C   UNL     1      -0.957   5.138 -12.515  1.00  0.00     0.054 A 
BRANCH  71  72
ATOM     72  S   UNL     1      -0.265   5.009 -14.189  1.00  0.00     0.124 S 
ATOM     73  O   UNL     1       0.176   3.617 -14.226  1.00  0.00    -0.237 OA
ATOM     74  O   UNL     1      -1.411   5.327 -15.037  1.00  0.00    -0.237 OA
ATOM     75  O   UNL     1       0.807   6.002 -14.199  1.00  0.00    -0.744 OA
ENDBRANCH  71  72
ENDBRANCH  52  66
BRANCH  53  76
ATOM     76  C   UNL     1      -5.444   5.263  -0.365  1.00  0.00    -0.014 A 
ATOM     77  C   UNL     1      -6.815   5.368  -0.081  1.00  0.00     0.010 A 
ATOM     78  C   UNL     1      -4.546   5.020   0.693  1.00  0.00     0.010 A 
ATOM     79  C   UNL     1      -7.278   5.239   1.234  1.00  0.00     0.020 A 
ATOM     80  C   UNL     1      -5.006   4.863   2.002  1.00  0.00     0.020 A 
ATOM     81  C   UNL     1      -6.370   4.986   2.267  1.00  0.00     0.054 A 
BRANCH  81  82
ATOM     82  S   UNL     1      -6.992   4.758   3.956  1.00  0.00     0.124 S 
ATOM     83  O   UNL     1      -7.266   6.132   4.365  1.00  0.00    -0.237 OA
ATOM     84  O   UNL     1      -8.165   3.911   3.754  1.00  0.00    -0.237 OA
ATOM     85  O   UNL     1      -5.879   4.109   4.645  1.00  0.00    -0.744 OA
ENDBRANCH  81  82
ENDBRANCH  53  76
BRANCH  65  86
ATOM     86  C   UNL     1      -4.836  10.132  -5.332  1.00  0.00    -0.014 A 
ATOM     87  C   UNL     1      -4.037  11.066  -4.651  1.00  0.00     0.010 A 
ATOM     88  C   UNL     1      -5.954  10.569  -6.063  1.00  0.00     0.010 A 
ATOM     89  C   UNL     1      -4.370  12.419  -4.676  1.00  0.00     0.020 A 
ATOM     90  C   UNL     1      -6.275  11.924  -6.109  1.00  0.00     0.020 A 
ATOM     91  C   UNL     1      -5.489  12.839  -5.404  1.00  0.00     0.054 A 
BRANCH  91  92
ATOM     92  S   UNL     1      -5.878  14.607  -5.459  1.00  0.00     0.124 S 
ATOM     93  O   UNL     1      -6.491  14.822  -4.151  1.00  0.00    -0.237 OA
ATOM     94  O   UNL     1      -4.565  15.220  -5.646  1.00  0.00    -0.237 OA
ATOM     95  O   UNL     1      -6.782  14.725  -6.600  1.00  0.00    -0.744 OA
ENDBRANCH  91  92
ENDBRANCH  65  86
ENDBRANCH  39  40
ENDBRANCH  32  34
ENDBRANCH  31  32
ENDBRANCH  30  31
ENDBRANCH   1  30
TORSDOF 21
