REMARK SMILES O=C(OCCOC(=O)[C@H]1Cc2c([nH]c3ccccc23)[C@H](c2c[nH]c3ccccc23)[NH2+]1)c1ccc(-c2c3nc(c(-c4ccc(S(=O)(=O)[O-])cc4)c4ccc([nH]4)c(-c4ccc(S(=O)(=O)[O-])cc4)c4nc(c(-c5ccc(S(=O)(=O)[O-])cc5)c5ccc2[nH]5)C=C4)C=C3)cc1
REMARK SMILES IDX 4 1 3 2 2 3 1 4 31 5 32 6 90 7 33 8 89 9 34 10 35 11 36 12
REMARK SMILES IDX 83 13 37 14 88 15 82 16 84 17 38 18 87 19 81 20 80 21 39 23
REMARK SMILES IDX 69 24 50 25 68 26 51 27 54 28 67 29 85 30 52 31 53 32 66 34
REMARK SMILES IDX 86 35 55 36 40 37 41 38 49 39 42 40 48 41 43 42 44 43 45 44
REMARK SMILES IDX 46 45 47 46 70 47 71 48 79 49 72 50 78 51 73 52 74 53 75 54
REMARK SMILES IDX 76 55 77 56 56 57 57 58 65 59 58 60 64 61 59 62 60 63 61 64
REMARK SMILES IDX 62 65 63 66 5 67 6 68 7 69 8 70 9 71 10 72 30 73 11 74 20 75
REMARK SMILES IDX 12 78 19 79 13 80 14 81 18 82 15 84 17 85 16 86 21 87 22 88
REMARK SMILES IDX 29 89 23 90 24 91 28 92 25 94 27 95 26 96
REMARK H PARENT 84 22 54 33 30 76 30 77 13 83 23 93
REMARK Flexibility Score: inf
ROOT
ATOM      1  C   UNL     1       3.893   1.186  -1.233  1.00  0.00     0.275 C 
ENDROOT
BRANCH   1   2
ATOM      2  O   UNL     1       2.909   0.159  -1.441  1.00  0.00    -0.458 OA
BRANCH   2   3
ATOM      3  C   UNL     1       2.948  -1.158  -1.113  1.00  0.00     0.338 C 
ATOM      4  O   UNL     1       2.040  -1.892  -1.498  1.00  0.00    -0.246 OA
BRANCH   3   5
ATOM      5  C   UNL     1       3.958  -1.724  -0.166  1.00  0.00     0.060 A 
ATOM      6  C   UNL     1       5.304  -1.358  -0.073  1.00  0.00     0.016 A 
ATOM      7  C   UNL     1       3.484  -2.687   0.729  1.00  0.00     0.016 A 
ATOM      8  C   UNL     1       6.072  -1.711   1.052  1.00  0.00     0.010 A 
ATOM      9  C   UNL     1       4.232  -3.022   1.860  1.00  0.00     0.010 A 
ATOM     10  C   UNL     1       5.478  -2.405   2.120  1.00  0.00    -0.014 A 
BRANCH  10  11
ATOM     11  C   UNL     1       6.087  -2.425   3.764  1.00  0.00     0.031 A 
ATOM     12  C   UNL     1       6.627  -4.201   3.574  1.00  0.00     0.074 A 
ATOM     13  C   UNL     1       6.072  -1.244   5.235  1.00  0.00     0.049 A 
ATOM     14  N   UNL     1       7.250  -4.960   4.462  1.00  0.00    -0.248 NA
ATOM     15  C   UNL     1       6.371  -5.024   2.362  1.00  0.00     0.031 C 
ATOM     16  C   UNL     1       5.648   0.357   5.601  1.00  0.00     0.029 A 
ATOM     17  N   UNL     1       6.450  -1.377   6.724  1.00  0.00    -0.354 N 
ATOM     18  C   UNL     1       7.476  -6.204   3.993  1.00  0.00     0.074 A 
ATOM     19  C   UNL     1       6.837  -6.231   2.702  1.00  0.00     0.031 C 
ATOM     20  C   UNL     1       5.966   0.744   6.855  1.00  0.00     0.029 A 
ATOM     21  C   UNL     1       6.584  -0.333   7.555  1.00  0.00     0.049 A 
ATOM     22  H   UNL     1       6.601  -2.280   7.086  1.00  0.00     0.167 HD
ATOM     23  C   UNL     1       8.215  -7.141   4.636  1.00  0.00     0.031 A 
ATOM     24  C   UNL     1       7.163  -0.425   8.768  1.00  0.00     0.031 A 
ATOM     25  C   UNL     1       8.840  -6.935   5.943  1.00  0.00     0.049 A 
ATOM     26  C   UNL     1       7.965  -1.700   9.127  1.00  0.00     0.074 A 
ATOM     27  C   UNL     1       9.777  -7.716   6.589  1.00  0.00     0.029 A 
ATOM     28  N   UNL     1       8.577  -5.874   6.825  1.00  0.00    -0.354 N 
ATOM     29  N   UNL     1       8.088  -2.862   8.494  1.00  0.00    -0.248 NA
ATOM     30  C   UNL     1       8.766  -1.616  10.347  1.00  0.00     0.031 C 
ATOM     31  C   UNL     1      10.106  -7.092   7.807  1.00  0.00     0.029 A 
ATOM     32  C   UNL     1       9.420  -5.880   7.932  1.00  0.00     0.049 A 
ATOM     33  H   UNL     1       7.874  -5.201   6.677  1.00  0.00     0.167 HD
ATOM     34  C   UNL     1       9.021  -3.635   9.205  1.00  0.00     0.074 A 
ATOM     35  C   UNL     1       9.408  -2.778  10.331  1.00  0.00     0.031 C 
ATOM     36  C   UNL     1       9.568  -4.885   9.013  1.00  0.00     0.031 A 
BRANCH  23  37
ATOM     37  C   UNL     1       8.452  -8.396   3.855  1.00  0.00    -0.014 A 
ATOM     38  C   UNL     1       9.174  -8.341   2.646  1.00  0.00     0.010 A 
ATOM     39  C   UNL     1       7.915  -9.621   4.278  1.00  0.00     0.010 A 
ATOM     40  C   UNL     1       9.276  -9.465   1.828  1.00  0.00     0.020 A 
ATOM     41  C   UNL     1       8.041 -10.760   3.474  1.00  0.00     0.020 A 
ATOM     42  C   UNL     1       8.694 -10.665   2.240  1.00  0.00     0.054 A 
BRANCH  42  43
ATOM     43  S   UNL     1       8.800 -12.094   1.131  1.00  0.00     0.124 S 
ATOM     44  O   UNL     1       7.869 -11.719   0.069  1.00  0.00    -0.237 OA
ATOM     45  O   UNL     1      10.211 -12.101   0.754  1.00  0.00    -0.237 OA
ATOM     46  O   UNL     1       8.374 -13.213   1.967  1.00  0.00    -0.744 OA
ENDBRANCH  42  43
ENDBRANCH  23  37
BRANCH  24  47
ATOM     47  C   UNL     1       7.025   0.741   9.668  1.00  0.00    -0.014 A 
ATOM     48  C   UNL     1       8.081   1.631   9.914  1.00  0.00     0.010 A 
ATOM     49  C   UNL     1       5.751   1.023  10.199  1.00  0.00     0.010 A 
ATOM     50  C   UNL     1       7.862   2.786  10.674  1.00  0.00     0.020 A 
ATOM     51  C   UNL     1       5.524   2.184  10.938  1.00  0.00     0.020 A 
ATOM     52  C   UNL     1       6.583   3.059  11.173  1.00  0.00     0.054 A 
BRANCH  52  53
ATOM     53  S   UNL     1       6.297   4.612  12.066  1.00  0.00     0.124 S 
ATOM     54  O   UNL     1       6.951   4.353  13.344  1.00  0.00    -0.237 OA
ATOM     55  O   UNL     1       6.953   5.595  11.206  1.00  0.00    -0.237 OA
ATOM     56  O   UNL     1       4.840   4.715  12.116  1.00  0.00    -0.744 OA
ENDBRANCH  52  53
ENDBRANCH  24  47
BRANCH  36  57
ATOM     57  C   UNL     1      10.560  -5.295  10.104  1.00  0.00    -0.014 A 
ATOM     58  C   UNL     1      10.113  -5.659  11.389  1.00  0.00     0.010 A 
ATOM     59  C   UNL     1      11.943  -5.334   9.829  1.00  0.00     0.010 A 
ATOM     60  C   UNL     1      11.028  -6.012  12.386  1.00  0.00     0.020 A 
ATOM     61  C   UNL     1      12.857  -5.726  10.814  1.00  0.00     0.020 A 
ATOM     62  C   UNL     1      12.395  -6.043  12.093  1.00  0.00     0.054 A 
BRANCH  62  63
ATOM     63  S   UNL     1      13.558  -6.541  13.395  1.00  0.00     0.124 S 
ATOM     64  O   UNL     1      13.614  -5.342  14.226  1.00  0.00    -0.237 OA
ATOM     65  O   UNL     1      12.892  -7.693  13.998  1.00  0.00    -0.237 OA
ATOM     66  O   UNL     1      14.784  -6.851  12.663  1.00  0.00    -0.744 OA
ENDBRANCH  62  63
ENDBRANCH  36  57
ENDBRANCH  10  11
ENDBRANCH   3   5
ENDBRANCH   2   3
ENDBRANCH   1   2
BRANCH   1  67
ATOM     67  C   UNL     1       3.865   1.874   0.131  1.00  0.00     0.274 C 
BRANCH  67  68
ATOM     68  O   UNL     1       3.343   1.051   1.181  1.00  0.00    -0.458 OA
BRANCH  68  69
ATOM     69  C   UNL     1       2.137   1.435   1.709  1.00  0.00     0.365 C 
ATOM     70  O   UNL     1       1.471   2.370   1.280  1.00  0.00    -0.245 OA
BRANCH  69  71
ATOM     71  C   UNL     1       1.801   0.621   2.977  1.00  0.00     0.298 C 
ATOM     72  C   UNL     1       0.377   0.994   3.438  1.00  0.00     0.115 C 
ATOM     73  N   UNL     1       1.948  -0.835   2.711  1.00  0.00    -0.323 N 
ATOM     74  C   UNL     1      -0.049   0.070   4.520  1.00  0.00    -0.006 A 
ATOM     75  C   UNL     1       1.632  -1.743   3.834  1.00  0.00     0.264 C 
ATOM     76  H   UNL     1       2.916  -1.004   2.438  1.00  0.00     0.347 HD
ATOM     77  H   UNL     1       1.262  -1.049   1.987  1.00  0.00     0.347 HD
ATOM     78  C   UNL     1       0.537  -1.171   4.662  1.00  0.00     0.083 A 
ATOM     79  C   UNL     1      -1.012   0.216   5.547  1.00  0.00     0.003 A 
ATOM     80  N   UNL     1      -0.102  -1.821   5.679  1.00  0.00    -0.353 N 
ATOM     81  C   UNL     1      -1.032  -0.988   6.255  1.00  0.00     0.046 A 
ATOM     82  C   UNL     1      -1.865   1.257   5.953  1.00  0.00     0.010 A 
ATOM     83  H   UNL     1       0.077  -2.748   5.958  1.00  0.00     0.166 HD
ATOM     84  C   UNL     1      -1.872  -1.208   7.349  1.00  0.00     0.026 A 
ATOM     85  C   UNL     1      -2.695   1.061   7.062  1.00  0.00     0.001 A 
ATOM     86  C   UNL     1      -2.698  -0.154   7.745  1.00  0.00     0.002 A 
BRANCH  75  87
ATOM     87  C   UNL     1       2.849  -2.223   4.627  1.00  0.00     0.041 A 
ATOM     88  C   UNL     1       2.860  -3.333   5.494  1.00  0.00     0.093 A 
ATOM     89  C   UNL     1       4.213  -1.814   4.502  1.00  0.00     0.009 A 
ATOM     90  N   UNL     1       4.089  -3.736   6.022  1.00  0.00    -0.361 N 
ATOM     91  C   UNL     1       5.128  -3.053   5.463  1.00  0.00     0.046 A 
ATOM     92  C   UNL     1       5.169  -0.564   3.510  1.00  0.00     0.011 A 
ATOM     93  H   UNL     1       4.192  -4.430   6.713  1.00  0.00     0.166 HD
ATOM     94  C   UNL     1       7.010  -3.021   5.486  1.00  0.00     0.026 A 
ATOM     95  C   UNL     1       7.024  -0.548   3.521  1.00  0.00     0.001 A 
ATOM     96  C   UNL     1       7.939  -1.774   4.492  1.00  0.00     0.002 A 
ENDBRANCH  75  87
ENDBRANCH  69  71
ENDBRANCH  68  69
ENDBRANCH  67  68
ENDBRANCH   1  67
TORSDOF 15
