REMARK SMILES CCc1cc(N2CCC[C@H](C(=O)OCCOC(=O)c3ccc(-c4c5nc(c(-c6ccc(S(=O)(=O)[O-])cc6)c6ccc([nH]6)c(-c6ccc(S(=O)(=O)[O-])cc6)c6nc(c(-c7ccc(S(=O)(=O)[O-])cc7)c7ccc4[nH]7)C=C6)C=C5)cc3)C2)nc(-c2ccc(Cl)cc2)n1
REMARK SMILES IDX 15 1 14 2 13 3 11 4 12 5 10 6 6 7 7 8 79 9 8 10 9 11 5 12
REMARK SMILES IDX 3 13 4 14 89 15 81 16 80 17 2 18 1 19 82 20 83 21 88 22
REMARK SMILES IDX 84 23 87 24 85 25 86 26 16 27 17 28 18 29 19 30 20 31 78 32
REMARK SMILES IDX 21 33 77 34 22 35 23 36 24 37 71 38 25 39 76 40 70 41 72 42
REMARK SMILES IDX 26 43 75 44 69 45 68 46 27 48 57 49 38 50 56 51 39 52 42 53
REMARK SMILES IDX 55 54 73 55 40 56 41 57 54 59 74 60 43 61 28 62 29 63 37 64
REMARK SMILES IDX 30 65 36 66 31 67 32 68 33 69 34 70 35 71 58 72 59 73 67 74
REMARK SMILES IDX 60 75 66 76 61 77 62 78 63 79 64 80 65 81 44 82 45 83 53 84
REMARK SMILES IDX 46 85 52 86 47 87 48 88 49 89 50 90 51 91
REMARK H PARENT 72 47 42 58
REMARK Flexibility Score: inf
ROOT
ATOM      1  C   UNL     1       4.355  -7.956   1.156  1.00  0.00     0.275 C 
ENDROOT
BRANCH   1   2
ATOM      2  C   UNL     1       3.650  -6.741   0.555  1.00  0.00     0.274 C 
BRANCH   2   3
ATOM      3  O   UNL     1       4.468  -6.120  -0.449  1.00  0.00    -0.462 OA
BRANCH   3   4
ATOM      4  C   UNL     1       4.926  -4.867  -0.212  1.00  0.00     0.310 C 
ATOM      5  O   UNL     1       4.728  -4.234   0.820  1.00  0.00    -0.252 OA
BRANCH   4   6
ATOM      6  C   UNL     1       5.745  -4.310  -1.366  1.00  0.00     0.118 C 
ATOM      7  N   UNL     1       3.913  -3.500  -2.788  1.00  0.00    -0.356 N 
ATOM      8  C   UNL     1       4.159  -4.461  -3.854  1.00  0.00     0.118 C 
ATOM      9  C   UNL     1       5.040  -3.091  -1.953  1.00  0.00     0.133 C 
ATOM     10  C   UNL     1       4.933  -5.679  -3.364  1.00  0.00     0.022 C 
ATOM     11  C   UNL     1       6.118  -5.306  -2.470  1.00  0.00     0.019 C 
BRANCH   7  12
ATOM     12  C   UNL     1       2.634  -3.313  -2.289  1.00  0.00     0.132 A 
ATOM     13  C   UNL     1       0.942  -1.846  -1.510  1.00  0.00     0.046 A 
ATOM     14  C   UNL     1       2.221  -2.025  -1.991  1.00  0.00     0.070 A 
ATOM     15  N   UNL     1       0.112  -2.880  -1.303  1.00  0.00    -0.233 NA
ATOM     16  C   UNL     1       0.601  -4.100  -1.592  1.00  0.00     0.161 A 
ATOM     17  N   UNL     1       1.820  -4.366  -2.102  1.00  0.00    -0.211 NA
BRANCH  13  18
ATOM     18  C   UNL     1       0.435  -0.469  -1.178  1.00  0.00     0.053 C 
ATOM     19  C   UNL     1       0.992   0.040   0.142  1.00  0.00     0.011 C 
ENDBRANCH  13  18
BRANCH  16  20
ATOM     20  C   UNL     1      -0.274  -5.228  -1.270  1.00  0.00     0.019 A 
ATOM     21  C   UNL     1      -1.422  -5.493  -2.035  1.00  0.00     0.013 A 
ATOM     22  C   UNL     1      -0.025  -6.032  -0.145  1.00  0.00     0.013 A 
ATOM     23  C   UNL     1      -2.285  -6.540  -1.696  1.00  0.00     0.021 A 
ATOM     24  C   UNL     1      -0.882  -7.083   0.196  1.00  0.00     0.021 A 
ATOM     25  C   UNL     1      -2.009  -7.332  -0.583  1.00  0.00     0.041 A 
ATOM     26  Cl  UNL     1      -3.076  -8.614  -0.160  1.00  0.00    -0.084 Cl
ENDBRANCH  16  20
ENDBRANCH   7  12
ENDBRANCH   4   6
ENDBRANCH   3   4
ENDBRANCH   2   3
ENDBRANCH   1   2
BRANCH   1  27
ATOM     27  O   UNL     1       5.528  -7.559   1.882  1.00  0.00    -0.458 OA
BRANCH  27  28
ATOM     28  C   UNL     1       6.661  -7.526   1.142  1.00  0.00     0.338 C 
ATOM     29  O   UNL     1       6.806  -7.871  -0.017  1.00  0.00    -0.246 OA
BRANCH  28  30
ATOM     30  C   UNL     1       7.716  -6.863   1.916  1.00  0.00     0.060 A 
ATOM     31  C   UNL     1       8.217  -5.651   1.435  1.00  0.00     0.016 A 
ATOM     32  C   UNL     1       8.258  -7.465   3.050  1.00  0.00     0.016 A 
ATOM     33  C   UNL     1       9.284  -5.037   2.080  1.00  0.00     0.010 A 
ATOM     34  C   UNL     1       9.332  -6.849   3.696  1.00  0.00     0.010 A 
ATOM     35  C   UNL     1       9.860  -5.643   3.202  1.00  0.00    -0.014 A 
BRANCH  35  36
ATOM     36  C   UNL     1      11.080  -5.061   3.804  1.00  0.00     0.031 A 
ATOM     37  C   UNL     1      12.409  -5.709   3.539  1.00  0.00     0.074 A 
ATOM     38  C   UNL     1      10.996  -3.947   4.554  1.00  0.00     0.049 A 
ATOM     39  N   UNL     1      13.581  -5.423   4.040  1.00  0.00    -0.248 NA
ATOM     40  C   UNL     1      12.418  -6.828   2.580  1.00  0.00     0.031 C 
ATOM     41  C   UNL     1       9.769  -3.195   4.820  1.00  0.00     0.029 A 
ATOM     42  N   UNL     1      11.968  -3.254   5.228  1.00  0.00    -0.354 N 
ATOM     43  C   UNL     1      14.466  -6.332   3.472  1.00  0.00     0.074 A 
ATOM     44  C   UNL     1      13.693  -7.191   2.602  1.00  0.00     0.031 C 
ATOM     45  C   UNL     1      10.063  -2.140   5.598  1.00  0.00     0.029 A 
ATOM     46  C   UNL     1      11.486  -2.171   5.924  1.00  0.00     0.049 A 
ATOM     47  H   UNL     1      12.919  -3.507   5.214  1.00  0.00     0.167 HD
ATOM     48  C   UNL     1      15.803  -6.438   3.659  1.00  0.00     0.031 A 
ATOM     49  C   UNL     1      12.120  -1.320   6.753  1.00  0.00     0.031 A 
ATOM     50  C   UNL     1      16.561  -5.584   4.533  1.00  0.00     0.049 A 
ATOM     51  C   UNL     1      13.591  -1.510   7.008  1.00  0.00     0.074 A 
ATOM     52  C   UNL     1      17.914  -5.628   4.823  1.00  0.00     0.029 A 
ATOM     53  N   UNL     1      16.031  -4.525   5.254  1.00  0.00    -0.354 N 
ATOM     54  N   UNL     1      14.407  -2.403   6.498  1.00  0.00    -0.248 NA
ATOM     55  C   UNL     1      14.225  -0.581   7.953  1.00  0.00     0.031 C 
ATOM     56  C   UNL     1      18.195  -4.614   5.745  1.00  0.00     0.029 A 
ATOM     57  C   UNL     1      17.027  -3.911   5.993  1.00  0.00     0.049 A 
ATOM     58  H   UNL     1      15.086  -4.251   5.242  1.00  0.00     0.167 HD
ATOM     59  C   UNL     1      15.656  -2.126   7.042  1.00  0.00     0.074 A 
ATOM     60  C   UNL     1      15.490  -0.977   7.909  1.00  0.00     0.031 C 
ATOM     61  C   UNL     1      16.836  -2.764   6.843  1.00  0.00     0.031 A 
BRANCH  48  62
ATOM     62  C   UNL     1      16.519  -7.537   2.924  1.00  0.00    -0.014 A 
ATOM     63  C   UNL     1      16.762  -7.447   1.542  1.00  0.00     0.010 A 
ATOM     64  C   UNL     1      16.980  -8.664   3.629  1.00  0.00     0.010 A 
ATOM     65  C   UNL     1      17.423  -8.480   0.871  1.00  0.00     0.020 A 
ATOM     66  C   UNL     1      17.661  -9.689   2.966  1.00  0.00     0.020 A 
ATOM     67  C   UNL     1      17.864  -9.597   1.587  1.00  0.00     0.054 A 
BRANCH  67  68
ATOM     68  S   UNL     1      18.736 -10.916   0.697  1.00  0.00     0.124 S 
ATOM     69  O   UNL     1      17.641 -11.578  -0.007  1.00  0.00    -0.237 OA
ATOM     70  O   UNL     1      19.667 -10.173  -0.148  1.00  0.00    -0.237 OA
ATOM     71  O   UNL     1      19.357 -11.700   1.762  1.00  0.00    -0.744 OA
ENDBRANCH  67  68
ENDBRANCH  48  62
BRANCH  49  72
ATOM     72  C   UNL     1      11.365  -0.231   7.428  1.00  0.00    -0.014 A 
ATOM     73  C   UNL     1      11.585   1.113   7.081  1.00  0.00     0.010 A 
ATOM     74  C   UNL     1      10.430  -0.533   8.435  1.00  0.00     0.010 A 
ATOM     75  C   UNL     1      10.902   2.137   7.745  1.00  0.00     0.020 A 
ATOM     76  C   UNL     1       9.726   0.485   9.083  1.00  0.00     0.020 A 
ATOM     77  C   UNL     1       9.979   1.816   8.744  1.00  0.00     0.054 A 
BRANCH  77  78
ATOM     78  S   UNL     1       9.077   3.155   9.572  1.00  0.00     0.124 S 
ATOM     79  O   UNL     1      10.080   3.665  10.501  1.00  0.00    -0.237 OA
ATOM     80  O   UNL     1       8.733   4.042   8.463  1.00  0.00    -0.237 OA
ATOM     81  O   UNL     1       7.942   2.471  10.187  1.00  0.00    -0.744 OA
ENDBRANCH  77  78
ENDBRANCH  49  72
BRANCH  61  82
ATOM     82  C   UNL     1      18.045  -2.204   7.541  1.00  0.00    -0.014 A 
ATOM     83  C   UNL     1      18.242  -2.394   8.919  1.00  0.00     0.010 A 
ATOM     84  C   UNL     1      19.016  -1.514   6.793  1.00  0.00     0.010 A 
ATOM     85  C   UNL     1      19.379  -1.875   9.545  1.00  0.00     0.020 A 
ATOM     86  C   UNL     1      20.164  -1.014   7.412  1.00  0.00     0.020 A 
ATOM     87  C   UNL     1      20.331  -1.185   8.788  1.00  0.00     0.054 A 
BRANCH  87  88
ATOM     88  S   UNL     1      21.817  -0.552   9.613  1.00  0.00     0.124 S 
ATOM     89  O   UNL     1      21.307   0.639  10.285  1.00  0.00    -0.237 OA
ATOM     90  O   UNL     1      22.194  -1.657  10.491  1.00  0.00    -0.237 OA
ATOM     91  O   UNL     1      22.742  -0.299   8.510  1.00  0.00    -0.744 OA
ENDBRANCH  87  88
ENDBRANCH  61  82
ENDBRANCH  35  36
ENDBRANCH  28  30
ENDBRANCH  27  28
ENDBRANCH   1  27
TORSDOF 17
