REMARK SMILES COc1ccc2[nH]c(C(=O)c3cc(C)ccn3)c(CC(=O)OCCOC(=O)c3ccc(-c4c5nc(c(-c6ccc(S(=O)(=O)[O-])cc6)c6ccc([nH]6)c(-c6ccc(S(=O)(=O)[O-])cc6)c6nc(c(-c7ccc(S(=O)(=O)[O-])cc7)c7ccc4[nH]7)C=C6)C=C5)cc3)c2c1
REMARK SMILES IDX 23 1 22 2 20 3 21 4 19 5 18 6 3 7 4 8 89 9 5 10 88 11 6 12
REMARK SMILES IDX 7 13 8 14 2 16 1 17 9 18 10 19 11 20 12 21 17 22 13 23 16 24
REMARK SMILES IDX 14 25 15 26 24 27 25 28 26 29 27 30 28 31 29 32 87 33 30 34
REMARK SMILES IDX 86 35 31 36 32 37 33 38 80 39 34 40 85 41 79 42 81 43 35 44
REMARK SMILES IDX 84 45 78 46 77 47 36 49 66 50 47 51 65 52 48 53 51 54 64 55
REMARK SMILES IDX 82 56 49 57 50 58 63 60 83 61 52 62 37 63 38 64 46 65 39 66
REMARK SMILES IDX 45 67 40 68 41 69 42 70 43 71 44 72 67 73 68 74 76 75 69 76
REMARK SMILES IDX 75 77 70 78 71 79 72 80 73 81 74 82 53 83 54 84 62 85 55 86
REMARK SMILES IDX 61 87 56 88 57 89 58 90 59 91 60 92
REMARK H PARENT 7 15 81 48 51 59
REMARK Flexibility Score: inf
ROOT
ATOM      1  C   UNL     1      -2.972  -5.267  -4.980  1.00  0.00     0.274 C 
ENDROOT
BRANCH   1   2
ATOM      2  O   UNL     1      -1.960  -5.303  -3.953  1.00  0.00    -0.462 OA
BRANCH   2   3
ATOM      3  C   UNL     1      -2.415  -5.527  -2.690  1.00  0.00     0.310 C 
ATOM      4  O   UNL     1      -3.605  -5.612  -2.395  1.00  0.00    -0.252 OA
BRANCH   3   5
ATOM      5  C   UNL     1      -1.333  -5.725  -1.649  1.00  0.00     0.161 C 
BRANCH   5   6
ATOM      6  C   UNL     1       0.060  -5.338  -2.050  1.00  0.00     0.000 A 
ATOM      7  C   UNL     1       1.099  -1.851  -0.885  1.00  0.00     0.119 A 
ATOM      8  C   UNL     1       2.409  -1.926  -1.359  1.00  0.00     0.048 A 
ATOM      9  C   UNL     1       0.215  -2.911  -1.107  1.00  0.00     0.057 A 
ATOM     10  C   UNL     1       2.860  -3.048  -2.072  1.00  0.00     0.030 A 
ATOM     11  C   UNL     1       0.656  -4.066  -1.781  1.00  0.00     0.008 A 
ATOM     12  C   UNL     1       1.962  -4.104  -2.255  1.00  0.00     0.046 A 
ATOM     13  N   UNL     1       2.133  -5.330  -2.855  1.00  0.00    -0.352 N 
ATOM     14  C   UNL     1       1.066  -6.155  -2.567  1.00  0.00     0.093 A 
ATOM     15  H   UNL     1       2.906  -5.582  -3.410  1.00  0.00     0.167 HD
BRANCH   7  16
ATOM     16  O   UNL     1       0.567  -0.826  -0.151  1.00  0.00    -0.497 OA
ATOM     17  C   UNL     1       1.284   0.399  -0.152  1.00  0.00     0.278 C 
ENDBRANCH   7  16
BRANCH  14  18
ATOM     18  C   UNL     1       1.088  -7.604  -2.699  1.00  0.00     0.227 C 
ATOM     19  O   UNL     1       0.346  -8.345  -2.060  1.00  0.00    -0.285 OA
BRANCH  18  20
ATOM     20  C   UNL     1       2.135  -8.243  -3.531  1.00  0.00     0.113 A 
ATOM     21  C   UNL     1       3.218  -8.853  -2.907  1.00  0.00     0.036 A 
ATOM     22  N   UNL     1       1.945  -8.211  -4.870  1.00  0.00    -0.253 NA
ATOM     23  C   UNL     1       4.165  -9.492  -3.709  1.00  0.00    -0.047 A 
ATOM     24  C   UNL     1       2.827  -8.910  -5.613  1.00  0.00     0.112 A 
ATOM     25  C   UNL     1       5.382 -10.138  -3.116  1.00  0.00     0.044 C 
ATOM     26  C   UNL     1       3.941  -9.549  -5.088  1.00  0.00     0.023 A 
ENDBRANCH  18  20
ENDBRANCH  14  18
ENDBRANCH   5   6
ENDBRANCH   3   5
ENDBRANCH   2   3
ENDBRANCH   1   2
BRANCH   1  27
ATOM     27  C   UNL     1      -2.985  -6.576  -5.764  1.00  0.00     0.275 C 
BRANCH  27  28
ATOM     28  O   UNL     1      -3.049  -7.682  -4.849  1.00  0.00    -0.458 OA
BRANCH  28  29
ATOM     29  C   UNL     1      -2.063  -8.598  -4.977  1.00  0.00     0.338 C 
ATOM     30  O   UNL     1      -1.219  -8.641  -5.868  1.00  0.00    -0.246 OA
BRANCH  29  31
ATOM     31  C   UNL     1      -2.160  -9.615  -3.913  1.00  0.00     0.060 A 
ATOM     32  C   UNL     1      -2.476  -9.270  -2.598  1.00  0.00     0.016 A 
ATOM     33  C   UNL     1      -1.843 -10.938  -4.227  1.00  0.00     0.016 A 
ATOM     34  C   UNL     1      -2.385 -10.227  -1.586  1.00  0.00     0.010 A 
ATOM     35  C   UNL     1      -1.856 -11.915  -3.229  1.00  0.00     0.010 A 
ATOM     36  C   UNL     1      -2.098 -11.567  -1.890  1.00  0.00    -0.014 A 
BRANCH  36  37
ATOM     37  C   UNL     1      -2.069 -12.607  -0.825  1.00  0.00     0.031 A 
ATOM     38  C   UNL     1      -0.829 -13.430  -0.582  1.00  0.00     0.074 A 
ATOM     39  C   UNL     1      -3.174 -12.838  -0.087  1.00  0.00     0.049 A 
ATOM     40  N   UNL     1      -0.677 -14.486   0.178  1.00  0.00    -0.248 NA
ATOM     41  C   UNL     1       0.393 -13.025  -1.296  1.00  0.00     0.031 C 
ATOM     42  C   UNL     1      -4.438 -12.107  -0.198  1.00  0.00     0.029 A 
ATOM     43  N   UNL     1      -3.411 -13.757   0.906  1.00  0.00    -0.354 N 
ATOM     44  C   UNL     1       0.638 -14.902  -0.004  1.00  0.00     0.074 A 
ATOM     45  C   UNL     1       1.240 -13.986  -0.950  1.00  0.00     0.031 C 
ATOM     46  C   UNL     1      -5.301 -12.575   0.715  1.00  0.00     0.029 A 
ATOM     47  C   UNL     1      -4.684 -13.692   1.421  1.00  0.00     0.049 A 
ATOM     48  H   UNL     1      -2.735 -14.400   1.219  1.00  0.00     0.167 HD
ATOM     49  C   UNL     1       1.282 -15.951   0.564  1.00  0.00     0.031 A 
ATOM     50  C   UNL     1      -5.307 -14.463   2.331  1.00  0.00     0.031 A 
ATOM     51  C   UNL     1       0.695 -16.839   1.534  1.00  0.00     0.049 A 
ATOM     52  C   UNL     1      -4.579 -15.627   2.934  1.00  0.00     0.074 A 
ATOM     53  C   UNL     1       1.279 -17.918   2.179  1.00  0.00     0.029 A 
ATOM     54  N   UNL     1      -0.603 -16.747   2.011  1.00  0.00    -0.354 N 
ATOM     55  N   UNL     1      -3.350 -16.028   2.717  1.00  0.00    -0.248 NA
ATOM     56  C   UNL     1      -5.327 -16.451   3.892  1.00  0.00     0.031 C 
ATOM     57  C   UNL     1       0.322 -18.496   3.022  1.00  0.00     0.029 A 
ATOM     58  C   UNL     1      -0.844 -17.754   2.931  1.00  0.00     0.049 A 
ATOM     59  H   UNL     1      -1.258 -16.065   1.736  1.00  0.00     0.167 HD
ATOM     60  C   UNL     1      -3.176 -17.153   3.513  1.00  0.00     0.074 A 
ATOM     61  C   UNL     1      -4.418 -17.354   4.233  1.00  0.00     0.031 C 
ATOM     62  C   UNL     1      -2.087 -17.951   3.630  1.00  0.00     0.031 A 
BRANCH  49  63
ATOM     63  C   UNL     1       2.698 -16.218   0.126  1.00  0.00    -0.014 A 
ATOM     64  C   UNL     1       3.764 -15.418   0.572  1.00  0.00     0.010 A 
ATOM     65  C   UNL     1       2.969 -17.318  -0.709  1.00  0.00     0.010 A 
ATOM     66  C   UNL     1       5.072 -15.691   0.158  1.00  0.00     0.020 A 
ATOM     67  C   UNL     1       4.277 -17.606  -1.108  1.00  0.00     0.020 A 
ATOM     68  C   UNL     1       5.319 -16.778  -0.687  1.00  0.00     0.054 A 
BRANCH  68  69
ATOM     69  S   UNL     1       7.025 -17.114  -1.205  1.00  0.00     0.124 S 
ATOM     70  O   UNL     1       7.233 -16.093  -2.229  1.00  0.00    -0.237 OA
ATOM     71  O   UNL     1       7.783 -16.925   0.030  1.00  0.00    -0.237 OA
ATOM     72  O   UNL     1       6.974 -18.488  -1.696  1.00  0.00    -0.744 OA
ENDBRANCH  68  69
ENDBRANCH  49  63
BRANCH  50  73
ATOM     73  C   UNL     1      -6.719 -14.170   2.694  1.00  0.00    -0.014 A 
ATOM     74  C   UNL     1      -7.030 -13.597   3.938  1.00  0.00     0.010 A 
ATOM     75  C   UNL     1      -7.753 -14.423   1.774  1.00  0.00     0.010 A 
ATOM     76  C   UNL     1      -8.354 -13.283   4.258  1.00  0.00     0.020 A 
ATOM     77  C   UNL     1      -9.073 -14.087   2.081  1.00  0.00     0.020 A 
ATOM     78  C   UNL     1      -9.367 -13.527   3.326  1.00  0.00     0.054 A 
BRANCH  78  79
ATOM     79  S   UNL     1     -11.069 -13.043   3.724  1.00  0.00     0.124 S 
ATOM     80  O   UNL     1     -11.512 -14.155   4.559  1.00  0.00    -0.237 OA
ATOM     81  O   UNL     1     -10.888 -11.767   4.414  1.00  0.00    -0.237 OA
ATOM     82  O   UNL     1     -11.709 -12.946   2.414  1.00  0.00    -0.744 OA
ENDBRANCH  78  79
ENDBRANCH  50  73
BRANCH  62  83
ATOM     83  C   UNL     1      -2.192 -19.108   4.583  1.00  0.00    -0.014 A 
ATOM     84  C   UNL     1      -2.915 -20.264   4.238  1.00  0.00     0.010 A 
ATOM     85  C   UNL     1      -1.542 -19.048   5.829  1.00  0.00     0.010 A 
ATOM     86  C   UNL     1      -3.013 -21.329   5.137  1.00  0.00     0.020 A 
ATOM     87  C   UNL     1      -1.623 -20.119   6.722  1.00  0.00     0.020 A 
ATOM     88  C   UNL     1      -2.372 -21.247   6.377  1.00  0.00     0.054 A 
BRANCH  88  89
ATOM     89  S   UNL     1      -2.488 -22.651   7.520  1.00  0.00     0.124 S 
ATOM     90  O   UNL     1      -3.819 -22.466   8.093  1.00  0.00    -0.237 OA
ATOM     91  O   UNL     1      -2.340 -23.804   6.635  1.00  0.00    -0.237 OA
ATOM     92  O   UNL     1      -1.376 -22.436   8.443  1.00  0.00    -0.744 OA
ENDBRANCH  88  89
ENDBRANCH  62  83
ENDBRANCH  36  37
ENDBRANCH  29  31
ENDBRANCH  28  29
ENDBRANCH  27  28
ENDBRANCH   1  27
TORSDOF 18
