REMARK SMILES O=C(OCCOC(=O)[C@H]1[C@H]2CC[C@H](C2)[C@@H]1C(=O)Nc1sc2c(c1C(=O)NC1CCCCC1)CCCC2)c1ccc(-c2c3nc(c(-c4ccc(S(=O)(=O)[O-])cc4)c4ccc([nH]4)c(-c4ccc(S(=O)(=O)[O-])cc4)c4nc(c(-c5ccc(S(=O)(=O)[O-])cc5)c5ccc2[nH]5)C=C4)C=C3)cc1
REMARK SMILES IDX 5 1 4 2 3 3 2 4 1 5 37 6 38 7 96 8 39 9 95 10 40 11 41 12
REMARK SMILES IDX 42 13 89 14 43 15 94 16 88 17 90 18 44 19 93 20 87 21 86 22
REMARK SMILES IDX 45 24 75 25 56 26 74 27 57 28 60 29 73 30 91 31 58 32 59 33
REMARK SMILES IDX 72 35 92 36 61 37 46 38 47 39 55 40 48 41 54 42 49 43 50 44
REMARK SMILES IDX 51 45 52 46 53 47 76 48 77 49 85 50 78 51 84 52 79 53 80 54
REMARK SMILES IDX 81 55 82 56 83 57 62 58 63 59 71 60 64 61 70 62 65 63 66 64
REMARK SMILES IDX 67 65 68 66 69 67 6 68 7 69 8 70 9 71 10 72 15 73 11 74
REMARK SMILES IDX 14 75 13 76 12 77 16 78 17 79 18 80 19 82 20 83 23 84 21 85
REMARK SMILES IDX 22 86 36 87 33 88 35 89 34 90 24 91 25 92 26 93 27 95 28 96
REMARK SMILES IDX 32 97 29 98 31 99 30 100
REMARK H PARENT 90 23 60 34 18 81 26 94
REMARK Flexibility Score: inf
ROOT
ATOM      1  C   UNL     1       5.820   0.608   5.149  1.00  0.00     0.274 C 
ENDROOT
BRANCH   1   2
ATOM      2  C   UNL     1       6.580  -0.608   4.620  1.00  0.00     0.275 C 
BRANCH   2   3
ATOM      3  O   UNL     1       6.593  -0.712   3.179  1.00  0.00    -0.458 OA
BRANCH   3   4
ATOM      4  C   UNL     1       5.627  -1.088   2.306  1.00  0.00     0.338 C 
ATOM      5  O   UNL     1       5.809  -0.848   1.111  1.00  0.00    -0.246 OA
BRANCH   4   6
ATOM      6  C   UNL     1       4.332  -1.758   2.678  1.00  0.00     0.060 A 
ATOM      7  C   UNL     1       4.082  -2.521   3.826  1.00  0.00     0.016 A 
ATOM      8  C   UNL     1       3.284  -1.638   1.746  1.00  0.00     0.016 A 
ATOM      9  C   UNL     1       2.805  -3.075   4.081  1.00  0.00     0.010 A 
ATOM     10  C   UNL     1       2.022  -2.199   1.990  1.00  0.00     0.010 A 
ATOM     11  C   UNL     1       1.758  -2.913   3.171  1.00  0.00    -0.014 A 
BRANCH  11  12
ATOM     12  C   UNL     1       0.431  -3.578   3.339  1.00  0.00     0.031 A 
ATOM     13  C   UNL     1       0.145  -4.792   2.507  1.00  0.00     0.074 A 
ATOM     14  C   UNL     1      -0.559  -3.065   4.101  1.00  0.00     0.049 A 
ATOM     15  N   UNL     1      -0.963  -5.475   2.412  1.00  0.00    -0.248 NA
ATOM     16  C   UNL     1       1.252  -5.306   1.685  1.00  0.00     0.031 C 
ATOM     17  C   UNL     1      -0.416  -1.942   5.011  1.00  0.00     0.029 A 
ATOM     18  N   UNL     1      -1.904  -3.353   4.174  1.00  0.00    -0.354 N 
ATOM     19  C   UNL     1      -0.662  -6.549   1.590  1.00  0.00     0.074 A 
ATOM     20  C   UNL     1       0.687  -6.354   1.107  1.00  0.00     0.031 C 
ATOM     21  C   UNL     1      -1.628  -1.501   5.391  1.00  0.00     0.029 A 
ATOM     22  C   UNL     1      -2.638  -2.391   4.843  1.00  0.00     0.049 A 
ATOM     23  H   UNL     1      -2.303  -4.165   3.787  1.00  0.00     0.167 HD
ATOM     24  C   UNL     1      -1.418  -7.639   1.328  1.00  0.00     0.031 A 
ATOM     25  C   UNL     1      -3.969  -2.248   5.009  1.00  0.00     0.031 A 
ATOM     26  C   UNL     1      -2.776  -7.796   1.770  1.00  0.00     0.049 A 
ATOM     27  C   UNL     1      -4.845  -3.396   4.590  1.00  0.00     0.074 A 
ATOM     28  C   UNL     1      -3.627  -8.870   1.591  1.00  0.00     0.029 A 
ATOM     29  N   UNL     1      -3.488  -6.831   2.469  1.00  0.00    -0.354 N 
ATOM     30  N   UNL     1      -4.512  -4.471   3.914  1.00  0.00    -0.248 NA
ATOM     31  C   UNL     1      -6.241  -3.371   5.044  1.00  0.00     0.031 C 
ATOM     32  C   UNL     1      -4.869  -8.537   2.147  1.00  0.00     0.029 A 
ATOM     33  C   UNL     1      -4.774  -7.276   2.716  1.00  0.00     0.049 A 
ATOM     34  H   UNL     1      -3.131  -5.957   2.748  1.00  0.00     0.167 HD
ATOM     35  C   UNL     1      -5.633  -5.290   3.939  1.00  0.00     0.074 A 
ATOM     36  C   UNL     1      -6.659  -4.572   4.670  1.00  0.00     0.031 C 
ATOM     37  C   UNL     1      -5.783  -6.540   3.436  1.00  0.00     0.031 A 
BRANCH  24  38
ATOM     38  C   UNL     1      -0.744  -8.742   0.564  1.00  0.00    -0.014 A 
ATOM     39  C   UNL     1       0.307  -9.469   1.161  1.00  0.00     0.010 A 
ATOM     40  C   UNL     1      -1.116  -9.033  -0.757  1.00  0.00     0.010 A 
ATOM     41  C   UNL     1       1.017 -10.420   0.428  1.00  0.00     0.020 A 
ATOM     42  C   UNL     1      -0.425 -10.006  -1.486  1.00  0.00     0.020 A 
ATOM     43  C   UNL     1       0.652 -10.675  -0.896  1.00  0.00     0.054 A 
BRANCH  43  44
ATOM     44  S   UNL     1       1.605 -11.900  -1.831  1.00  0.00     0.124 S 
ATOM     45  O   UNL     1       2.848 -11.178  -2.091  1.00  0.00    -0.237 OA
ATOM     46  O   UNL     1       1.710 -13.011  -0.889  1.00  0.00    -0.237 OA
ATOM     47  O   UNL     1       0.776 -12.158  -3.006  1.00  0.00    -0.744 OA
ENDBRANCH  43  44
ENDBRANCH  24  38
BRANCH  25  48
ATOM     48  C   UNL     1      -4.549  -1.053   5.691  1.00  0.00    -0.014 A 
ATOM     49  C   UNL     1      -4.989  -1.128   7.025  1.00  0.00     0.010 A 
ATOM     50  C   UNL     1      -4.699   0.165   5.000  1.00  0.00     0.010 A 
ATOM     51  C   UNL     1      -5.601  -0.029   7.641  1.00  0.00     0.020 A 
ATOM     52  C   UNL     1      -5.295   1.274   5.618  1.00  0.00     0.020 A 
ATOM     53  C   UNL     1      -5.755   1.165   6.932  1.00  0.00     0.054 A 
BRANCH  53  54
ATOM     54  S   UNL     1      -6.542   2.577   7.765  1.00  0.00     0.124 S 
ATOM     55  O   UNL     1      -7.930   2.136   7.867  1.00  0.00    -0.237 OA
ATOM     56  O   UNL     1      -5.808   2.645   9.026  1.00  0.00    -0.237 OA
ATOM     57  O   UNL     1      -6.305   3.691   6.851  1.00  0.00    -0.744 OA
ENDBRANCH  53  54
ENDBRANCH  25  48
BRANCH  37  58
ATOM     58  C   UNL     1      -7.092  -7.227   3.703  1.00  0.00    -0.014 A 
ATOM     59  C   UNL     1      -8.271  -6.834   3.048  1.00  0.00     0.010 A 
ATOM     60  C   UNL     1      -7.128  -8.309   4.602  1.00  0.00     0.010 A 
ATOM     61  C   UNL     1      -9.473  -7.492   3.312  1.00  0.00     0.020 A 
ATOM     62  C   UNL     1      -8.323  -8.988   4.846  1.00  0.00     0.020 A 
ATOM     63  C   UNL     1      -9.491  -8.566   4.209  1.00  0.00     0.054 A 
BRANCH  63  64
ATOM     64  S   UNL     1     -11.055  -9.435   4.497  1.00  0.00     0.124 S 
ATOM     65  O   UNL     1     -11.774  -8.491   5.347  1.00  0.00    -0.237 OA
ATOM     66  O   UNL     1     -11.585  -9.596   3.146  1.00  0.00    -0.237 OA
ATOM     67  O   UNL     1     -10.645 -10.676   5.151  1.00  0.00    -0.744 OA
ENDBRANCH  63  64
ENDBRANCH  37  58
ENDBRANCH  11  12
ENDBRANCH   4   6
ENDBRANCH   3   4
ENDBRANCH   2   3
ENDBRANCH   1   2
BRANCH   1  68
ATOM     68  O   UNL     1       4.583   0.721   4.450  1.00  0.00    -0.462 OA
BRANCH  68  69
ATOM     69  C   UNL     1       4.074   1.957   4.150  1.00  0.00     0.310 C 
ATOM     70  O   UNL     1       4.595   3.021   4.420  1.00  0.00    -0.252 OA
BRANCH  69  71
ATOM     71  C   UNL     1       2.765   1.727   3.409  1.00  0.00     0.115 C 
ATOM     72  C   UNL     1       1.988   0.623   4.175  1.00  0.00     0.004 C 
ATOM     73  C   UNL     1       1.696   2.850   3.337  1.00  0.00     0.096 C 
ATOM     74  C   UNL     1       1.654   1.053   5.610  1.00  0.00     0.005 C 
ATOM     75  C   UNL     1       0.670   0.710   3.459  1.00  0.00     0.009 C 
ATOM     76  C   UNL     1       0.432   2.157   3.862  1.00  0.00     0.003 C 
ATOM     77  C   UNL     1       0.500   2.028   5.398  1.00  0.00     0.005 C 
BRANCH  73  78
ATOM     78  C   UNL     1       1.559   3.525   1.959  1.00  0.00     0.229 C 
ATOM     79  O   UNL     1       2.034   4.670   1.857  1.00  0.00    -0.274 OA
ATOM     80  N   UNL     1       1.133   2.976   0.788  1.00  0.00    -0.317 N 
ATOM     81  H   UNL     1       1.399   3.519   0.011  1.00  0.00     0.170 HD
BRANCH  80  82
ATOM     82  C   UNL     1       0.419   1.849   0.411  1.00  0.00     0.108 A 
ATOM     83  S   UNL     1      -1.145   1.651   1.044  1.00  0.00    -0.122 S 
ATOM     84  C   UNL     1       0.662   0.995  -0.695  1.00  0.00     0.078 A 
ATOM     85  C   UNL     1      -1.211   0.073   0.440  1.00  0.00     0.011 A 
ATOM     86  C   UNL     1      -0.305  -0.127  -0.598  1.00  0.00    -0.019 A 
ATOM     87  C   UNL     1      -2.217  -0.915   0.963  1.00  0.00     0.047 C 
ATOM     88  C   UNL     1      -0.433  -1.403  -1.385  1.00  0.00     0.037 C 
ATOM     89  C   UNL     1      -1.806  -2.333   0.574  1.00  0.00     0.006 C 
ATOM     90  C   UNL     1      -1.502  -2.410  -0.911  1.00  0.00     0.005 C 
BRANCH  84  91
ATOM     91  C   UNL     1       1.800   1.407  -1.572  1.00  0.00     0.254 C 
ATOM     92  O   UNL     1       2.339   2.510  -1.361  1.00  0.00    -0.269 OA
ATOM     93  N   UNL     1       2.417   0.842  -2.644  1.00  0.00    -0.349 N 
ATOM     94  H   UNL     1       3.087   1.488  -2.965  1.00  0.00     0.164 HD
BRANCH  93  95
ATOM     95  C   UNL     1       2.497  -0.326  -3.516  1.00  0.00     0.082 C 
ATOM     96  C   UNL     1       3.437  -1.389  -2.950  1.00  0.00     0.025 C 
ATOM     97  C   UNL     1       1.172  -0.744  -4.123  1.00  0.00     0.025 C 
ATOM     98  C   UNL     1       3.337  -2.709  -3.695  1.00  0.00     0.002 C 
ATOM     99  C   UNL     1       0.999  -2.229  -4.446  1.00  0.00     0.002 C 
ATOM    100  C   UNL     1       1.899  -3.190  -3.676  1.00  0.00     0.000 C 
ENDBRANCH  93  95
ENDBRANCH  84  91
ENDBRANCH  80  82
ENDBRANCH  73  78
ENDBRANCH  69  71
ENDBRANCH  68  69
ENDBRANCH   1  68
TORSDOF 18
