REMARK SMILES O=C(CC1(CC(=O)OCCOC(=O)c2ccc(-c3c4nc(c(-c5ccc(S(=O)(=O)[O-])cc5)c5ccc([nH]5)c(-c5ccc(S(=O)(=O)[O-])cc5)c5nc(c(-c6ccc(S(=O)(=O)[O-])cc6)c6ccc3[nH]6)C=C5)C=C4)cc2)CCCCC1)Nc1ccc2ccccc2n1
REMARK SMILES IDX 9 1 8 2 6 3 7 4 5 5 4 6 74 7 78 8 75 9 77 10 76 11 3 12 2 13
REMARK SMILES IDX 1 14 79 15 80 17 81 18 89 19 82 20 88 21 83 22 87 23 84 24
REMARK SMILES IDX 86 25 85 26 10 27 11 28 12 29 13 30 14 31 15 32 73 33 16 34
REMARK SMILES IDX 72 35 17 36 18 37 19 38 66 39 20 40 71 41 65 42 67 43 21 44
REMARK SMILES IDX 70 45 64 46 63 47 22 49 52 50 33 51 51 52 34 53 37 54 50 55
REMARK SMILES IDX 68 56 35 57 36 58 49 60 69 61 38 62 23 63 24 64 32 65 25 66
REMARK SMILES IDX 31 67 26 68 27 69 28 70 29 71 30 72 53 73 54 74 62 75 55 76
REMARK SMILES IDX 61 77 56 78 57 79 58 80 59 81 60 82 39 83 40 84 48 85 41 86
REMARK SMILES IDX 47 87 42 88 43 89 44 90 45 91 46 92
REMARK H PARENT 79 16 67 48 37 59
REMARK Flexibility Score: inf
ROOT
ATOM      1  C   UNL     1       6.309  -1.991  -3.559  1.00  0.00     0.274 C 
ENDROOT
BRANCH   1   2
ATOM      2  O   UNL     1       5.661  -0.882  -2.902  1.00  0.00    -0.462 OA
BRANCH   2   3
ATOM      3  C   UNL     1       5.035  -0.012  -3.729  1.00  0.00     0.306 C 
ATOM      4  O   UNL     1       4.934  -0.164  -4.942  1.00  0.00    -0.252 OA
BRANCH   3   5
ATOM      5  C   UNL     1       4.531   1.251  -3.058  1.00  0.00     0.130 C 
BRANCH   5   6
ATOM      6  C   UNL     1       4.274   1.342  -1.523  1.00  0.00    -0.010 C 
ATOM      7  C   UNL     1       3.727   2.778  -1.233  1.00  0.00     0.008 C 
ATOM      8  C   UNL     1       5.553   1.165  -0.669  1.00  0.00     0.008 C 
ATOM      9  C   UNL     1       4.750   3.889  -1.464  1.00  0.00     0.001 C 
ATOM     10  C   UNL     1       6.601   2.240  -0.928  1.00  0.00     0.001 C 
ATOM     11  C   UNL     1       6.039   3.636  -0.690  1.00  0.00     0.000 C 
BRANCH   6  12
ATOM     12  C   UNL     1       3.261   0.245  -1.110  1.00  0.00     0.108 C 
BRANCH  12  13
ATOM     13  C   UNL     1       2.039   0.741  -0.367  1.00  0.00     0.226 C 
ATOM     14  O   UNL     1       1.099   1.206  -1.005  1.00  0.00    -0.275 OA
ATOM     15  N   UNL     1       2.112   0.522   1.000  1.00  0.00    -0.311 N 
ATOM     16  H   UNL     1       2.982   0.467   1.458  1.00  0.00     0.171 HD
BRANCH  15  17
ATOM     17  C   UNL     1       0.913   0.381   1.712  1.00  0.00     0.133 A 
ATOM     18  C   UNL     1       0.754  -0.846   2.338  1.00  0.00     0.048 A 
ATOM     19  N   UNL     1      -0.103   1.221   1.460  1.00  0.00    -0.231 NA
ATOM     20  C   UNL     1      -0.533  -1.359   2.397  1.00  0.00     0.014 A 
ATOM     21  C   UNL     1      -1.347   0.730   1.518  1.00  0.00     0.073 A 
ATOM     22  C   UNL     1      -1.601  -0.602   1.901  1.00  0.00     0.000 A 
ATOM     23  C   UNL     1      -2.410   1.516   1.099  1.00  0.00     0.029 A 
ATOM     24  C   UNL     1      -2.880  -1.149   1.727  1.00  0.00     0.010 A 
ATOM     25  C   UNL     1      -3.689   0.980   0.942  1.00  0.00     0.002 A 
ATOM     26  C   UNL     1      -3.914  -0.364   1.223  1.00  0.00     0.001 A 
ENDBRANCH  15  17
ENDBRANCH  12  13
ENDBRANCH   6  12
ENDBRANCH   5   6
ENDBRANCH   3   5
ENDBRANCH   2   3
ENDBRANCH   1   2
BRANCH   1  27
ATOM     27  C   UNL     1       5.475  -3.270  -3.503  1.00  0.00     0.275 C 
BRANCH  27  28
ATOM     28  O   UNL     1       4.191  -3.080  -4.117  1.00  0.00    -0.458 OA
BRANCH  28  29
ATOM     29  C   UNL     1       3.156  -2.948  -3.260  1.00  0.00     0.338 C 
ATOM     30  O   UNL     1       3.190  -3.017  -2.037  1.00  0.00    -0.246 OA
BRANCH  29  31
ATOM     31  C   UNL     1       1.933  -2.651  -4.013  1.00  0.00     0.060 A 
ATOM     32  C   UNL     1       1.651  -1.328  -4.357  1.00  0.00     0.016 A 
ATOM     33  C   UNL     1       1.015  -3.666  -4.278  1.00  0.00     0.016 A 
ATOM     34  C   UNL     1       0.424  -1.003  -4.927  1.00  0.00     0.010 A 
ATOM     35  C   UNL     1      -0.196  -3.345  -4.898  1.00  0.00     0.010 A 
ATOM     36  C   UNL     1      -0.508  -2.009  -5.207  1.00  0.00    -0.014 A 
BRANCH  36  37
ATOM     37  C   UNL     1      -1.823  -1.665  -5.799  1.00  0.00     0.031 A 
ATOM     38  C   UNL     1      -3.079  -1.840  -4.994  1.00  0.00     0.074 A 
ATOM     39  C   UNL     1      -1.889  -1.207  -7.063  1.00  0.00     0.049 A 
ATOM     40  N   UNL     1      -4.325  -1.749  -5.379  1.00  0.00    -0.248 NA
ATOM     41  C   UNL     1      -2.909  -2.176  -3.571  1.00  0.00     0.031 C 
ATOM     42  C   UNL     1      -0.738  -0.947  -7.931  1.00  0.00     0.029 A 
ATOM     43  N   UNL     1      -2.973  -0.885  -7.840  1.00  0.00    -0.354 N 
ATOM     44  C   UNL     1      -5.090  -2.055  -4.260  1.00  0.00     0.074 A 
ATOM     45  C   UNL     1      -4.165  -2.343  -3.183  1.00  0.00     0.031 C 
ATOM     46  C   UNL     1      -1.177  -0.500  -9.118  1.00  0.00     0.029 A 
ATOM     47  C   UNL     1      -2.637  -0.499  -9.115  1.00  0.00     0.049 A 
ATOM     48  H   UNL     1      -3.901  -0.926  -7.515  1.00  0.00     0.167 HD
ATOM     49  C   UNL     1      -6.439  -2.095  -4.144  1.00  0.00     0.031 A 
ATOM     50  C   UNL     1      -3.414  -0.213 -10.177  1.00  0.00     0.031 A 
ATOM     51  C   UNL     1      -7.351  -1.783  -5.213  1.00  0.00     0.049 A 
ATOM     52  C   UNL     1      -4.907  -0.297 -10.036  1.00  0.00     0.074 A 
ATOM     53  C   UNL     1      -8.735  -1.780  -5.192  1.00  0.00     0.029 A 
ATOM     54  N   UNL     1      -6.970  -1.411  -6.494  1.00  0.00    -0.354 N 
ATOM     55  N   UNL     1      -5.617  -0.620  -8.981  1.00  0.00    -0.248 NA
ATOM     56  C   UNL     1      -5.704   0.015 -11.230  1.00  0.00     0.031 C 
ATOM     57  C   UNL     1      -9.191  -1.443  -6.472  1.00  0.00     0.029 A 
ATOM     58  C   UNL     1      -8.091  -1.192  -7.277  1.00  0.00     0.049 A 
ATOM     59  H   UNL     1      -6.040  -1.317  -6.802  1.00  0.00     0.167 HD
ATOM     60  C   UNL     1      -6.946  -0.537  -9.379  1.00  0.00     0.074 A 
ATOM     61  C   UNL     1      -6.941  -0.120 -10.768  1.00  0.00     0.031 C 
ATOM     62  C   UNL     1      -8.068  -0.785  -8.660  1.00  0.00     0.031 A 
BRANCH  49  63
ATOM     63  C   UNL     1      -7.005  -2.539  -2.823  1.00  0.00    -0.014 A 
ATOM     64  C   UNL     1      -6.967  -1.706  -1.691  1.00  0.00     0.010 A 
ATOM     65  C   UNL     1      -7.594  -3.813  -2.718  1.00  0.00     0.010 A 
ATOM     66  C   UNL     1      -7.465  -2.159  -0.466  1.00  0.00     0.020 A 
ATOM     67  C   UNL     1      -8.112  -4.260  -1.500  1.00  0.00     0.020 A 
ATOM     68  C   UNL     1      -8.022  -3.438  -0.375  1.00  0.00     0.054 A 
BRANCH  68  69
ATOM     69  S   UNL     1      -8.638  -4.012   1.231  1.00  0.00     0.124 S 
ATOM     70  O   UNL     1      -7.396  -4.342   1.925  1.00  0.00    -0.237 OA
ATOM     71  O   UNL     1      -9.348  -2.842   1.742  1.00  0.00    -0.237 OA
ATOM     72  O   UNL     1      -9.485  -5.152   0.891  1.00  0.00    -0.744 OA
ENDBRANCH  68  69
ENDBRANCH  49  63
BRANCH  50  73
ATOM     73  C   UNL     1      -2.780   0.148 -11.472  1.00  0.00    -0.014 A 
ATOM     74  C   UNL     1      -2.806   1.473 -11.936  1.00  0.00     0.010 A 
ATOM     75  C   UNL     1      -2.101  -0.830 -12.224  1.00  0.00     0.010 A 
ATOM     76  C   UNL     1      -2.164   1.817 -13.130  1.00  0.00     0.020 A 
ATOM     77  C   UNL     1      -1.438  -0.486 -13.404  1.00  0.00     0.020 A 
ATOM     78  C   UNL     1      -1.479   0.836 -13.853  1.00  0.00     0.054 A 
BRANCH  78  79
ATOM     79  S   UNL     1      -0.582   1.317 -15.355  1.00  0.00     0.124 S 
ATOM     80  O   UNL     1      -1.664   1.452 -16.325  1.00  0.00    -0.237 OA
ATOM     81  O   UNL     1       0.067   2.563 -14.954  1.00  0.00    -0.237 OA
ATOM     82  O   UNL     1       0.328   0.197 -15.583  1.00  0.00    -0.744 OA
ENDBRANCH  78  79
ENDBRANCH  50  73
BRANCH  62  83
ATOM     83  C   UNL     1      -9.386  -0.591  -9.357  1.00  0.00    -0.014 A 
ATOM     84  C   UNL     1      -9.856  -1.526 -10.295  1.00  0.00     0.010 A 
ATOM     85  C   UNL     1     -10.186   0.520  -9.032  1.00  0.00     0.010 A 
ATOM     86  C   UNL     1     -11.093  -1.340 -10.918  1.00  0.00     0.020 A 
ATOM     87  C   UNL     1     -11.433   0.698  -9.637  1.00  0.00     0.020 A 
ATOM     88  C   UNL     1     -11.873  -0.227 -10.586  1.00  0.00     0.054 A 
BRANCH  88  89
ATOM     89  S   UNL     1     -13.494  -0.027 -11.375  1.00  0.00     0.124 S 
ATOM     90  O   UNL     1     -13.128   0.459 -12.703  1.00  0.00    -0.237 OA
ATOM     91  O   UNL     1     -14.044  -1.380 -11.331  1.00  0.00    -0.237 OA
ATOM     92  O   UNL     1     -14.176   0.943 -10.521  1.00  0.00    -0.744 OA
ENDBRANCH  88  89
ENDBRANCH  62  83
ENDBRANCH  36  37
ENDBRANCH  29  31
ENDBRANCH  28  29
ENDBRANCH  27  28
ENDBRANCH   1  27
TORSDOF 18
