REMARK SMILES NS(=O)(=O)c1ccc(-c2cc(Cl)cc3c2O[C@H](C(F)(F)F)C(C(=O)OCCOC(=O)c2ccc(-c4c5nc(c(-c6ccc(S(=O)(=O)[O-])cc6)c6ccc([nH]6)c(-c6ccc(S(=O)(=O)[O-])cc6)c6nc(c(-c7ccc(S(=O)(=O)[O-])cc7)c7ccc4[nH]7)C=C6)C=C5)cc2)=C3)cc1
REMARK SMILES IDX 26 1 25 2 23 3 24 4 22 5 9 6 10 7 15 8 11 9 14 10 16 11
REMARK SMILES IDX 12 12 13 13 91 14 17 15 8 16 5 17 6 18 93 19 7 20 92 21 2 22
REMARK SMILES IDX 3 23 4 24 1 25 18 28 19 29 20 30 21 31 27 32 28 33 29 34
REMARK SMILES IDX 30 35 31 36 32 37 90 38 33 39 89 40 34 41 35 42 36 43 83 44
REMARK SMILES IDX 37 45 88 46 82 47 84 48 38 49 87 50 81 51 80 52 39 54 69 55
REMARK SMILES IDX 50 56 68 57 51 58 54 59 67 60 85 61 52 62 53 63 66 65 86 66
REMARK SMILES IDX 55 67 40 68 41 69 49 70 42 71 48 72 43 73 44 74 45 75 46 76
REMARK SMILES IDX 47 77 70 78 71 79 79 80 72 81 78 82 73 83 74 84 75 85 76 86
REMARK SMILES IDX 77 87 56 88 57 89 65 90 58 91 64 92 59 93 60 94 61 95 62 96
REMARK SMILES IDX 63 97
REMARK H PARENT 1 26 1 27 84 53 54 64
REMARK Flexibility Score: inf
ROOT
ATOM      1  C   UNL     1       2.999 -11.717  -6.378  1.00  0.00     0.275 C 
ENDROOT
BRANCH   1   2
ATOM      2  O   UNL     1       3.946 -10.880  -5.683  1.00  0.00    -0.459 OA
BRANCH   2   3
ATOM      3  C   UNL     1       4.835 -10.297  -6.527  1.00  0.00     0.338 C 
ATOM      4  O   UNL     1       4.952 -10.567  -7.717  1.00  0.00    -0.246 OA
BRANCH   3   5
ATOM      5  C   UNL     1       5.560  -9.168  -5.902  1.00  0.00     0.087 C 
ATOM      6  C   UNL     1       3.696  -6.373  -3.560  1.00  0.00     0.026 A 
ATOM      7  C   UNL     1       2.389  -6.222  -4.078  1.00  0.00     0.033 A 
ATOM      8  C   UNL     1       4.563  -7.136  -4.336  1.00  0.00     0.135 A 
ATOM      9  C   UNL     1       2.015  -6.656  -5.350  1.00  0.00     0.042 A 
ATOM     10  C   UNL     1       4.240  -7.383  -5.690  1.00  0.00     0.019 A 
ATOM     11  O   UNL     1       5.705  -7.741  -3.844  1.00  0.00    -0.475 OA
ATOM     12  Cl  UNL     1       0.398  -6.547  -5.913  1.00  0.00    -0.084 Cl
ATOM     13  C   UNL     1       2.970  -7.168  -6.199  1.00  0.00     0.032 A 
ATOM     14  C   UNL     1       5.263  -8.024  -6.539  1.00  0.00     0.027 C 
ATOM     15  C   UNL     1       5.863  -9.111  -4.412  1.00  0.00     0.316 C 
BRANCH   6  16
ATOM     16  C   UNL     1       4.003  -5.557  -2.363  1.00  0.00    -0.015 A 
ATOM     17  C   UNL     1       3.737  -3.748  -0.201  1.00  0.00     0.082 A 
ATOM     18  C   UNL     1       3.713  -5.131   0.021  1.00  0.00     0.022 A 
ATOM     19  C   UNL     1       3.972  -3.255  -1.478  1.00  0.00     0.022 A 
ATOM     20  C   UNL     1       3.881  -6.027  -1.051  1.00  0.00     0.010 A 
ATOM     21  C   UNL     1       4.104  -4.156  -2.543  1.00  0.00     0.010 A 
BRANCH  17  22
ATOM     22  S   UNL     1       3.388  -2.666   1.159  1.00  0.00     0.238 S 
ATOM     23  O   UNL     1       4.617  -2.435   1.869  1.00  0.00    -0.207 OA
ATOM     24  O   UNL     1       2.186  -3.145   1.805  1.00  0.00    -0.207 OA
BRANCH  22  25
ATOM     25  N   UNL     1       2.967  -1.190   0.467  1.00  0.00    -0.225 NA
ATOM     26  H   UNL     1       2.752  -0.518   1.204  1.00  0.00     0.137 HD
ATOM     27  H   UNL     1       2.148  -1.315  -0.128  1.00  0.00     0.137 HD
ENDBRANCH  22  25
ENDBRANCH  17  22
ENDBRANCH   6  16
BRANCH  15  28
ATOM     28  C   UNL     1       7.296  -9.611  -4.217  1.00  0.00     0.430 C 
ATOM     29  F   UNL     1       8.205  -8.793  -4.799  1.00  0.00    -0.167 F 
ATOM     30  F   UNL     1       7.623  -9.727  -2.911  1.00  0.00    -0.167 F 
ATOM     31  F   UNL     1       7.460 -10.841  -4.772  1.00  0.00    -0.167 F 
ENDBRANCH  15  28
ENDBRANCH   3   5
ENDBRANCH   2   3
ENDBRANCH   1   2
BRANCH   1  32
ATOM     32  C   UNL     1       1.955 -12.321  -5.439  1.00  0.00     0.275 C 
BRANCH  32  33
ATOM     33  O   UNL     1       1.232 -11.293  -4.733  1.00  0.00    -0.458 OA
BRANCH  33  34
ATOM     34  C   UNL     1       1.701 -11.046  -3.484  1.00  0.00     0.338 C 
ATOM     35  O   UNL     1       2.618 -11.645  -2.940  1.00  0.00    -0.246 OA
BRANCH  34  36
ATOM     36  C   UNL     1       1.034  -9.874  -2.858  1.00  0.00     0.060 A 
ATOM     37  C   UNL     1       1.724  -9.260  -1.814  1.00  0.00     0.016 A 
ATOM     38  C   UNL     1      -0.216  -9.365  -3.237  1.00  0.00     0.016 A 
ATOM     39  C   UNL     1       1.192  -8.133  -1.190  1.00  0.00     0.010 A 
ATOM     40  C   UNL     1      -0.751  -8.225  -2.593  1.00  0.00     0.010 A 
ATOM     41  C   UNL     1      -0.040  -7.575  -1.575  1.00  0.00    -0.014 A 
BRANCH  41  42
ATOM     42  C   UNL     1      -0.485  -6.345  -0.835  1.00  0.00     0.031 A 
ATOM     43  C   UNL     1      -0.565  -6.406   0.663  1.00  0.00     0.074 A 
ATOM     44  C   UNL     1      -0.596  -5.134  -1.422  1.00  0.00     0.049 A 
ATOM     45  N   UNL     1      -0.494  -5.437   1.536  1.00  0.00    -0.248 NA
ATOM     46  C   UNL     1      -0.724  -7.747   1.246  1.00  0.00     0.031 C 
ATOM     47  C   UNL     1      -0.546  -4.892  -2.852  1.00  0.00     0.029 A 
ATOM     48  N   UNL     1      -0.655  -3.862  -0.883  1.00  0.00    -0.354 N 
ATOM     49  C   UNL     1      -0.559  -6.049   2.779  1.00  0.00     0.074 A 
ATOM     50  C   UNL     1      -0.679  -7.475   2.541  1.00  0.00     0.031 C 
ATOM     51  C   UNL     1      -0.360  -3.583  -3.082  1.00  0.00     0.029 A 
ATOM     52  C   UNL     1      -0.409  -2.867  -1.813  1.00  0.00     0.049 A 
ATOM     53  H   UNL     1      -0.852  -3.683   0.064  1.00  0.00     0.167 HD
ATOM     54  C   UNL     1      -0.559  -5.483   4.009  1.00  0.00     0.031 A 
ATOM     55  C   UNL     1      -0.221  -1.537  -1.669  1.00  0.00     0.031 A 
ATOM     56  C   UNL     1      -0.590  -4.069   4.263  1.00  0.00     0.049 A 
ATOM     57  C   UNL     1      -0.387  -0.912  -0.312  1.00  0.00     0.074 A 
ATOM     58  C   UNL     1      -0.721  -3.415   5.476  1.00  0.00     0.029 A 
ATOM     59  N   UNL     1      -0.513  -3.086   3.288  1.00  0.00    -0.354 N 
ATOM     60  N   UNL     1      -0.465  -1.496   0.855  1.00  0.00    -0.248 NA
ATOM     61  C   UNL     1      -0.432   0.557  -0.250  1.00  0.00     0.031 C 
ATOM     62  C   UNL     1      -0.812  -2.041   5.225  1.00  0.00     0.029 A 
ATOM     63  C   UNL     1      -0.654  -1.832   3.864  1.00  0.00     0.049 A 
ATOM     64  H   UNL     1      -0.378  -3.253   2.327  1.00  0.00     0.167 HD
ATOM     65  C   UNL     1      -0.538  -0.476   1.796  1.00  0.00     0.074 A 
ATOM     66  C   UNL     1      -0.490   0.770   1.059  1.00  0.00     0.031 C 
ATOM     67  C   UNL     1      -0.600  -0.580   3.147  1.00  0.00     0.031 A 
BRANCH  54  68
ATOM     68  C   UNL     1      -0.671  -6.436   5.163  1.00  0.00    -0.014 A 
ATOM     69  C   UNL     1       0.419  -7.228   5.565  1.00  0.00     0.010 A 
ATOM     70  C   UNL     1      -1.917  -6.600   5.793  1.00  0.00     0.010 A 
ATOM     71  C   UNL     1       0.244  -8.220   6.533  1.00  0.00     0.020 A 
ATOM     72  C   UNL     1      -2.090  -7.576   6.774  1.00  0.00     0.020 A 
ATOM     73  C   UNL     1      -1.016  -8.401   7.115  1.00  0.00     0.054 A 
BRANCH  73  74
ATOM     74  S   UNL     1      -1.244  -9.747   8.307  1.00  0.00     0.124 S 
ATOM     75  O   UNL     1      -1.252 -10.919   7.435  1.00  0.00    -0.237 OA
ATOM     76  O   UNL     1      -0.075  -9.614   9.172  1.00  0.00    -0.237 OA
ATOM     77  O   UNL     1      -2.523  -9.435   8.940  1.00  0.00    -0.744 OA
ENDBRANCH  73  74
ENDBRANCH  54  68
BRANCH  55  78
ATOM     78  C   UNL     1       0.216  -0.690  -2.821  1.00  0.00    -0.014 A 
ATOM     79  C   UNL     1       1.487  -0.081  -2.790  1.00  0.00     0.010 A 
ATOM     80  C   UNL     1      -0.604  -0.479  -3.942  1.00  0.00     0.010 A 
ATOM     81  C   UNL     1       1.929   0.713  -3.852  1.00  0.00     0.020 A 
ATOM     82  C   UNL     1      -0.153   0.289  -5.022  1.00  0.00     0.020 A 
ATOM     83  C   UNL     1       1.109   0.887  -4.967  1.00  0.00     0.054 A 
BRANCH  83  84
ATOM     84  S   UNL     1       1.734   1.851  -6.372  1.00  0.00     0.124 S 
ATOM     85  O   UNL     1       1.593   3.219  -5.886  1.00  0.00    -0.237 OA
ATOM     86  O   UNL     1       3.104   1.362  -6.505  1.00  0.00    -0.237 OA
ATOM     87  O   UNL     1       0.839   1.476  -7.464  1.00  0.00    -0.744 OA
ENDBRANCH  83  84
ENDBRANCH  55  78
BRANCH  67  88
ATOM     88  C   UNL     1      -0.530   0.688   3.958  1.00  0.00    -0.014 A 
ATOM     89  C   UNL     1      -1.581   1.620   3.999  1.00  0.00     0.010 A 
ATOM     90  C   UNL     1       0.611   0.912   4.753  1.00  0.00     0.010 A 
ATOM     91  C   UNL     1      -1.478   2.767   4.796  1.00  0.00     0.020 A 
ATOM     92  C   UNL     1       0.707   2.040   5.569  1.00  0.00     0.020 A 
ATOM     93  C   UNL     1      -0.333   2.971   5.574  1.00  0.00     0.054 A 
BRANCH  93  94
ATOM     94  S   UNL     1      -0.234   4.437   6.639  1.00  0.00     0.124 S 
ATOM     95  O   UNL     1       0.139   5.478   5.686  1.00  0.00    -0.237 OA
ATOM     96  O   UNL     1      -1.587   4.536   7.182  1.00  0.00    -0.237 OA
ATOM     97  O   UNL     1       0.796   4.085   7.614  1.00  0.00    -0.744 OA
ENDBRANCH  93  94
ENDBRANCH  67  88
ENDBRANCH  41  42
ENDBRANCH  34  36
ENDBRANCH  33  34
ENDBRANCH  32  33
ENDBRANCH   1  32
TORSDOF 18
