REMARK SMILES C[NH2+][C@]1(C(=O)OCCOC(=O)c2ccc(-c3c4nc(c(-c5ccc(S(=O)(=O)[O-])cc5)c5ccc([nH]5)c(-c5ccc(S(=O)(=O)[O-])cc5)c5nc(c(-c6ccc(S(=O)(=O)[O-])cc6)c6ccc3[nH]6)C=C5)C=C4)cc2)CCC[C@@H]1CC[N@H+]1CCC[C@H]([NH+](C)C)C1
REMARK SMILES IDX 7 1 6 2 4 3 5 4 3 5 72 6 75 7 73 8 74 9 2 10 1 11 76 14
REMARK SMILES IDX 77 15 78 16 79 17 86 18 80 20 82 21 81 22 83 23 84 24 85 25
REMARK SMILES IDX 8 27 9 28 10 29 11 30 12 31 13 32 71 33 14 34 70 35 15 36
REMARK SMILES IDX 16 37 17 38 64 39 18 40 69 41 63 42 65 43 19 44 68 45 62 46
REMARK SMILES IDX 61 47 20 49 50 50 31 51 49 52 32 53 35 54 48 55 66 56 33 57
REMARK SMILES IDX 34 58 47 60 67 61 36 62 21 63 22 64 30 65 23 66 29 67 24 68
REMARK SMILES IDX 25 69 26 70 27 71 28 72 51 73 52 74 60 75 53 76 59 77 54 78
REMARK SMILES IDX 55 79 56 80 57 81 58 82 37 83 38 84 46 85 39 86 45 87 40 88
REMARK SMILES IDX 41 89 42 90 43 91 44 92
REMARK H PARENT 2 12 2 13 78 19 83 26 65 48 35 59
REMARK Flexibility Score: inf
ROOT
ATOM      1  C   UNL     1       2.404   0.775  -2.385  1.00  0.00     0.274 C 
ENDROOT
BRANCH   1   2
ATOM      2  O   UNL     1       0.988   1.051  -2.411  1.00  0.00    -0.457 OA
BRANCH   2   3
ATOM      3  C   UNL     1       0.272   0.446  -1.428  1.00  0.00     0.368 C 
ATOM      4  O   UNL     1       0.784  -0.210  -0.524  1.00  0.00    -0.245 OA
BRANCH   3   5
ATOM      5  C   UNL     1      -1.259   0.553  -1.591  1.00  0.00     0.197 C 
ATOM      6  C   UNL     1      -1.744   1.499  -2.700  1.00  0.00     0.081 C 
ATOM      7  C   UNL     1      -1.761  -0.812  -2.162  1.00  0.00     0.068 C 
ATOM      8  C   UNL     1      -3.159   1.020  -3.008  1.00  0.00     0.008 C 
ATOM      9  C   UNL     1      -3.155  -0.488  -2.731  1.00  0.00     0.011 C 
BRANCH   5  10
ATOM     10  N   UNL     1      -1.909   0.809  -0.273  1.00  0.00    -0.334 N 
ATOM     11  C   UNL     1      -1.811   2.182   0.201  1.00  0.00     0.331 C 
ATOM     12  H   UNL     1      -2.898   0.572  -0.356  1.00  0.00     0.347 HD
ATOM     13  H   UNL     1      -1.414   0.234   0.408  1.00  0.00     0.347 HD
ENDBRANCH   5  10
BRANCH   7  14
ATOM     14  C   UNL     1      -1.762  -1.988  -1.160  1.00  0.00     0.072 C 
BRANCH  14  15
ATOM     15  C   UNL     1      -1.584  -3.387  -1.778  1.00  0.00     0.262 C 
BRANCH  15  16
ATOM     16  N   UNL     1      -0.407  -3.599  -2.643  1.00  0.00    -0.330 N 
ATOM     17  C   UNL     1       0.860  -3.142  -2.064  1.00  0.00     0.262 C 
ATOM     18  C   UNL     1      -0.278  -5.033  -2.967  1.00  0.00     0.327 C 
ATOM     19  H   UNL     1      -0.575  -3.033  -3.475  1.00  0.00     0.348 HD
ATOM     20  C   UNL     1       1.994  -3.240  -3.084  1.00  0.00     0.068 C 
ATOM     21  C   UNL     1       0.816  -5.330  -4.034  1.00  0.00     0.239 C 
ATOM     22  C   UNL     1       2.147  -4.646  -3.651  1.00  0.00     0.077 C 
BRANCH  21  23
ATOM     23  N   UNL     1       0.438  -5.132  -5.460  1.00  0.00    -0.333 N 
ATOM     24  C   UNL     1      -0.647  -6.033  -5.854  1.00  0.00     0.332 C 
ATOM     25  C   UNL     1       0.083  -3.760  -5.814  1.00  0.00     0.332 C 
ATOM     26  H   UNL     1       1.288  -5.353  -5.978  1.00  0.00     0.348 HD
ENDBRANCH  21  23
ENDBRANCH  15  16
ENDBRANCH  14  15
ENDBRANCH   7  14
ENDBRANCH   3   5
ENDBRANCH   2   3
ENDBRANCH   1   2
BRANCH   1  27
ATOM     27  C   UNL     1       3.175   1.805  -1.559  1.00  0.00     0.275 C 
BRANCH  27  28
ATOM     28  O   UNL     1       2.778   1.730  -0.178  1.00  0.00    -0.458 OA
BRANCH  28  29
ATOM     29  C   UNL     1       2.489   2.908   0.423  1.00  0.00     0.338 C 
ATOM     30  O   UNL     1       2.628   4.019  -0.059  1.00  0.00    -0.246 OA
BRANCH  29  31
ATOM     31  C   UNL     1       1.941   2.686   1.783  1.00  0.00     0.060 A 
ATOM     32  C   UNL     1       1.075   1.627   2.053  1.00  0.00     0.016 A 
ATOM     33  C   UNL     1       2.186   3.632   2.778  1.00  0.00     0.016 A 
ATOM     34  C   UNL     1       0.369   1.570   3.251  1.00  0.00     0.010 A 
ATOM     35  C   UNL     1       1.561   3.512   4.026  1.00  0.00     0.010 A 
ATOM     36  C   UNL     1       0.610   2.503   4.264  1.00  0.00    -0.014 A 
BRANCH  36  37
ATOM     37  C   UNL     1      -0.170   2.467   5.532  1.00  0.00     0.031 A 
ATOM     38  C   UNL     1      -0.928   3.692   5.977  1.00  0.00     0.074 A 
ATOM     39  C   UNL     1      -0.232   1.349   6.284  1.00  0.00     0.049 A 
ATOM     40  N   UNL     1      -1.440   3.966   7.149  1.00  0.00    -0.248 NA
ATOM     41  C   UNL     1      -1.117   4.757   4.978  1.00  0.00     0.031 C 
ATOM     42  C   UNL     1       0.379   0.059   5.953  1.00  0.00     0.029 A 
ATOM     43  N   UNL     1      -0.858   1.114   7.484  1.00  0.00    -0.354 N 
ATOM     44  C   UNL     1      -1.925   5.266   7.056  1.00  0.00     0.074 A 
ATOM     45  C   UNL     1      -1.672   5.717   5.705  1.00  0.00     0.031 C 
ATOM     46  C   UNL     1       0.050  -0.841   6.892  1.00  0.00     0.029 A 
ATOM     47  C   UNL     1      -0.696  -0.170   7.949  1.00  0.00     0.049 A 
ATOM     48  H   UNL     1      -1.374   1.801   7.966  1.00  0.00     0.167 HD
ATOM     49  C   UNL     1      -2.510   6.018   8.018  1.00  0.00     0.031 A 
ATOM     50  C   UNL     1      -1.053  -0.737   9.118  1.00  0.00     0.031 A 
ATOM     51  C   UNL     1      -2.821   5.537   9.338  1.00  0.00     0.049 A 
ATOM     52  C   UNL     1      -1.703   0.111  10.172  1.00  0.00     0.074 A 
ATOM     53  C   UNL     1      -3.397   6.223  10.394  1.00  0.00     0.029 A 
ATOM     54  N   UNL     1      -2.612   4.237   9.773  1.00  0.00    -0.354 N 
ATOM     55  N   UNL     1      -2.031   1.379  10.118  1.00  0.00    -0.248 NA
ATOM     56  C   UNL     1      -1.996  -0.539  11.456  1.00  0.00     0.031 C 
ATOM     57  C   UNL     1      -3.516   5.341  11.475  1.00  0.00     0.029 A 
ATOM     58  C   UNL     1      -3.049   4.099  11.078  1.00  0.00     0.049 A 
ATOM     59  H   UNL     1      -2.211   3.519   9.232  1.00  0.00     0.167 HD
ATOM     60  C   UNL     1      -2.558   1.684  11.367  1.00  0.00     0.074 A 
ATOM     61  C   UNL     1      -2.536   0.460  12.142  1.00  0.00     0.031 C 
ATOM     62  C   UNL     1      -3.006   2.875  11.835  1.00  0.00     0.031 A 
BRANCH  49  63
ATOM     63  C   UNL     1      -2.794   7.460   7.697  1.00  0.00    -0.014 A 
ATOM     64  C   UNL     1      -3.866   7.840   6.872  1.00  0.00     0.010 A 
ATOM     65  C   UNL     1      -1.978   8.458   8.264  1.00  0.00     0.010 A 
ATOM     66  C   UNL     1      -4.096   9.191   6.592  1.00  0.00     0.020 A 
ATOM     67  C   UNL     1      -2.218   9.809   8.005  1.00  0.00     0.020 A 
ATOM     68  C   UNL     1      -3.266  10.167   7.155  1.00  0.00     0.054 A 
BRANCH  68  69
ATOM     69  S   UNL     1      -3.595  11.915   6.795  1.00  0.00     0.124 S 
ATOM     70  O   UNL     1      -3.037  12.055   5.453  1.00  0.00    -0.237 OA
ATOM     71  O   UNL     1      -5.051  11.996   6.881  1.00  0.00    -0.237 OA
ATOM     72  O   UNL     1      -2.872  12.625   7.848  1.00  0.00    -0.744 OA
ENDBRANCH  68  69
ENDBRANCH  49  63
BRANCH  50  73
ATOM     73  C   UNL     1      -0.728  -2.167   9.371  1.00  0.00    -0.014 A 
ATOM     74  C   UNL     1      -1.743  -3.138   9.389  1.00  0.00     0.010 A 
ATOM     75  C   UNL     1       0.609  -2.569   9.545  1.00  0.00     0.010 A 
ATOM     76  C   UNL     1      -1.425  -4.489   9.565  1.00  0.00     0.020 A 
ATOM     77  C   UNL     1       0.933  -3.919   9.693  1.00  0.00     0.020 A 
ATOM     78  C   UNL     1      -0.087  -4.872   9.708  1.00  0.00     0.054 A 
BRANCH  78  79
ATOM     79  S   UNL     1       0.322  -6.635   9.829  1.00  0.00     0.124 S 
ATOM     80  O   UNL     1       0.091  -6.903  11.244  1.00  0.00    -0.237 OA
ATOM     81  O   UNL     1      -0.626  -7.251   8.904  1.00  0.00    -0.237 OA
ATOM     82  O   UNL     1       1.718  -6.687   9.399  1.00  0.00    -0.744 OA
ENDBRANCH  78  79
ENDBRANCH  50  73
BRANCH  62  83
ATOM     83  C   UNL     1      -3.516   2.902  13.247  1.00  0.00    -0.014 A 
ATOM     84  C   UNL     1      -2.624   2.911  14.333  1.00  0.00     0.010 A 
ATOM     85  C   UNL     1      -4.900   2.951  13.488  1.00  0.00     0.010 A 
ATOM     86  C   UNL     1      -3.110   2.937  15.642  1.00  0.00     0.020 A 
ATOM     87  C   UNL     1      -5.389   2.996  14.795  1.00  0.00     0.020 A 
ATOM     88  C   UNL     1      -4.490   2.973  15.865  1.00  0.00     0.054 A 
BRANCH  88  89
ATOM     89  S   UNL     1      -5.102   3.033  17.571  1.00  0.00     0.124 S 
ATOM     90  O   UNL     1      -4.965   1.641  17.991  1.00  0.00    -0.237 OA
ATOM     91  O   UNL     1      -4.186   3.975  18.211  1.00  0.00    -0.237 OA
ATOM     92  O   UNL     1      -6.475   3.510  17.428  1.00  0.00    -0.744 OA
ENDBRANCH  88  89
ENDBRANCH  62  83
ENDBRANCH  36  37
ENDBRANCH  29  31
ENDBRANCH  28  29
ENDBRANCH  27  28
ENDBRANCH   1  27
TORSDOF 19
