REMARK SMILES CN(C)c1ccc(CNc2cc(C(=O)OCCOC(=O)c3ccc(-c4c5nc(c(-c6ccc(S(=O)(=O)[O-])cc6)c6ccc([nH]6)c(-c6ccc(S(=O)(=O)[O-])cc6)c6nc(c(-c7ccc(S(=O)(=O)[O-])cc7)c7ccc4[nH]7)C=C6)C=C5)cc3)[nH]n2)cc1
REMARK SMILES IDX 16 1 15 2 13 3 14 4 12 5 10 6 11 7 82 8 81 9 9 11 8 13 7 14
REMARK SMILES IDX 4 15 5 16 84 17 6 18 83 19 2 20 1 21 3 22 17 23 18 24 19 25
REMARK SMILES IDX 20 26 21 27 22 28 80 29 23 30 79 31 24 32 25 33 26 34 73 35
REMARK SMILES IDX 27 36 78 37 72 38 74 39 28 40 77 41 71 42 70 43 29 45 59 46
REMARK SMILES IDX 40 47 58 48 41 49 44 50 57 51 75 52 42 53 43 54 56 56 76 57
REMARK SMILES IDX 45 58 30 59 31 60 39 61 32 62 38 63 33 64 34 65 35 66 36 67
REMARK SMILES IDX 37 68 60 69 61 70 69 71 62 72 68 73 63 74 64 75 65 76 66 77
REMARK SMILES IDX 67 78 46 79 47 80 55 81 48 82 54 83 49 84 50 85 51 86 52 87
REMARK SMILES IDX 53 88
REMARK H PARENT 81 10 9 12 74 44 44 55
REMARK Flexibility Score: inf
ROOT
ATOM      1  C   UNL     1      -0.372   2.582  12.713  1.00  0.00     0.275 C 
ENDROOT
BRANCH   1   2
ATOM      2  O   UNL     1       0.197   2.744  11.399  1.00  0.00    -0.457 OA
BRANCH   2   3
ATOM      3  C   UNL     1      -0.667   3.177  10.440  1.00  0.00     0.356 C 
ATOM      4  O   UNL     1      -1.862   3.368  10.601  1.00  0.00    -0.244 OA
BRANCH   3   5
ATOM      5  C   UNL     1       0.027   3.461   9.219  1.00  0.00     0.145 A 
ATOM      6  C   UNL     1       1.315   3.641   7.425  1.00  0.00     0.148 A 
ATOM      7  C   UNL     1       1.210   3.001   8.678  1.00  0.00     0.084 A 
ATOM      8  N   UNL     1       0.336   4.515   7.230  1.00  0.00    -0.157 NA
ATOM      9  N   UNL     1      -0.470   4.322   8.278  1.00  0.00    -0.269 N 
ATOM     10  H   UNL     1      -1.346   4.763   8.367  1.00  0.00     0.190 HD
BRANCH   6  11
ATOM     11  N   UNL     1       2.240   3.391   6.486  1.00  0.00    -0.365 N 
ATOM     12  H   UNL     1       2.757   4.132   6.097  1.00  0.00     0.162 HD
BRANCH  11  13
ATOM     13  C   UNL     1       2.480   2.032   6.044  1.00  0.00     0.150 C 
BRANCH  13  14
ATOM     14  C   UNL     1       1.981   1.833   4.630  1.00  0.00    -0.029 A 
ATOM     15  C   UNL     1       1.041   1.379   1.970  1.00  0.00     0.036 A 
ATOM     16  C   UNL     1       0.220   1.953   2.950  1.00  0.00     0.026 A 
ATOM     17  C   UNL     1       2.345   1.040   2.362  1.00  0.00     0.026 A 
ATOM     18  C   UNL     1       0.671   2.163   4.260  1.00  0.00     0.008 A 
ATOM     19  C   UNL     1       2.814   1.269   3.662  1.00  0.00     0.008 A 
BRANCH  15  20
ATOM     20  N   UNL     1       0.586   1.152   0.680  1.00  0.00    -0.378 N 
ATOM     21  C   UNL     1       1.094   0.034  -0.096  1.00  0.00     0.143 C 
ATOM     22  C   UNL     1      -0.321   2.100   0.051  1.00  0.00     0.143 C 
ENDBRANCH  15  20
ENDBRANCH  13  14
ENDBRANCH  11  13
ENDBRANCH   6  11
ENDBRANCH   3   5
ENDBRANCH   2   3
ENDBRANCH   1   2
BRANCH   1  23
ATOM     23  C   UNL     1      -0.151   3.822  13.585  1.00  0.00     0.275 C 
BRANCH  23  24
ATOM     24  O   UNL     1      -0.923   4.941  13.107  1.00  0.00    -0.458 OA
BRANCH  24  25
ATOM     25  C   UNL     1      -0.215   5.922  12.500  1.00  0.00     0.338 C 
ATOM     26  O   UNL     1       0.992   5.969  12.336  1.00  0.00    -0.246 OA
BRANCH  25  27
ATOM     27  C   UNL     1      -1.136   6.921  11.934  1.00  0.00     0.060 A 
ATOM     28  C   UNL     1      -1.639   6.687  10.659  1.00  0.00     0.016 A 
ATOM     29  C   UNL     1      -1.408   8.123  12.580  1.00  0.00     0.016 A 
ATOM     30  C   UNL     1      -2.375   7.658   9.992  1.00  0.00     0.010 A 
ATOM     31  C   UNL     1      -2.216   9.076  11.940  1.00  0.00     0.010 A 
ATOM     32  C   UNL     1      -2.698   8.857  10.636  1.00  0.00    -0.014 A 
BRANCH  32  33
ATOM     33  C   UNL     1      -3.545   9.858   9.932  1.00  0.00     0.031 A 
ATOM     34  C   UNL     1      -3.007  11.227   9.614  1.00  0.00     0.074 A 
ATOM     35  C   UNL     1      -4.796   9.523   9.552  1.00  0.00     0.049 A 
ATOM     36  N   UNL     1      -3.633  12.262   9.117  1.00  0.00    -0.248 NA
ATOM     37  C   UNL     1      -1.583  11.465   9.898  1.00  0.00     0.031 C 
ATOM     38  C   UNL     1      -5.418   8.210   9.747  1.00  0.00     0.029 A 
ATOM     39  N   UNL     1      -5.767  10.254   8.913  1.00  0.00    -0.354 N 
ATOM     40  C   UNL     1      -2.694  13.287   9.065  1.00  0.00     0.074 A 
ATOM     41  C   UNL     1      -1.457  12.749   9.591  1.00  0.00     0.031 C 
ATOM     42  C   UNL     1      -6.648   8.219   9.211  1.00  0.00     0.029 A 
ATOM     43  C   UNL     1      -6.938   9.559   8.717  1.00  0.00     0.049 A 
ATOM     44  H   UNL     1      -5.638  11.186   8.623  1.00  0.00     0.167 HD
ATOM     45  C   UNL     1      -2.852  14.558   8.623  1.00  0.00     0.031 A 
ATOM     46  C   UNL     1      -8.132   9.961   8.238  1.00  0.00     0.031 A 
ATOM     47  C   UNL     1      -4.084  15.078   8.085  1.00  0.00     0.049 A 
ATOM     48  C   UNL     1      -8.303  11.395   7.825  1.00  0.00     0.074 A 
ATOM     49  C   UNL     1      -4.343  16.349   7.601  1.00  0.00     0.029 A 
ATOM     50  N   UNL     1      -5.262  14.356   7.958  1.00  0.00    -0.354 N 
ATOM     51  N   UNL     1      -7.412  12.358   7.811  1.00  0.00    -0.248 NA
ATOM     52  C   UNL     1      -9.642  11.801   7.380  1.00  0.00     0.031 C 
ATOM     53  C   UNL     1      -5.692  16.412   7.237  1.00  0.00     0.029 A 
ATOM     54  C   UNL     1      -6.259  15.163   7.434  1.00  0.00     0.049 A 
ATOM     55  H   UNL     1      -5.373  13.409   8.204  1.00  0.00     0.167 HD
ATOM     56  C   UNL     1      -8.082  13.483   7.346  1.00  0.00     0.074 A 
ATOM     57  C   UNL     1      -9.444  13.074   7.066  1.00  0.00     0.031 C 
ATOM     58  C   UNL     1      -7.613  14.743   7.172  1.00  0.00     0.031 A 
BRANCH  45  59
ATOM     59  C   UNL     1      -1.677  15.495   8.747  1.00  0.00    -0.014 A 
ATOM     60  C   UNL     1      -0.542  15.369   7.928  1.00  0.00     0.010 A 
ATOM     61  C   UNL     1      -1.733  16.550   9.678  1.00  0.00     0.010 A 
ATOM     62  C   UNL     1       0.531  16.257   8.063  1.00  0.00     0.020 A 
ATOM     63  C   UNL     1      -0.675  17.456   9.797  1.00  0.00     0.020 A 
ATOM     64  C   UNL     1       0.458  17.293   9.000  1.00  0.00     0.054 A 
BRANCH  64  65
ATOM     65  S   UNL     1       1.856  18.442   9.141  1.00  0.00     0.124 S 
ATOM     66  O   UNL     1       2.866  17.609   9.789  1.00  0.00    -0.237 OA
ATOM     67  O   UNL     1       2.128  18.789   7.749  1.00  0.00    -0.237 OA
ATOM     68  O   UNL     1       1.330  19.531   9.961  1.00  0.00    -0.744 OA
ENDBRANCH  64  65
ENDBRANCH  45  59
BRANCH  46  69
ATOM     69  C   UNL     1      -9.271   9.003   8.185  1.00  0.00    -0.014 A 
ATOM     70  C   UNL     1      -9.789   8.568   6.953  1.00  0.00     0.010 A 
ATOM     71  C   UNL     1      -9.833   8.504   9.376  1.00  0.00     0.010 A 
ATOM     72  C   UNL     1     -10.851   7.659   6.914  1.00  0.00     0.020 A 
ATOM     73  C   UNL     1     -10.872   7.571   9.341  1.00  0.00     0.020 A 
ATOM     74  C   UNL     1     -11.383   7.162   8.109  1.00  0.00     0.054 A 
BRANCH  74  75
ATOM     75  S   UNL     1     -12.720   5.938   8.033  1.00  0.00     0.124 S 
ATOM     76  O   UNL     1     -13.860   6.759   7.637  1.00  0.00    -0.237 OA
ATOM     77  O   UNL     1     -12.233   5.000   7.025  1.00  0.00    -0.237 OA
ATOM     78  O   UNL     1     -12.773   5.406   9.393  1.00  0.00    -0.744 OA
ENDBRANCH  74  75
ENDBRANCH  46  69
BRANCH  58  79
ATOM     79  C   UNL     1      -8.577  15.767   6.638  1.00  0.00    -0.014 A 
ATOM     80  C   UNL     1      -9.614  16.276   7.441  1.00  0.00     0.010 A 
ATOM     81  C   UNL     1      -8.417  16.259   5.330  1.00  0.00     0.010 A 
ATOM     82  C   UNL     1     -10.493  17.236   6.933  1.00  0.00     0.020 A 
ATOM     83  C   UNL     1      -9.276  17.240   4.829  1.00  0.00     0.020 A 
ATOM     84  C   UNL     1     -10.318  17.713   5.630  1.00  0.00     0.054 A 
BRANCH  84  85
ATOM     85  S   UNL     1     -11.445  18.992   5.011  1.00  0.00     0.124 S 
ATOM     86  O   UNL     1     -12.675  18.235   4.797  1.00  0.00    -0.237 OA
ATOM     87  O   UNL     1     -11.479  19.949   6.114  1.00  0.00    -0.237 OA
ATOM     88  O   UNL     1     -10.790  19.473   3.797  1.00  0.00    -0.744 OA
ENDBRANCH  84  85
ENDBRANCH  58  79
ENDBRANCH  32  33
ENDBRANCH  25  27
ENDBRANCH  24  25
ENDBRANCH  23  24
ENDBRANCH   1  23
TORSDOF 18
