REMARK SMILES O=C(OCCOC(=O)c1ccc(F)c(NS(=O)(=O)c2cc(Cl)sc2Cl)c1)c1ccc(-c2c3nc(c(-c4ccc(S(=O)(=O)[O-])cc4)c4ccc([nH]4)c(-c4ccc(S(=O)(=O)[O-])cc4)c4nc(c(-c5ccc(S(=O)(=O)[O-])cc5)c5ccc2[nH]5)C=C4)C=C3)cc1
REMARK SMILES IDX 4 1 3 2 2 3 1 4 27 5 28 6 86 7 29 8 85 9 30 10 31 11 32 12
REMARK SMILES IDX 79 13 33 14 84 15 78 16 80 17 34 18 83 19 77 20 76 21 35 23
REMARK SMILES IDX 65 24 46 25 64 26 47 27 50 28 63 29 81 30 48 31 49 32 62 34
REMARK SMILES IDX 82 35 51 36 36 37 37 38 45 39 38 40 44 41 39 42 40 43 41 44
REMARK SMILES IDX 42 45 43 46 66 47 67 48 75 49 68 50 74 51 69 52 70 53 71 54
REMARK SMILES IDX 72 55 73 56 52 57 53 58 61 59 54 60 60 61 55 62 56 63 57 64
REMARK SMILES IDX 58 65 59 66 5 67 6 68 7 69 8 70 9 71 10 72 26 73 11 74 14 75
REMARK SMILES IDX 12 76 13 77 15 78 16 80 17 81 18 82 19 83 20 84 24 85 21 86
REMARK SMILES IDX 23 87 25 88 22 89
REMARK H PARENT 80 22 50 33 15 79
REMARK Flexibility Score: inf
ROOT
ATOM      1  C   UNL     1       4.556   0.752   1.349  1.00  0.00     0.275 C 
ENDROOT
BRANCH   1   2
ATOM      2  O   UNL     1       3.859   1.266   0.193  1.00  0.00    -0.458 OA
BRANCH   2   3
ATOM      3  C   UNL     1       3.598   0.677  -0.998  1.00  0.00     0.338 C 
ATOM      4  O   UNL     1       2.722   1.162  -1.714  1.00  0.00    -0.246 OA
BRANCH   3   5
ATOM      5  C   UNL     1       4.262  -0.578  -1.466  1.00  0.00     0.060 A 
ATOM      6  C   UNL     1       5.506  -1.048  -1.043  1.00  0.00     0.016 A 
ATOM      7  C   UNL     1       3.565  -1.338  -2.421  1.00  0.00     0.016 A 
ATOM      8  C   UNL     1       5.966  -2.312  -1.429  1.00  0.00     0.010 A 
ATOM      9  C   UNL     1       4.019  -2.599  -2.813  1.00  0.00     0.010 A 
ATOM     10  C   UNL     1       5.213  -3.106  -2.295  1.00  0.00    -0.014 A 
BRANCH  10  11
ATOM     11  C   UNL     1       5.731  -4.408  -2.764  1.00  0.00     0.031 A 
ATOM     12  C   UNL     1       6.332  -4.483  -4.136  1.00  0.00     0.074 A 
ATOM     13  C   UNL     1       5.664  -5.498  -1.976  1.00  0.00     0.049 A 
ATOM     14  N   UNL     1       6.910  -5.496  -4.721  1.00  0.00    -0.248 NA
ATOM     15  C   UNL     1       6.298  -3.253  -4.947  1.00  0.00     0.031 C 
ATOM     16  C   UNL     1       5.119  -5.533  -0.619  1.00  0.00     0.029 A 
ATOM     17  N   UNL     1       6.037  -6.797  -2.212  1.00  0.00    -0.354 N 
ATOM     18  C   UNL     1       7.356  -5.012  -5.943  1.00  0.00     0.074 A 
ATOM     19  C   UNL     1       6.912  -3.642  -6.054  1.00  0.00     0.031 C 
ATOM     20  C   UNL     1       5.134  -6.800  -0.167  1.00  0.00     0.029 A 
ATOM     21  C   UNL     1       5.703  -7.663  -1.196  1.00  0.00     0.049 A 
ATOM     22  H   UNL     1       6.500  -7.083  -3.033  1.00  0.00     0.167 HD
ATOM     23  C   UNL     1       8.112  -5.643  -6.869  1.00  0.00     0.031 A 
ATOM     24  C   UNL     1       5.837  -9.002  -1.116  1.00  0.00     0.031 A 
ATOM     25  C   UNL     1       8.518  -7.014  -6.762  1.00  0.00     0.049 A 
ATOM     26  C   UNL     1       6.548  -9.719  -2.235  1.00  0.00     0.074 A 
ATOM     27  C   UNL     1       9.324  -7.744  -7.615  1.00  0.00     0.029 A 
ATOM     28  N   UNL     1       8.123  -7.871  -5.745  1.00  0.00    -0.354 N 
ATOM     29  N   UNL     1       7.079  -9.214  -3.324  1.00  0.00    -0.248 NA
ATOM     30  C   UNL     1       6.714 -11.172  -2.099  1.00  0.00     0.031 C 
ATOM     31  C   UNL     1       9.370  -9.060  -7.143  1.00  0.00     0.029 A 
ATOM     32  C   UNL     1       8.632  -9.136  -5.971  1.00  0.00     0.049 A 
ATOM     33  H   UNL     1       7.564  -7.615  -4.977  1.00  0.00     0.167 HD
ATOM     34  C   UNL     1       7.687 -10.280  -3.977  1.00  0.00     0.074 A 
ATOM     35  C   UNL     1       7.452 -11.457  -3.164  1.00  0.00     0.031 C 
ATOM     36  C   UNL     1       8.390 -10.284  -5.136  1.00  0.00     0.031 A 
BRANCH  23  37
ATOM     37  C   UNL     1       8.550  -4.840  -8.059  1.00  0.00    -0.014 A 
ATOM     38  C   UNL     1       9.550  -3.859  -7.926  1.00  0.00     0.010 A 
ATOM     39  C   UNL     1       7.976  -5.072  -9.320  1.00  0.00     0.010 A 
ATOM     40  C   UNL     1       9.950  -3.104  -9.029  1.00  0.00     0.020 A 
ATOM     41  C   UNL     1       8.388  -4.331 -10.431  1.00  0.00     0.020 A 
ATOM     42  C   UNL     1       9.364  -3.343 -10.275  1.00  0.00     0.054 A 
BRANCH  42  43
ATOM     43  S   UNL     1       9.926  -2.368 -11.697  1.00  0.00     0.124 S 
ATOM     44  O   UNL     1       9.336  -1.061 -11.417  1.00  0.00    -0.237 OA
ATOM     45  O   UNL     1      11.380  -2.438 -11.579  1.00  0.00    -0.237 OA
ATOM     46  O   UNL     1       9.362  -3.072 -12.846  1.00  0.00    -0.744 OA
ENDBRANCH  42  43
ENDBRANCH  23  37
BRANCH  24  47
ATOM     47  C   UNL     1       5.278  -9.758   0.040  1.00  0.00    -0.014 A 
ATOM     48  C   UNL     1       6.117 -10.382   0.980  1.00  0.00     0.010 A 
ATOM     49  C   UNL     1       3.884  -9.900   0.172  1.00  0.00     0.010 A 
ATOM     50  C   UNL     1       5.574 -11.167   2.005  1.00  0.00     0.020 A 
ATOM     51  C   UNL     1       3.337 -10.665   1.208  1.00  0.00     0.020 A 
ATOM     52  C   UNL     1       4.188 -11.309   2.107  1.00  0.00     0.054 A 
BRANCH  52  53
ATOM     53  S   UNL     1       3.506 -12.337   3.440  1.00  0.00     0.124 S 
ATOM     54  O   UNL     1       3.845 -13.683   2.989  1.00  0.00    -0.237 OA
ATOM     55  O   UNL     1       4.237 -11.857   4.610  1.00  0.00    -0.237 OA
ATOM     56  O   UNL     1       2.082 -12.010   3.427  1.00  0.00    -0.744 OA
ENDBRANCH  52  53
ENDBRANCH  24  47
BRANCH  36  57
ATOM     57  C   UNL     1       8.994 -11.589  -5.570  1.00  0.00    -0.014 A 
ATOM     58  C   UNL     1       8.200 -12.608  -6.120  1.00  0.00     0.010 A 
ATOM     59  C   UNL     1      10.388 -11.762  -5.494  1.00  0.00     0.010 A 
ATOM     60  C   UNL     1       8.789 -13.791  -6.571  1.00  0.00     0.020 A 
ATOM     61  C   UNL     1      10.983 -12.931  -5.969  1.00  0.00     0.020 A 
ATOM     62  C   UNL     1      10.178 -13.944  -6.495  1.00  0.00     0.054 A 
BRANCH  62  63
ATOM     63  S   UNL     1      10.928 -15.459  -7.149  1.00  0.00     0.124 S 
ATOM     64  O   UNL     1      10.628 -16.424  -6.094  1.00  0.00    -0.237 OA
ATOM     65  O   UNL     1      10.210 -15.657  -8.406  1.00  0.00    -0.237 OA
ATOM     66  O   UNL     1      12.339 -15.111  -7.293  1.00  0.00    -0.744 OA
ENDBRANCH  62  63
ENDBRANCH  36  57
ENDBRANCH  10  11
ENDBRANCH   3   5
ENDBRANCH   2   3
ENDBRANCH   1   2
BRANCH   1  67
ATOM     67  C   UNL     1       3.788  -0.320   2.118  1.00  0.00     0.275 C 
BRANCH  67  68
ATOM     68  O   UNL     1       3.333  -1.365   1.250  1.00  0.00    -0.458 OA
BRANCH  68  69
ATOM     69  C   UNL     1       2.280  -2.073   1.728  1.00  0.00     0.338 C 
ATOM     70  O   UNL     1       1.739  -1.953   2.811  1.00  0.00    -0.246 OA
BRANCH  69  71
ATOM     71  C   UNL     1       1.873  -3.058   0.712  1.00  0.00     0.062 A 
ATOM     72  C   UNL     1       2.009  -4.421   0.982  1.00  0.00     0.019 A 
ATOM     73  C   UNL     1       1.359  -2.615  -0.513  1.00  0.00     0.045 A 
ATOM     74  C   UNL     1       1.660  -5.351  -0.000  1.00  0.00     0.042 A 
ATOM     75  C   UNL     1       1.016  -3.543  -1.496  1.00  0.00     0.085 A 
ATOM     76  C   UNL     1       1.174  -4.907  -1.229  1.00  0.00     0.147 A 
ATOM     77  F   UNL     1       0.889  -5.802  -2.186  1.00  0.00    -0.205 F 
BRANCH  75  78
ATOM     78  N   UNL     1       0.600  -3.125  -2.811  1.00  0.00    -0.277 N 
ATOM     79  H   UNL     1       1.195  -3.236  -3.588  1.00  0.00     0.180 HD
BRANCH  78  80
ATOM     80  S   UNL     1      -0.936  -2.439  -2.986  1.00  0.00     0.264 S 
ATOM     81  O   UNL     1      -1.192  -2.329  -4.404  1.00  0.00    -0.201 OA
ATOM     82  O   UNL     1      -1.858  -3.131  -2.114  1.00  0.00    -0.201 OA
BRANCH  80  83
ATOM     83  C   UNL     1      -0.925  -0.817  -2.388  1.00  0.00     0.118 A 
ATOM     84  C   UNL     1      -1.197  -0.519  -1.008  1.00  0.00     0.056 A 
ATOM     85  C   UNL     1      -0.657   0.330  -3.096  1.00  0.00     0.115 A 
ATOM     86  C   UNL     1      -1.072   0.821  -0.754  1.00  0.00     0.096 A 
ATOM     87  S   UNL     1      -0.731   1.736  -2.132  1.00  0.00    -0.110 S 
ATOM     88  Cl  UNL     1      -0.266   0.547  -4.757  1.00  0.00    -0.071 Cl
ATOM     89  Cl  UNL     1      -1.229   1.586   0.773  1.00  0.00    -0.072 Cl
ENDBRANCH  80  83
ENDBRANCH  78  80
ENDBRANCH  75  78
ENDBRANCH  69  71
ENDBRANCH  68  69
ENDBRANCH  67  68
ENDBRANCH   1  67
TORSDOF 17
