REMARK SMILES CSc1nc2nnc(C(=O)OCCOC(=O)c3ccc(-c4c5nc(c(-c6ccc(S(=O)(=O)[O-])cc6)c6ccc([nH]6)c(-c6ccc(S(=O)(=O)[O-])cc6)c6nc(c(-c7ccc(S(=O)(=O)[O-])cc7)c7ccc4[nH]7)C=C6)C=C5)cc3)c(O)n2n1
REMARK SMILES IDX 13 1 12 2 11 3 9 4 10 5 8 6 3 7 4 8 80 9 5 10 79 11 6 12
REMARK SMILES IDX 77 13 7 14 2 15 1 16 78 17 14 19 15 20 16 21 17 22 18 23
REMARK SMILES IDX 76 24 19 25 75 26 20 27 21 28 22 29 69 30 23 31 74 32 68 33
REMARK SMILES IDX 70 34 24 35 73 36 67 37 66 38 25 40 55 41 36 42 54 43 37 44
REMARK SMILES IDX 40 45 53 46 71 47 38 48 39 49 52 51 72 52 41 53 26 54 27 55
REMARK SMILES IDX 35 56 28 57 34 58 29 59 30 60 31 61 32 62 33 63 56 64 57 65
REMARK SMILES IDX 65 66 58 67 64 68 59 69 60 70 61 71 62 72 63 73 42 74 43 75
REMARK SMILES IDX 51 76 44 77 50 78 45 79 46 80 47 81 48 82 49 83
REMARK H PARENT 78 18 70 39 40 50
REMARK Flexibility Score: inf
ROOT
ATOM      1  C   UNL     1       0.167 -10.529   3.228  1.00  0.00     0.275 C 
ENDROOT
BRANCH   1   2
ATOM      2  C   UNL     1       1.513 -10.207   2.581  1.00  0.00     0.275 C 
BRANCH   2   3
ATOM      3  O   UNL     1       1.920  -8.845   2.806  1.00  0.00    -0.457 OA
BRANCH   3   4
ATOM      4  C   UNL     1       1.489  -7.941   1.890  1.00  0.00     0.364 C 
ATOM      5  O   UNL     1       0.910  -8.208   0.841  1.00  0.00    -0.244 OA
BRANCH   4   6
ATOM      6  C   UNL     1       1.704  -6.543   2.351  1.00  0.00     0.232 A 
ATOM      7  C   UNL     1       1.429  -2.211   2.521  1.00  0.00     0.210 A 
ATOM      8  N   UNL     1       2.360  -2.747   3.360  1.00  0.00    -0.182 NA
ATOM      9  N   UNL     1       0.716  -3.085   1.815  1.00  0.00    -0.134 NA
ATOM     10  C   UNL     1       2.219  -4.043   3.176  1.00  0.00     0.275 A 
ATOM     11  N   UNL     1       1.224  -4.270   2.232  1.00  0.00    -0.159 N 
ATOM     12  N   UNL     1       2.900  -5.102   3.707  1.00  0.00    -0.108 NA
ATOM     13  C   UNL     1       0.945  -5.567   1.801  1.00  0.00     0.251 A 
ATOM     14  N   UNL     1       2.663  -6.280   3.316  1.00  0.00    -0.134 NA
BRANCH   7  15
ATOM     15  S   UNL     1       1.214  -0.490   2.344  1.00  0.00    -0.088 SA
ATOM     16  C   UNL     1       1.128  -0.362   0.544  1.00  0.00     0.094 C 
ENDBRANCH   7  15
BRANCH  13  17
ATOM     17  O   UNL     1      -0.044  -5.753   0.843  1.00  0.00    -0.491 OA
ATOM     18  H   UNL     1      -0.246  -6.617   0.540  1.00  0.00     0.295 HD
ENDBRANCH  13  17
ENDBRANCH   4   6
ENDBRANCH   3   4
ENDBRANCH   2   3
ENDBRANCH   1   2
BRANCH   1  19
ATOM     19  O   UNL     1      -0.943  -9.965   2.521  1.00  0.00    -0.458 OA
BRANCH  19  20
ATOM     20  C   UNL     1      -1.315  -8.740   2.947  1.00  0.00     0.338 C 
ATOM     21  O   UNL     1      -0.628  -7.957   3.595  1.00  0.00    -0.246 OA
BRANCH  20  22
ATOM     22  C   UNL     1      -2.734  -8.497   2.678  1.00  0.00     0.060 A 
ATOM     23  C   UNL     1      -3.222  -7.223   2.985  1.00  0.00     0.016 A 
ATOM     24  C   UNL     1      -3.599  -9.560   2.385  1.00  0.00     0.016 A 
ATOM     25  C   UNL     1      -4.579  -7.056   3.165  1.00  0.00     0.010 A 
ATOM     26  C   UNL     1      -4.960  -9.385   2.552  1.00  0.00     0.010 A 
ATOM     27  C   UNL     1      -5.430  -8.158   3.020  1.00  0.00    -0.014 A 
BRANCH  27  28
ATOM     28  C   UNL     1      -6.829  -7.961   3.368  1.00  0.00     0.031 A 
ATOM     29  C   UNL     1      -7.560  -6.987   2.521  1.00  0.00     0.074 A 
ATOM     30  C   UNL     1      -7.451  -8.666   4.331  1.00  0.00     0.049 A 
ATOM     31  N   UNL     1      -8.168  -5.904   2.878  1.00  0.00    -0.248 NA
ATOM     32  C   UNL     1      -7.522  -7.214   1.068  1.00  0.00     0.031 C 
ATOM     33  C   UNL     1      -6.955  -9.843   5.051  1.00  0.00     0.029 A 
ATOM     34  N   UNL     1      -8.729  -8.538   4.782  1.00  0.00    -0.354 N 
ATOM     35  C   UNL     1      -8.731  -5.387   1.716  1.00  0.00     0.074 A 
ATOM     36  C   UNL     1      -8.202  -6.161   0.620  1.00  0.00     0.031 C 
ATOM     37  C   UNL     1      -7.995 -10.457   5.657  1.00  0.00     0.029 A 
ATOM     38  C   UNL     1      -9.187  -9.644   5.481  1.00  0.00     0.049 A 
ATOM     39  H   UNL     1      -9.277  -7.735   4.626  1.00  0.00     0.167 HD
ATOM     40  C   UNL     1      -9.742  -4.478   1.726  1.00  0.00     0.031 A 
ATOM     41  C   UNL     1     -10.471  -9.912   5.815  1.00  0.00     0.031 A 
ATOM     42  C   UNL     1      -9.886  -3.818   2.991  1.00  0.00     0.049 A 
ATOM     43  C   UNL     1     -11.232  -8.642   5.747  1.00  0.00     0.074 A 
ATOM     44  C   UNL     1      -9.096  -2.972   3.742  1.00  0.00     0.029 A 
ATOM     45  N   UNL     1     -10.877  -4.265   3.831  1.00  0.00    -0.354 N 
ATOM     46  N   UNL     1     -11.050  -7.641   6.561  1.00  0.00    -0.248 NA
ATOM     47  C   UNL     1     -11.957  -8.323   4.526  1.00  0.00     0.031 C 
ATOM     48  C   UNL     1      -9.393  -3.287   5.099  1.00  0.00     0.029 A 
ATOM     49  C   UNL     1     -10.357  -4.300   5.100  1.00  0.00     0.049 A 
ATOM     50  H   UNL     1     -11.793  -4.515   3.570  1.00  0.00     0.167 HD
ATOM     51  C   UNL     1     -11.277  -6.506   5.796  1.00  0.00     0.074 A 
ATOM     52  C   UNL     1     -11.952  -6.989   4.597  1.00  0.00     0.031 C 
ATOM     53  C   UNL     1     -10.657  -5.323   6.082  1.00  0.00     0.031 A 
BRANCH  40  54
ATOM     54  C   UNL     1     -10.818  -4.451   0.672  1.00  0.00    -0.014 A 
ATOM     55  C   UNL     1     -11.738  -3.387   0.642  1.00  0.00     0.010 A 
ATOM     56  C   UNL     1     -11.113  -5.583  -0.119  1.00  0.00     0.010 A 
ATOM     57  C   UNL     1     -12.923  -3.477  -0.103  1.00  0.00     0.020 A 
ATOM     58  C   UNL     1     -12.265  -5.664  -0.899  1.00  0.00     0.020 A 
ATOM     59  C   UNL     1     -13.184  -4.625  -0.855  1.00  0.00     0.054 A 
BRANCH  59  60
ATOM     60  S   UNL     1     -14.775  -4.796  -1.700  1.00  0.00     0.124 S 
ATOM     61  O   UNL     1     -15.700  -4.900  -0.576  1.00  0.00    -0.237 OA
ATOM     62  O   UNL     1     -14.852  -3.561  -2.474  1.00  0.00    -0.237 OA
ATOM     63  O   UNL     1     -14.612  -6.013  -2.493  1.00  0.00    -0.744 OA
ENDBRANCH  59  60
ENDBRANCH  40  54
BRANCH  41  64
ATOM     64  C   UNL     1     -11.114 -11.244   5.894  1.00  0.00    -0.014 A 
ATOM     65  C   UNL     1     -12.354 -11.417   6.533  1.00  0.00     0.010 A 
ATOM     66  C   UNL     1     -10.621 -12.312   5.114  1.00  0.00     0.010 A 
ATOM     67  C   UNL     1     -13.093 -12.599   6.361  1.00  0.00     0.020 A 
ATOM     68  C   UNL     1     -11.345 -13.496   4.948  1.00  0.00     0.020 A 
ATOM     69  C   UNL     1     -12.590 -13.625   5.555  1.00  0.00     0.054 A 
BRANCH  69  70
ATOM     70  S   UNL     1     -13.621 -15.081   5.215  1.00  0.00     0.124 S 
ATOM     71  O   UNL     1     -13.695 -15.722   6.525  1.00  0.00    -0.237 OA
ATOM     72  O   UNL     1     -14.861 -14.482   4.732  1.00  0.00    -0.237 OA
ATOM     73  O   UNL     1     -12.857 -15.817   4.208  1.00  0.00    -0.744 OA
ENDBRANCH  69  70
ENDBRANCH  41  64
BRANCH  53  74
ATOM     74  C   UNL     1      -9.963  -5.184   7.418  1.00  0.00    -0.014 A 
ATOM     75  C   UNL     1      -8.842  -5.959   7.777  1.00  0.00     0.010 A 
ATOM     76  C   UNL     1     -10.337  -4.116   8.253  1.00  0.00     0.010 A 
ATOM     77  C   UNL     1      -8.117  -5.674   8.943  1.00  0.00     0.020 A 
ATOM     78  C   UNL     1      -9.608  -3.817   9.408  1.00  0.00     0.020 A 
ATOM     79  C   UNL     1      -8.501  -4.597   9.748  1.00  0.00     0.054 A 
BRANCH  79  80
ATOM     80  S   UNL     1      -7.495  -4.174  11.198  1.00  0.00     0.124 S 
ATOM     81  O   UNL     1      -7.768  -5.282  12.109  1.00  0.00    -0.237 OA
ATOM     82  O   UNL     1      -6.140  -4.129  10.652  1.00  0.00    -0.237 OA
ATOM     83  O   UNL     1      -8.025  -2.879  11.624  1.00  0.00    -0.744 OA
ENDBRANCH  79  80
ENDBRANCH  53  74
ENDBRANCH  27  28
ENDBRANCH  20  22
ENDBRANCH  19  20
ENDBRANCH   1  19
TORSDOF 16
