REMARK SMILES O=C(NC1(C(=O)OCCOC(=O)c2ccc(-c3c4nc(c(-c5ccc(S(=O)(=O)[O-])cc5)c5ccc([nH]5)c(-c5ccc(S(=O)(=O)[O-])cc5)c5nc(c(-c6ccc(S(=O)(=O)[O-])cc6)c6ccc3[nH]6)C=C5)C=C4)cc2)CC[NH2+]CC1)OCC1c2ccccc2-c2ccccc21
REMARK SMILES IDX 8 1 7 2 5 3 6 4 4 5 73 6 77 7 74 8 76 9 75 10 3 13 1 14 2 15
REMARK SMILES IDX 78 17 79 18 80 19 81 20 92 21 82 22 86 23 87 24 91 25 83 26
REMARK SMILES IDX 85 27 88 28 90 29 84 30 89 31 9 32 10 33 11 34 12 35 13 36
REMARK SMILES IDX 14 37 72 38 15 39 71 40 16 41 17 42 18 43 65 44 19 45 70 46
REMARK SMILES IDX 64 47 66 48 20 49 69 50 63 51 62 52 21 54 51 55 32 56 50 57
REMARK SMILES IDX 33 58 36 59 49 60 67 61 34 62 35 63 48 65 68 66 37 67 22 68
REMARK SMILES IDX 23 69 31 70 24 71 30 72 25 73 26 74 27 75 28 76 29 77 52 78
REMARK SMILES IDX 53 79 61 80 54 81 60 82 55 83 56 84 57 85 58 86 59 87 38 88
REMARK SMILES IDX 39 89 47 90 40 91 46 92 41 93 42 94 43 95 44 96 45 97
REMARK H PARENT 75 11 75 12 3 16 66 53 36 64
REMARK Flexibility Score: inf
ROOT
ATOM      1  C   UNL     1       5.997  -1.877  -0.465  1.00  0.00     0.274 C 
ENDROOT
BRANCH   1   2
ATOM      2  O   UNL     1       5.168  -1.306   0.572  1.00  0.00    -0.460 OA
BRANCH   2   3
ATOM      3  C   UNL     1       5.862  -0.393   1.362  1.00  0.00     0.332 C 
ATOM      4  O   UNL     1       7.089  -0.364   1.407  1.00  0.00    -0.249 OA
BRANCH   3   5
ATOM      5  C   UNL     1       4.962   0.531   2.270  1.00  0.00     0.151 C 
ATOM      6  C   UNL     1       5.084  -0.124   3.662  1.00  0.00     0.102 C 
ATOM      7  C   UNL     1       5.495   1.996   2.358  1.00  0.00     0.102 C 
ATOM      8  C   UNL     1       4.618   0.752   4.819  1.00  0.00     0.263 C 
ATOM      9  C   UNL     1       4.906   2.756   3.544  1.00  0.00     0.263 C 
ATOM     10  N   UNL     1       5.242   2.070   4.785  1.00  0.00    -0.346 N 
ATOM     11  H   UNL     1       6.255   1.965   4.848  1.00  0.00     0.346 HD
ATOM     12  H   UNL     1       4.898   2.621   5.572  1.00  0.00     0.346 HD
BRANCH   5  13
ATOM     13  N   UNL     1       3.579   0.533   1.773  1.00  0.00    -0.305 N 
ATOM     14  O   UNL     1       2.169   0.933   0.027  1.00  0.00    -0.225 OA
ATOM     15  C   UNL     1       3.286   0.993   0.518  1.00  0.00     0.408 C 
ATOM     16  H   UNL     1       2.854   0.201   2.350  1.00  0.00     0.168 HD
BRANCH  15  17
ATOM     17  O   UNL     1       4.404   1.430  -0.113  1.00  0.00    -0.449 OA
BRANCH  17  18
ATOM     18  C   UNL     1       4.545   1.097  -1.482  1.00  0.00     0.248 C 
BRANCH  18  19
ATOM     19  C   UNL     1       5.792   1.715  -2.142  1.00  0.00     0.088 C 
ATOM     20  C   UNL     1       7.299   1.629  -1.788  1.00  0.00    -0.029 A 
ATOM     21  C   UNL     1       5.618   3.220  -2.321  1.00  0.00    -0.029 A 
ATOM     22  C   UNL     1       8.150   0.644  -1.300  1.00  0.00     0.005 A 
ATOM     23  C   UNL     1       7.906   2.845  -2.188  1.00  0.00    -0.014 A 
ATOM     24  C   UNL     1       6.879   3.811  -2.499  1.00  0.00    -0.014 A 
ATOM     25  C   UNL     1       4.466   3.993  -2.295  1.00  0.00     0.005 A 
ATOM     26  C   UNL     1       9.538   0.846  -1.222  1.00  0.00     0.000 A 
ATOM     27  C   UNL     1       9.287   3.040  -2.156  1.00  0.00     0.009 A 
ATOM     28  C   UNL     1       6.995   5.157  -2.784  1.00  0.00     0.009 A 
ATOM     29  C   UNL     1       4.586   5.361  -2.520  1.00  0.00     0.000 A 
ATOM     30  C   UNL     1      10.108   2.029  -1.671  1.00  0.00     0.001 A 
ATOM     31  C   UNL     1       5.835   5.932  -2.799  1.00  0.00     0.001 A 
ENDBRANCH  18  19
ENDBRANCH  17  18
ENDBRANCH  15  17
ENDBRANCH   5  13
ENDBRANCH   3   5
ENDBRANCH   2   3
ENDBRANCH   1   2
BRANCH   1  32
ATOM     32  C   UNL     1       5.392  -2.844  -1.484  1.00  0.00     0.275 C 
BRANCH  32  33
ATOM     33  O   UNL     1       4.197  -2.284  -2.019  1.00  0.00    -0.458 OA
BRANCH  33  34
ATOM     34  C   UNL     1       3.393  -3.155  -2.676  1.00  0.00     0.338 C 
ATOM     35  O   UNL     1       3.698  -4.265  -3.073  1.00  0.00    -0.246 OA
BRANCH  34  36
ATOM     36  C   UNL     1       2.019  -2.610  -2.603  1.00  0.00     0.060 A 
ATOM     37  C   UNL     1       1.806  -1.254  -2.358  1.00  0.00     0.016 A 
ATOM     38  C   UNL     1       0.941  -3.490  -2.588  1.00  0.00     0.016 A 
ATOM     39  C   UNL     1       0.568  -0.807  -1.920  1.00  0.00     0.010 A 
ATOM     40  C   UNL     1      -0.329  -3.010  -2.261  1.00  0.00     0.010 A 
ATOM     41  C   UNL     1      -0.522  -1.671  -1.868  1.00  0.00    -0.014 A 
BRANCH  41  42
ATOM     42  C   UNL     1      -1.861  -1.235  -1.388  1.00  0.00     0.031 A 
ATOM     43  C   UNL     1      -2.592  -2.112  -0.409  1.00  0.00     0.074 A 
ATOM     44  C   UNL     1      -2.466  -0.135  -1.877  1.00  0.00     0.049 A 
ATOM     45  N   UNL     1      -3.876  -2.294  -0.260  1.00  0.00    -0.248 NA
ATOM     46  C   UNL     1      -1.757  -2.937   0.482  1.00  0.00     0.031 C 
ATOM     47  C   UNL     1      -1.858   0.890  -2.728  1.00  0.00     0.029 A 
ATOM     48  N   UNL     1      -3.776   0.271  -1.762  1.00  0.00    -0.354 N 
ATOM     49  C   UNL     1      -4.003  -3.332   0.659  1.00  0.00     0.074 A 
ATOM     50  C   UNL     1      -2.665  -3.717   1.053  1.00  0.00     0.031 C 
ATOM     51  C   UNL     1      -2.787   1.791  -3.073  1.00  0.00     0.029 A 
ATOM     52  C   UNL     1      -4.077   1.327  -2.590  1.00  0.00     0.049 A 
ATOM     53  H   UNL     1      -4.426  -0.149  -1.153  1.00  0.00     0.167 HD
ATOM     54  C   UNL     1      -5.144  -3.918   1.095  1.00  0.00     0.031 A 
ATOM     55  C   UNL     1      -5.259   1.802  -3.022  1.00  0.00     0.031 A 
ATOM     56  C   UNL     1      -6.456  -3.457   0.717  1.00  0.00     0.049 A 
ATOM     57  C   UNL     1      -6.515   1.118  -2.578  1.00  0.00     0.074 A 
ATOM     58  C   UNL     1      -7.691  -3.945   1.105  1.00  0.00     0.029 A 
ATOM     59  N   UNL     1      -6.699  -2.376  -0.121  1.00  0.00    -0.354 N 
ATOM     60  N   UNL     1      -6.647   0.059  -1.814  1.00  0.00    -0.248 NA
ATOM     61  C   UNL     1      -7.777   1.682  -3.065  1.00  0.00     0.031 C 
ATOM     62  C   UNL     1      -8.679  -3.184   0.470  1.00  0.00     0.029 A 
ATOM     63  C   UNL     1      -8.062  -2.184  -0.266  1.00  0.00     0.049 A 
ATOM     64  H   UNL     1      -6.004  -1.825  -0.548  1.00  0.00     0.167 HD
ATOM     65  C   UNL     1      -8.014  -0.160  -1.710  1.00  0.00     0.074 A 
ATOM     66  C   UNL     1      -8.662   0.886  -2.479  1.00  0.00     0.031 C 
ATOM     67  C   UNL     1      -8.675  -1.136  -1.041  1.00  0.00     0.031 A 
BRANCH  54  68
ATOM     68  C   UNL     1      -5.033  -5.142   1.970  1.00  0.00    -0.014 A 
ATOM     69  C   UNL     1      -4.560  -5.075   3.292  1.00  0.00     0.010 A 
ATOM     70  C   UNL     1      -5.467  -6.385   1.468  1.00  0.00     0.010 A 
ATOM     71  C   UNL     1      -4.493  -6.229   4.081  1.00  0.00     0.020 A 
ATOM     72  C   UNL     1      -5.431  -7.535   2.263  1.00  0.00     0.020 A 
ATOM     73  C   UNL     1      -4.929  -7.452   3.562  1.00  0.00     0.054 A 
BRANCH  73  74
ATOM     74  S   UNL     1      -4.863  -8.925   4.621  1.00  0.00     0.124 S 
ATOM     75  O   UNL     1      -3.428  -9.194   4.673  1.00  0.00    -0.237 OA
ATOM     76  O   UNL     1      -5.458  -8.450   5.867  1.00  0.00    -0.237 OA
ATOM     77  O   UNL     1      -5.655  -9.913   3.893  1.00  0.00    -0.744 OA
ENDBRANCH  73  74
ENDBRANCH  54  68
BRANCH  55  78
ATOM     78  C   UNL     1      -5.279   2.924  -4.000  1.00  0.00    -0.014 A 
ATOM     79  C   UNL     1      -5.686   4.206  -3.599  1.00  0.00     0.010 A 
ATOM     80  C   UNL     1      -4.806   2.735  -5.314  1.00  0.00     0.010 A 
ATOM     81  C   UNL     1      -5.612   5.281  -4.489  1.00  0.00     0.020 A 
ATOM     82  C   UNL     1      -4.699   3.813  -6.196  1.00  0.00     0.020 A 
ATOM     83  C   UNL     1      -5.108   5.080  -5.778  1.00  0.00     0.054 A 
BRANCH  83  84
ATOM     84  S   UNL     1      -4.930   6.511  -6.879  1.00  0.00     0.124 S 
ATOM     85  O   UNL     1      -6.313   6.773  -7.261  1.00  0.00    -0.237 OA
ATOM     86  O   UNL     1      -4.315   7.507  -6.004  1.00  0.00    -0.237 OA
ATOM     87  O   UNL     1      -4.066   6.015  -7.948  1.00  0.00    -0.744 OA
ENDBRANCH  83  84
ENDBRANCH  55  78
BRANCH  67  88
ATOM     88  C   UNL     1     -10.176  -1.075  -1.071  1.00  0.00    -0.014 A 
ATOM     89  C   UNL     1     -10.898  -1.412  -2.229  1.00  0.00     0.010 A 
ATOM     90  C   UNL     1     -10.871  -0.691   0.090  1.00  0.00     0.010 A 
ATOM     91  C   UNL     1     -12.292  -1.327  -2.236  1.00  0.00     0.020 A 
ATOM     92  C   UNL     1     -12.265  -0.633   0.095  1.00  0.00     0.020 A 
ATOM     93  C   UNL     1     -12.966  -0.935  -1.074  1.00  0.00     0.054 A 
BRANCH  93  94
ATOM     94  S   UNL     1     -14.776  -0.857  -1.101  1.00  0.00     0.124 S 
ATOM     95  O   UNL     1     -15.016   0.346  -1.893  1.00  0.00    -0.237 OA
ATOM     96  O   UNL     1     -15.142  -2.117  -1.743  1.00  0.00    -0.237 OA
ATOM     97  O   UNL     1     -15.139  -0.755   0.311  1.00  0.00    -0.744 OA
ENDBRANCH  93  94
ENDBRANCH  67  88
ENDBRANCH  41  42
ENDBRANCH  34  36
ENDBRANCH  33  34
ENDBRANCH  32  33
ENDBRANCH   1  32
TORSDOF 18
