REMARK SMILES O=C(OCCOC(=O)c1cc(-c2ccn(C(F)F)c(=O)c2)ccc1O)c1ccc(-c2c3nc(c(-c4ccc(S(=O)(=O)[O-])cc4)c4ccc([nH]4)c(-c4ccc(S(=O)(=O)[O-])cc4)c4nc(c(-c5ccc(S(=O)(=O)[O-])cc5)c5ccc2[nH]5)C=C4)C=C3)cc1
REMARK SMILES IDX 4 1 3 2 2 3 1 4 26 5 27 6 85 7 28 8 84 9 29 10 30 11 31 12
REMARK SMILES IDX 78 13 32 14 83 15 77 16 79 17 33 18 82 19 76 20 75 21 34 23
REMARK SMILES IDX 64 24 45 25 63 26 46 27 49 28 62 29 80 30 47 31 48 32 61 34
REMARK SMILES IDX 81 35 50 36 35 37 36 38 44 39 37 40 43 41 38 42 39 43 40 44
REMARK SMILES IDX 41 45 42 46 65 47 66 48 74 49 67 50 73 51 68 52 69 53 70 54
REMARK SMILES IDX 71 55 72 56 51 57 52 58 60 59 53 60 59 61 54 62 55 63 56 64
REMARK SMILES IDX 57 65 58 66 5 67 6 68 7 69 8 70 9 71 10 72 24 73 11 74 23 75
REMARK SMILES IDX 22 76 25 77 12 79 13 80 21 81 14 82 19 83 15 84 20 85 16 86
REMARK SMILES IDX 17 87 18 88
REMARK H PARENT 79 22 49 33 25 78
REMARK Flexibility Score: inf
ROOT
ATOM      1  C   UNL     1       4.249   0.029  -1.492  1.00  0.00     0.275 C 
ENDROOT
BRANCH   1   2
ATOM      2  O   UNL     1       3.241  -0.802  -0.899  1.00  0.00    -0.458 OA
BRANCH   2   3
ATOM      3  C   UNL     1       3.006  -1.085   0.403  1.00  0.00     0.338 C 
ATOM      4  O   UNL     1       2.120  -1.899   0.665  1.00  0.00    -0.246 OA
BRANCH   3   5
ATOM      5  C   UNL     1       3.662  -0.375   1.552  1.00  0.00     0.060 A 
ATOM      6  C   UNL     1       2.915  -0.335   2.737  1.00  0.00     0.016 A 
ATOM      7  C   UNL     1       4.908   0.256   1.564  1.00  0.00     0.016 A 
ATOM      8  C   UNL     1       3.323   0.429   3.834  1.00  0.00     0.010 A 
ATOM      9  C   UNL     1       5.342   0.996   2.676  1.00  0.00     0.010 A 
ATOM     10  C   UNL     1       4.539   1.120   3.809  1.00  0.00    -0.014 A 
BRANCH  10  11
ATOM     11  C   UNL     1       5.020   1.819   5.027  1.00  0.00     0.031 A 
ATOM     12  C   UNL     1       5.160   3.314   5.098  1.00  0.00     0.074 A 
ATOM     13  C   UNL     1       5.322   1.060   6.098  1.00  0.00     0.049 A 
ATOM     14  N   UNL     1       5.299   4.070   6.157  1.00  0.00    -0.248 NA
ATOM     15  C   UNL     1       5.118   4.071   3.838  1.00  0.00     0.031 C 
ATOM     16  C   UNL     1       5.249  -0.403   6.131  1.00  0.00     0.029 A 
ATOM     17  N   UNL     1       5.734   1.402   7.359  1.00  0.00    -0.354 N 
ATOM     18  C   UNL     1       5.279   5.383   5.703  1.00  0.00     0.074 A 
ATOM     19  C   UNL     1       5.169   5.329   4.263  1.00  0.00     0.031 C 
ATOM     20  C   UNL     1       5.566  -0.831   7.359  1.00  0.00     0.029 A 
ATOM     21  C   UNL     1       5.913   0.318   8.186  1.00  0.00     0.049 A 
ATOM     22  H   UNL     1       5.887   2.331   7.645  1.00  0.00     0.167 HD
ATOM     23  C   UNL     1       5.351   6.524   6.429  1.00  0.00     0.031 A 
ATOM     24  C   UNL     1       6.312   0.251   9.470  1.00  0.00     0.031 A 
ATOM     25  C   UNL     1       5.650   6.549   7.838  1.00  0.00     0.049 A 
ATOM     26  C   UNL     1       6.556   1.532  10.210  1.00  0.00     0.074 A 
ATOM     27  C   UNL     1       5.795   7.652   8.663  1.00  0.00     0.029 A 
ATOM     28  N   UNL     1       5.919   5.431   8.615  1.00  0.00    -0.354 N 
ATOM     29  N   UNL     1       6.383   2.765   9.793  1.00  0.00    -0.248 NA
ATOM     30  C   UNL     1       7.029   1.420  11.594  1.00  0.00     0.031 C 
ATOM     31  C   UNL     1       6.271   7.208   9.898  1.00  0.00     0.029 A 
ATOM     32  C   UNL     1       6.307   5.822   9.885  1.00  0.00     0.049 A 
ATOM     33  H   UNL     1       5.845   4.499   8.309  1.00  0.00     0.167 HD
ATOM     34  C   UNL     1       6.695   3.577  10.876  1.00  0.00     0.074 A 
ATOM     35  C   UNL     1       7.055   2.693  11.967  1.00  0.00     0.031 C 
ATOM     36  C   UNL     1       6.678   4.930  10.958  1.00  0.00     0.031 A 
BRANCH  23  37
ATOM     37  C   UNL     1       5.135   7.851   5.743  1.00  0.00    -0.014 A 
ATOM     38  C   UNL     1       6.195   8.769   5.627  1.00  0.00     0.010 A 
ATOM     39  C   UNL     1       3.834   8.268   5.402  1.00  0.00     0.010 A 
ATOM     40  C   UNL     1       5.954  10.092   5.242  1.00  0.00     0.020 A 
ATOM     41  C   UNL     1       3.591   9.586   4.997  1.00  0.00     0.020 A 
ATOM     42  C   UNL     1       4.649  10.497   4.948  1.00  0.00     0.054 A 
BRANCH  42  43
ATOM     43  S   UNL     1       4.346  12.243   4.551  1.00  0.00     0.124 S 
ATOM     44  O   UNL     1       4.602  12.900   5.829  1.00  0.00    -0.237 OA
ATOM     45  O   UNL     1       5.326  12.499   3.499  1.00  0.00    -0.237 OA
ATOM     46  O   UNL     1       2.953  12.257   4.109  1.00  0.00    -0.744 OA
ENDBRANCH  42  43
ENDBRANCH  23  37
BRANCH  24  47
ATOM     47  C   UNL     1       6.445  -1.085  10.114  1.00  0.00    -0.014 A 
ATOM     48  C   UNL     1       7.391  -2.014   9.634  1.00  0.00     0.010 A 
ATOM     49  C   UNL     1       5.557  -1.481  11.128  1.00  0.00     0.010 A 
ATOM     50  C   UNL     1       7.401  -3.328  10.106  1.00  0.00     0.020 A 
ATOM     51  C   UNL     1       5.589  -2.786  11.630  1.00  0.00     0.020 A 
ATOM     52  C   UNL     1       6.490  -3.709  11.093  1.00  0.00     0.054 A 
BRANCH  52  53
ATOM     53  S   UNL     1       6.490  -5.434  11.653  1.00  0.00     0.124 S 
ATOM     54  O   UNL     1       5.867  -6.116  10.522  1.00  0.00    -0.237 OA
ATOM     55  O   UNL     1       7.912  -5.704  11.845  1.00  0.00    -0.237 OA
ATOM     56  O   UNL     1       5.695  -5.396  12.878  1.00  0.00    -0.744 OA
ENDBRANCH  52  53
ENDBRANCH  24  47
BRANCH  36  57
ATOM     57  C   UNL     1       7.056   5.560  12.273  1.00  0.00    -0.014 A 
ATOM     58  C   UNL     1       6.097   6.306  12.985  1.00  0.00     0.010 A 
ATOM     59  C   UNL     1       8.378   5.512  12.750  1.00  0.00     0.010 A 
ATOM     60  C   UNL     1       6.458   7.019  14.129  1.00  0.00     0.020 A 
ATOM     61  C   UNL     1       8.733   6.191  13.918  1.00  0.00     0.020 A 
ATOM     62  C   UNL     1       7.776   6.961  14.585  1.00  0.00     0.054 A 
BRANCH  62  63
ATOM     63  S   UNL     1       8.228   7.902  16.066  1.00  0.00     0.124 S 
ATOM     64  O   UNL     1       8.304   9.266  15.551  1.00  0.00    -0.237 OA
ATOM     65  O   UNL     1       7.113   7.632  16.971  1.00  0.00    -0.237 OA
ATOM     66  O   UNL     1       9.504   7.315  16.470  1.00  0.00    -0.744 OA
ENDBRANCH  62  63
ENDBRANCH  36  57
ENDBRANCH  10  11
ENDBRANCH   3   5
ENDBRANCH   2   3
ENDBRANCH   1   2
BRANCH   1  67
ATOM     67  C   UNL     1       3.911   1.521  -1.530  1.00  0.00     0.275 C 
BRANCH  67  68
ATOM     68  O   UNL     1       3.392   2.022  -0.291  1.00  0.00    -0.458 OA
BRANCH  68  69
ATOM     69  C   UNL     1       2.042   2.168  -0.220  1.00  0.00     0.342 C 
ATOM     70  O   UNL     1       1.235   1.881  -1.091  1.00  0.00    -0.246 OA
BRANCH  69  71
ATOM     71  C   UNL     1       1.647   2.593   1.141  1.00  0.00     0.102 A 
ATOM     72  C   UNL     1       0.665   1.842   1.816  1.00  0.00     0.028 A 
ATOM     73  C   UNL     1       2.212   3.713   1.757  1.00  0.00     0.130 A 
ATOM     74  C   UNL     1       0.307   2.168   3.134  1.00  0.00    -0.017 A 
ATOM     75  C   UNL     1       1.847   4.050   3.060  1.00  0.00     0.048 A 
ATOM     76  C   UNL     1       0.920   3.267   3.751  1.00  0.00     0.012 A 
BRANCH  73  77
ATOM     77  O   UNL     1       3.109   4.498   1.088  1.00  0.00    -0.507 OA
ATOM     78  H   UNL     1       3.360   4.280   0.212  1.00  0.00     0.293 HD
ENDBRANCH  73  77
BRANCH  74  79
ATOM     79  C   UNL     1      -0.723   1.424   3.889  1.00  0.00    -0.011 A 
ATOM     80  C   UNL     1      -1.997   2.031   4.226  1.00  0.00     0.027 A 
ATOM     81  C   UNL     1      -0.461   0.191   4.358  1.00  0.00     0.080 A 
ATOM     82  C   UNL     1      -2.881   1.388   4.997  1.00  0.00     0.095 A 
ATOM     83  C   UNL     1      -1.443  -0.551   5.197  1.00  0.00     0.255 A 
ATOM     84  N   UNL     1      -2.619   0.120   5.479  1.00  0.00    -0.258 N 
ATOM     85  O   UNL     1      -1.156  -1.680   5.580  1.00  0.00    -0.269 OA
BRANCH  84  86
ATOM     86  C   UNL     1      -3.571  -0.559   6.318  1.00  0.00     0.451 C 
ATOM     87  F   UNL     1      -3.968  -1.731   5.764  1.00  0.00    -0.185 F 
ATOM     88  F   UNL     1      -3.051  -0.825   7.540  1.00  0.00    -0.185 F 
ENDBRANCH  84  86
ENDBRANCH  74  79
ENDBRANCH  69  71
ENDBRANCH  68  69
ENDBRANCH  67  68
ENDBRANCH   1  67
TORSDOF 17
