REMARK SMILES CC(C)OC(=O)c1c(NC(=O)[C@H]2[C@@H](C(=O)OCCOC(=O)c3ccc(-c4c5nc(c(-c6ccc(S(=O)(=O)[O-])cc6)c6ccc([nH]6)c(-c6ccc(S(=O)(=O)[O-])cc6)c6nc(c(-c7ccc(S(=O)(=O)[O-])cc7)c7ccc4[nH]7)C=C6)C=C5)cc3)[C@@H]3C=C[C@H]2CC3)sc2c1CCC2
REMARK SMILES IDX 17 1 16 2 14 3 15 4 13 5 12 6 85 7 82 8 84 9 86 10 83 11
REMARK SMILES IDX 87 12 10 13 9 14 11 16 8 17 7 18 90 19 88 20 89 21 91 22
REMARK SMILES IDX 93 23 92 24 5 25 6 26 4 27 2 28 1 29 3 30 18 31 19 32 20 33
REMARK SMILES IDX 21 34 22 35 23 36 81 37 24 38 80 39 25 40 26 41 27 42 74 43
REMARK SMILES IDX 28 44 79 45 73 46 75 47 29 48 78 49 72 50 71 51 30 53 60 54
REMARK SMILES IDX 41 55 59 56 42 57 45 58 58 59 76 60 43 61 44 62 57 64 77 65
REMARK SMILES IDX 46 66 31 67 32 68 40 69 33 70 39 71 34 72 35 73 36 74 37 75
REMARK SMILES IDX 38 76 61 77 62 78 70 79 63 80 69 81 64 82 65 83 66 84 67 85
REMARK SMILES IDX 68 86 47 87 48 88 56 89 49 90 55 91 50 92 51 93 52 94 53 95
REMARK SMILES IDX 54 96
REMARK H PARENT 9 15 75 52 45 63
REMARK Flexibility Score: inf
ROOT
ATOM      1  C   UNL     1      -8.990   1.905   0.313  1.00  0.00     0.274 C 
ENDROOT
BRANCH   1   2
ATOM      2  O   UNL     1      -8.578   1.209   1.501  1.00  0.00    -0.462 OA
BRANCH   2   3
ATOM      3  C   UNL     1      -7.730   0.159   1.291  1.00  0.00     0.310 C 
ATOM      4  O   UNL     1      -7.390  -0.224   0.180  1.00  0.00    -0.252 OA
BRANCH   3   5
ATOM      5  C   UNL     1      -7.114  -0.312   2.595  1.00  0.00     0.119 C 
ATOM      6  C   UNL     1      -6.458  -1.725   2.579  1.00  0.00     0.100 C 
ATOM      7  C   UNL     1      -7.125  -2.613   3.667  1.00  0.00     0.025 C 
ATOM      8  C   UNL     1      -8.048  -0.192   3.832  1.00  0.00     0.026 C 
ATOM      9  C   UNL     1      -6.828  -1.929   4.988  1.00  0.00    -0.027 C 
ATOM     10  C   UNL     1      -8.665  -2.606   3.492  1.00  0.00     0.009 C 
ATOM     11  C   UNL     1      -7.280  -0.666   5.062  1.00  0.00    -0.027 C 
ATOM     12  C   UNL     1      -9.219  -1.175   3.650  1.00  0.00     0.009 C 
BRANCH   6  13
ATOM     13  C   UNL     1      -6.349  -2.524   1.283  1.00  0.00     0.229 C 
ATOM     14  N   UNL     1      -5.142  -2.966   0.802  1.00  0.00    -0.317 N 
ATOM     15  H   UNL     1      -5.148  -3.161  -0.163  1.00  0.00     0.170 HD
ATOM     16  O   UNL     1      -7.361  -2.837   0.646  1.00  0.00    -0.274 OA
BRANCH  14  17
ATOM     17  C   UNL     1      -3.913  -3.191   1.411  1.00  0.00     0.110 A 
ATOM     18  C   UNL     1      -2.728  -3.612   0.789  1.00  0.00     0.098 A 
ATOM     19  C   UNL     1      -1.678  -3.690   1.756  1.00  0.00    -0.017 A 
ATOM     20  S   UNL     1      -3.742  -3.162   3.119  1.00  0.00    -0.122 S 
ATOM     21  C   UNL     1      -2.106  -3.347   3.006  1.00  0.00     0.011 A 
ATOM     22  C   UNL     1      -0.220  -3.986   1.783  1.00  0.00     0.038 C 
ATOM     23  C   UNL     1      -1.048  -3.276   4.032  1.00  0.00     0.047 C 
ATOM     24  C   UNL     1       0.069  -4.086   3.323  1.00  0.00     0.010 C 
BRANCH  18  25
ATOM     25  C   UNL     1      -2.638  -3.895  -0.637  1.00  0.00     0.341 C 
ATOM     26  O   UNL     1      -3.279  -3.268  -1.477  1.00  0.00    -0.246 OA
BRANCH  25  27
ATOM     27  O   UNL     1      -1.873  -4.990  -0.897  1.00  0.00    -0.459 OA
BRANCH  27  28
ATOM     28  C   UNL     1      -1.774  -5.507  -2.244  1.00  0.00     0.170 C 
ATOM     29  C   UNL     1      -3.122  -5.795  -2.905  1.00  0.00     0.052 C 
ATOM     30  C   UNL     1      -0.869  -4.631  -3.099  1.00  0.00     0.052 C 
ENDBRANCH  27  28
ENDBRANCH  25  27
ENDBRANCH  18  25
ENDBRANCH  14  17
ENDBRANCH   6  13
ENDBRANCH   3   5
ENDBRANCH   2   3
ENDBRANCH   1   2
BRANCH   1  31
ATOM     31  C   UNL     1      -7.980   2.964  -0.113  1.00  0.00     0.275 C 
BRANCH  31  32
ATOM     32  O   UNL     1      -6.752   2.394  -0.560  1.00  0.00    -0.458 OA
BRANCH  32  33
ATOM     33  C   UNL     1      -5.772   2.291   0.368  1.00  0.00     0.338 C 
ATOM     34  O   UNL     1      -5.888   2.430   1.575  1.00  0.00    -0.246 OA
BRANCH  33  35
ATOM     35  C   UNL     1      -4.476   2.186  -0.317  1.00  0.00     0.060 A 
ATOM     36  C   UNL     1      -3.325   2.051   0.466  1.00  0.00     0.016 A 
ATOM     37  C   UNL     1      -4.404   2.506  -1.679  1.00  0.00     0.016 A 
ATOM     38  C   UNL     1      -2.110   2.424  -0.078  1.00  0.00     0.010 A 
ATOM     39  C   UNL     1      -3.203   2.906  -2.208  1.00  0.00     0.010 A 
ATOM     40  C   UNL     1      -2.084   2.934  -1.380  1.00  0.00    -0.014 A 
BRANCH  40  41
ATOM     41  C   UNL     1      -0.828   3.394  -1.937  1.00  0.00     0.031 A 
ATOM     42  C   UNL     1       0.065   2.277  -2.321  1.00  0.00     0.074 A 
ATOM     43  C   UNL     1      -0.593   4.689  -2.229  1.00  0.00     0.049 A 
ATOM     44  N   UNL     1       1.183   1.938  -1.774  1.00  0.00    -0.248 NA
ATOM     45  C   UNL     1      -0.437   1.309  -3.314  1.00  0.00     0.031 C 
ATOM     46  C   UNL     1      -1.524   5.820  -2.167  1.00  0.00     0.029 A 
ATOM     47  N   UNL     1       0.523   5.252  -2.762  1.00  0.00    -0.354 N 
ATOM     48  C   UNL     1       1.637   0.850  -2.508  1.00  0.00     0.074 A 
ATOM     49  C   UNL     1       0.516   0.379  -3.280  1.00  0.00     0.031 C 
ATOM     50  C   UNL     1      -1.010   6.861  -2.865  1.00  0.00     0.029 A 
ATOM     51  C   UNL     1       0.334   6.520  -3.303  1.00  0.00     0.049 A 
ATOM     52  H   UNL     1       1.397   4.798  -2.766  1.00  0.00     0.167 HD
ATOM     53  C   UNL     1       2.966   0.593  -2.650  1.00  0.00     0.031 A 
ATOM     54  C   UNL     1       1.200   7.198  -4.103  1.00  0.00     0.031 A 
ATOM     55  C   UNL     1       3.755   1.298  -1.675  1.00  0.00     0.049 A 
ATOM     56  C   UNL     1       2.537   6.577  -3.915  1.00  0.00     0.074 A 
ATOM     57  C   UNL     1       3.789   1.313  -0.294  1.00  0.00     0.029 A 
ATOM     58  N   UNL     1       4.365   2.461  -2.083  1.00  0.00    -0.354 N 
ATOM     59  N   UNL     1       3.195   6.625  -2.790  1.00  0.00    -0.248 NA
ATOM     60  C   UNL     1       2.915   5.496  -4.812  1.00  0.00     0.031 C 
ATOM     61  C   UNL     1       3.970   2.683   0.053  1.00  0.00     0.029 A 
ATOM     62  C   UNL     1       4.125   3.415  -1.126  1.00  0.00     0.049 A 
ATOM     63  H   UNL     1       4.882   2.586  -2.912  1.00  0.00     0.167 HD
ATOM     64  C   UNL     1       3.736   5.356  -2.641  1.00  0.00     0.074 A 
ATOM     65  C   UNL     1       3.600   4.730  -3.957  1.00  0.00     0.031 C 
ATOM     66  C   UNL     1       3.982   4.830  -1.404  1.00  0.00     0.031 A 
BRANCH  53  67
ATOM     67  C   UNL     1       3.547   0.034  -3.923  1.00  0.00    -0.014 A 
ATOM     68  C   UNL     1       4.905  -0.329  -3.962  1.00  0.00     0.010 A 
ATOM     69  C   UNL     1       2.862   0.089  -5.158  1.00  0.00     0.010 A 
ATOM     70  C   UNL     1       5.547  -0.598  -5.179  1.00  0.00     0.020 A 
ATOM     71  C   UNL     1       3.478  -0.221  -6.369  1.00  0.00     0.020 A 
ATOM     72  C   UNL     1       4.826  -0.540  -6.375  1.00  0.00     0.054 A 
BRANCH  72  73
ATOM     73  S   UNL     1       5.675  -0.836  -7.944  1.00  0.00     0.124 S 
ATOM     74  O   UNL     1       6.584   0.303  -8.014  1.00  0.00    -0.237 OA
ATOM     75  O   UNL     1       6.299  -2.136  -7.714  1.00  0.00    -0.237 OA
ATOM     76  O   UNL     1       4.591  -0.837  -8.924  1.00  0.00    -0.744 OA
ENDBRANCH  72  73
ENDBRANCH  53  67
BRANCH  54  77
ATOM     77  C   UNL     1       0.893   8.076  -5.266  1.00  0.00    -0.014 A 
ATOM     78  C   UNL     1       1.886   8.881  -5.861  1.00  0.00     0.010 A 
ATOM     79  C   UNL     1      -0.309   7.897  -5.981  1.00  0.00     0.010 A 
ATOM     80  C   UNL     1       1.706   9.433  -7.145  1.00  0.00     0.020 A 
ATOM     81  C   UNL     1      -0.498   8.446  -7.257  1.00  0.00     0.020 A 
ATOM     82  C   UNL     1       0.521   9.192  -7.845  1.00  0.00     0.054 A 
BRANCH  82  83
ATOM     83  S   UNL     1       0.363   9.748  -9.571  1.00  0.00     0.124 S 
ATOM     84  O   UNL     1       0.265  11.197  -9.425  1.00  0.00    -0.237 OA
ATOM     85  O   UNL     1       1.596   9.257 -10.179  1.00  0.00    -0.237 OA
ATOM     86  O   UNL     1      -0.857   9.089 -10.035  1.00  0.00    -0.744 OA
ENDBRANCH  82  83
ENDBRANCH  54  77
BRANCH  66  87
ATOM     87  C   UNL     1       3.897   5.748  -0.202  1.00  0.00    -0.014 A 
ATOM     88  C   UNL     1       2.728   6.426   0.201  1.00  0.00     0.010 A 
ATOM     89  C   UNL     1       5.021   5.804   0.640  1.00  0.00     0.010 A 
ATOM     90  C   UNL     1       2.699   7.160   1.399  1.00  0.00     0.020 A 
ATOM     91  C   UNL     1       4.994   6.516   1.841  1.00  0.00     0.020 A 
ATOM     92  C   UNL     1       3.836   7.201   2.212  1.00  0.00     0.054 A 
BRANCH  92  93
ATOM     93  S   UNL     1       3.795   8.122   3.776  1.00  0.00     0.124 S 
ATOM     94  O   UNL     1       3.702   9.508   3.327  1.00  0.00    -0.237 OA
ATOM     95  O   UNL     1       2.603   7.592   4.435  1.00  0.00    -0.237 OA
ATOM     96  O   UNL     1       5.058   7.766   4.423  1.00  0.00    -0.744 OA
ENDBRANCH  92  93
ENDBRANCH  66  87
ENDBRANCH  40  41
ENDBRANCH  33  35
ENDBRANCH  32  33
ENDBRANCH  31  32
ENDBRANCH   1  31
TORSDOF 19
