REMARK SMILES Cn1cc(C[C@@H](NC(=O)OCC2c3ccccc3-c3ccccc32)C(=O)OCCOC(=O)c2ccc(-c3c4nc(c(-c5ccc(S(=O)(=O)[O-])cc5)c5ccc([nH]5)c(-c5ccc(S(=O)(=O)[O-])cc5)c5nc(c(-c6ccc(S(=O)(=O)[O-])cc6)c6ccc3[nH]6)C=C5)C=C4)cc2)c2ccccc21
REMARK SMILES IDX 28 1 27 2 25 3 26 4 6 5 5 6 4 7 1 8 2 9 3 10 98 11 93 12
REMARK SMILES IDX 97 13 94 14 96 15 95 16 7 17 8 18 9 20 10 21 11 22 12 23
REMARK SMILES IDX 13 24 24 25 14 26 18 27 19 28 23 29 15 30 17 31 20 32 22 33
REMARK SMILES IDX 16 34 21 35 29 36 30 37 31 38 32 39 33 40 34 41 92 42 35 43
REMARK SMILES IDX 91 44 36 45 37 46 38 47 85 48 39 49 90 50 84 51 86 52 40 53
REMARK SMILES IDX 89 54 83 55 82 56 41 58 71 59 52 60 70 61 53 62 56 63 69 64
REMARK SMILES IDX 87 65 54 66 55 67 68 69 88 70 57 71 42 72 43 73 51 74 44 75
REMARK SMILES IDX 50 76 45 77 46 78 47 79 48 80 49 81 72 82 73 83 81 84 74 85
REMARK SMILES IDX 80 86 75 87 76 88 77 89 78 90 79 91 58 92 59 93 67 94 60 95
REMARK SMILES IDX 66 96 61 97 62 98 63 99 64 100 65 101
REMARK H PARENT 7 19 86 57 56 68
REMARK Flexibility Score: inf
ROOT
ATOM      1  C   UNL     1       0.183  -7.529   0.223  1.00  0.00     0.274 C 
ENDROOT
BRANCH   1   2
ATOM      2  O   UNL     1       0.103  -6.101   0.062  1.00  0.00    -0.461 OA
BRANCH   2   3
ATOM      3  C   UNL     1      -0.024  -5.385   1.218  1.00  0.00     0.329 C 
ATOM      4  O   UNL     1      -0.010  -5.876   2.342  1.00  0.00    -0.250 OA
BRANCH   3   5
ATOM      5  C   UNL     1      -0.332  -3.909   0.946  1.00  0.00     0.200 C 
BRANCH   5   6
ATOM      6  C   UNL     1       0.303  -3.337  -0.340  1.00  0.00     0.075 C 
BRANCH   6   7
ATOM      7  C   UNL     1       0.482  -1.833  -0.280  1.00  0.00    -0.020 A 
ATOM      8  C   UNL     1       2.426   1.213   0.134  1.00  0.00     0.149 C 
ATOM      9  N   UNL     1       1.422   0.180  -0.010  1.00  0.00    -0.350 N 
ATOM     10  C   UNL     1       1.676  -1.165  -0.063  1.00  0.00     0.090 A 
ATOM     11  C   UNL     1       0.070   0.414  -0.131  1.00  0.00     0.048 A 
ATOM     12  C   UNL     1      -0.531  -0.821  -0.393  1.00  0.00     0.003 A 
ATOM     13  C   UNL     1      -0.670   1.605  -0.041  1.00  0.00     0.027 A 
ATOM     14  C   UNL     1      -1.918  -0.841  -0.655  1.00  0.00     0.010 A 
ATOM     15  C   UNL     1      -2.053   1.538  -0.230  1.00  0.00     0.002 A 
ATOM     16  C   UNL     1      -2.669   0.334  -0.548  1.00  0.00     0.001 A 
ENDBRANCH   6   7
ENDBRANCH   5   6
BRANCH   5  17
ATOM     17  N   UNL     1      -1.753  -3.586   1.064  1.00  0.00    -0.308 N 
ATOM     18  C   UNL     1      -2.798  -4.340   0.638  1.00  0.00     0.407 C 
ATOM     19  H   UNL     1      -1.975  -2.731   1.499  1.00  0.00     0.168 HD
ATOM     20  O   UNL     1      -3.813  -3.828   0.169  1.00  0.00    -0.225 OA
BRANCH  18  21
ATOM     21  O   UNL     1      -2.665  -5.652   0.949  1.00  0.00    -0.449 OA
BRANCH  21  22
ATOM     22  C   UNL     1      -3.898  -6.370   1.143  1.00  0.00     0.248 C 
BRANCH  22  23
ATOM     23  C   UNL     1      -4.400  -6.356   2.608  1.00  0.00     0.088 C 
ATOM     24  C   UNL     1      -3.710  -7.367   3.526  1.00  0.00    -0.029 A 
ATOM     25  C   UNL     1      -4.196  -5.055   3.380  1.00  0.00    -0.029 A 
ATOM     26  C   UNL     1      -3.667  -8.751   3.417  1.00  0.00     0.005 A 
ATOM     27  C   UNL     1      -3.177  -6.712   4.657  1.00  0.00    -0.014 A 
ATOM     28  C   UNL     1      -3.426  -5.292   4.539  1.00  0.00    -0.014 A 
ATOM     29  C   UNL     1      -4.646  -3.778   3.078  1.00  0.00     0.005 A 
ATOM     30  C   UNL     1      -3.087  -9.479   4.460  1.00  0.00     0.000 A 
ATOM     31  C   UNL     1      -2.602  -7.434   5.690  1.00  0.00     0.009 A 
ATOM     32  C   UNL     1      -3.038  -4.244   5.360  1.00  0.00     0.009 A 
ATOM     33  C   UNL     1      -4.237  -2.719   3.892  1.00  0.00     0.000 A 
ATOM     34  C   UNL     1      -2.564  -8.827   5.589  1.00  0.00     0.001 A 
ATOM     35  C   UNL     1      -3.433  -2.949   5.018  1.00  0.00     0.001 A 
ENDBRANCH  22  23
ENDBRANCH  21  22
ENDBRANCH  18  21
ENDBRANCH   5  17
ENDBRANCH   3   5
ENDBRANCH   2   3
ENDBRANCH   1   2
BRANCH   1  36
ATOM     36  C   UNL     1       1.628  -8.038   0.217  1.00  0.00     0.275 C 
BRANCH  36  37
ATOM     37  O   UNL     1       2.358  -7.606   1.377  1.00  0.00    -0.458 OA
BRANCH  37  38
ATOM     38  C   UNL     1       2.943  -6.391   1.254  1.00  0.00     0.338 C 
ATOM     39  O   UNL     1       2.985  -5.696   0.252  1.00  0.00    -0.246 OA
BRANCH  38  40
ATOM     40  C   UNL     1       3.395  -5.911   2.569  1.00  0.00     0.060 A 
ATOM     41  C   UNL     1       2.974  -4.640   2.971  1.00  0.00     0.016 A 
ATOM     42  C   UNL     1       4.276  -6.653   3.359  1.00  0.00     0.016 A 
ATOM     43  C   UNL     1       3.443  -4.091   4.158  1.00  0.00     0.010 A 
ATOM     44  C   UNL     1       4.762  -6.093   4.543  1.00  0.00     0.010 A 
ATOM     45  C   UNL     1       4.365  -4.799   4.932  1.00  0.00    -0.014 A 
BRANCH  45  46
ATOM     46  C   UNL     1       5.019  -4.119   6.069  1.00  0.00     0.031 A 
ATOM     47  C   UNL     1       6.399  -3.558   5.880  1.00  0.00     0.074 A 
ATOM     48  C   UNL     1       4.363  -3.955   7.231  1.00  0.00     0.049 A 
ATOM     49  N   UNL     1       7.176  -2.960   6.745  1.00  0.00    -0.248 NA
ATOM     50  C   UNL     1       6.983  -3.687   4.533  1.00  0.00     0.031 C 
ATOM     51  C   UNL     1       2.994  -4.397   7.500  1.00  0.00     0.029 A 
ATOM     52  N   UNL     1       4.763  -3.365   8.403  1.00  0.00    -0.354 N 
ATOM     53  C   UNL     1       8.345  -2.659   6.057  1.00  0.00     0.074 A 
ATOM     54  C   UNL     1       8.183  -3.153   4.706  1.00  0.00     0.031 C 
ATOM     55  C   UNL     1       2.668  -4.064   8.761  1.00  0.00     0.029 A 
ATOM     56  C   UNL     1       3.817  -3.421   9.396  1.00  0.00     0.049 A 
ATOM     57  H   UNL     1       5.644  -2.941   8.520  1.00  0.00     0.167 HD
ATOM     58  C   UNL     1       9.454  -2.029   6.511  1.00  0.00     0.031 A 
ATOM     59  C   UNL     1       3.881  -3.019  10.680  1.00  0.00     0.031 A 
ATOM     60  C   UNL     1       9.606  -1.548   7.858  1.00  0.00     0.049 A 
ATOM     61  C   UNL     1       5.146  -2.371  11.178  1.00  0.00     0.074 A 
ATOM     62  C   UNL     1      10.692  -0.909   8.429  1.00  0.00     0.029 A 
ATOM     63  N   UNL     1       8.637  -1.652   8.846  1.00  0.00    -0.354 N 
ATOM     64  N   UNL     1       6.253  -2.113  10.523  1.00  0.00    -0.248 NA
ATOM     65  C   UNL     1       5.166  -1.954  12.586  1.00  0.00     0.031 C 
ATOM     66  C   UNL     1      10.396  -0.664   9.774  1.00  0.00     0.029 A 
ATOM     67  C   UNL     1       9.104  -1.099  10.026  1.00  0.00     0.049 A 
ATOM     68  H   UNL     1       7.749  -2.059   8.726  1.00  0.00     0.167 HD
ATOM     69  C   UNL     1       7.092  -1.478  11.432  1.00  0.00     0.074 A 
ATOM     70  C   UNL     1       6.358  -1.380  12.678  1.00  0.00     0.031 C 
ATOM     71  C   UNL     1       8.354  -1.013  11.253  1.00  0.00     0.031 A 
BRANCH  58  72
ATOM     72  C   UNL     1      10.601  -1.871   5.551  1.00  0.00    -0.014 A 
ATOM     73  C   UNL     1      10.542  -0.956   4.484  1.00  0.00     0.010 A 
ATOM     74  C   UNL     1      11.765  -2.640   5.729  1.00  0.00     0.010 A 
ATOM     75  C   UNL     1      11.611  -0.843   3.590  1.00  0.00     0.020 A 
ATOM     76  C   UNL     1      12.846  -2.512   4.852  1.00  0.00     0.020 A 
ATOM     77  C   UNL     1      12.754  -1.626   3.777  1.00  0.00     0.054 A 
BRANCH  77  78
ATOM     78  S   UNL     1      14.132  -1.452   2.610  1.00  0.00     0.124 S 
ATOM     79  O   UNL     1      13.617  -2.143   1.431  1.00  0.00    -0.237 OA
ATOM     80  O   UNL     1      14.263  -0.003   2.481  1.00  0.00    -0.237 OA
ATOM     81  O   UNL     1      15.244  -2.116   3.285  1.00  0.00    -0.744 OA
ENDBRANCH  77  78
ENDBRANCH  58  72
BRANCH  59  82
ATOM     82  C   UNL     1       2.722  -3.238  11.587  1.00  0.00    -0.014 A 
ATOM     83  C   UNL     1       1.958  -2.154  12.055  1.00  0.00     0.010 A 
ATOM     84  C   UNL     1       2.373  -4.542  11.985  1.00  0.00     0.010 A 
ATOM     85  C   UNL     1       0.879  -2.369  12.917  1.00  0.00     0.020 A 
ATOM     86  C   UNL     1       1.278  -4.762  12.825  1.00  0.00     0.020 A 
ATOM     87  C   UNL     1       0.545  -3.672  13.296  1.00  0.00     0.054 A 
BRANCH  87  88
ATOM     88  S   UNL     1      -0.890  -3.933  14.376  1.00  0.00     0.124 S 
ATOM     89  O   UNL     1      -0.372  -3.515  15.675  1.00  0.00    -0.237 OA
ATOM     90  O   UNL     1      -1.896  -3.056  13.783  1.00  0.00    -0.237 OA
ATOM     91  O   UNL     1      -1.163  -5.362  14.240  1.00  0.00    -0.744 OA
ENDBRANCH  87  88
ENDBRANCH  59  82
BRANCH  71  92
ATOM     92  C   UNL     1       8.999  -0.315  12.420  1.00  0.00    -0.014 A 
ATOM     93  C   UNL     1       9.448  -1.029  13.544  1.00  0.00     0.010 A 
ATOM     94  C   UNL     1       9.189   1.079  12.369  1.00  0.00     0.010 A 
ATOM     95  C   UNL     1      10.037  -0.355  14.618  1.00  0.00     0.020 A 
ATOM     96  C   UNL     1       9.801   1.752  13.428  1.00  0.00     0.020 A 
ATOM     97  C   UNL     1      10.204   1.033  14.555  1.00  0.00     0.054 A 
BRANCH  97  98
ATOM     98  S   UNL     1      10.990   1.885  15.950  1.00  0.00     0.124 S 
ATOM     99  O   UNL     1       9.911   1.915  16.933  1.00  0.00    -0.237 OA
ATOM    100  O   UNL     1      12.112   1.007  16.274  1.00  0.00    -0.237 OA
ATOM    101  O   UNL     1      11.364   3.184  15.394  1.00  0.00    -0.744 OA
ENDBRANCH  97  98
ENDBRANCH  71  92
ENDBRANCH  45  46
ENDBRANCH  38  40
ENDBRANCH  37  38
ENDBRANCH  36  37
ENDBRANCH   1  36
TORSDOF 20
