REMARK SMILES CC[N@H+](CC(C)(C)C(=O)OCCOC(=O)c1ccc(-c2c3nc(c(-c4ccc(S(=O)(=O)[O-])cc4)c4ccc([nH]4)c(-c4ccc(S(=O)(=O)[O-])cc4)c4nc(c(-c5ccc(S(=O)(=O)[O-])cc5)c5ccc2[nH]5)C=C4)C=C3)cc1)[C@H]1CCC[NH2+]C1
REMARK SMILES IDX 11 1 10 2 8 3 9 4 5 5 6 6 7 7 4 8 3 9 2 11 1 12 76 13 77 14
REMARK SMILES IDX 81 15 78 16 80 17 79 18 12 21 13 22 14 23 15 24 16 25 17 26
REMARK SMILES IDX 75 27 18 28 74 29 19 30 20 31 21 32 68 33 22 34 73 35 67 36
REMARK SMILES IDX 69 37 23 38 72 39 66 40 65 41 24 43 54 44 35 45 53 46 36 47
REMARK SMILES IDX 39 48 52 49 70 50 37 51 38 52 51 54 71 55 40 56 25 57 26 58
REMARK SMILES IDX 34 59 27 60 33 61 28 62 29 63 30 64 31 65 32 66 55 67 56 68
REMARK SMILES IDX 64 69 57 70 63 71 58 72 59 73 60 74 61 75 62 76 41 77 42 78
REMARK SMILES IDX 50 79 43 80 49 81 44 82 45 83 46 84 47 85 48 86
REMARK H PARENT 3 10 80 19 80 20 69 42 39 53
REMARK Flexibility Score: inf
ROOT
ATOM      1  C   UNL     1       6.933   4.760  -5.490  1.00  0.00     0.274 C 
ENDROOT
BRANCH   1   2
ATOM      2  O   UNL     1       5.523   4.989  -5.277  1.00  0.00    -0.461 OA
BRANCH   2   3
ATOM      3  C   UNL     1       4.886   3.999  -4.584  1.00  0.00     0.317 C 
ATOM      4  O   UNL     1       5.490   3.019  -4.175  1.00  0.00    -0.251 OA
BRANCH   3   5
ATOM      5  C   UNL     1       3.365   4.232  -4.449  1.00  0.00     0.111 C 
ATOM      6  C   UNL     1       2.664   3.793  -5.739  1.00  0.00     0.029 C 
ATOM      7  C   UNL     1       3.140   5.759  -4.265  1.00  0.00     0.029 C 
BRANCH   5   8
ATOM      8  C   UNL     1       2.721   3.546  -3.181  1.00  0.00     0.280 C 
BRANCH   8   9
ATOM      9  N   UNL     1       2.453   2.086  -3.010  1.00  0.00    -0.327 N 
ATOM     10  H   UNL     1       1.761   1.809  -3.706  1.00  0.00     0.348 HD
BRANCH   9  11
ATOM     11  C   UNL     1       3.594   1.240  -3.389  1.00  0.00     0.259 C 
ATOM     12  C   UNL     1       3.425  -0.258  -3.630  1.00  0.00     0.071 C 
ENDBRANCH   9  11
BRANCH   9  13
ATOM     13  C   UNL     1       1.732   1.767  -1.712  1.00  0.00     0.239 C 
ATOM     14  C   UNL     1       2.100   0.426  -1.036  1.00  0.00     0.077 C 
ATOM     15  C   UNL     1       1.708   2.893  -0.613  1.00  0.00     0.326 C 
ATOM     16  C   UNL     1       1.393   0.177   0.294  1.00  0.00     0.068 C 
ATOM     17  N   UNL     1       0.999   2.554   0.625  1.00  0.00    -0.341 N 
ATOM     18  C   UNL     1       1.551   1.351   1.242  1.00  0.00     0.260 C 
ATOM     19  H   UNL     1       1.084   3.331   1.280  1.00  0.00     0.346 HD
ATOM     20  H   UNL     1       0.020   2.378   0.398  1.00  0.00     0.346 HD
ENDBRANCH   9  13
ENDBRANCH   8   9
ENDBRANCH   5   8
ENDBRANCH   3   5
ENDBRANCH   2   3
ENDBRANCH   1   2
BRANCH   1  21
ATOM     21  C   UNL     1       7.790   5.298  -4.340  1.00  0.00     0.275 C 
BRANCH  21  22
ATOM     22  O   UNL     1       7.571   4.548  -3.129  1.00  0.00    -0.458 OA
BRANCH  22  23
ATOM     23  C   UNL     1       7.248   5.257  -2.028  1.00  0.00     0.338 C 
ATOM     24  O   UNL     1       7.165   6.481  -1.937  1.00  0.00    -0.246 OA
BRANCH  23  25
ATOM     25  C   UNL     1       6.969   4.357  -0.895  1.00  0.00     0.060 A 
ATOM     26  C   UNL     1       5.891   3.481  -0.971  1.00  0.00     0.016 A 
ATOM     27  C   UNL     1       7.677   4.470   0.302  1.00  0.00     0.016 A 
ATOM     28  C   UNL     1       5.477   2.763   0.148  1.00  0.00     0.010 A 
ATOM     29  C   UNL     1       7.285   3.712   1.418  1.00  0.00     0.010 A 
ATOM     30  C   UNL     1       6.152   2.879   1.365  1.00  0.00    -0.014 A 
BRANCH  30  31
ATOM     31  C   UNL     1       5.586   2.251   2.594  1.00  0.00     0.031 A 
ATOM     32  C   UNL     1       5.119   3.136   3.722  1.00  0.00     0.074 A 
ATOM     33  C   UNL     1       5.360   0.924   2.686  1.00  0.00     0.049 A 
ATOM     34  N   UNL     1       4.801   2.815   4.949  1.00  0.00    -0.248 NA
ATOM     35  C   UNL     1       4.978   4.571   3.421  1.00  0.00     0.031 C 
ATOM     36  C   UNL     1       5.567  -0.055   1.618  1.00  0.00     0.029 A 
ATOM     37  N   UNL     1       4.859   0.174   3.725  1.00  0.00    -0.354 N 
ATOM     38  C   UNL     1       4.503   4.014   5.588  1.00  0.00     0.074 A 
ATOM     39  C   UNL     1       4.633   5.064   4.602  1.00  0.00     0.031 C 
ATOM     40  C   UNL     1       5.136  -1.258   2.034  1.00  0.00     0.029 A 
ATOM     41  C   UNL     1       4.734  -1.165   3.435  1.00  0.00     0.049 A 
ATOM     42  H   UNL     1       4.611   0.560   4.596  1.00  0.00     0.167 HD
ATOM     43  C   UNL     1       4.186   4.220   6.889  1.00  0.00     0.031 A 
ATOM     44  C   UNL     1       4.388  -2.208   4.219  1.00  0.00     0.031 A 
ATOM     45  C   UNL     1       4.031   3.169   7.857  1.00  0.00     0.049 A 
ATOM     46  C   UNL     1       4.139  -1.970   5.687  1.00  0.00     0.074 A 
ATOM     47  C   UNL     1       3.840   3.273   9.223  1.00  0.00     0.029 A 
ATOM     48  N   UNL     1       4.019   1.818   7.552  1.00  0.00    -0.354 N 
ATOM     49  N   UNL     1       4.065  -0.834   6.338  1.00  0.00    -0.248 NA
ATOM     50  C   UNL     1       3.976  -3.160   6.537  1.00  0.00     0.031 C 
ATOM     51  C   UNL     1       3.745   1.980   9.750  1.00  0.00     0.029 A 
ATOM     52  C   UNL     1       3.827   1.076   8.703  1.00  0.00     0.049 A 
ATOM     53  H   UNL     1       4.131   1.441   6.649  1.00  0.00     0.167 HD
ATOM     54  C   UNL     1       3.848  -1.173   7.670  1.00  0.00     0.074 A 
ATOM     55  C   UNL     1       3.773  -2.617   7.731  1.00  0.00     0.031 C 
ATOM     56  C   UNL     1       3.739  -0.360   8.749  1.00  0.00     0.031 A 
BRANCH  43  57
ATOM     57  C   UNL     1       4.100   5.644   7.361  1.00  0.00    -0.014 A 
ATOM     58  C   UNL     1       2.979   6.450   7.102  1.00  0.00     0.010 A 
ATOM     59  C   UNL     1       5.173   6.174   8.103  1.00  0.00     0.010 A 
ATOM     60  C   UNL     1       2.950   7.776   7.550  1.00  0.00     0.020 A 
ATOM     61  C   UNL     1       5.138   7.489   8.569  1.00  0.00     0.020 A 
ATOM     62  C   UNL     1       4.033   8.288   8.274  1.00  0.00     0.054 A 
BRANCH  62  63
ATOM     63  S   UNL     1       3.972  10.007   8.849  1.00  0.00     0.124 S 
ATOM     64  O   UNL     1       4.228  10.745   7.614  1.00  0.00    -0.237 OA
ATOM     65  O   UNL     1       2.616  10.123   9.380  1.00  0.00    -0.237 OA
ATOM     66  O   UNL     1       5.037  10.077   9.847  1.00  0.00    -0.744 OA
ENDBRANCH  62  63
ENDBRANCH  43  57
BRANCH  44  67
ATOM     67  C   UNL     1       4.341  -3.592   3.666  1.00  0.00    -0.014 A 
ATOM     68  C   UNL     1       3.128  -4.303   3.624  1.00  0.00     0.010 A 
ATOM     69  C   UNL     1       5.513  -4.221   3.207  1.00  0.00     0.010 A 
ATOM     70  C   UNL     1       3.092  -5.618   3.147  1.00  0.00     0.020 A 
ATOM     71  C   UNL     1       5.475  -5.522   2.698  1.00  0.00     0.020 A 
ATOM     72  C   UNL     1       4.267  -6.219   2.687  1.00  0.00     0.054 A 
BRANCH  72  73
ATOM     73  S   UNL     1       4.202  -7.910   2.030  1.00  0.00     0.124 S 
ATOM     74  O   UNL     1       4.219  -8.708   3.251  1.00  0.00    -0.237 OA
ATOM     75  O   UNL     1       2.945  -7.917   1.286  1.00  0.00    -0.237 OA
ATOM     76  O   UNL     1       5.405  -7.997   1.205  1.00  0.00    -0.744 OA
ENDBRANCH  72  73
ENDBRANCH  44  67
BRANCH  56  77
ATOM     77  C   UNL     1       3.504  -0.995  10.092  1.00  0.00    -0.014 A 
ATOM     78  C   UNL     1       4.554  -1.613  10.791  1.00  0.00     0.010 A 
ATOM     79  C   UNL     1       2.244  -0.876  10.706  1.00  0.00     0.010 A 
ATOM     80  C   UNL     1       4.347  -2.107  12.083  1.00  0.00     0.020 A 
ATOM     81  C   UNL     1       2.038  -1.351  12.004  1.00  0.00     0.020 A 
ATOM     82  C   UNL     1       3.091  -1.967  12.683  1.00  0.00     0.054 A 
BRANCH  82  83
ATOM     83  S   UNL     1       2.872  -2.536  14.392  1.00  0.00     0.124 S 
ATOM     84  O   UNL     1       2.812  -3.985  14.226  1.00  0.00    -0.237 OA
ATOM     85  O   UNL     1       4.070  -2.029  15.057  1.00  0.00    -0.237 OA
ATOM     86  O   UNL     1       1.622  -1.904  14.809  1.00  0.00    -0.744 OA
ENDBRANCH  82  83
ENDBRANCH  56  77
ENDBRANCH  30  31
ENDBRANCH  23  25
ENDBRANCH  22  23
ENDBRANCH  21  22
ENDBRANCH   1  21
TORSDOF 18
