REMARK SMILES CN(CC(=O)OCCOC(=O)c1ccc(-c2c3nc(c(-c4ccc(S(=O)(=O)[O-])cc4)c4ccc([nH]4)c(-c4ccc(S(=O)(=O)[O-])cc4)c4nc(c(-c5ccc(S(=O)(=O)[O-])cc5)c5ccc2[nH]5)C=C4)C=C3)cc1)C(=O)N[C@@H]1C[C@H]1c1ccccc1
REMARK SMILES IDX 7 1 6 2 4 3 5 4 3 5 2 6 1 7 72 8 73 9 74 10 75 12 76 13
REMARK SMILES IDX 77 14 78 15 79 16 83 17 80 18 82 19 81 20 8 21 9 22 10 23
REMARK SMILES IDX 11 24 12 25 13 26 71 27 14 28 70 29 15 30 16 31 17 32 64 33
REMARK SMILES IDX 18 34 69 35 63 36 65 37 19 38 68 39 62 40 61 41 20 43 50 44
REMARK SMILES IDX 31 45 49 46 32 47 35 48 48 49 66 50 33 51 34 52 47 54 67 55
REMARK SMILES IDX 36 56 21 57 22 58 30 59 23 60 29 61 24 62 25 63 26 64 27 65
REMARK SMILES IDX 28 66 51 67 52 68 60 69 53 70 59 71 54 72 55 73 56 74 57 75
REMARK SMILES IDX 58 76 37 77 38 78 46 79 39 80 45 81 40 82 41 83 42 84 43 85
REMARK SMILES IDX 44 86
REMARK H PARENT 74 11 65 42 35 53
REMARK Flexibility Score: inf
ROOT
ATOM      1  C   UNL     1      -2.419  -0.348   0.318  1.00  0.00     0.274 C 
ENDROOT
BRANCH   1   2
ATOM      2  O   UNL     1      -1.057   0.062   0.453  1.00  0.00    -0.461 OA
BRANCH   2   3
ATOM      3  C   UNL     1      -0.295  -0.929   0.990  1.00  0.00     0.325 C 
ATOM      4  O   UNL     1      -0.421  -1.295   2.153  1.00  0.00    -0.250 OA
BRANCH   3   5
ATOM      5  C   UNL     1       0.647  -1.607  -0.035  1.00  0.00     0.243 C 
BRANCH   5   6
ATOM      6  N   UNL     1       0.799  -0.976  -1.347  1.00  0.00    -0.317 N 
ATOM      7  C   UNL     1       1.502   0.305  -1.265  1.00  0.00     0.149 C 
BRANCH   6   8
ATOM      8  C   UNL     1       0.708  -1.523  -2.597  1.00  0.00     0.317 C 
ATOM      9  O   UNL     1       1.327  -0.987  -3.532  1.00  0.00    -0.249 OA
ATOM     10  N   UNL     1       0.005  -2.601  -3.009  1.00  0.00    -0.335 N 
ATOM     11  H   UNL     1       0.227  -2.767  -3.954  1.00  0.00     0.165 HD
BRANCH  10  12
ATOM     12  C   UNL     1      -0.950  -3.606  -2.590  1.00  0.00     0.092 C 
ATOM     13  C   UNL     1      -1.271  -4.650  -3.639  1.00  0.00     0.036 C 
ATOM     14  C   UNL     1      -2.398  -3.765  -3.177  1.00  0.00     0.044 C 
BRANCH  14  15
ATOM     15  C   UNL     1      -3.639  -4.464  -2.528  1.00  0.00    -0.043 A 
ATOM     16  C   UNL     1      -3.943  -5.831  -2.675  1.00  0.00     0.004 A 
ATOM     17  C   UNL     1      -4.627  -3.748  -1.823  1.00  0.00     0.004 A 
ATOM     18  C   UNL     1      -5.034  -6.445  -2.018  1.00  0.00     0.000 A 
ATOM     19  C   UNL     1      -5.671  -4.346  -1.099  1.00  0.00     0.000 A 
ATOM     20  C   UNL     1      -5.866  -5.710  -1.184  1.00  0.00     0.000 A 
ENDBRANCH  14  15
ENDBRANCH  10  12
ENDBRANCH   6   8
ENDBRANCH   5   6
ENDBRANCH   3   5
ENDBRANCH   2   3
ENDBRANCH   1   2
BRANCH   1  21
ATOM     21  C   UNL     1      -2.493  -1.478  -0.681  1.00  0.00     0.275 C 
BRANCH  21  22
ATOM     22  O   UNL     1      -1.895  -2.732  -0.250  1.00  0.00    -0.458 OA
BRANCH  22  23
ATOM     23  C   UNL     1      -2.317  -3.558   0.733  1.00  0.00     0.338 C 
ATOM     24  O   UNL     1      -3.275  -3.373   1.460  1.00  0.00    -0.246 OA
BRANCH  23  25
ATOM     25  C   UNL     1      -1.408  -4.769   0.696  1.00  0.00     0.060 A 
ATOM     26  C   UNL     1      -0.108  -4.749   1.220  1.00  0.00     0.016 A 
ATOM     27  C   UNL     1      -1.806  -5.916   0.004  1.00  0.00     0.016 A 
ATOM     28  C   UNL     1       0.780  -5.834   1.014  1.00  0.00     0.010 A 
ATOM     29  C   UNL     1      -0.918  -6.990  -0.228  1.00  0.00     0.010 A 
ATOM     30  C   UNL     1       0.388  -6.979   0.293  1.00  0.00    -0.014 A 
BRANCH  30  31
ATOM     31  C   UNL     1       1.131  -8.275   0.459  1.00  0.00     0.031 A 
ATOM     32  C   UNL     1       2.180  -8.836  -0.476  1.00  0.00     0.074 A 
ATOM     33  C   UNL     1       0.774  -9.010   1.533  1.00  0.00     0.049 A 
ATOM     34  N   UNL     1       2.921  -9.913  -0.322  1.00  0.00    -0.248 NA
ATOM     35  C   UNL     1       2.426  -8.131  -1.740  1.00  0.00     0.031 C 
ATOM     36  C   UNL     1      -0.261  -8.620   2.496  1.00  0.00     0.029 A 
ATOM     37  N   UNL     1       1.213 -10.226   1.992  1.00  0.00    -0.354 N 
ATOM     38  C   UNL     1       3.733 -10.011  -1.450  1.00  0.00     0.074 A 
ATOM     39  C   UNL     1       3.365  -8.893  -2.302  1.00  0.00     0.031 C 
ATOM     40  C   UNL     1      -0.389  -9.580   3.418  1.00  0.00     0.029 A 
ATOM     41  C   UNL     1       0.557 -10.649   3.123  1.00  0.00     0.049 A 
ATOM     42  H   UNL     1       1.928 -10.744   1.555  1.00  0.00     0.167 HD
ATOM     43  C   UNL     1       4.689 -10.937  -1.743  1.00  0.00     0.031 A 
ATOM     44  C   UNL     1       0.692 -11.760   3.869  1.00  0.00     0.031 A 
ATOM     45  C   UNL     1       5.032 -12.068  -0.901  1.00  0.00     0.049 A 
ATOM     46  C   UNL     1       1.763 -12.749   3.542  1.00  0.00     0.074 A 
ATOM     47  C   UNL     1       6.059 -12.987  -1.067  1.00  0.00     0.029 A 
ATOM     48  N   UNL     1       4.348 -12.456   0.241  1.00  0.00    -0.354 N 
ATOM     49  N   UNL     1       2.608 -12.739   2.541  1.00  0.00    -0.248 NA
ATOM     50  C   UNL     1       1.923 -13.877   4.467  1.00  0.00     0.031 C 
ATOM     51  C   UNL     1       5.958 -13.960  -0.063  1.00  0.00     0.029 A 
ATOM     52  C   UNL     1       4.904 -13.618   0.765  1.00  0.00     0.049 A 
ATOM     53  H   UNL     1       3.579 -11.978   0.627  1.00  0.00     0.167 HD
ATOM     54  C   UNL     1       3.414 -13.855   2.723  1.00  0.00     0.074 A 
ATOM     55  C   UNL     1       2.967 -14.502   3.941  1.00  0.00     0.031 C 
ATOM     56  C   UNL     1       4.436 -14.295   1.948  1.00  0.00     0.031 A 
BRANCH  43  57
ATOM     57  C   UNL     1       5.479 -10.791  -3.030  1.00  0.00    -0.014 A 
ATOM     58  C   UNL     1       6.449  -9.781  -3.174  1.00  0.00     0.010 A 
ATOM     59  C   UNL     1       5.366 -11.762  -4.046  1.00  0.00     0.010 A 
ATOM     60  C   UNL     1       7.264  -9.729  -4.313  1.00  0.00     0.020 A 
ATOM     61  C   UNL     1       6.194 -11.726  -5.177  1.00  0.00     0.020 A 
ATOM     62  C   UNL     1       7.130 -10.700  -5.310  1.00  0.00     0.054 A 
BRANCH  62  63
ATOM     63  S   UNL     1       8.230 -10.630  -6.755  1.00  0.00     0.124 S 
ATOM     64  O   UNL     1       7.684  -9.492  -7.493  1.00  0.00    -0.237 OA
ATOM     65  O   UNL     1       9.543 -10.414  -6.152  1.00  0.00    -0.237 OA
ATOM     66  O   UNL     1       8.049 -11.930  -7.396  1.00  0.00    -0.744 OA
ENDBRANCH  62  63
ENDBRANCH  43  57
BRANCH  44  67
ATOM     67  C   UNL     1      -0.203 -11.938   5.040  1.00  0.00    -0.014 A 
ATOM     68  C   UNL     1       0.268 -11.680   6.338  1.00  0.00     0.010 A 
ATOM     69  C   UNL     1      -1.560 -12.253   4.845  1.00  0.00     0.010 A 
ATOM     70  C   UNL     1      -0.607 -11.729   7.424  1.00  0.00     0.020 A 
ATOM     71  C   UNL     1      -2.442 -12.280   5.926  1.00  0.00     0.020 A 
ATOM     72  C   UNL     1      -1.958 -12.021   7.210  1.00  0.00     0.054 A 
BRANCH  72  73
ATOM     73  S   UNL     1      -3.097 -11.975   8.621  1.00  0.00     0.124 S 
ATOM     74  O   UNL     1      -2.805 -13.241   9.286  1.00  0.00    -0.237 OA
ATOM     75  O   UNL     1      -2.673 -10.773   9.334  1.00  0.00    -0.237 OA
ATOM     76  O   UNL     1      -4.413 -11.885   7.993  1.00  0.00    -0.744 OA
ENDBRANCH  72  73
ENDBRANCH  44  67
BRANCH  56  77
ATOM     77  C   UNL     1       5.131 -15.552   2.402  1.00  0.00    -0.014 A 
ATOM     78  C   UNL     1       4.493 -16.804   2.313  1.00  0.00     0.010 A 
ATOM     79  C   UNL     1       6.424 -15.483   2.951  1.00  0.00     0.010 A 
ATOM     80  C   UNL     1       5.111 -17.952   2.816  1.00  0.00     0.020 A 
ATOM     81  C   UNL     1       7.056 -16.634   3.433  1.00  0.00     0.020 A 
ATOM     82  C   UNL     1       6.385 -17.858   3.384  1.00  0.00     0.054 A 
BRANCH  82  83
ATOM     83  S   UNL     1       7.164 -19.359   4.041  1.00  0.00     0.124 S 
ATOM     84  O   UNL     1       6.454 -19.541   5.304  1.00  0.00    -0.237 OA
ATOM     85  O   UNL     1       6.875 -20.352   3.010  1.00  0.00    -0.237 OA
ATOM     86  O   UNL     1       8.573 -18.991   4.165  1.00  0.00    -0.744 OA
ENDBRANCH  82  83
ENDBRANCH  56  77
ENDBRANCH  30  31
ENDBRANCH  23  25
ENDBRANCH  22  23
ENDBRANCH  21  22
ENDBRANCH   1  21
TORSDOF 18
