REMARK SMILES COc1cccc(/C=C2/C(=O)N(c3cccc(C(=O)OCCOC(=O)c4ccc(-c5c6nc(c(-c7ccc(S(=O)(=O)[O-])cc7)c7ccc([nH]7)c(-c7ccc(S(=O)(=O)[O-])cc7)c7nc(c(-c8ccc(S(=O)(=O)[O-])cc8)c8ccc5[nH]8)C=C7)C=C6)cc4)c3)N=C2C)c1
REMARK SMILES IDX 21 1 20 2 18 3 19 4 17 5 13 6 14 7 86 8 15 9 16 10 12 11
REMARK SMILES IDX 8 12 9 13 10 14 88 15 11 16 87 17 89 18 7 19 3 20 4 21 90 22
REMARK SMILES IDX 5 23 6 24 2 25 1 26 22 27 23 28 24 29 25 30 26 31 27 32
REMARK SMILES IDX 85 33 28 34 84 35 29 36 30 37 31 38 78 39 32 40 83 41 77 42
REMARK SMILES IDX 79 43 33 44 82 45 76 46 75 47 34 49 64 50 45 51 63 52 46 53
REMARK SMILES IDX 49 54 62 55 80 56 47 57 48 58 61 60 81 61 50 62 35 63 36 64
REMARK SMILES IDX 44 65 37 66 43 67 38 68 39 69 40 70 41 71 42 72 65 73 66 74
REMARK SMILES IDX 74 75 67 76 73 77 68 78 69 79 70 80 71 81 72 82 51 83 52 84
REMARK SMILES IDX 60 85 53 86 59 87 54 88 55 89 56 90 57 91 58 92
REMARK H PARENT 79 48 49 59
REMARK Flexibility Score: inf
ROOT
ATOM      1  C   UNL     1      11.541  -2.484  -0.109  1.00  0.00     0.275 C 
ENDROOT
BRANCH   1   2
ATOM      2  O   UNL     1      10.737  -1.861   0.913  1.00  0.00    -0.458 OA
BRANCH   2   3
ATOM      3  C   UNL     1      11.264  -1.807   2.165  1.00  0.00     0.338 C 
ATOM      4  O   UNL     1      12.336  -2.261   2.525  1.00  0.00    -0.246 OA
BRANCH   3   5
ATOM      5  C   UNL     1      10.383  -0.988   3.032  1.00  0.00     0.062 A 
ATOM      6  C   UNL     1       8.172  -0.269   3.677  1.00  0.00     0.070 A 
ATOM      7  C   UNL     1       8.726   0.747   4.464  1.00  0.00     0.028 A 
ATOM      8  C   UNL     1       9.002  -1.117   2.939  1.00  0.00     0.044 A 
ATOM      9  C   UNL     1      10.105   0.821   4.626  1.00  0.00     0.003 A 
ATOM     10  C   UNL     1      10.926  -0.075   3.944  1.00  0.00     0.016 A 
BRANCH   6  11
ATOM     11  N   UNL     1       6.787  -0.456   3.647  1.00  0.00    -0.196 N 
ATOM     12  C   UNL     1       3.750  -2.204   3.429  1.00  0.00     0.024 C 
ATOM     13  C   UNL     1       4.712  -1.277   3.493  1.00  0.00     0.065 C 
ATOM     14  C   UNL     1       6.133  -1.681   3.499  1.00  0.00     0.280 C 
ATOM     15  C   UNL     1       4.745   0.197   3.584  1.00  0.00     0.071 C 
ATOM     16  O   UNL     1       6.552  -2.819   3.415  1.00  0.00    -0.267 OA
ATOM     17  N   UNL     1       5.962   0.650   3.721  1.00  0.00    -0.169 NA
ATOM     18  C   UNL     1       3.569   1.107   3.486  1.00  0.00     0.069 C 
BRANCH  12  19
ATOM     19  C   UNL     1       2.333  -1.890   3.357  1.00  0.00    -0.021 A 
ATOM     20  C   UNL     1       0.510  -0.887   2.122  1.00  0.00     0.119 A 
ATOM     21  C   UNL     1      -0.307  -1.044   3.244  1.00  0.00     0.046 A 
ATOM     22  C   UNL     1       1.823  -1.346   2.173  1.00  0.00     0.054 A 
ATOM     23  C   UNL     1       0.180  -1.647   4.407  1.00  0.00     0.004 A 
ATOM     24  C   UNL     1       1.507  -2.066   4.468  1.00  0.00     0.008 A 
BRANCH  20  25
ATOM     25  O   UNL     1      -0.064  -0.246   1.060  1.00  0.00    -0.497 OA
ATOM     26  C   UNL     1       0.736  -0.098  -0.109  1.00  0.00     0.278 C 
ENDBRANCH  20  25
ENDBRANCH  12  19
ENDBRANCH   6  11
ENDBRANCH   3   5
ENDBRANCH   2   3
ENDBRANCH   1   2
BRANCH   1  27
ATOM     27  C   UNL     1      12.169  -1.444  -1.039  1.00  0.00     0.275 C 
BRANCH  27  28
ATOM     28  O   UNL     1      13.178  -0.686  -0.349  1.00  0.00    -0.458 OA
BRANCH  28  29
ATOM     29  C   UNL     1      12.768   0.519   0.103  1.00  0.00     0.338 C 
ATOM     30  O   UNL     1      11.677   1.041  -0.051  1.00  0.00    -0.246 OA
BRANCH  29  31
ATOM     31  C   UNL     1      13.823   1.122   0.923  1.00  0.00     0.060 A 
ATOM     32  C   UNL     1      13.873   0.782   2.269  1.00  0.00     0.016 A 
ATOM     33  C   UNL     1      14.637   2.131   0.424  1.00  0.00     0.016 A 
ATOM     34  C   UNL     1      14.620   1.538   3.162  1.00  0.00     0.010 A 
ATOM     35  C   UNL     1      15.496   2.802   1.302  1.00  0.00     0.010 A 
ATOM     36  C   UNL     1      15.464   2.545   2.688  1.00  0.00    -0.014 A 
BRANCH  36  37
ATOM     37  C   UNL     1      16.299   3.349   3.622  1.00  0.00     0.031 A 
ATOM     38  C   UNL     1      16.198   4.852   3.603  1.00  0.00     0.074 A 
ATOM     39  C   UNL     1      17.167   2.745   4.461  1.00  0.00     0.049 A 
ATOM     40  N   UNL     1      17.007   5.742   4.113  1.00  0.00    -0.248 NA
ATOM     41  C   UNL     1      15.042   5.428   2.894  1.00  0.00     0.031 C 
ATOM     42  C   UNL     1      17.313   1.299   4.647  1.00  0.00     0.029 A 
ATOM     43  N   UNL     1      18.108   3.279   5.308  1.00  0.00    -0.354 N 
ATOM     44  C   UNL     1      16.499   6.979   3.730  1.00  0.00     0.074 A 
ATOM     45  C   UNL     1      15.315   6.724   2.939  1.00  0.00     0.031 C 
ATOM     46  C   UNL     1      18.268   1.063   5.558  1.00  0.00     0.029 A 
ATOM     47  C   UNL     1      18.879   2.329   5.937  1.00  0.00     0.049 A 
ATOM     48  H   UNL     1      18.219   4.247   5.450  1.00  0.00     0.167 HD
ATOM     49  C   UNL     1      16.984   8.213   4.009  1.00  0.00     0.031 A 
ATOM     50  C   UNL     1      19.994   2.451   6.683  1.00  0.00     0.031 A 
ATOM     51  C   UNL     1      18.150   8.446   4.821  1.00  0.00     0.049 A 
ATOM     52  C   UNL     1      20.564   3.822   6.913  1.00  0.00     0.074 A 
ATOM     53  C   UNL     1      18.727   9.653   5.174  1.00  0.00     0.029 A 
ATOM     54  N   UNL     1      18.912   7.449   5.416  1.00  0.00    -0.354 N 
ATOM     55  N   UNL     1      20.109   4.981   6.500  1.00  0.00    -0.248 NA
ATOM     56  C   UNL     1      21.800   3.904   7.702  1.00  0.00     0.031 C 
ATOM     57  C   UNL     1      19.871   9.384   5.931  1.00  0.00     0.029 A 
ATOM     58  C   UNL     1      19.963   8.013   6.117  1.00  0.00     0.049 A 
ATOM     59  H   UNL     1      18.731   6.484   5.348  1.00  0.00     0.167 HD
ATOM     60  C   UNL     1      20.981   5.934   7.014  1.00  0.00     0.074 A 
ATOM     61  C   UNL     1      21.989   5.215   7.767  1.00  0.00     0.031 C 
ATOM     62  C   UNL     1      20.944   7.282   6.880  1.00  0.00     0.031 A 
BRANCH  49  63
ATOM     63  C   UNL     1      16.289   9.400   3.391  1.00  0.00    -0.014 A 
ATOM     64  C   UNL     1      14.997   9.791   3.784  1.00  0.00     0.010 A 
ATOM     65  C   UNL     1      16.962  10.162   2.416  1.00  0.00     0.010 A 
ATOM     66  C   UNL     1      14.373  10.888   3.181  1.00  0.00     0.020 A 
ATOM     67  C   UNL     1      16.356  11.279   1.834  1.00  0.00     0.020 A 
ATOM     68  C   UNL     1      15.056  11.624   2.208  1.00  0.00     0.054 A 
BRANCH  68  69
ATOM     69  S   UNL     1      14.227  13.050   1.452  1.00  0.00     0.124 S 
ATOM     70  O   UNL     1      13.208  12.404   0.628  1.00  0.00    -0.237 OA
ATOM     71  O   UNL     1      13.726  13.780   2.613  1.00  0.00    -0.237 OA
ATOM     72  O   UNL     1      15.293  13.720   0.710  1.00  0.00    -0.744 OA
ENDBRANCH  68  69
ENDBRANCH  49  63
BRANCH  50  73
ATOM     73  C   UNL     1      20.667   1.235   7.219  1.00  0.00    -0.014 A 
ATOM     74  C   UNL     1      20.692   0.984   8.601  1.00  0.00     0.010 A 
ATOM     75  C   UNL     1      21.267   0.305   6.347  1.00  0.00     0.010 A 
ATOM     76  C   UNL     1      21.314  -0.163   9.102  1.00  0.00     0.020 A 
ATOM     77  C   UNL     1      21.860  -0.860   6.841  1.00  0.00     0.020 A 
ATOM     78  C   UNL     1      21.890  -1.080   8.219  1.00  0.00     0.054 A 
BRANCH  78  79
ATOM     79  S   UNL     1      22.649  -2.584   8.893  1.00  0.00     0.124 S 
ATOM     80  O   UNL     1      23.848  -2.056   9.536  1.00  0.00    -0.237 OA
ATOM     81  O   UNL     1      21.613  -3.081   9.795  1.00  0.00    -0.237 OA
ATOM     82  O   UNL     1      22.884  -3.409   7.710  1.00  0.00    -0.744 OA
ENDBRANCH  78  79
ENDBRANCH  50  73
BRANCH  62  83
ATOM     83  C   UNL     1      21.975   8.086   7.625  1.00  0.00    -0.014 A 
ATOM     84  C   UNL     1      23.317   8.129   7.213  1.00  0.00     0.010 A 
ATOM     85  C   UNL     1      21.561   8.884   8.708  1.00  0.00     0.010 A 
ATOM     86  C   UNL     1      24.231   8.951   7.879  1.00  0.00     0.020 A 
ATOM     87  C   UNL     1      22.463   9.729   9.355  1.00  0.00     0.020 A 
ATOM     88  C   UNL     1      23.796   9.753   8.940  1.00  0.00     0.054 A 
BRANCH  88  89
ATOM     89  S   UNL     1      24.982  10.873   9.730  1.00  0.00     0.124 S 
ATOM     90  O   UNL     1      25.840   9.944  10.459  1.00  0.00    -0.237 OA
ATOM     91  O   UNL     1      25.603  11.538   8.587  1.00  0.00    -0.237 OA
ATOM     92  O   UNL     1      24.145  11.733  10.564  1.00  0.00    -0.744 OA
ENDBRANCH  88  89
ENDBRANCH  62  83
ENDBRANCH  36  37
ENDBRANCH  29  31
ENDBRANCH  28  29
ENDBRANCH  27  28
ENDBRANCH   1  27
TORSDOF 17
