REMARK SMILES O=C(OCCOC(=O)c1ccc(-n2cc(CSc3nc4ccccc4c(=O)n3-c3ccccc3)nn2)cc1)c1ccc(-c2c3nc(c(-c4ccc(S(=O)(=O)[O-])cc4)c4ccc([nH]4)c(-c4ccc(S(=O)(=O)[O-])cc4)c4nc(c(-c5ccc(S(=O)(=O)[O-])cc5)c5ccc2[nH]5)C=C4)C=C3)cc1
REMARK SMILES IDX 5 1 4 2 3 3 2 4 1 5 39 6 40 7 98 8 41 9 97 10 42 11 43 12
REMARK SMILES IDX 44 13 91 14 45 15 96 16 90 17 92 18 46 19 95 20 89 21 88 22
REMARK SMILES IDX 47 24 77 25 58 26 76 27 59 28 62 29 75 30 93 31 60 32 61 33
REMARK SMILES IDX 74 35 94 36 63 37 48 38 49 39 57 40 50 41 56 42 51 43 52 44
REMARK SMILES IDX 53 45 54 46 55 47 78 48 79 49 87 50 80 51 86 52 81 53 82 54
REMARK SMILES IDX 83 55 84 56 85 57 64 58 65 59 73 60 66 61 72 62 67 63 68 64
REMARK SMILES IDX 69 65 70 66 71 67 6 68 7 69 8 70 9 71 10 72 38 73 11 74
REMARK SMILES IDX 37 75 12 76 13 77 14 78 36 79 15 80 35 81 16 82 17 83 18 84
REMARK SMILES IDX 19 85 28 86 20 87 26 88 21 89 25 90 27 91 22 92 24 93 23 94
REMARK SMILES IDX 29 95 30 96 34 97 31 98 33 99 32 100
REMARK H PARENT 92 23 62 34
REMARK Flexibility Score: inf
ROOT
ATOM      1  C   UNL     1       4.542   0.859  -1.236  1.00  0.00     0.275 C 
ENDROOT
BRANCH   1   2
ATOM      2  C   UNL     1       4.781  -0.603  -0.859  1.00  0.00     0.275 C 
BRANCH   2   3
ATOM      3  O   UNL     1       3.618  -1.428  -0.638  1.00  0.00    -0.458 OA
BRANCH   3   4
ATOM      4  C   UNL     1       2.473  -0.837  -0.236  1.00  0.00     0.338 C 
ATOM      5  O   UNL     1       1.632  -0.384  -0.998  1.00  0.00    -0.246 OA
BRANCH   4   6
ATOM      6  C   UNL     1       2.275  -0.937   1.229  1.00  0.00     0.060 A 
ATOM      7  C   UNL     1       3.340  -1.142   2.114  1.00  0.00     0.016 A 
ATOM      8  C   UNL     1       0.973  -0.790   1.722  1.00  0.00     0.016 A 
ATOM      9  C   UNL     1       3.097  -1.259   3.474  1.00  0.00     0.010 A 
ATOM     10  C   UNL     1       0.734  -0.871   3.085  1.00  0.00     0.010 A 
ATOM     11  C   UNL     1       1.788  -1.163   3.951  1.00  0.00    -0.014 A 
BRANCH  11  12
ATOM     12  C   UNL     1       1.561  -1.394   5.373  1.00  0.00     0.031 A 
ATOM     13  C   UNL     1       2.218  -0.451   6.317  1.00  0.00     0.074 A 
ATOM     14  C   UNL     1       0.714  -2.342   5.819  1.00  0.00     0.049 A 
ATOM     15  N   UNL     1       3.174  -0.686   7.158  1.00  0.00    -0.248 NA
ATOM     16  C   UNL     1       1.818   0.959   6.249  1.00  0.00     0.031 C 
ATOM     17  C   UNL     1      -0.219  -3.159   5.035  1.00  0.00     0.029 A 
ATOM     18  N   UNL     1       0.423  -2.689   7.102  1.00  0.00    -0.354 N 
ATOM     19  C   UNL     1       3.353   0.496   7.878  1.00  0.00     0.074 A 
ATOM     20  C   UNL     1       2.611   1.509   7.169  1.00  0.00     0.031 C 
ATOM     21  C   UNL     1      -1.133  -3.707   5.864  1.00  0.00     0.029 A 
ATOM     22  C   UNL     1      -0.751  -3.417   7.234  1.00  0.00     0.049 A 
ATOM     23  H   UNL     1       0.993  -2.447   7.866  1.00  0.00     0.167 HD
ATOM     24  C   UNL     1       3.905   0.511   9.126  1.00  0.00     0.031 A 
ATOM     25  C   UNL     1      -1.399  -3.708   8.388  1.00  0.00     0.031 A 
ATOM     26  C   UNL     1       4.563  -0.732   9.440  1.00  0.00     0.049 A 
ATOM     27  C   UNL     1      -0.417  -3.587   9.490  1.00  0.00     0.074 A 
ATOM     28  C   UNL     1       5.606  -1.457   8.900  1.00  0.00     0.029 A 
ATOM     29  N   UNL     1       3.897  -1.597  10.276  1.00  0.00    -0.354 N 
ATOM     30  N   UNL     1       0.611  -4.379   9.623  1.00  0.00    -0.248 NA
ATOM     31  C   UNL     1      -0.326  -2.327  10.209  1.00  0.00     0.031 C 
ATOM     32  C   UNL     1       5.222  -2.822   9.056  1.00  0.00     0.029 A 
ATOM     33  C   UNL     1       3.998  -2.849   9.729  1.00  0.00     0.049 A 
ATOM     34  H   UNL     1       3.434  -1.361  11.112  1.00  0.00     0.167 HD
ATOM     35  C   UNL     1       1.638  -3.560  10.069  1.00  0.00     0.074 A 
ATOM     36  C   UNL     1       0.974  -2.339  10.521  1.00  0.00     0.031 C 
ATOM     37  C   UNL     1       2.944  -3.840   9.778  1.00  0.00     0.031 A 
BRANCH  24  38
ATOM     38  C   UNL     1       3.505   1.481  10.220  1.00  0.00    -0.014 A 
ATOM     39  C   UNL     1       4.142   1.385  11.477  1.00  0.00     0.010 A 
ATOM     40  C   UNL     1       2.334   2.264  10.161  1.00  0.00     0.010 A 
ATOM     41  C   UNL     1       3.572   1.943  12.630  1.00  0.00     0.020 A 
ATOM     42  C   UNL     1       1.783   2.864  11.297  1.00  0.00     0.020 A 
ATOM     43  C   UNL     1       2.379   2.657  12.533  1.00  0.00     0.054 A 
BRANCH  43  44
ATOM     44  S   UNL     1       1.566   3.234  14.043  1.00  0.00     0.124 S 
ATOM     45  O   UNL     1       1.160   1.976  14.662  1.00  0.00    -0.237 OA
ATOM     46  O   UNL     1       2.641   3.956  14.719  1.00  0.00    -0.237 OA
ATOM     47  O   UNL     1       0.477   4.072  13.547  1.00  0.00    -0.744 OA
ENDBRANCH  43  44
ENDBRANCH  24  38
BRANCH  25  48
ATOM     48  C   UNL     1      -2.865  -3.757   8.599  1.00  0.00    -0.014 A 
ATOM     49  C   UNL     1      -3.416  -4.335   9.756  1.00  0.00     0.010 A 
ATOM     50  C   UNL     1      -3.718  -2.989   7.778  1.00  0.00     0.010 A 
ATOM     51  C   UNL     1      -4.758  -4.107  10.107  1.00  0.00     0.020 A 
ATOM     52  C   UNL     1      -5.057  -2.764   8.116  1.00  0.00     0.020 A 
ATOM     53  C   UNL     1      -5.565  -3.306   9.293  1.00  0.00     0.054 A 
BRANCH  53  54
ATOM     54  S   UNL     1      -7.243  -2.877   9.841  1.00  0.00     0.124 S 
ATOM     55  O   UNL     1      -7.949  -4.148   9.705  1.00  0.00    -0.237 OA
ATOM     56  O   UNL     1      -7.025  -2.420  11.210  1.00  0.00    -0.237 OA
ATOM     57  O   UNL     1      -7.658  -1.836   8.902  1.00  0.00    -0.744 OA
ENDBRANCH  53  54
ENDBRANCH  25  48
BRANCH  37  58
ATOM     58  C   UNL     1       3.282  -5.201   9.215  1.00  0.00    -0.014 A 
ATOM     59  C   UNL     1       2.784  -5.680   7.987  1.00  0.00     0.010 A 
ATOM     60  C   UNL     1       4.267  -5.955   9.877  1.00  0.00     0.010 A 
ATOM     61  C   UNL     1       3.241  -6.893   7.452  1.00  0.00     0.020 A 
ATOM     62  C   UNL     1       4.740  -7.155   9.340  1.00  0.00     0.020 A 
ATOM     63  C   UNL     1       4.219  -7.623   8.133  1.00  0.00     0.054 A 
BRANCH  63  64
ATOM     64  S   UNL     1       4.848  -9.164   7.409  1.00  0.00     0.124 S 
ATOM     65  O   UNL     1       3.704 -10.063   7.528  1.00  0.00    -0.237 OA
ATOM     66  O   UNL     1       5.197  -8.765   6.047  1.00  0.00    -0.237 OA
ATOM     67  O   UNL     1       5.992  -9.505   8.254  1.00  0.00    -0.744 OA
ENDBRANCH  63  64
ENDBRANCH  37  58
ENDBRANCH  11  12
ENDBRANCH   4   6
ENDBRANCH   3   4
ENDBRANCH   2   3
ENDBRANCH   1   2
BRANCH   1  68
ATOM     68  O   UNL     1       3.987   1.574  -0.118  1.00  0.00    -0.458 OA
BRANCH  68  69
ATOM     69  C   UNL     1       3.004   2.451  -0.415  1.00  0.00     0.338 C 
ATOM     70  O   UNL     1       2.604   2.788  -1.527  1.00  0.00    -0.246 OA
BRANCH  69  71
ATOM     71  C   UNL     1       2.439   2.952   0.841  1.00  0.00     0.060 A 
ATOM     72  C   UNL     1       1.198   2.474   1.270  1.00  0.00     0.018 A 
ATOM     73  C   UNL     1       3.125   3.925   1.574  1.00  0.00     0.018 A 
ATOM     74  C   UNL     1       0.661   2.909   2.479  1.00  0.00     0.029 A 
ATOM     75  C   UNL     1       2.545   4.438   2.736  1.00  0.00     0.029 A 
ATOM     76  C   UNL     1       1.324   3.911   3.189  1.00  0.00     0.066 A 
BRANCH  76  77
ATOM     77  N   UNL     1       0.638   4.525   4.249  1.00  0.00    -0.220 N 
ATOM     78  C   UNL     1       0.297   5.848   4.296  1.00  0.00     0.141 A 
ATOM     79  N   UNL     1       0.029   3.860   5.247  1.00  0.00    -0.062 NA
ATOM     80  C   UNL     1      -0.586   5.962   5.345  1.00  0.00     0.093 A 
ATOM     81  N   UNL     1      -0.662   4.741   5.966  1.00  0.00    -0.134 NA
BRANCH  80  82
ATOM     82  C   UNL     1      -1.192   7.178   5.932  1.00  0.00     0.138 C 
BRANCH  82  83
ATOM     83  S   UNL     1      -2.786   7.841   5.441  1.00  0.00    -0.081 SA
BRANCH  83  84
ATOM     84  C   UNL     1      -3.358   7.242   3.907  1.00  0.00     0.176 A 
ATOM     85  N   UNL     1      -4.650   7.074   3.893  1.00  0.00    -0.223 NA
ATOM     86  N   UNL     1      -2.584   6.984   2.786  1.00  0.00    -0.255 N 
ATOM     87  C   UNL     1      -5.239   6.499   2.761  1.00  0.00     0.079 A 
ATOM     88  C   UNL     1      -3.013   5.877   2.044  1.00  0.00     0.266 A 
ATOM     89  C   UNL     1      -6.614   6.583   2.536  1.00  0.00     0.029 A 
ATOM     90  C   UNL     1      -4.469   5.747   1.888  1.00  0.00     0.066 A 
ATOM     91  O   UNL     1      -2.293   5.030   1.518  1.00  0.00    -0.268 OA
ATOM     92  C   UNL     1      -7.202   5.873   1.481  1.00  0.00     0.002 A 
ATOM     93  C   UNL     1      -5.043   4.989   0.863  1.00  0.00     0.016 A 
ATOM     94  C   UNL     1      -6.421   5.050   0.665  1.00  0.00     0.001 A 
BRANCH  86  95
ATOM     95  C   UNL     1      -1.421   7.717   2.326  1.00  0.00     0.051 A 
ATOM     96  C   UNL     1      -0.838   7.406   1.079  1.00  0.00     0.027 A 
ATOM     97  C   UNL     1      -0.813   8.764   3.030  1.00  0.00     0.027 A 
ATOM     98  C   UNL     1       0.391   7.933   0.673  1.00  0.00     0.002 A 
ATOM     99  C   UNL     1       0.448   9.259   2.661  1.00  0.00     0.002 A 
ATOM    100  C   UNL     1       1.066   8.816   1.499  1.00  0.00     0.000 A 
ENDBRANCH  86  95
ENDBRANCH  83  84
ENDBRANCH  82  83
ENDBRANCH  80  82
ENDBRANCH  76  77
ENDBRANCH  69  71
ENDBRANCH  68  69
ENDBRANCH   1  68
TORSDOF 19
