REMARK SMILES COCCCNC(=O)C[N@H+]1CC[C@H](C(=O)OCCOC(=O)c2ccc(-c3c4nc(c(-c5ccc(S(=O)(=O)[O-])cc5)c5ccc([nH]5)c(-c5ccc(S(=O)(=O)[O-])cc5)c5nc(c(-c6ccc(S(=O)(=O)[O-])cc6)c6ccc3[nH]6)C=C5)C=C4)cc2)[C@@H]1C
REMARK SMILES IDX 16 1 14 2 15 3 13 4 10 5 11 6 82 7 12 9 83 10 9 11 7 12 6 13
REMARK SMILES IDX 8 15 5 16 4 17 3 18 2 19 1 20 17 21 18 22 19 23 20 24 21 25
REMARK SMILES IDX 22 26 23 27 81 28 24 29 80 30 25 31 26 32 27 33 74 34 28 35
REMARK SMILES IDX 79 36 73 37 75 38 29 39 78 40 72 41 71 42 30 44 60 45 41 46
REMARK SMILES IDX 59 47 42 48 45 49 58 50 76 51 43 52 44 53 57 55 77 56 46 57
REMARK SMILES IDX 31 58 32 59 40 60 33 61 39 62 34 63 35 64 36 65 37 66 38 67
REMARK SMILES IDX 61 68 62 69 70 70 63 71 69 72 64 73 65 74 66 75 67 76 68 77
REMARK SMILES IDX 47 78 48 79 56 80 49 81 55 82 50 83 51 84 52 85 53 86 54 87
REMARK H PARENT 10 8 6 14 75 43 45 54
REMARK Flexibility Score: inf
ROOT
ATOM      1  O   UNL     1      -0.641  -3.585  -4.159  1.00  0.00    -0.462 OA
ENDROOT
BRANCH   1   2
ATOM      2  C   UNL     1       0.154  -3.321  -5.246  1.00  0.00     0.315 C 
ATOM      3  O   UNL     1      -0.110  -3.605  -6.399  1.00  0.00    -0.252 OA
BRANCH   2   4
ATOM      4  C   UNL     1       1.427  -2.655  -4.765  1.00  0.00     0.162 C 
ATOM      5  N   UNL     1       2.094  -0.374  -5.233  1.00  0.00    -0.324 N 
ATOM      6  C   UNL     1       2.854  -1.219  -6.138  1.00  0.00     0.264 C 
ATOM      7  C   UNL     1       1.294  -1.199  -4.342  1.00  0.00     0.195 C 
ATOM      8  H   UNL     1       1.475   0.170  -5.834  1.00  0.00     0.348 HD
ATOM      9  C   UNL     1       2.609  -2.666  -5.725  1.00  0.00     0.083 C 
ATOM     10  C   UNL     1      -0.082  -0.574  -4.214  1.00  0.00     0.076 C 
BRANCH   5  11
ATOM     11  C   UNL     1       2.810   0.732  -4.559  1.00  0.00     0.363 C 
BRANCH  11  12
ATOM     12  C   UNL     1       3.602   0.317  -3.300  1.00  0.00     0.275 C 
ATOM     13  N   UNL     1       3.023   0.284  -2.051  1.00  0.00    -0.351 N 
ATOM     14  H   UNL     1       3.635  -0.007  -1.337  1.00  0.00     0.163 HD
ATOM     15  O   UNL     1       4.784  -0.032  -3.377  1.00  0.00    -0.269 OA
BRANCH  13  16
ATOM     16  C   UNL     1       1.672   0.599  -1.583  1.00  0.00     0.118 C 
BRANCH  16  17
ATOM     17  C   UNL     1       0.851  -0.611  -1.064  1.00  0.00     0.050 C 
BRANCH  17  18
ATOM     18  C   UNL     1       1.475  -1.458   0.035  1.00  0.00     0.161 C 
BRANCH  18  19
ATOM     19  O   UNL     1       0.946  -1.181   1.326  1.00  0.00    -0.385 OA
ATOM     20  C   UNL     1       1.117   0.168   1.726  1.00  0.00     0.194 C 
ENDBRANCH  18  19
ENDBRANCH  17  18
ENDBRANCH  16  17
ENDBRANCH  13  16
ENDBRANCH  11  12
ENDBRANCH   5  11
ENDBRANCH   2   4
ENDBRANCH   1   2
BRANCH   1  21
ATOM     21  C   UNL     1      -1.892  -4.260  -4.405  1.00  0.00     0.274 C 
BRANCH  21  22
ATOM     22  C   UNL     1      -3.069  -3.288  -4.292  1.00  0.00     0.275 C 
BRANCH  22  23
ATOM     23  O   UNL     1      -2.971  -2.293  -5.327  1.00  0.00    -0.458 OA
BRANCH  23  24
ATOM     24  C   UNL     1      -3.438  -1.060  -5.008  1.00  0.00     0.338 C 
ATOM     25  O   UNL     1      -4.091  -0.783  -4.010  1.00  0.00    -0.246 OA
BRANCH  24  26
ATOM     26  C   UNL     1      -2.903  -0.027  -5.944  1.00  0.00     0.060 A 
ATOM     27  C   UNL     1      -1.801  -0.298  -6.758  1.00  0.00     0.016 A 
ATOM     28  C   UNL     1      -3.344   1.294  -5.828  1.00  0.00     0.016 A 
ATOM     29  C   UNL     1      -1.034   0.755  -7.257  1.00  0.00     0.010 A 
ATOM     30  C   UNL     1      -2.682   2.324  -6.516  1.00  0.00     0.010 A 
ATOM     31  C   UNL     1      -1.492   2.079  -7.220  1.00  0.00    -0.014 A 
BRANCH  31  32
ATOM     32  C   UNL     1      -0.784   3.177  -7.960  1.00  0.00     0.031 A 
ATOM     33  C   UNL     1      -0.566   4.541  -7.338  1.00  0.00     0.074 A 
ATOM     34  C   UNL     1      -0.395   2.986  -9.242  1.00  0.00     0.049 A 
ATOM     35  N   UNL     1      -0.312   5.687  -7.924  1.00  0.00    -0.248 NA
ATOM     36  C   UNL     1      -0.660   4.635  -5.872  1.00  0.00     0.031 C 
ATOM     37  C   UNL     1      -0.459   1.725  -9.987  1.00  0.00     0.029 A 
ATOM     38  N   UNL     1       0.119   3.872 -10.163  1.00  0.00    -0.354 N 
ATOM     39  C   UNL     1      -0.286   6.646  -6.913  1.00  0.00     0.074 A 
ATOM     40  C   UNL     1      -0.543   5.944  -5.672  1.00  0.00     0.031 C 
ATOM     41  C   UNL     1       0.028   1.902 -11.218  1.00  0.00     0.029 A 
ATOM     42  C   UNL     1       0.287   3.317 -11.412  1.00  0.00     0.049 A 
ATOM     43  H   UNL     1       0.343   4.806  -9.950  1.00  0.00     0.167 HD
ATOM     44  C   UNL     1      -0.084   7.985  -7.016  1.00  0.00     0.031 A 
ATOM     45  C   UNL     1       0.521   3.869 -12.617  1.00  0.00     0.031 A 
ATOM     46  C   UNL     1       0.205   8.667  -8.256  1.00  0.00     0.049 A 
ATOM     47  C   UNL     1       0.637   5.356 -12.728  1.00  0.00     0.074 A 
ATOM     48  C   UNL     1       0.438  10.018  -8.461  1.00  0.00     0.029 A 
ATOM     49  N   UNL     1       0.314   8.056  -9.496  1.00  0.00    -0.354 N 
ATOM     50  N   UNL     1       0.572   6.258 -11.780  1.00  0.00    -0.248 NA
ATOM     51  C   UNL     1       0.842   5.899 -14.075  1.00  0.00     0.031 C 
ATOM     52  C   UNL     1       0.625  10.231  -9.831  1.00  0.00     0.029 A 
ATOM     53  C   UNL     1       0.583   9.005 -10.472  1.00  0.00     0.049 A 
ATOM     54  H   UNL     1       0.214   7.091  -9.660  1.00  0.00     0.167 HD
ATOM     55  C   UNL     1       0.757   7.479 -12.414  1.00  0.00     0.074 A 
ATOM     56  C   UNL     1       0.950   7.196 -13.822  1.00  0.00     0.031 C 
ATOM     57  C   UNL     1       0.770   8.721 -11.873  1.00  0.00     0.031 A 
BRANCH  44  58
ATOM     58  C   UNL     1      -0.219   8.830  -5.768  1.00  0.00    -0.014 A 
ATOM     59  C   UNL     1       0.728   8.786  -4.730  1.00  0.00     0.010 A 
ATOM     60  C   UNL     1      -1.284   9.750  -5.673  1.00  0.00     0.010 A 
ATOM     61  C   UNL     1       0.590   9.611  -3.607  1.00  0.00     0.020 A 
ATOM     62  C   UNL     1      -1.408  10.598  -4.567  1.00  0.00     0.020 A 
ATOM     63  C   UNL     1      -0.479  10.510  -3.531  1.00  0.00     0.054 A 
BRANCH  63  64
ATOM     64  S   UNL     1      -0.625  11.574  -2.067  1.00  0.00     0.124 S 
ATOM     65  O   UNL     1      -1.009  10.614  -1.035  1.00  0.00    -0.237 OA
ATOM     66  O   UNL     1       0.720  12.128  -1.938  1.00  0.00    -0.237 OA
ATOM     67  O   UNL     1      -1.660  12.536  -2.437  1.00  0.00    -0.744 OA
ENDBRANCH  63  64
ENDBRANCH  44  58
BRANCH  45  68
ATOM     68  C   UNL     1       0.577   2.996 -13.822  1.00  0.00    -0.014 A 
ATOM     69  C   UNL     1       1.791   2.797 -14.498  1.00  0.00     0.010 A 
ATOM     70  C   UNL     1      -0.575   2.315 -14.264  1.00  0.00     0.010 A 
ATOM     71  C   UNL     1       1.853   1.936 -15.596  1.00  0.00     0.020 A 
ATOM     72  C   UNL     1      -0.508   1.423 -15.336  1.00  0.00     0.020 A 
ATOM     73  C   UNL     1       0.705   1.248 -16.002  1.00  0.00     0.054 A 
BRANCH  73  74
ATOM     74  S   UNL     1       0.830   0.083 -17.386  1.00  0.00     0.124 S 
ATOM     75  O   UNL     1       0.965   0.983 -18.527  1.00  0.00    -0.237 OA
ATOM     76  O   UNL     1       2.022  -0.688 -17.042  1.00  0.00    -0.237 OA
ATOM     77  O   UNL     1      -0.425  -0.663 -17.321  1.00  0.00    -0.744 OA
ENDBRANCH  73  74
ENDBRANCH  45  68
BRANCH  57  78
ATOM     78  C   UNL     1       1.058   9.868 -12.804  1.00  0.00    -0.014 A 
ATOM     79  C   UNL     1       0.120  10.287 -13.765  1.00  0.00     0.010 A 
ATOM     80  C   UNL     1       2.285  10.548 -12.700  1.00  0.00     0.010 A 
ATOM     81  C   UNL     1       0.421  11.343 -14.630  1.00  0.00     0.020 A 
ATOM     82  C   UNL     1       2.576  11.624 -13.541  1.00  0.00     0.020 A 
ATOM     83  C   UNL     1       1.647  12.005 -14.511  1.00  0.00     0.054 A 
BRANCH  83  84
ATOM     84  S   UNL     1       1.997  13.396 -15.621  1.00  0.00     0.124 S 
ATOM     85  O   UNL     1       2.212  12.721 -16.898  1.00  0.00    -0.237 OA
ATOM     86  O   UNL     1       0.775  14.193 -15.529  1.00  0.00    -0.237 OA
ATOM     87  O   UNL     1       3.184  14.017 -15.037  1.00  0.00    -0.744 OA
ENDBRANCH  83  84
ENDBRANCH  57  78
ENDBRANCH  31  32
ENDBRANCH  24  26
ENDBRANCH  23  24
ENDBRANCH  22  23
ENDBRANCH  21  22
ENDBRANCH   1  21
TORSDOF 20
