REMARK SMILES C[NH+]1CCC2(CC1)OC[C@H](C(=O)OCCOC(=O)c1ccc(-c3c4nc(c(-c5ccc(S(=O)(=O)[O-])cc5)c5ccc([nH]5)c(-c5ccc(S(=O)(=O)[O-])cc5)c5nc(c(-c6ccc(S(=O)(=O)[O-])cc6)c6ccc3[nH]6)C=C5)C=C4)cc1)N2C(=O)c1cc(C(F)(F)F)cc(C(F)(F)F)c1
REMARK SMILES IDX 14 1 13 2 11 3 12 4 10 5 1 6 2 7 3 8 7 9 4 11 6 12 5 13 8 14
REMARK SMILES IDX 79 15 9 16 80 17 81 18 82 19 83 20 95 21 84 22 90 23 89 24
REMARK SMILES IDX 85 25 86 26 87 27 88 28 91 29 92 30 93 31 94 32 15 33 16 34
REMARK SMILES IDX 17 35 18 36 19 37 20 38 78 39 21 40 77 41 22 42 23 43 24 44
REMARK SMILES IDX 71 45 25 46 76 47 70 48 72 49 26 50 75 51 69 52 68 53 27 55
REMARK SMILES IDX 57 56 38 57 56 58 39 59 42 60 55 61 73 62 40 63 41 64 54 66
REMARK SMILES IDX 74 67 43 68 28 69 29 70 37 71 30 72 36 73 31 74 32 75 33 76
REMARK SMILES IDX 34 77 35 78 58 79 59 80 67 81 60 82 66 83 61 84 62 85 63 86
REMARK SMILES IDX 64 87 65 88 44 89 45 90 53 91 46 92 52 93 47 94 48 95 49 96
REMARK SMILES IDX 50 97 51 98
REMARK H PARENT 2 10 72 54 42 65
REMARK Flexibility Score: inf
ROOT
ATOM      1  C   UNL     1       4.123  -6.630  -0.197  1.00  0.00     0.274 C 
ENDROOT
BRANCH   1   2
ATOM      2  O   UNL     1       3.977  -5.848   1.006  1.00  0.00    -0.460 OA
BRANCH   2   3
ATOM      3  C   UNL     1       2.728  -5.375   1.264  1.00  0.00     0.331 C 
ATOM      4  O   UNL     1       1.763  -5.562   0.528  1.00  0.00    -0.250 OA
BRANCH   3   5
ATOM      5  C   UNL     1       2.639  -4.604   2.593  1.00  0.00     0.224 C 
ATOM      6  C   UNL     1       1.540   0.866  -0.427  1.00  0.00     0.332 C 
ATOM      7  N   UNL     1       1.061  -0.318   0.268  1.00  0.00    -0.337 N 
ATOM      8  C   UNL     1       1.571  -1.555  -0.308  1.00  0.00     0.267 C 
ATOM      9  C   UNL     1       1.062  -0.181   1.723  1.00  0.00     0.267 C 
ATOM     10  H   UNL     1       0.061  -0.405   0.089  1.00  0.00     0.347 HD
ATOM     11  C   UNL     1       2.704  -2.198   0.449  1.00  0.00     0.120 C 
ATOM     12  C   UNL     1       2.087  -0.966   2.533  1.00  0.00     0.120 C 
ATOM     13  C   UNL     1       2.455  -2.326   1.955  1.00  0.00     0.155 C 
ATOM     14  O   UNL     1       3.815  -2.578   2.462  1.00  0.00    -0.352 OA
ATOM     15  N   UNL     1       1.698  -3.502   2.420  1.00  0.00    -0.293 N 
ATOM     16  C   UNL     1       3.886  -3.894   3.025  1.00  0.00     0.200 C 
BRANCH  15  17
ATOM     17  C   UNL     1       0.377  -3.760   2.774  1.00  0.00     0.256 C 
ATOM     18  O   UNL     1       0.059  -4.763   3.414  1.00  0.00    -0.269 OA
BRANCH  17  19
ATOM     19  C   UNL     1      -0.743  -2.865   2.458  1.00  0.00     0.041 A 
ATOM     20  C   UNL     1      -1.471  -2.276   3.499  1.00  0.00     0.027 A 
ATOM     21  C   UNL     1      -1.177  -2.718   1.143  1.00  0.00     0.027 A 
ATOM     22  C   UNL     1      -2.555  -1.425   3.216  1.00  0.00     0.057 A 
ATOM     23  C   UNL     1      -2.179  -1.788   0.826  1.00  0.00     0.057 A 
ATOM     24  C   UNL     1      -2.874  -1.159   1.873  1.00  0.00     0.026 A 
BRANCH  22  25
ATOM     25  C   UNL     1      -3.356  -0.811   4.340  1.00  0.00     0.416 C 
ATOM     26  F   UNL     1      -4.180  -1.703   4.949  1.00  0.00    -0.166 F 
ATOM     27  F   UNL     1      -2.560  -0.299   5.322  1.00  0.00    -0.166 F 
ATOM     28  F   UNL     1      -4.146   0.223   3.936  1.00  0.00    -0.166 F 
ENDBRANCH  22  25
BRANCH  23  29
ATOM     29  C   UNL     1      -2.450  -1.394  -0.609  1.00  0.00     0.416 C 
ATOM     30  F   UNL     1      -3.747  -1.569  -0.971  1.00  0.00    -0.166 F 
ATOM     31  F   UNL     1      -2.180  -0.074  -0.830  1.00  0.00    -0.166 F 
ATOM     32  F   UNL     1      -1.701  -2.079  -1.517  1.00  0.00    -0.166 F 
ENDBRANCH  23  29
ENDBRANCH  17  19
ENDBRANCH  15  17
ENDBRANCH   3   5
ENDBRANCH   2   3
ENDBRANCH   1   2
BRANCH   1  33
ATOM     33  C   UNL     1       4.237  -8.125   0.115  1.00  0.00     0.275 C 
BRANCH  33  34
ATOM     34  O   UNL     1       3.015  -8.661   0.654  1.00  0.00    -0.458 OA
BRANCH  34  35
ATOM     35  C   UNL     1       2.890  -8.563   1.997  1.00  0.00     0.338 C 
ATOM     36  O   UNL     1       3.715  -8.105   2.782  1.00  0.00    -0.246 OA
BRANCH  35  37
ATOM     37  C   UNL     1       1.521  -8.909   2.393  1.00  0.00     0.060 A 
ATOM     38  C   UNL     1       0.726  -7.879   2.893  1.00  0.00     0.016 A 
ATOM     39  C   UNL     1       1.030 -10.211   2.341  1.00  0.00     0.016 A 
ATOM     40  C   UNL     1      -0.558  -8.125   3.349  1.00  0.00     0.010 A 
ATOM     41  C   UNL     1      -0.274 -10.462   2.787  1.00  0.00     0.010 A 
ATOM     42  C   UNL     1      -1.073  -9.418   3.291  1.00  0.00    -0.014 A 
BRANCH  42  43
ATOM     43  C   UNL     1      -2.447  -9.665   3.777  1.00  0.00     0.031 A 
ATOM     44  C   UNL     1      -2.658 -10.399   5.066  1.00  0.00     0.074 A 
ATOM     45  C   UNL     1      -3.494  -9.191   3.075  1.00  0.00     0.049 A 
ATOM     46  N   UNL     1      -3.769 -10.848   5.584  1.00  0.00    -0.248 NA
ATOM     47  C   UNL     1      -1.460 -10.656   5.883  1.00  0.00     0.031 C 
ATOM     48  C   UNL     1      -3.401  -8.367   1.867  1.00  0.00     0.029 A 
ATOM     49  N   UNL     1      -4.843  -9.333   3.278  1.00  0.00    -0.354 N 
ATOM     50  C   UNL     1      -3.406 -11.468   6.772  1.00  0.00     0.074 A 
ATOM     51  C   UNL     1      -1.970 -11.340   6.899  1.00  0.00     0.031 C 
ATOM     52  C   UNL     1      -4.640  -8.082   1.434  1.00  0.00     0.029 A 
ATOM     53  C   UNL     1      -5.607  -8.761   2.289  1.00  0.00     0.049 A 
ATOM     54  H   UNL     1      -5.226  -9.800   4.055  1.00  0.00     0.167 HD
ATOM     55  C   UNL     1      -4.204 -12.094   7.668  1.00  0.00     0.031 A 
ATOM     56  C   UNL     1      -6.934  -8.825   2.066  1.00  0.00     0.031 A 
ATOM     57  C   UNL     1      -5.631 -12.209   7.523  1.00  0.00     0.049 A 
ATOM     58  C   UNL     1      -7.783  -9.635   3.006  1.00  0.00     0.074 A 
ATOM     59  C   UNL     1      -6.535 -12.836   8.361  1.00  0.00     0.029 A 
ATOM     60  N   UNL     1      -6.361 -11.685   6.466  1.00  0.00    -0.354 N 
ATOM     61  N   UNL     1      -7.427 -10.262   4.103  1.00  0.00    -0.248 NA
ATOM     62  C   UNL     1      -9.206  -9.768   2.668  1.00  0.00     0.031 C 
ATOM     63  C   UNL     1      -7.805 -12.737   7.782  1.00  0.00     0.029 A 
ATOM     64  C   UNL     1      -7.700 -12.003   6.611  1.00  0.00     0.049 A 
ATOM     65  H   UNL     1      -5.982 -11.163   5.722  1.00  0.00     0.167 HD
ATOM     66  C   UNL     1      -8.583 -10.859   4.590  1.00  0.00     0.074 A 
ATOM     67  C   UNL     1      -9.653 -10.501   3.680  1.00  0.00     0.031 C 
ATOM     68  C   UNL     1      -8.744 -11.639   5.687  1.00  0.00     0.031 A 
BRANCH  55  69
ATOM     69  C   UNL     1      -3.546 -12.751   8.850  1.00  0.00    -0.014 A 
ATOM     70  C   UNL     1      -3.035 -11.995   9.920  1.00  0.00     0.010 A 
ATOM     71  C   UNL     1      -3.468 -14.155   8.903  1.00  0.00     0.010 A 
ATOM     72  C   UNL     1      -2.429 -12.632  11.007  1.00  0.00     0.020 A 
ATOM     73  C   UNL     1      -2.883 -14.796   9.999  1.00  0.00     0.020 A 
ATOM     74  C   UNL     1      -2.353 -14.028  11.038  1.00  0.00     0.054 A 
BRANCH  74  75
ATOM     75  S   UNL     1      -1.580 -14.830  12.470  1.00  0.00     0.124 S 
ATOM     76  O   UNL     1      -0.165 -14.545  12.246  1.00  0.00    -0.237 OA
ATOM     77  O   UNL     1      -2.190 -14.132  13.598  1.00  0.00    -0.237 OA
ATOM     78  O   UNL     1      -1.961 -16.234  12.330  1.00  0.00    -0.744 OA
ENDBRANCH  74  75
ENDBRANCH  55  69
BRANCH  56  79
ATOM     79  C   UNL     1      -7.520  -8.177   0.862  1.00  0.00    -0.014 A 
ATOM     80  C   UNL     1      -8.378  -7.072   0.985  1.00  0.00     0.010 A 
ATOM     81  C   UNL     1      -7.214  -8.665  -0.423  1.00  0.00     0.010 A 
ATOM     82  C   UNL     1      -8.929  -6.474  -0.154  1.00  0.00     0.020 A 
ATOM     83  C   UNL     1      -7.740  -8.055  -1.564  1.00  0.00     0.020 A 
ATOM     84  C   UNL     1      -8.606  -6.970  -1.421  1.00  0.00     0.054 A 
BRANCH  84  85
ATOM     85  S   UNL     1      -9.297  -6.154  -2.888  1.00  0.00     0.124 S 
ATOM     86  O   UNL     1     -10.677  -6.629  -2.876  1.00  0.00    -0.237 OA
ATOM     87  O   UNL     1      -9.113  -4.738  -2.580  1.00  0.00    -0.237 OA
ATOM     88  O   UNL     1      -8.470  -6.659  -3.981  1.00  0.00    -0.744 OA
ENDBRANCH  84  85
ENDBRANCH  56  79
BRANCH  68  89
ATOM     89  C   UNL     1     -10.129 -12.150   5.971  1.00  0.00    -0.014 A 
ATOM     90  C   UNL     1     -10.671 -13.210   5.224  1.00  0.00     0.010 A 
ATOM     91  C   UNL     1     -10.862 -11.616   7.046  1.00  0.00     0.010 A 
ATOM     92  C   UNL     1     -11.930 -13.722   5.541  1.00  0.00     0.020 A 
ATOM     93  C   UNL     1     -12.112 -12.142   7.381  1.00  0.00     0.020 A 
ATOM     94  C   UNL     1     -12.641 -13.188   6.621  1.00  0.00     0.054 A 
BRANCH  94  95
ATOM     95  S   UNL     1     -14.241 -13.921   7.059  1.00  0.00     0.124 S 
ATOM     96  O   UNL     1     -15.107 -13.418   5.997  1.00  0.00    -0.237 OA
ATOM     97  O   UNL     1     -13.960 -15.354   7.016  1.00  0.00    -0.237 OA
ATOM     98  O   UNL     1     -14.514 -13.387   8.392  1.00  0.00    -0.744 OA
ENDBRANCH  94  95
ENDBRANCH  68  89
ENDBRANCH  42  43
ENDBRANCH  35  37
ENDBRANCH  34  35
ENDBRANCH  33  34
ENDBRANCH   1  33
TORSDOF 18
