REMARK SMILES C[C@H]1[C@@H](C(=O)OCCOC(=O)c2ccc(-c3c4nc(c(-c5ccc(S(=O)(=O)[O-])cc5)c5ccc([nH]5)c(-c5ccc(S(=O)(=O)[O-])cc5)c5nc(c(-c6ccc(S(=O)(=O)[O-])cc6)c6ccc3[nH]6)C=C5)C=C4)cc2)CCN1S(=O)(=O)Cc1cccc(C#N)c1
REMARK SMILES IDX 7 1 6 2 4 3 5 4 3 5 1 6 2 7 74 8 72 9 73 10 75 11 76 12
REMARK SMILES IDX 77 13 78 14 79 15 80 16 86 17 81 18 83 19 82 20 84 21 85 22
REMARK SMILES IDX 8 23 9 24 10 25 11 26 12 27 13 28 71 29 14 30 70 31 15 32
REMARK SMILES IDX 16 33 17 34 64 35 18 36 69 37 63 38 65 39 19 40 68 41 62 42
REMARK SMILES IDX 61 43 20 45 50 46 31 47 49 48 32 49 35 50 48 51 66 52 33 53
REMARK SMILES IDX 34 54 47 56 67 57 36 58 21 59 22 60 30 61 23 62 29 63 24 64
REMARK SMILES IDX 25 65 26 66 27 67 28 68 51 69 52 70 60 71 53 72 59 73 54 74
REMARK SMILES IDX 55 75 56 76 57 77 58 78 37 79 38 80 46 81 39 82 45 83 40 84
REMARK SMILES IDX 41 85 42 86 43 87 44 88
REMARK H PARENT 65 44 35 55
REMARK Flexibility Score: inf
ROOT
ATOM      1  C   UNL     1       1.910   2.696  -2.611  1.00  0.00     0.274 C 
ENDROOT
BRANCH   1   2
ATOM      2  O   UNL     1       1.523   1.762  -1.579  1.00  0.00    -0.462 OA
BRANCH   2   3
ATOM      3  C   UNL     1       0.734   2.175  -0.566  1.00  0.00     0.310 C 
ATOM      4  O   UNL     1       0.332   3.327  -0.446  1.00  0.00    -0.252 OA
BRANCH   3   5
ATOM      5  C   UNL     1       0.331   1.069   0.408  1.00  0.00     0.118 C 
ATOM      6  C   UNL     1       2.205  -0.517  -0.500  1.00  0.00     0.027 C 
ATOM      7  C   UNL     1       1.221  -0.172   0.613  1.00  0.00     0.084 C 
ATOM      8  N   UNL     1       0.275  -1.340   0.742  1.00  0.00    -0.198 NA
ATOM      9  C   UNL     1      -1.072   0.516   0.158  1.00  0.00     0.034 C 
ATOM     10  C   UNL     1      -0.904  -0.969  -0.084  1.00  0.00     0.103 C 
BRANCH   8  11
ATOM     11  S   UNL     1      -0.134  -1.875   2.305  1.00  0.00     0.218 S 
ATOM     12  O   UNL     1      -0.473  -0.697   3.080  1.00  0.00    -0.212 OA
ATOM     13  O   UNL     1      -1.090  -2.955   2.170  1.00  0.00    -0.212 OA
BRANCH  11  14
ATOM     14  C   UNL     1       1.394  -2.546   2.980  1.00  0.00     0.189 C 
BRANCH  14  15
ATOM     15  C   UNL     1       2.009  -3.584   2.078  1.00  0.00    -0.030 A 
ATOM     16  C   UNL     1       1.439  -4.856   1.934  1.00  0.00     0.005 A 
ATOM     17  C   UNL     1       3.178  -3.291   1.361  1.00  0.00     0.024 A 
ATOM     18  C   UNL     1       1.998  -5.792   1.061  1.00  0.00     0.002 A 
ATOM     19  C   UNL     1       3.710  -4.207   0.446  1.00  0.00     0.052 A 
ATOM     20  C   UNL     1       3.122  -5.464   0.304  1.00  0.00     0.019 A 
BRANCH  19  21
ATOM     21  C   UNL     1       4.830  -3.832  -0.372  1.00  0.00     0.099 C 
ATOM     22  N   UNL     1       5.725  -3.508  -1.030  1.00  0.00    -0.192 NA
ENDBRANCH  19  21
ENDBRANCH  14  15
ENDBRANCH  11  14
ENDBRANCH   8  11
ENDBRANCH   3   5
ENDBRANCH   2   3
ENDBRANCH   1   2
BRANCH   1  23
ATOM     23  C   UNL     1       1.249   2.306  -3.932  1.00  0.00     0.275 C 
BRANCH  23  24
ATOM     24  O   UNL     1      -0.150   2.630  -3.890  1.00  0.00    -0.458 OA
BRANCH  24  25
ATOM     25  C   UNL     1      -0.941   1.622  -3.466  1.00  0.00     0.338 C 
ATOM     26  O   UNL     1      -0.614   0.478  -3.197  1.00  0.00    -0.246 OA
BRANCH  25  27
ATOM     27  C   UNL     1      -2.304   2.114  -3.261  1.00  0.00     0.060 A 
ATOM     28  C   UNL     1      -2.632   2.688  -2.033  1.00  0.00     0.016 A 
ATOM     29  C   UNL     1      -3.290   1.814  -4.194  1.00  0.00     0.016 A 
ATOM     30  C   UNL     1      -3.963   2.833  -1.673  1.00  0.00     0.010 A 
ATOM     31  C   UNL     1      -4.618   2.103  -3.886  1.00  0.00     0.010 A 
ATOM     32  C   UNL     1      -4.969   2.588  -2.612  1.00  0.00    -0.014 A 
BRANCH  32  33
ATOM     33  C   UNL     1      -6.388   2.879  -2.296  1.00  0.00     0.031 A 
ATOM     34  C   UNL     1      -7.427   1.805  -2.450  1.00  0.00     0.074 A 
ATOM     35  C   UNL     1      -6.740   4.134  -1.951  1.00  0.00     0.049 A 
ATOM     36  N   UNL     1      -8.726   1.922  -2.523  1.00  0.00    -0.248 NA
ATOM     37  C   UNL     1      -6.939   0.419  -2.559  1.00  0.00     0.031 C 
ATOM     38  C   UNL     1      -5.814   5.245  -1.709  1.00  0.00     0.029 A 
ATOM     39  N   UNL     1      -7.978   4.697  -1.772  1.00  0.00    -0.354 N 
ATOM     40  C   UNL     1      -9.209   0.638  -2.745  1.00  0.00     0.074 A 
ATOM     41  C   UNL     1      -8.063  -0.244  -2.797  1.00  0.00     0.031 C 
ATOM     42  C   UNL     1      -6.511   6.348  -1.408  1.00  0.00     0.029 A 
ATOM     43  C   UNL     1      -7.928   6.053  -1.548  1.00  0.00     0.049 A 
ATOM     44  H   UNL     1      -8.817   4.183  -1.800  1.00  0.00     0.167 HD
ATOM     45  C   UNL     1     -10.495   0.244  -2.904  1.00  0.00     0.031 A 
ATOM     46  C   UNL     1      -8.905   6.978  -1.532  1.00  0.00     0.031 A 
ATOM     47  C   UNL     1     -11.614   1.149  -2.835  1.00  0.00     0.049 A 
ATOM     48  C   UNL     1     -10.314   6.533  -1.789  1.00  0.00     0.074 A 
ATOM     49  C   UNL     1     -12.961   0.863  -2.965  1.00  0.00     0.029 A 
ATOM     50  N   UNL     1     -11.514   2.515  -2.612  1.00  0.00    -0.354 N 
ATOM     51  N   UNL     1     -10.759   5.323  -2.034  1.00  0.00    -0.248 NA
ATOM     52  C   UNL     1     -11.351   7.571  -1.776  1.00  0.00     0.031 C 
ATOM     53  C   UNL     1     -13.670   2.065  -2.885  1.00  0.00     0.029 A 
ATOM     54  C   UNL     1     -12.772   3.089  -2.625  1.00  0.00     0.049 A 
ATOM     55  H   UNL     1     -10.671   3.004  -2.467  1.00  0.00     0.167 HD
ATOM     56  C   UNL     1     -12.136   5.448  -2.163  1.00  0.00     0.074 A 
ATOM     57  C   UNL     1     -12.448   6.851  -1.972  1.00  0.00     0.031 C 
ATOM     58  C   UNL     1     -13.058   4.487  -2.409  1.00  0.00     0.031 A 
BRANCH  45  59
ATOM     59  C   UNL     1     -10.761  -1.206  -3.221  1.00  0.00    -0.014 A 
ATOM     60  C   UNL     1     -10.552  -2.222  -2.272  1.00  0.00     0.010 A 
ATOM     61  C   UNL     1     -11.281  -1.551  -4.484  1.00  0.00     0.010 A 
ATOM     62  C   UNL     1     -10.820  -3.557  -2.592  1.00  0.00     0.020 A 
ATOM     63  C   UNL     1     -11.580  -2.880  -4.797  1.00  0.00     0.020 A 
ATOM     64  C   UNL     1     -11.332  -3.878  -3.854  1.00  0.00     0.054 A 
BRANCH  64  65
ATOM     65  S   UNL     1     -11.691  -5.615  -4.233  1.00  0.00     0.124 S 
ATOM     66  O   UNL     1     -10.351  -6.187  -4.331  1.00  0.00    -0.237 OA
ATOM     67  O   UNL     1     -12.472  -6.040  -3.074  1.00  0.00    -0.237 OA
ATOM     68  O   UNL     1     -12.433  -5.552  -5.490  1.00  0.00    -0.744 OA
ENDBRANCH  64  65
ENDBRANCH  45  59
BRANCH  46  69
ATOM     69  C   UNL     1      -8.564   8.410  -1.315  1.00  0.00    -0.014 A 
ATOM     70  C   UNL     1      -8.950   9.063  -0.134  1.00  0.00     0.010 A 
ATOM     71  C   UNL     1      -7.810   9.118  -2.272  1.00  0.00     0.010 A 
ATOM     72  C   UNL     1      -8.605  10.400   0.081  1.00  0.00     0.020 A 
ATOM     73  C   UNL     1      -7.433  10.444  -2.046  1.00  0.00     0.020 A 
ATOM     74  C   UNL     1      -7.845  11.081  -0.875  1.00  0.00     0.054 A 
BRANCH  74  75
ATOM     75  S   UNL     1      -7.373  12.802  -0.550  1.00  0.00     0.124 S 
ATOM     76  O   UNL     1      -8.648  13.498  -0.693  1.00  0.00    -0.237 OA
ATOM     77  O   UNL     1      -6.838  12.730   0.808  1.00  0.00    -0.237 OA
ATOM     78  O   UNL     1      -6.383  13.088  -1.587  1.00  0.00    -0.744 OA
ENDBRANCH  74  75
ENDBRANCH  46  69
BRANCH  58  79
ATOM     79  C   UNL     1     -14.504   4.896  -2.412  1.00  0.00    -0.014 A 
ATOM     80  C   UNL     1     -15.063   5.615  -3.481  1.00  0.00     0.010 A 
ATOM     81  C   UNL     1     -15.336   4.453  -1.367  1.00  0.00     0.010 A 
ATOM     82  C   UNL     1     -16.433   5.885  -3.504  1.00  0.00     0.020 A 
ATOM     83  C   UNL     1     -16.710   4.695  -1.401  1.00  0.00     0.020 A 
ATOM     84  C   UNL     1     -17.249   5.412  -2.470  1.00  0.00     0.054 A 
BRANCH  84  85
ATOM     85  S   UNL     1     -19.038   5.687  -2.578  1.00  0.00     0.124 S 
ATOM     86  O   UNL     1     -19.141   7.123  -2.339  1.00  0.00    -0.237 OA
ATOM     87  O   UNL     1     -19.344   5.252  -3.939  1.00  0.00    -0.237 OA
ATOM     88  O   UNL     1     -19.584   4.838  -1.522  1.00  0.00    -0.744 OA
ENDBRANCH  84  85
ENDBRANCH  58  79
ENDBRANCH  32  33
ENDBRANCH  25  27
ENDBRANCH  24  25
ENDBRANCH  23  24
ENDBRANCH   1  23
TORSDOF 18
