REMARK SMILES C[C@]12CC[C@@H]3[C@@H](CCC4=C/C(=N\OCC(=O)N5CCC[C@@H]5C(=O)OCCOC(=O)c5ccc(-c6c7nc(c(-c8ccc(S(=O)(=O)[O-])cc8)c8ccc([nH]8)c(-c8ccc(S(=O)(=O)[O-])cc8)c8nc(c(-c9ccc(S(=O)(=O)[O-])cc9)c9ccc6[nH]9)C=C8)C=C7)cc5)CC[C@@]43C)[C@@H]1CC[C@@H]2O
REMARK SMILES IDX 25 1 24 2 22 3 23 4 21 5 17 6 18 7 19 8 20 9 15 10 16 11
REMARK SMILES IDX 14 12 13 13 12 14 1 15 2 16 3 17 94 18 97 19 4 20 6 21 95 22
REMARK SMILES IDX 96 23 5 24 7 25 92 26 8 27 9 28 91 29 93 30 10 31 90 32
REMARK SMILES IDX 11 33 98 34 26 36 27 37 28 38 29 39 30 40 31 41 89 42 32 43
REMARK SMILES IDX 88 44 33 45 34 46 35 47 82 48 36 49 87 50 81 51 83 52 37 53
REMARK SMILES IDX 86 54 80 55 79 56 38 58 68 59 49 60 67 61 50 62 53 63 66 64
REMARK SMILES IDX 84 65 51 66 52 67 65 69 85 70 54 71 39 72 40 73 48 74 41 75
REMARK SMILES IDX 47 76 42 77 43 78 44 79 45 80 46 81 69 82 70 83 78 84 71 85
REMARK SMILES IDX 77 86 72 87 73 88 74 89 75 90 76 91 55 92 56 93 64 94 57 95
REMARK SMILES IDX 63 96 58 97 59 98 60 99 61 100 62 101
REMARK H PARENT 98 35 83 57 53 68
REMARK Flexibility Score: inf
ROOT
ATOM      1  C   UNL     1      -5.164  -6.939   0.020  1.00  0.00     0.274 C 
ENDROOT
BRANCH   1   2
ATOM      2  O   UNL     1      -4.772  -8.314  -0.119  1.00  0.00    -0.461 OA
BRANCH   2   3
ATOM      3  C   UNL     1      -3.471  -8.600   0.179  1.00  0.00     0.328 C 
ATOM      4  O   UNL     1      -2.729  -7.870   0.825  1.00  0.00    -0.250 OA
BRANCH   3   5
ATOM      5  C   UNL     1      -3.016  -9.974  -0.338  1.00  0.00     0.195 C 
ATOM      6  N   UNL     1      -3.869 -10.491  -1.400  1.00  0.00    -0.326 N 
ATOM      7  C   UNL     1      -4.746 -11.546  -0.907  1.00  0.00     0.120 C 
ATOM      8  C   UNL     1      -4.534 -11.570   0.599  1.00  0.00     0.024 C 
ATOM      9  C   UNL     1      -3.110 -11.050   0.745  1.00  0.00     0.039 C 
BRANCH   6  10
ATOM     10  C   UNL     1      -3.878 -10.089  -2.714  1.00  0.00     0.264 C 
ATOM     11  O   UNL     1      -4.678 -10.595  -3.513  1.00  0.00    -0.271 OA
BRANCH  10  12
ATOM     12  C   UNL     1      -2.815  -9.088  -3.244  1.00  0.00     0.363 C 
BRANCH  12  13
ATOM     13  O   UNL     1      -2.105  -8.170  -2.424  1.00  0.00    -0.385 OA
BRANCH  13  14
ATOM     14  N   UNL     1      -2.786  -6.948  -2.415  1.00  0.00    -0.091 NA
ATOM     15  C   UNL     1       0.625   0.827  -0.075  1.00  0.00     0.014 C 
ATOM     16  C   UNL     1       0.056  -0.291  -0.989  1.00  0.00    -0.003 C 
ATOM     17  C   UNL     1      -1.392  -0.531  -0.549  1.00  0.00     0.010 C 
ATOM     18  C   UNL     1       0.870  -1.613  -1.004  1.00  0.00     0.001 C 
ATOM     19  C   UNL     1       0.243   0.076  -2.474  1.00  0.00     0.120 C 
ATOM     20  C   UNL     1      -1.465  -1.375   0.738  1.00  0.00     0.005 C 
ATOM     21  C   UNL     1       0.868  -2.330   0.339  1.00  0.00    -0.003 C 
ATOM     22  C   UNL     1       2.189  -1.187  -1.648  1.00  0.00     0.007 C 
ATOM     23  C   UNL     1       1.754  -0.137  -2.698  1.00  0.00     0.032 C 
ATOM     24  C   UNL     1      -0.586  -2.656   0.742  1.00  0.00     0.002 C 
ATOM     25  C   UNL     1       1.711  -3.602   0.439  1.00  0.00     0.008 C 
ATOM     26  C   UNL     1      -1.241  -3.912   0.015  1.00  0.00    -0.008 C 
ATOM     27  C   UNL     1       1.218  -4.796  -0.375  1.00  0.00     0.032 C 
ATOM     28  C   UNL     1      -0.271  -4.934  -0.594  1.00  0.00    -0.062 C 
ATOM     29  C   UNL     1      -2.186  -3.511  -1.144  1.00  0.00     0.018 C 
ATOM     30  C   UNL     1      -2.055  -4.619   1.130  1.00  0.00     0.016 C 
ATOM     31  C   UNL     1      -0.707  -5.926  -1.411  1.00  0.00     0.027 C 
ATOM     32  C   UNL     1      -2.877  -4.646  -1.879  1.00  0.00     0.061 C 
ATOM     33  C   UNL     1      -2.119  -5.959  -1.899  1.00  0.00     0.080 C 
BRANCH  19  34
ATOM     34  O   UNL     1      -0.172   1.382  -2.808  1.00  0.00    -0.393 OA
ATOM     35  H   UNL     1       0.330   2.025  -2.283  1.00  0.00     0.210 HD
ENDBRANCH  19  34
ENDBRANCH  13  14
ENDBRANCH  12  13
ENDBRANCH  10  12
ENDBRANCH   6  10
ENDBRANCH   3   5
ENDBRANCH   2   3
ENDBRANCH   1   2
BRANCH   1  36
ATOM     36  C   UNL     1      -5.899  -6.600   1.314  1.00  0.00     0.275 C 
BRANCH  36  37
ATOM     37  O   UNL     1      -5.039  -6.723   2.458  1.00  0.00    -0.458 OA
BRANCH  37  38
ATOM     38  C   UNL     1      -5.133  -7.913   3.085  1.00  0.00     0.338 C 
ATOM     39  O   UNL     1      -5.887  -8.837   2.812  1.00  0.00    -0.246 OA
BRANCH  38  40
ATOM     40  C   UNL     1      -4.118  -8.026   4.135  1.00  0.00     0.060 A 
ATOM     41  C   UNL     1      -2.949  -8.718   3.829  1.00  0.00     0.016 A 
ATOM     42  C   UNL     1      -4.406  -7.668   5.449  1.00  0.00     0.016 A 
ATOM     43  C   UNL     1      -2.106  -9.154   4.835  1.00  0.00     0.010 A 
ATOM     44  C   UNL     1      -3.526  -8.057   6.464  1.00  0.00     0.010 A 
ATOM     45  C   UNL     1      -2.401  -8.847   6.165  1.00  0.00    -0.014 A 
BRANCH  45  46
ATOM     46  C   UNL     1      -1.589  -9.464   7.237  1.00  0.00     0.031 A 
ATOM     47  C   UNL     1      -2.219 -10.495   8.130  1.00  0.00     0.074 A 
ATOM     48  C   UNL     1      -0.285  -9.157   7.357  1.00  0.00     0.049 A 
ATOM     49  N   UNL     1      -1.744 -11.047   9.215  1.00  0.00    -0.248 NA
ATOM     50  C   UNL     1      -3.566 -10.964   7.757  1.00  0.00     0.031 C 
ATOM     51  C   UNL     1       0.456  -8.245   6.482  1.00  0.00     0.029 A 
ATOM     52  N   UNL     1       0.652  -9.590   8.258  1.00  0.00    -0.354 N 
ATOM     53  C   UNL     1      -2.752 -11.880   9.686  1.00  0.00     0.074 A 
ATOM     54  C   UNL     1      -3.861 -11.772   8.765  1.00  0.00     0.031 C 
ATOM     55  C   UNL     1       1.737  -8.203   6.877  1.00  0.00     0.029 A 
ATOM     56  C   UNL     1       1.889  -9.021   8.075  1.00  0.00     0.049 A 
ATOM     57  H   UNL     1       0.457 -10.245   8.966  1.00  0.00     0.167 HD
ATOM     58  C   UNL     1      -2.751 -12.653  10.797  1.00  0.00     0.031 A 
ATOM     59  C   UNL     1       3.007  -9.114   8.819  1.00  0.00     0.031 A 
ATOM     60  C   UNL     1      -1.624 -12.772  11.684  1.00  0.00     0.049 A 
ATOM     61  C   UNL     1       2.975  -9.947  10.067  1.00  0.00     0.074 A 
ATOM     62  C   UNL     1      -1.516 -13.507  12.851  1.00  0.00     0.029 A 
ATOM     63  N   UNL     1      -0.401 -12.149  11.486  1.00  0.00    -0.354 N 
ATOM     64  N   UNL     1       1.985 -10.658  10.554  1.00  0.00    -0.248 NA
ATOM     65  C   UNL     1       4.200  -9.979  10.873  1.00  0.00     0.031 C 
ATOM     66  C   UNL     1      -0.233 -13.304  13.374  1.00  0.00     0.029 A 
ATOM     67  C   UNL     1       0.468 -12.476  12.512  1.00  0.00     0.049 A 
ATOM     68  H   UNL     1      -0.182 -11.561  10.727  1.00  0.00     0.167 HD
ATOM     69  C   UNL     1       2.468 -11.222  11.727  1.00  0.00     0.074 A 
ATOM     70  C   UNL     1       3.846 -10.789  11.861  1.00  0.00     0.031 C 
ATOM     71  C   UNL     1       1.830 -12.020  12.619  1.00  0.00     0.031 A 
BRANCH  58  72
ATOM     72  C   UNL     1      -4.025 -13.374  11.142  1.00  0.00    -0.014 A 
ATOM     73  C   UNL     1      -4.441 -14.517  10.436  1.00  0.00     0.010 A 
ATOM     74  C   UNL     1      -4.816 -12.901  12.205  1.00  0.00     0.010 A 
ATOM     75  C   UNL     1      -5.643 -15.151  10.764  1.00  0.00     0.020 A 
ATOM     76  C   UNL     1      -6.007 -13.544  12.550  1.00  0.00     0.020 A 
ATOM     77  C   UNL     1      -6.423 -14.656  11.815  1.00  0.00     0.054 A 
BRANCH  77  78
ATOM     78  S   UNL     1      -7.973 -15.502  12.234  1.00  0.00     0.124 S 
ATOM     79  O   UNL     1      -8.867 -15.030  11.180  1.00  0.00    -0.237 OA
ATOM     80  O   UNL     1      -7.603 -16.913  12.159  1.00  0.00    -0.237 OA
ATOM     81  O   UNL     1      -8.280 -15.014  13.576  1.00  0.00    -0.744 OA
ENDBRANCH  77  78
ENDBRANCH  58  72
BRANCH  59  82
ATOM     82  C   UNL     1       4.216  -8.345   8.426  1.00  0.00    -0.014 A 
ATOM     83  C   UNL     1       5.344  -8.998   7.902  1.00  0.00     0.010 A 
ATOM     84  C   UNL     1       4.223  -6.941   8.528  1.00  0.00     0.010 A 
ATOM     85  C   UNL     1       6.457  -8.261   7.484  1.00  0.00     0.020 A 
ATOM     86  C   UNL     1       5.322  -6.199   8.088  1.00  0.00     0.020 A 
ATOM     87  C   UNL     1       6.436  -6.866   7.575  1.00  0.00     0.054 A 
BRANCH  87  88
ATOM     88  S   UNL     1       7.850  -5.918   6.944  1.00  0.00     0.124 S 
ATOM     89  O   UNL     1       8.803  -6.028   8.043  1.00  0.00    -0.237 OA
ATOM     90  O   UNL     1       8.202  -6.641   5.724  1.00  0.00    -0.237 OA
ATOM     91  O   UNL     1       7.292  -4.585   6.726  1.00  0.00    -0.744 OA
ENDBRANCH  87  88
ENDBRANCH  59  82
BRANCH  71  92
ATOM     92  C   UNL     1       2.629 -12.482  13.803  1.00  0.00    -0.014 A 
ATOM     93  C   UNL     1       2.887 -11.617  14.880  1.00  0.00     0.010 A 
ATOM     94  C   UNL     1       3.099 -13.806  13.849  1.00  0.00     0.010 A 
ATOM     95  C   UNL     1       3.633 -12.061  15.973  1.00  0.00     0.020 A 
ATOM     96  C   UNL     1       3.829 -14.259  14.949  1.00  0.00     0.020 A 
ATOM     97  C   UNL     1       4.105 -13.377  15.997  1.00  0.00     0.054 A 
BRANCH  97  98
ATOM     98  S   UNL     1       5.051 -13.943  17.437  1.00  0.00     0.124 S 
ATOM     99  O   UNL     1       6.372 -13.381  17.171  1.00  0.00    -0.237 OA
ATOM    100  O   UNL     1       4.327 -13.346  18.557  1.00  0.00    -0.237 OA
ATOM    101  O   UNL     1       4.964 -15.400  17.355  1.00  0.00    -0.744 OA
ENDBRANCH  97  98
ENDBRANCH  71  92
ENDBRANCH  45  46
ENDBRANCH  38  40
ENDBRANCH  37  38
ENDBRANCH  36  37
ENDBRANCH   1  36
TORSDOF 19
