REMARK SMILES C=CCN(CC(=O)OCCOC(=O)c1ccc(-c2c3nc(c(-c4ccc(S(=O)(=O)[O-])cc4)c4ccc([nH]4)c(-c4ccc(S(=O)(=O)[O-])cc4)c4nc(c(-c5ccc(S(=O)(=O)[O-])cc5)c5ccc2[nH]5)C=C4)C=C3)cc1)C(=O)NC(C)(C)CC
REMARK SMILES IDX 9 1 8 2 6 3 7 4 5 5 4 6 3 7 2 8 1 9 74 10 75 11 76 12 77 14
REMARK SMILES IDX 78 15 79 16 80 17 81 18 10 19 11 20 12 21 13 22 14 23 15 24
REMARK SMILES IDX 73 25 16 26 72 27 17 28 18 29 19 30 66 31 20 32 71 33 65 34
REMARK SMILES IDX 67 35 21 36 70 37 64 38 63 39 22 41 52 42 33 43 51 44 34 45
REMARK SMILES IDX 37 46 50 47 68 48 35 49 36 50 49 52 69 53 38 54 23 55 24 56
REMARK SMILES IDX 32 57 25 58 31 59 26 60 27 61 28 62 29 63 30 64 53 65 54 66
REMARK SMILES IDX 62 67 55 68 61 69 56 70 57 71 58 72 59 73 60 74 39 75 40 76
REMARK SMILES IDX 48 77 41 78 47 79 42 80 43 81 44 82 45 83 46 84
REMARK H PARENT 76 13 67 40 37 51
REMARK Flexibility Score: inf
ROOT
ATOM      1  C   UNL     1      -5.992   2.479  -0.985  1.00  0.00     0.274 C 
ENDROOT
BRANCH   1   2
ATOM      2  O   UNL     1      -4.590   2.130  -0.996  1.00  0.00    -0.461 OA
BRANCH   2   3
ATOM      3  C   UNL     1      -4.257   1.139  -1.862  1.00  0.00     0.325 C 
ATOM      4  O   UNL     1      -5.059   0.568  -2.599  1.00  0.00    -0.250 OA
BRANCH   3   5
ATOM      5  C   UNL     1      -2.755   0.846  -1.959  1.00  0.00     0.244 C 
BRANCH   5   6
ATOM      6  N   UNL     1      -1.828   0.924  -0.817  1.00  0.00    -0.310 N 
BRANCH   6   7
ATOM      7  C   UNL     1      -1.076  -0.296  -0.535  1.00  0.00     0.149 C 
BRANCH   7   8
ATOM      8  C   UNL     1       0.367  -0.071  -0.904  1.00  0.00    -0.013 C 
ATOM      9  C   UNL     1       1.375  -0.119  -0.022  1.00  0.00     0.006 C 
ENDBRANCH   7   8
ENDBRANCH   6   7
BRANCH   6  10
ATOM     10  C   UNL     1      -1.561   1.951   0.048  1.00  0.00     0.318 C 
ATOM     11  O   UNL     1      -1.471   1.731   1.264  1.00  0.00    -0.249 OA
ATOM     12  N   UNL     1      -0.981   3.104  -0.359  1.00  0.00    -0.333 N 
ATOM     13  H   UNL     1      -0.092   3.239   0.041  1.00  0.00     0.165 HD
BRANCH  12  14
ATOM     14  C   UNL     1      -1.364   4.199  -1.253  1.00  0.00     0.036 C 
ATOM     15  C   UNL     1      -2.584   4.884  -0.622  1.00  0.00     0.034 C 
ATOM     16  C   UNL     1      -0.245   5.266  -1.297  1.00  0.00     0.034 C 
BRANCH  14  17
ATOM     17  C   UNL     1      -1.614   3.778  -2.699  1.00  0.00     0.024 C 
ATOM     18  C   UNL     1      -0.461   3.067  -3.400  1.00  0.00     0.006 C 
ENDBRANCH  14  17
ENDBRANCH  12  14
ENDBRANCH   6  10
ENDBRANCH   5   6
ENDBRANCH   3   5
ENDBRANCH   2   3
ENDBRANCH   1   2
BRANCH   1  19
ATOM     19  C   UNL     1      -6.195   3.970  -0.683  1.00  0.00     0.275 C 
BRANCH  19  20
ATOM     20  O   UNL     1      -5.645   4.956  -1.591  1.00  0.00    -0.458 OA
BRANCH  20  21
ATOM     21  C   UNL     1      -5.392   4.676  -2.889  1.00  0.00     0.338 C 
ATOM     22  O   UNL     1      -5.661   3.652  -3.482  1.00  0.00    -0.246 OA
BRANCH  21  23
ATOM     23  C   UNL     1      -4.537   5.745  -3.478  1.00  0.00     0.060 A 
ATOM     24  C   UNL     1      -3.705   5.365  -4.533  1.00  0.00     0.016 A 
ATOM     25  C   UNL     1      -4.429   7.039  -2.948  1.00  0.00     0.016 A 
ATOM     26  C   UNL     1      -2.699   6.225  -4.976  1.00  0.00     0.010 A 
ATOM     27  C   UNL     1      -3.483   7.939  -3.466  1.00  0.00     0.010 A 
ATOM     28  C   UNL     1      -2.613   7.542  -4.492  1.00  0.00    -0.014 A 
BRANCH  28  29
ATOM     29  C   UNL     1      -1.822   8.542  -5.260  1.00  0.00     0.031 A 
ATOM     30  C   UNL     1      -0.673   9.326  -4.684  1.00  0.00     0.074 A 
ATOM     31  C   UNL     1      -2.228   8.762  -6.527  1.00  0.00     0.049 A 
ATOM     32  N   UNL     1      -0.021  10.330  -5.217  1.00  0.00    -0.248 NA
ATOM     33  C   UNL     1      -0.179   8.937  -3.357  1.00  0.00     0.031 C 
ATOM     34  C   UNL     1      -3.310   8.033  -7.204  1.00  0.00     0.029 A 
ATOM     35  N   UNL     1      -1.806   9.662  -7.469  1.00  0.00    -0.354 N 
ATOM     36  C   UNL     1       0.951  10.703  -4.291  1.00  0.00     0.074 A 
ATOM     37  C   UNL     1       0.809   9.807  -3.162  1.00  0.00     0.031 C 
ATOM     38  C   UNL     1      -3.455   8.498  -8.446  1.00  0.00     0.029 A 
ATOM     39  C   UNL     1      -2.577   9.643  -8.607  1.00  0.00     0.049 A 
ATOM     40  H   UNL     1      -1.034  10.260  -7.345  1.00  0.00     0.167 HD
ATOM     41  C   UNL     1       1.852  11.715  -4.375  1.00  0.00     0.031 A 
ATOM     42  C   UNL     1      -2.655  10.498  -9.640  1.00  0.00     0.031 A 
ATOM     43  C   UNL     1       1.931  12.621  -5.498  1.00  0.00     0.049 A 
ATOM     44  C   UNL     1      -1.744  11.677  -9.653  1.00  0.00     0.074 A 
ATOM     45  C   UNL     1       2.801  13.682  -5.691  1.00  0.00     0.029 A 
ATOM     46  N   UNL     1       1.097  12.589  -6.608  1.00  0.00    -0.354 N 
ATOM     47  N   UNL     1      -0.847  12.023  -8.762  1.00  0.00    -0.248 NA
ATOM     48  C   UNL     1      -1.848  12.577 -10.804  1.00  0.00     0.031 C 
ATOM     49  C   UNL     1       2.444  14.333  -6.876  1.00  0.00     0.029 A 
ATOM     50  C   UNL     1       1.407  13.630  -7.468  1.00  0.00     0.049 A 
ATOM     51  H   UNL     1       0.388  11.923  -6.762  1.00  0.00     0.167 HD
ATOM     52  C   UNL     1      -0.247  13.167  -9.264  1.00  0.00     0.074 A 
ATOM     53  C   UNL     1      -0.889  13.453 -10.533  1.00  0.00     0.031 C 
ATOM     54  C   UNL     1       0.755  13.901  -8.726  1.00  0.00     0.031 A 
BRANCH  41  55
ATOM     55  C   UNL     1       2.784  11.961  -3.209  1.00  0.00    -0.014 A 
ATOM     56  C   UNL     1       3.849  11.093  -2.911  1.00  0.00     0.010 A 
ATOM     57  C   UNL     1       2.646  13.143  -2.452  1.00  0.00     0.010 A 
ATOM     58  C   UNL     1       4.736  11.385  -1.865  1.00  0.00     0.020 A 
ATOM     59  C   UNL     1       3.543  13.452  -1.423  1.00  0.00     0.020 A 
ATOM     60  C   UNL     1       4.575  12.562  -1.125  1.00  0.00     0.054 A 
BRANCH  60  61
ATOM     61  S   UNL     1       5.747  12.924   0.214  1.00  0.00     0.124 S 
ATOM     62  O   UNL     1       5.384  11.920   1.211  1.00  0.00    -0.237 OA
ATOM     63  O   UNL     1       7.043  12.727  -0.431  1.00  0.00    -0.237 OA
ATOM     64  O   UNL     1       5.441  14.304   0.583  1.00  0.00    -0.744 OA
ENDBRANCH  60  61
ENDBRANCH  41  55
BRANCH  42  65
ATOM     65  C   UNL     1      -3.687  10.265 -10.681  1.00  0.00    -0.014 A 
ATOM     66  C   UNL     1      -3.323   9.803 -11.954  1.00  0.00     0.010 A 
ATOM     67  C   UNL     1      -5.054  10.386 -10.355  1.00  0.00     0.010 A 
ATOM     68  C   UNL     1      -4.309   9.461 -12.884  1.00  0.00     0.020 A 
ATOM     69  C   UNL     1      -6.040  10.011 -11.268  1.00  0.00     0.020 A 
ATOM     70  C   UNL     1      -5.660   9.558 -12.531  1.00  0.00     0.054 A 
BRANCH  70  71
ATOM     71  S   UNL     1      -6.913   9.025 -13.727  1.00  0.00     0.124 S 
ATOM     72  O   UNL     1      -6.863  10.100 -14.714  1.00  0.00    -0.237 OA
ATOM     73  O   UNL     1      -6.397   7.733 -14.170  1.00  0.00    -0.237 OA
ATOM     74  O   UNL     1      -8.139   8.959 -12.933  1.00  0.00    -0.744 OA
ENDBRANCH  70  71
ENDBRANCH  42  65
BRANCH  54  75
ATOM     75  C   UNL     1       1.266  15.054  -9.542  1.00  0.00    -0.014 A 
ATOM     76  C   UNL     1       0.523  16.238  -9.685  1.00  0.00     0.010 A 
ATOM     77  C   UNL     1       2.541  14.961 -10.129  1.00  0.00     0.010 A 
ATOM     78  C   UNL     1       1.044  17.307 -10.416  1.00  0.00     0.020 A 
ATOM     79  C   UNL     1       3.076  16.038 -10.835  1.00  0.00     0.020 A 
ATOM     80  C   UNL     1       2.321  17.203 -10.979  1.00  0.00     0.054 A 
BRANCH  80  81
ATOM     81  S   UNL     1       3.005  18.633 -11.857  1.00  0.00     0.124 S 
ATOM     82  O   UNL     1       2.210  18.648 -13.081  1.00  0.00    -0.237 OA
ATOM     83  O   UNL     1       2.748  19.730 -10.926  1.00  0.00    -0.237 OA
ATOM     84  O   UNL     1       4.414  18.291 -12.033  1.00  0.00    -0.744 OA
ENDBRANCH  80  81
ENDBRANCH  54  75
ENDBRANCH  28  29
ENDBRANCH  21  23
ENDBRANCH  20  21
ENDBRANCH  19  20
ENDBRANCH   1  19
TORSDOF 20
