REMARK SMILES C[C@@H](CCO)SCc1cccc(/C=C/C(=O)OCCOC(=O)c2ccc(-c3c4nc(c(-c5ccc(S(=O)(=O)[O-])cc5)c5ccc([nH]5)c(-c5ccc(S(=O)(=O)[O-])cc5)c5nc(c(-c6ccc(S(=O)(=O)[O-])cc6)c6ccc3[nH]6)C=C5)C=C4)cc2)c1
REMARK SMILES IDX 15 1 16 2 14 3 13 4 12 5 8 6 9 7 83 8 10 9 11 10 7 11 6 12
REMARK SMILES IDX 2 13 1 14 3 15 4 16 5 17 17 19 18 20 19 21 20 22 21 23 22 24
REMARK SMILES IDX 23 25 24 26 82 27 25 28 81 29 26 30 27 31 28 32 75 33 29 34
REMARK SMILES IDX 80 35 74 36 76 37 30 38 79 39 73 40 72 41 31 43 61 44 42 45
REMARK SMILES IDX 60 46 43 47 46 48 59 49 77 50 44 51 45 52 58 54 78 55 47 56
REMARK SMILES IDX 32 57 33 58 41 59 34 60 40 61 35 62 36 63 37 64 38 65 39 66
REMARK SMILES IDX 62 67 63 68 71 69 64 70 70 71 65 72 66 73 67 74 68 75 69 76
REMARK SMILES IDX 48 77 49 78 57 79 50 80 56 81 51 82 52 83 53 84 54 85 55 86
REMARK H PARENT 5 18 76 42 46 53
REMARK Flexibility Score: inf
ROOT
ATOM      1  C   UNL     1      -1.183   8.651   0.963  1.00  0.00     0.330 C 
ATOM      2  O   UNL     1      -0.367   9.511   1.262  1.00  0.00    -0.247 OA
ENDROOT
BRANCH   1   3
ATOM      3  C   UNL     1      -1.062   7.273   1.482  1.00  0.00     0.094 C 
ATOM      4  C   UNL     1      -1.933   6.276   1.258  1.00  0.00     0.015 C 
BRANCH   4   5
ATOM      5  C   UNL     1      -1.838   4.978   1.942  1.00  0.00    -0.025 A 
ATOM      6  C   UNL     1      -1.963   2.529   1.864  1.00  0.00    -0.037 A 
ATOM      7  C   UNL     1      -1.802   2.501   3.255  1.00  0.00     0.004 A 
ATOM      8  C   UNL     1      -2.043   3.788   1.230  1.00  0.00     0.012 A 
ATOM      9  C   UNL     1      -1.603   3.677   3.975  1.00  0.00     0.001 A 
ATOM     10  C   UNL     1      -1.610   4.906   3.320  1.00  0.00     0.008 A 
BRANCH   6  11
ATOM     11  C   UNL     1      -2.115   1.279   1.024  1.00  0.00     0.105 C 
BRANCH  11  12
ATOM     12  S   UNL     1      -1.393  -0.265   1.674  1.00  0.00    -0.154 SA
BRANCH  12  13
ATOM     13  C   UNL     1       0.416  -0.101   1.321  1.00  0.00     0.046 C 
ATOM     14  C   UNL     1       0.725  -0.162  -0.171  1.00  0.00     0.019 C 
BRANCH  13  15
ATOM     15  C   UNL     1       1.147   0.967   2.154  1.00  0.00     0.042 C 
BRANCH  15  16
ATOM     16  C   UNL     1       1.680   2.232   1.485  1.00  0.00     0.157 C 
BRANCH  16  17
ATOM     17  O   UNL     1       0.909   2.669   0.384  1.00  0.00    -0.396 OA
ATOM     18  H   UNL     1       0.919   1.989  -0.308  1.00  0.00     0.210 HD
ENDBRANCH  16  17
ENDBRANCH  15  16
ENDBRANCH  13  15
ENDBRANCH  12  13
ENDBRANCH  11  12
ENDBRANCH   6  11
ENDBRANCH   4   5
ENDBRANCH   1   3
BRANCH   1  19
ATOM     19  O   UNL     1      -2.300   8.832   0.221  1.00  0.00    -0.459 OA
BRANCH  19  20
ATOM     20  C   UNL     1      -2.616  10.197  -0.112  1.00  0.00     0.275 C 
BRANCH  20  21
ATOM     21  C   UNL     1      -3.762  10.725   0.757  1.00  0.00     0.275 C 
BRANCH  21  22
ATOM     22  O   UNL     1      -3.374  10.868   2.137  1.00  0.00    -0.458 OA
BRANCH  22  23
ATOM     23  C   UNL     1      -3.605   9.782   2.914  1.00  0.00     0.338 C 
ATOM     24  O   UNL     1      -4.111   8.727   2.568  1.00  0.00    -0.246 OA
BRANCH  23  25
ATOM     25  C   UNL     1      -3.051   9.997   4.262  1.00  0.00     0.060 A 
ATOM     26  C   UNL     1      -2.168   9.038   4.767  1.00  0.00     0.016 A 
ATOM     27  C   UNL     1      -3.449  11.077   5.054  1.00  0.00     0.016 A 
ATOM     28  C   UNL     1      -1.688   9.148   6.071  1.00  0.00     0.010 A 
ATOM     29  C   UNL     1      -2.964  11.187   6.363  1.00  0.00     0.010 A 
ATOM     30  C   UNL     1      -2.092  10.216   6.885  1.00  0.00    -0.014 A 
BRANCH  30  31
ATOM     31  C   UNL     1      -1.621  10.288   8.291  1.00  0.00     0.031 A 
ATOM     32  C   UNL     1      -2.550   9.930   9.418  1.00  0.00     0.074 A 
ATOM     33  C   UNL     1      -0.352  10.649   8.555  1.00  0.00     0.049 A 
ATOM     34  N   UNL     1      -2.324   9.935  10.707  1.00  0.00    -0.248 NA
ATOM     35  C   UNL     1      -3.911   9.510   9.047  1.00  0.00     0.031 C 
ATOM     36  C   UNL     1       0.654  10.994   7.549  1.00  0.00     0.029 A 
ATOM     37  N   UNL     1       0.310  10.784   9.750  1.00  0.00    -0.354 N 
ATOM     38  C   UNL     1      -3.512   9.532  11.304  1.00  0.00     0.074 A 
ATOM     39  C   UNL     1      -4.465   9.310  10.236  1.00  0.00     0.031 C 
ATOM     40  C   UNL     1       1.808  11.292   8.169  1.00  0.00     0.029 A 
ATOM     41  C   UNL     1       1.614  11.197   9.614  1.00  0.00     0.049 A 
ATOM     42  H   UNL     1      -0.110  10.601  10.622  1.00  0.00     0.167 HD
ATOM     43  C   UNL     1      -3.785   9.358  12.620  1.00  0.00     0.031 A 
ATOM     44  C   UNL     1       2.544  11.483  10.546  1.00  0.00     0.031 A 
ATOM     45  C   UNL     1      -2.841   9.587  13.682  1.00  0.00     0.049 A 
ATOM     46  C   UNL     1       2.201  11.333  12.003  1.00  0.00     0.074 A 
ATOM     47  C   UNL     1      -3.022   9.421  15.045  1.00  0.00     0.029 A 
ATOM     48  N   UNL     1      -1.541  10.037  13.505  1.00  0.00    -0.354 N 
ATOM     49  N   UNL     1       1.078  10.928  12.547  1.00  0.00    -0.248 NA
ATOM     50  C   UNL     1       3.252  11.675  12.971  1.00  0.00     0.031 C 
ATOM     51  C   UNL     1      -1.847   9.818  15.695  1.00  0.00     0.029 A 
ATOM     52  C   UNL     1      -0.917  10.179  14.733  1.00  0.00     0.049 A 
ATOM     53  H   UNL     1      -1.124  10.228  12.634  1.00  0.00     0.167 HD
ATOM     54  C   UNL     1       1.295  10.947  13.921  1.00  0.00     0.074 A 
ATOM     55  C   UNL     1       2.660  11.389  14.123  1.00  0.00     0.031 C 
ATOM     56  C   UNL     1       0.440  10.625  14.923  1.00  0.00     0.031 A 
BRANCH  43  57
ATOM     57  C   UNL     1      -5.181   8.928  12.988  1.00  0.00    -0.014 A 
ATOM     58  C   UNL     1      -5.625   7.615  12.750  1.00  0.00     0.010 A 
ATOM     59  C   UNL     1      -6.048   9.843  13.613  1.00  0.00     0.010 A 
ATOM     60  C   UNL     1      -6.927   7.237  13.094  1.00  0.00     0.020 A 
ATOM     61  C   UNL     1      -7.342   9.461  13.979  1.00  0.00     0.020 A 
ATOM     62  C   UNL     1      -7.779   8.165  13.700  1.00  0.00     0.054 A 
BRANCH  62  63
ATOM     63  S   UNL     1      -9.460   7.647  14.143  1.00  0.00     0.124 S 
ATOM     64  O   UNL     1     -10.118   7.615  12.840  1.00  0.00    -0.237 OA
ATOM     65  O   UNL     1      -9.242   6.345  14.768  1.00  0.00    -0.237 OA
ATOM     66  O   UNL     1      -9.920   8.698  15.047  1.00  0.00    -0.744 OA
ENDBRANCH  62  63
ENDBRANCH  43  57
BRANCH  44  67
ATOM     67  C   UNL     1       3.890  11.957  10.124  1.00  0.00    -0.014 A 
ATOM     68  C   UNL     1       5.019  11.133  10.268  1.00  0.00     0.010 A 
ATOM     69  C   UNL     1       4.043  13.237   9.560  1.00  0.00     0.010 A 
ATOM     70  C   UNL     1       6.280  11.585   9.865  1.00  0.00     0.020 A 
ATOM     71  C   UNL     1       5.296  13.682   9.132  1.00  0.00     0.020 A 
ATOM     72  C   UNL     1       6.409  12.856   9.297  1.00  0.00     0.054 A 
BRANCH  72  73
ATOM     73  S   UNL     1       8.043  13.399   8.724  1.00  0.00     0.124 S 
ATOM     74  O   UNL     1       8.711  13.728   9.980  1.00  0.00    -0.237 OA
ATOM     75  O   UNL     1       8.546  12.216   8.030  1.00  0.00    -0.237 OA
ATOM     76  O   UNL     1       7.740  14.537   7.859  1.00  0.00    -0.744 OA
ENDBRANCH  72  73
ENDBRANCH  44  67
BRANCH  56  77
ATOM     77  C   UNL     1       0.962  10.714  16.332  1.00  0.00    -0.014 A 
ATOM     78  C   UNL     1       1.165  11.957  16.957  1.00  0.00     0.010 A 
ATOM     79  C   UNL     1       1.206   9.533  17.058  1.00  0.00     0.010 A 
ATOM     80  C   UNL     1       1.632  12.018  18.273  1.00  0.00     0.020 A 
ATOM     81  C   UNL     1       1.650   9.591  18.382  1.00  0.00     0.020 A 
ATOM     82  C   UNL     1       1.874  10.834  18.977  1.00  0.00     0.054 A 
BRANCH  82  83
ATOM     83  S   UNL     1       2.441  10.937  20.697  1.00  0.00     0.124 S 
ATOM     84  O   UNL     1       3.844  11.305  20.533  1.00  0.00    -0.237 OA
ATOM     85  O   UNL     1       1.580  11.976  21.259  1.00  0.00    -0.237 OA
ATOM     86  O   UNL     1       2.205   9.593  21.220  1.00  0.00    -0.744 OA
ENDBRANCH  82  83
ENDBRANCH  56  77
ENDBRANCH  30  31
ENDBRANCH  23  25
ENDBRANCH  22  23
ENDBRANCH  21  22
ENDBRANCH  20  21
ENDBRANCH  19  20
ENDBRANCH   1  19
TORSDOF 21
