REMARK SMILES CCN(C(=O)Cc1c(C(=O)OCCOC(=O)c2ccc(-c3c4nc(c(-c5ccc(S(=O)(=O)[O-])cc5)c5ccc([nH]5)c(-c5ccc(S(=O)(=O)[O-])cc5)c5nc(c(-c6ccc(S(=O)(=O)[O-])cc6)c6ccc3[nH]6)C=C5)C=C4)cc2)[nH]c2ccc(Cl)cc12)c1ccc(C)c(C)c1
REMARK SMILES IDX 12 1 11 2 9 3 10 4 8 5 7 6 84 7 77 8 78 9 83 10 79 12 81 13
REMARK SMILES IDX 80 14 82 15 6 16 4 17 5 18 3 19 2 20 1 21 85 22 86 23 92 24
REMARK SMILES IDX 87 25 90 26 88 27 91 28 89 29 13 30 14 31 15 32 16 33 17 34
REMARK SMILES IDX 18 35 76 36 19 37 75 38 20 39 21 40 22 41 69 42 23 43 74 44
REMARK SMILES IDX 68 45 70 46 24 47 73 48 67 49 66 50 25 52 55 53 36 54 54 55
REMARK SMILES IDX 37 56 40 57 53 58 71 59 38 60 39 61 52 63 72 64 41 65 26 66
REMARK SMILES IDX 27 67 35 68 28 69 34 70 29 71 30 72 31 73 32 74 33 75 56 76
REMARK SMILES IDX 57 77 65 78 58 79 64 80 59 81 60 82 61 83 62 84 63 85 42 86
REMARK SMILES IDX 43 87 51 88 44 89 50 90 45 91 46 92 47 93 48 94 49 95
REMARK H PARENT 77 11 70 51 40 62
REMARK Flexibility Score: inf
ROOT
ATOM      1  C   UNL     1      -2.281   6.029   0.938  1.00  0.00     0.275 C 
ENDROOT
BRANCH   1   2
ATOM      2  O   UNL     1      -2.114   4.598   0.925  1.00  0.00    -0.457 OA
BRANCH   2   3
ATOM      3  C   UNL     1      -2.936   3.922   0.086  1.00  0.00     0.355 C 
ATOM      4  O   UNL     1      -3.810   4.432  -0.598  1.00  0.00    -0.244 OA
BRANCH   3   5
ATOM      5  C   UNL     1      -2.628   2.507   0.043  1.00  0.00     0.129 A 
ATOM      6  C   UNL     1      -2.030   1.610   0.930  1.00  0.00     0.002 A 
ATOM      7  C   UNL     1      -2.256   0.291   0.380  1.00  0.00     0.005 A 
ATOM      8  N   UNL     1      -2.988   1.777  -1.069  1.00  0.00    -0.349 N 
ATOM      9  C   UNL     1      -2.665   0.458  -0.937  1.00  0.00     0.046 A 
ATOM     10  C   UNL     1      -2.097  -1.031   0.846  1.00  0.00     0.031 A 
ATOM     11  H   UNL     1      -3.426   2.161  -1.863  1.00  0.00     0.167 HD
ATOM     12  C   UNL     1      -2.748  -0.584  -1.866  1.00  0.00     0.028 A 
ATOM     13  C   UNL     1      -2.200  -2.094  -0.061  1.00  0.00     0.041 A 
ATOM     14  C   UNL     1      -2.477  -1.873  -1.406  1.00  0.00     0.022 A 
ATOM     15  Cl  UNL     1      -1.920  -3.700   0.496  1.00  0.00    -0.084 Cl
BRANCH   6  16
ATOM     16  C   UNL     1      -1.375   1.911   2.252  1.00  0.00     0.139 C 
BRANCH  16  17
ATOM     17  C   UNL     1       0.051   2.490   2.158  1.00  0.00     0.231 C 
ATOM     18  O   UNL     1       0.215   3.670   2.497  1.00  0.00    -0.274 OA
BRANCH  17  19
ATOM     19  N   UNL     1       1.115   1.664   1.753  1.00  0.00    -0.312 N 
BRANCH  19  20
ATOM     20  C   UNL     1       1.009   0.205   1.556  1.00  0.00     0.122 C 
ATOM     21  C   UNL     1       1.036  -0.281   0.113  1.00  0.00     0.028 C 
ENDBRANCH  19  20
BRANCH  19  22
ATOM     22  C   UNL     1       2.465   2.160   1.758  1.00  0.00     0.044 A 
ATOM     23  C   UNL     1       2.981   2.854   2.851  1.00  0.00     0.026 A 
ATOM     24  C   UNL     1       3.341   1.829   0.717  1.00  0.00     0.030 A 
ATOM     25  C   UNL     1       4.351   3.130   2.928  1.00  0.00     0.006 A 
ATOM     26  C   UNL     1       4.722   2.075   0.785  1.00  0.00    -0.046 A 
ATOM     27  C   UNL     1       5.239   2.720   1.918  1.00  0.00    -0.048 A 
ATOM     28  C   UNL     1       5.586   1.621  -0.360  1.00  0.00     0.044 C 
ATOM     29  C   UNL     1       6.702   3.015   2.090  1.00  0.00     0.044 C 
ENDBRANCH  19  22
ENDBRANCH  17  19
ENDBRANCH  16  17
ENDBRANCH   6  16
ENDBRANCH   3   5
ENDBRANCH   2   3
ENDBRANCH   1   2
BRANCH   1  30
ATOM     30  C   UNL     1      -1.309   6.731  -0.015  1.00  0.00     0.275 C 
BRANCH  30  31
ATOM     31  O   UNL     1      -1.648   6.481  -1.394  1.00  0.00    -0.458 OA
BRANCH  31  32
ATOM     32  C   UNL     1      -0.848   5.600  -2.036  1.00  0.00     0.338 C 
ATOM     33  O   UNL     1       0.119   5.008  -1.589  1.00  0.00    -0.246 OA
BRANCH  32  34
ATOM     34  C   UNL     1      -1.364   5.341  -3.387  1.00  0.00     0.060 A 
ATOM     35  C   UNL     1      -2.292   4.315  -3.541  1.00  0.00     0.016 A 
ATOM     36  C   UNL     1      -0.830   5.973  -4.505  1.00  0.00     0.016 A 
ATOM     37  C   UNL     1      -2.650   3.863  -4.804  1.00  0.00     0.010 A 
ATOM     38  C   UNL     1      -1.246   5.570  -5.781  1.00  0.00     0.010 A 
ATOM     39  C   UNL     1      -2.141   4.494  -5.944  1.00  0.00    -0.014 A 
BRANCH  39  40
ATOM     40  C   UNL     1      -2.524   4.008  -7.297  1.00  0.00     0.031 A 
ATOM     41  C   UNL     1      -1.468   3.490  -8.237  1.00  0.00     0.074 A 
ATOM     42  C   UNL     1      -3.817   4.017  -7.680  1.00  0.00     0.049 A 
ATOM     43  N   UNL     1      -1.568   3.192  -9.507  1.00  0.00    -0.248 NA
ATOM     44  C   UNL     1      -0.122   3.287  -7.677  1.00  0.00     0.031 C 
ATOM     45  C   UNL     1      -4.949   4.428  -6.845  1.00  0.00     0.029 A 
ATOM     46  N   UNL     1      -4.400   3.668  -8.874  1.00  0.00    -0.354 N 
ATOM     47  C   UNL     1      -0.290   2.822  -9.912  1.00  0.00     0.074 A 
ATOM     48  C   UNL     1       0.568   2.932  -8.752  1.00  0.00     0.031 C 
ATOM     49  C   UNL     1      -6.086   4.286  -7.541  1.00  0.00     0.029 A 
ATOM     50  C   UNL     1      -5.761   3.864  -8.898  1.00  0.00     0.049 A 
ATOM     51  H   UNL     1      -3.892   3.313  -9.639  1.00  0.00     0.167 HD
ATOM     52  C   UNL     1       0.128   2.437 -11.142  1.00  0.00     0.031 A 
ATOM     53  C   UNL     1      -6.646   3.769  -9.909  1.00  0.00     0.031 A 
ATOM     54  C   UNL     1      -0.741   2.306 -12.283  1.00  0.00     0.049 A 
ATOM     55  C   UNL     1      -6.151   3.400 -11.278  1.00  0.00     0.074 A 
ATOM     56  C   UNL     1      -0.417   1.919 -13.571  1.00  0.00     0.029 A 
ATOM     57  N   UNL     1      -2.106   2.550 -12.269  1.00  0.00    -0.354 N 
ATOM     58  N   UNL     1      -4.930   3.104 -11.658  1.00  0.00    -0.248 NA
ATOM     59  C   UNL     1      -7.146   3.368 -12.359  1.00  0.00     0.031 C 
ATOM     60  C   UNL     1      -1.579   1.974 -14.348  1.00  0.00     0.029 A 
ATOM     61  C   UNL     1      -2.636   2.340 -13.531  1.00  0.00     0.049 A 
ATOM     62  H   UNL     1      -2.622   2.832 -11.479  1.00  0.00     0.167 HD
ATOM     63  C   UNL     1      -5.014   2.834 -13.018  1.00  0.00     0.074 A 
ATOM     64  C   UNL     1      -6.406   2.986 -13.392  1.00  0.00     0.031 C 
ATOM     65  C   UNL     1      -4.026   2.493 -13.881  1.00  0.00     0.031 A 
BRANCH  52  66
ATOM     66  C   UNL     1       1.600   2.177 -11.331  1.00  0.00    -0.014 A 
ATOM     67  C   UNL     1       2.223   1.037 -10.795  1.00  0.00     0.010 A 
ATOM     68  C   UNL     1       2.366   3.080 -12.093  1.00  0.00     0.010 A 
ATOM     69  C   UNL     1       3.593   0.826 -10.982  1.00  0.00     0.020 A 
ATOM     70  C   UNL     1       3.730   2.859 -12.305  1.00  0.00     0.020 A 
ATOM     71  C   UNL     1       4.339   1.742 -11.732  1.00  0.00     0.054 A 
BRANCH  71  72
ATOM     72  S   UNL     1       6.111   1.437 -11.971  1.00  0.00     0.124 S 
ATOM     73  O   UNL     1       6.652   1.764 -10.654  1.00  0.00    -0.237 OA
ATOM     74  O   UNL     1       6.149   0.022 -12.331  1.00  0.00    -0.237 OA
ATOM     75  O   UNL     1       6.481   2.359 -13.042  1.00  0.00    -0.744 OA
ENDBRANCH  71  72
ENDBRANCH  52  66
BRANCH  53  76
ATOM     76  C   UNL     1      -8.081   4.090  -9.671  1.00  0.00    -0.014 A 
ATOM     77  C   UNL     1      -9.058   3.081  -9.710  1.00  0.00     0.010 A 
ATOM     78  C   UNL     1      -8.473   5.410  -9.378  1.00  0.00     0.010 A 
ATOM     79  C   UNL     1     -10.401   3.387  -9.467  1.00  0.00     0.020 A 
ATOM     80  C   UNL     1      -9.809   5.714  -9.105  1.00  0.00     0.020 A 
ATOM     81  C   UNL     1     -10.767   4.701  -9.162  1.00  0.00     0.054 A 
BRANCH  81  82
ATOM     82  S   UNL     1     -12.505   5.064  -8.788  1.00  0.00     0.124 S 
ATOM     83  O   UNL     1     -13.114   5.026 -10.113  1.00  0.00    -0.237 OA
ATOM     84  O   UNL     1     -12.871   3.971  -7.891  1.00  0.00    -0.237 OA
ATOM     85  O   UNL     1     -12.450   6.382  -8.159  1.00  0.00    -0.744 OA
ENDBRANCH  81  82
ENDBRANCH  53  76
BRANCH  65  86
ATOM     86  C   UNL     1      -4.418   2.221 -15.307  1.00  0.00    -0.014 A 
ATOM     87  C   UNL     1      -4.742   3.269 -16.186  1.00  0.00     0.010 A 
ATOM     88  C   UNL     1      -4.398   0.899 -15.790  1.00  0.00     0.010 A 
ATOM     89  C   UNL     1      -5.059   2.998 -17.519  1.00  0.00     0.020 A 
ATOM     90  C   UNL     1      -4.690   0.627 -17.128  1.00  0.00     0.020 A 
ATOM     91  C   UNL     1      -5.029   1.678 -17.982  1.00  0.00     0.054 A 
BRANCH  91  92
ATOM     92  S   UNL     1      -5.384   1.357 -19.731  1.00  0.00     0.124 S 
ATOM     93  O   UNL     1      -6.833   1.533 -19.784  1.00  0.00    -0.237 OA
ATOM     94  O   UNL     1      -4.601   2.385 -20.412  1.00  0.00    -0.237 OA
ATOM     95  O   UNL     1      -4.915  -0.012 -19.935  1.00  0.00    -0.744 OA
ENDBRANCH  91  92
ENDBRANCH  65  86
ENDBRANCH  39  40
ENDBRANCH  32  34
ENDBRANCH  31  32
ENDBRANCH  30  31
ENDBRANCH   1  30
TORSDOF 19
