REMARK SMILES C[C@H](SCc1nc2ccccc2c(=O)[nH]1)C(=O)OCCOC(=O)c1ccc(-c2c3nc(c(-c4ccc(S(=O)(=O)[O-])cc4)c4ccc([nH]4)c(-c4ccc(S(=O)(=O)[O-])cc4)c4nc(c(-c5ccc(S(=O)(=O)[O-])cc5)c5ccc2[nH]5)C=C4)C=C3)cc1
REMARK SMILES IDX 19 1 18 2 16 3 17 4 2 5 1 6 3 7 4 8 5 9 6 10 15 11 7 12
REMARK SMILES IDX 13 13 8 15 12 16 14 17 9 18 11 19 10 20 20 21 21 22 22 23
REMARK SMILES IDX 23 24 24 25 25 26 83 27 26 28 82 29 27 30 28 31 29 32 76 33
REMARK SMILES IDX 30 34 81 35 75 36 77 37 31 38 80 39 74 40 73 41 32 43 62 44
REMARK SMILES IDX 43 45 61 46 44 47 47 48 60 49 78 50 45 51 46 52 59 54 79 55
REMARK SMILES IDX 48 56 33 57 34 58 42 59 35 60 41 61 36 62 37 63 38 64 39 65
REMARK SMILES IDX 40 66 63 67 64 68 72 69 65 70 71 71 66 72 67 73 68 74 69 75
REMARK SMILES IDX 70 76 49 77 50 78 58 79 51 80 57 81 52 82 53 83 54 84 55 85
REMARK SMILES IDX 56 86
REMARK H PARENT 15 14 77 42 47 53
REMARK Flexibility Score: inf
ROOT
ATOM      1  C   UNL     1      -3.178   1.454  -0.652  1.00  0.00     0.274 C 
ENDROOT
BRANCH   1   2
ATOM      2  O   UNL     1      -1.902   0.817  -0.898  1.00  0.00    -0.461 OA
BRANCH   2   3
ATOM      3  C   UNL     1      -0.801   1.565  -0.635  1.00  0.00     0.318 C 
ATOM      4  O   UNL     1      -0.857   2.784  -0.465  1.00  0.00    -0.251 OA
BRANCH   3   5
ATOM      5  C   UNL     1       0.494   0.781  -0.400  1.00  0.00     0.153 C 
ATOM      6  C   UNL     1       1.649   1.663  -0.910  1.00  0.00     0.032 C 
BRANCH   5   7
ATOM      7  S   UNL     1       0.764  -0.872  -1.158  1.00  0.00    -0.139 SA
BRANCH   7   8
ATOM      8  C   UNL     1      -0.715  -1.881  -0.856  1.00  0.00     0.145 C 
BRANCH   8   9
ATOM      9  C   UNL     1      -1.107  -2.243   0.562  1.00  0.00     0.119 A 
ATOM     10  N   UNL     1      -2.368  -2.432   0.819  1.00  0.00    -0.234 NA
ATOM     11  N   UNL     1      -0.129  -2.425   1.502  1.00  0.00    -0.309 N 
ATOM     12  C   UNL     1      -2.748  -2.678   2.148  1.00  0.00     0.078 A 
ATOM     13  C   UNL     1      -0.395  -2.730   2.818  1.00  0.00     0.258 A 
ATOM     14  H   UNL     1       0.811  -2.333   1.223  1.00  0.00     0.171 HD
ATOM     15  C   UNL     1      -4.110  -2.678   2.464  1.00  0.00     0.029 A 
ATOM     16  C   UNL     1      -1.821  -2.843   3.177  1.00  0.00     0.065 A 
ATOM     17  O   UNL     1       0.492  -2.869   3.652  1.00  0.00    -0.269 OA
ATOM     18  C   UNL     1      -4.537  -2.846   3.784  1.00  0.00     0.002 A 
ATOM     19  C   UNL     1      -2.237  -3.041   4.499  1.00  0.00     0.016 A 
ATOM     20  C   UNL     1      -3.601  -3.037   4.801  1.00  0.00     0.001 A 
ENDBRANCH   8   9
ENDBRANCH   7   8
ENDBRANCH   5   7
ENDBRANCH   3   5
ENDBRANCH   2   3
ENDBRANCH   1   2
BRANCH   1  21
ATOM     21  C   UNL     1      -3.887   0.869   0.586  1.00  0.00     0.275 C 
BRANCH  21  22
ATOM     22  O   UNL     1      -3.408   1.335   1.871  1.00  0.00    -0.458 OA
BRANCH  22  23
ATOM     23  C   UNL     1      -2.215   0.832   2.232  1.00  0.00     0.338 C 
ATOM     24  O   UNL     1      -1.469   0.172   1.526  1.00  0.00    -0.246 OA
BRANCH  23  25
ATOM     25  C   UNL     1      -1.757   1.099   3.589  1.00  0.00     0.060 A 
ATOM     26  C   UNL     1      -0.404   1.445   3.717  1.00  0.00     0.016 A 
ATOM     27  C   UNL     1      -2.518   0.738   4.699  1.00  0.00     0.016 A 
ATOM     28  C   UNL     1       0.202   1.418   4.961  1.00  0.00     0.010 A 
ATOM     29  C   UNL     1      -1.911   0.735   5.957  1.00  0.00     0.010 A 
ATOM     30  C   UNL     1      -0.552   1.071   6.089  1.00  0.00    -0.014 A 
BRANCH  30  31
ATOM     31  C   UNL     1       0.073   1.213   7.417  1.00  0.00     0.031 A 
ATOM     32  C   UNL     1       0.609   0.034   8.166  1.00  0.00     0.074 A 
ATOM     33  C   UNL     1       0.176   2.461   7.908  1.00  0.00     0.049 A 
ATOM     34  N   UNL     1       1.159   0.006   9.352  1.00  0.00    -0.248 NA
ATOM     35  C   UNL     1       0.517  -1.278   7.509  1.00  0.00     0.031 C 
ATOM     36  C   UNL     1      -0.283   3.672   7.220  1.00  0.00     0.029 A 
ATOM     37  N   UNL     1       0.701   2.921   9.083  1.00  0.00    -0.354 N 
ATOM     38  C   UNL     1       1.469  -1.326   9.596  1.00  0.00     0.074 A 
ATOM     39  C   UNL     1       1.034  -2.077   8.436  1.00  0.00     0.031 C 
ATOM     40  C   UNL     1      -0.013   4.738   7.985  1.00  0.00     0.029 A 
ATOM     41  C   UNL     1       0.596   4.282   9.228  1.00  0.00     0.049 A 
ATOM     42  H   UNL     1       1.113   2.335   9.758  1.00  0.00     0.167 HD
ATOM     43  C   UNL     1       2.062  -1.860  10.691  1.00  0.00     0.031 A 
ATOM     44  C   UNL     1       0.933   5.075  10.259  1.00  0.00     0.031 A 
ATOM     45  C   UNL     1       2.491  -1.088  11.832  1.00  0.00     0.049 A 
ATOM     46  C   UNL     1       1.556   4.453  11.469  1.00  0.00     0.074 A 
ATOM     47  C   UNL     1       3.114  -1.528  12.987  1.00  0.00     0.029 A 
ATOM     48  N   UNL     1       2.343   0.287  11.959  1.00  0.00    -0.354 N 
ATOM     49  N   UNL     1       1.833   3.189  11.689  1.00  0.00    -0.248 NA
ATOM     50  C   UNL     1       1.914   5.358  12.566  1.00  0.00     0.031 C 
ATOM     51  C   UNL     1       3.307  -0.425  13.828  1.00  0.00     0.029 A 
ATOM     52  C   UNL     1       2.843   0.709  13.180  1.00  0.00     0.049 A 
ATOM     53  H   UNL     1       1.941   0.876  11.280  1.00  0.00     0.167 HD
ATOM     54  C   UNL     1       2.408   3.146  12.950  1.00  0.00     0.074 A 
ATOM     55  C   UNL     1       2.453   4.513  13.435  1.00  0.00     0.031 C 
ATOM     56  C   UNL     1       2.857   2.072  13.645  1.00  0.00     0.031 A 
BRANCH  43  57
ATOM     57  C   UNL     1       2.250  -3.353  10.729  1.00  0.00    -0.014 A 
ATOM     58  C   UNL     1       3.256  -3.983   9.975  1.00  0.00     0.010 A 
ATOM     59  C   UNL     1       1.442  -4.133  11.576  1.00  0.00     0.010 A 
ATOM     60  C   UNL     1       3.432  -5.369  10.046  1.00  0.00     0.020 A 
ATOM     61  C   UNL     1       1.626  -5.517  11.664  1.00  0.00     0.020 A 
ATOM     62  C   UNL     1       2.611  -6.129  10.886  1.00  0.00     0.054 A 
BRANCH  62  63
ATOM     63  S   UNL     1       2.873  -7.922  10.987  1.00  0.00     0.124 S 
ATOM     64  O   UNL     1       2.246  -8.388   9.752  1.00  0.00    -0.237 OA
ATOM     65  O   UNL     1       4.329  -8.036  11.033  1.00  0.00    -0.237 OA
ATOM     66  O   UNL     1       2.184  -8.304  12.217  1.00  0.00    -0.744 OA
ENDBRANCH  62  63
ENDBRANCH  43  57
BRANCH  44  67
ATOM     67  C   UNL     1       0.658   6.530  10.170  1.00  0.00    -0.014 A 
ATOM     68  C   UNL     1       1.699   7.441   9.934  1.00  0.00     0.010 A 
ATOM     69  C   UNL     1      -0.668   6.998  10.236  1.00  0.00     0.010 A 
ATOM     70  C   UNL     1       1.419   8.799   9.761  1.00  0.00     0.020 A 
ATOM     71  C   UNL     1      -0.953   8.351  10.043  1.00  0.00     0.020 A 
ATOM     72  C   UNL     1       0.094   9.245   9.812  1.00  0.00     0.054 A 
BRANCH  72  73
ATOM     73  S   UNL     1      -0.262  10.995   9.493  1.00  0.00     0.124 S 
ATOM     74  O   UNL     1       0.037  11.604  10.785  1.00  0.00    -0.237 OA
ATOM     75  O   UNL     1       0.663  11.319   8.410  1.00  0.00    -0.237 OA
ATOM     76  O   UNL     1      -1.673  10.989   9.112  1.00  0.00    -0.744 OA
ENDBRANCH  72  73
ENDBRANCH  44  67
BRANCH  56  77
ATOM     77  C   UNL     1       3.442   2.352  15.000  1.00  0.00    -0.014 A 
ATOM     78  C   UNL     1       2.609   2.632  16.098  1.00  0.00     0.010 A 
ATOM     79  C   UNL     1       4.836   2.327  15.177  1.00  0.00     0.010 A 
ATOM     80  C   UNL     1       3.165   2.921  17.346  1.00  0.00     0.020 A 
ATOM     81  C   UNL     1       5.394   2.598  16.428  1.00  0.00     0.020 A 
ATOM     82  C   UNL     1       4.555   2.911  17.500  1.00  0.00     0.054 A 
BRANCH  82  83
ATOM     83  S   UNL     1       5.260   3.274  19.131  1.00  0.00     0.124 S 
ATOM     84  O   UNL     1       5.197   4.732  19.170  1.00  0.00    -0.237 OA
ATOM     85  O   UNL     1       4.349   2.582  20.041  1.00  0.00    -0.237 OA
ATOM     86  O   UNL     1       6.605   2.708  19.058  1.00  0.00    -0.744 OA
ENDBRANCH  82  83
ENDBRANCH  56  77
ENDBRANCH  30  31
ENDBRANCH  23  25
ENDBRANCH  22  23
ENDBRANCH  21  22
ENDBRANCH   1  21
TORSDOF 17
