REMARK SMILES CC1CC[NH+]([C@H](c2ccc(F)cc2)c2ccc([C@@H](C)C(=O)OCCOC(=O)c3ccc(-c4c5nc(c(-c6ccc(S(=O)(=O)[O-])cc6)c6ccc([nH]6)c(-c6ccc(S(=O)(=O)[O-])cc6)c6nc(c(-c7ccc(S(=O)(=O)[O-])cc7)c7ccc4[nH]7)C=C6)C=C5)cc3)cc2-c2ccc(C(F)(F)F)cc2)CC1
REMARK SMILES IDX 23 1 22 2 20 3 21 4 18 5 19 6 17 7 14 8 15 9 89 10 16 11
REMARK SMILES IDX 88 12 6 13 5 14 1 15 2 16 3 17 101 18 4 19 100 20 7 22 8 23
REMARK SMILES IDX 13 24 9 25 12 26 10 27 11 28 90 29 91 30 99 31 92 32 98 33
REMARK SMILES IDX 93 34 94 35 95 36 96 37 97 38 24 39 25 40 26 41 27 42 28 43
REMARK SMILES IDX 29 44 87 45 30 46 86 47 31 48 32 49 33 50 80 51 34 52 85 53
REMARK SMILES IDX 79 54 81 55 35 56 84 57 78 58 77 59 36 61 66 62 47 63 65 64
REMARK SMILES IDX 48 65 51 66 64 67 82 68 49 69 50 70 63 72 83 73 52 74 37 75
REMARK SMILES IDX 38 76 46 77 39 78 45 79 40 80 41 81 42 82 43 83 44 84 67 85
REMARK SMILES IDX 68 86 76 87 69 88 75 89 70 90 71 91 72 92 73 93 74 94 53 95
REMARK SMILES IDX 54 96 62 97 55 98 61 99 56 100 57 101 58 102 59 103 60 104
REMARK H PARENT 5 21 81 60 51 71
REMARK Flexibility Score: inf
ROOT
ATOM      1  C   UNL     1       2.625   7.325  -3.100  1.00  0.00     0.274 C 
ENDROOT
BRANCH   1   2
ATOM      2  O   UNL     1       3.064   6.044  -3.589  1.00  0.00    -0.462 OA
BRANCH   2   3
ATOM      3  C   UNL     1       4.376   5.907  -3.917  1.00  0.00     0.313 C 
ATOM      4  O   UNL     1       5.181   6.832  -3.929  1.00  0.00    -0.252 OA
BRANCH   3   5
ATOM      5  C   UNL     1       4.755   4.483  -4.336  1.00  0.00     0.126 C 
ATOM      6  C   UNL     1       4.723   4.372  -5.859  1.00  0.00     0.025 C 
BRANCH   5   7
ATOM      7  C   UNL     1       3.960   3.373  -3.663  1.00  0.00    -0.033 A 
ATOM      8  C   UNL     1       2.443   1.335  -2.331  1.00  0.00     0.022 A 
ATOM      9  C   UNL     1       1.853   2.289  -3.184  1.00  0.00     0.011 A 
ATOM     10  C   UNL     1       3.854   1.410  -2.158  1.00  0.00    -0.009 A 
ATOM     11  C   UNL     1       2.589   3.259  -3.857  1.00  0.00     0.005 A 
ATOM     12  C   UNL     1       4.578   2.436  -2.820  1.00  0.00     0.013 A 
BRANCH   8  13
ATOM     13  C   UNL     1       1.584   0.225  -1.655  1.00  0.00     0.247 C 
BRANCH  13  14
ATOM     14  N   UNL     1       0.147   0.088  -2.078  1.00  0.00    -0.325 N 
ATOM     15  C   UNL     1      -3.439   1.308  -4.309  1.00  0.00     0.008 C 
ATOM     16  C   UNL     1      -2.061   1.146  -3.677  1.00  0.00    -0.003 C 
ATOM     17  C   UNL     1      -1.410  -0.178  -4.070  1.00  0.00     0.065 C 
ATOM     18  C   UNL     1      -2.142   1.174  -2.155  1.00  0.00     0.065 C 
ATOM     19  C   UNL     1      -0.001  -0.304  -3.482  1.00  0.00     0.263 C 
ATOM     20  C   UNL     1      -0.748   1.111  -1.532  1.00  0.00     0.263 C 
ATOM     21  H   UNL     1      -0.233  -0.730  -1.600  1.00  0.00     0.348 HD
ENDBRANCH  13  14
BRANCH  13  22
ATOM     22  C   UNL     1       1.704   0.170  -0.123  1.00  0.00     0.014 A 
ATOM     23  C   UNL     1       1.622   1.327   0.674  1.00  0.00     0.013 A 
ATOM     24  C   UNL     1       1.879  -1.075   0.514  1.00  0.00     0.013 A 
ATOM     25  C   UNL     1       1.701   1.238   2.066  1.00  0.00     0.040 A 
ATOM     26  C   UNL     1       1.981  -1.158   1.904  1.00  0.00     0.040 A 
ATOM     27  C   UNL     1       1.881  -0.002   2.666  1.00  0.00     0.123 A 
ATOM     28  F   UNL     1       1.948  -0.084   4.001  1.00  0.00    -0.207 F 
ENDBRANCH  13  22
ENDBRANCH   8  13
BRANCH  10  29
ATOM     29  C   UNL     1       4.618   0.473  -1.309  1.00  0.00    -0.018 A 
ATOM     30  C   UNL     1       5.170   0.898  -0.089  1.00  0.00     0.009 A 
ATOM     31  C   UNL     1       4.812  -0.862  -1.693  1.00  0.00     0.009 A 
ATOM     32  C   UNL     1       5.853   0.005   0.744  1.00  0.00     0.014 A 
ATOM     33  C   UNL     1       5.488  -1.759  -0.859  1.00  0.00     0.014 A 
ATOM     34  C   UNL     1       6.002  -1.339   0.376  1.00  0.00     0.056 A 
BRANCH  34  35
ATOM     35  C   UNL     1       6.711  -2.307   1.294  1.00  0.00     0.416 C 
ATOM     36  F   UNL     1       8.053  -2.091   1.343  1.00  0.00    -0.166 F 
ATOM     37  F   UNL     1       6.263  -2.241   2.576  1.00  0.00    -0.166 F 
ATOM     38  F   UNL     1       6.557  -3.609   0.916  1.00  0.00    -0.166 F 
ENDBRANCH  34  35
ENDBRANCH  10  29
ENDBRANCH   5   7
ENDBRANCH   3   5
ENDBRANCH   2   3
ENDBRANCH   1   2
BRANCH   1  39
ATOM     39  C   UNL     1       2.454   7.290  -1.581  1.00  0.00     0.275 C 
BRANCH  39  40
ATOM     40  O   UNL     1       3.734   7.173  -0.937  1.00  0.00    -0.458 OA
BRANCH  40  41
ATOM     41  C   UNL     1       4.052   5.936  -0.491  1.00  0.00     0.338 C 
ATOM     42  O   UNL     1       3.352   4.940  -0.490  1.00  0.00    -0.246 OA
BRANCH  41  43
ATOM     43  C   UNL     1       5.466   5.934  -0.093  1.00  0.00     0.060 A 
ATOM     44  C   UNL     1       6.386   5.293  -0.923  1.00  0.00     0.016 A 
ATOM     45  C   UNL     1       5.871   6.510   1.110  1.00  0.00     0.016 A 
ATOM     46  C   UNL     1       7.724   5.212  -0.553  1.00  0.00     0.010 A 
ATOM     47  C   UNL     1       7.217   6.436   1.479  1.00  0.00     0.010 A 
ATOM     48  C   UNL     1       8.147   5.775   0.656  1.00  0.00    -0.014 A 
BRANCH  48  49
ATOM     49  C   UNL     1       9.556   5.618   1.084  1.00  0.00     0.031 A 
ATOM     50  C   UNL     1       9.893   4.660   2.188  1.00  0.00     0.074 A 
ATOM     51  C   UNL     1      10.524   6.330   0.481  1.00  0.00     0.049 A 
ATOM     52  N   UNL     1      11.048   4.429   2.756  1.00  0.00    -0.248 NA
ATOM     53  C   UNL     1       8.782   3.861   2.727  1.00  0.00     0.031 C 
ATOM     54  C   UNL     1      10.320   7.265  -0.626  1.00  0.00     0.029 A 
ATOM     55  N   UNL     1      11.873   6.382   0.722  1.00  0.00    -0.354 N 
ATOM     56  C   UNL     1      10.799   3.481   3.741  1.00  0.00     0.074 A 
ATOM     57  C   UNL     1       9.382   3.190   3.699  1.00  0.00     0.031 C 
ATOM     58  C   UNL     1      11.502   7.805  -0.963  1.00  0.00     0.029 A 
ATOM     59  C   UNL     1      12.536   7.288  -0.070  1.00  0.00     0.049 A 
ATOM     60  H   UNL     1      12.323   5.825   1.397  1.00  0.00     0.167 HD
ATOM     61  C   UNL     1      11.673   2.912   4.606  1.00  0.00     0.031 A 
ATOM     62  C   UNL     1      13.824   7.682  -0.058  1.00  0.00     0.031 A 
ATOM     63  C   UNL     1      13.079   3.214   4.647  1.00  0.00     0.049 A 
ATOM     64  C   UNL     1      14.771   7.064   0.930  1.00  0.00     0.074 A 
ATOM     65  C   UNL     1      14.053   2.675   5.469  1.00  0.00     0.029 A 
ATOM     66  N   UNL     1      13.711   4.145   3.835  1.00  0.00    -0.354 N 
ATOM     67  N   UNL     1      14.526   6.157   1.847  1.00  0.00    -0.248 NA
ATOM     68  C   UNL     1      16.167   7.519   0.886  1.00  0.00     0.031 C 
ATOM     69  C   UNL     1      15.265   3.317   5.188  1.00  0.00     0.029 A 
ATOM     70  C   UNL     1      15.057   4.218   4.155  1.00  0.00     0.049 A 
ATOM     71  H   UNL     1      13.268   4.676   3.135  1.00  0.00     0.167 HD
ATOM     72  C   UNL     1      15.739   5.924   2.484  1.00  0.00     0.074 A 
ATOM     73  C   UNL     1      16.720   6.774   1.836  1.00  0.00     0.031 C 
ATOM     74  C   UNL     1      16.016   5.083   3.511  1.00  0.00     0.031 A 
BRANCH  61  75
ATOM     75  C   UNL     1      11.103   1.953   5.617  1.00  0.00    -0.014 A 
ATOM     76  C   UNL     1      10.636   0.679   5.244  1.00  0.00     0.010 A 
ATOM     77  C   UNL     1      11.012   2.348   6.964  1.00  0.00     0.010 A 
ATOM     78  C   UNL     1      10.031  -0.156   6.188  1.00  0.00     0.020 A 
ATOM     79  C   UNL     1      10.431   1.505   7.915  1.00  0.00     0.020 A 
ATOM     80  C   UNL     1       9.920   0.269   7.515  1.00  0.00     0.054 A 
BRANCH  80  81
ATOM     81  S   UNL     1       9.105  -0.815   8.720  1.00  0.00     0.124 S 
ATOM     82  O   UNL     1       7.695  -0.612   8.400  1.00  0.00    -0.237 OA
ATOM     83  O   UNL     1       9.643  -2.132   8.388  1.00  0.00    -0.237 OA
ATOM     84  O   UNL     1       9.534  -0.280  10.011  1.00  0.00    -0.744 OA
ENDBRANCH  80  81
ENDBRANCH  61  75
BRANCH  62  85
ATOM     85  C   UNL     1      14.265   8.739  -1.006  1.00  0.00    -0.014 A 
ATOM     86  C   UNL     1      15.037   8.417  -2.134  1.00  0.00     0.010 A 
ATOM     87  C   UNL     1      13.842  10.069  -0.821  1.00  0.00     0.010 A 
ATOM     88  C   UNL     1      15.367   9.404  -3.069  1.00  0.00     0.020 A 
ATOM     89  C   UNL     1      14.150  11.053  -1.764  1.00  0.00     0.020 A 
ATOM     90  C   UNL     1      14.911  10.713  -2.883  1.00  0.00     0.054 A 
BRANCH  90  91
ATOM     91  S   UNL     1      15.252  11.952  -4.166  1.00  0.00     0.124 S 
ATOM     92  O   UNL     1      16.659  12.259  -3.925  1.00  0.00    -0.237 OA
ATOM     93  O   UNL     1      14.966  11.220  -5.397  1.00  0.00    -0.237 OA
ATOM     94  O   UNL     1      14.313  13.028  -3.859  1.00  0.00    -0.744 OA
ENDBRANCH  90  91
ENDBRANCH  62  85
BRANCH  74  95
ATOM     95  C   UNL     1      17.440   5.030   3.994  1.00  0.00    -0.014 A 
ATOM     96  C   UNL     1      17.983   6.073   4.766  1.00  0.00     0.010 A 
ATOM     97  C   UNL     1      18.228   3.898   3.716  1.00  0.00     0.010 A 
ATOM     98  C   UNL     1      19.300   5.995   5.229  1.00  0.00     0.020 A 
ATOM     99  C   UNL     1      19.536   3.808   4.197  1.00  0.00     0.020 A 
ATOM    100  C   UNL     1      20.069   4.864   4.939  1.00  0.00     0.054 A 
BRANCH 100 101
ATOM    101  S   UNL     1      21.761   4.766   5.587  1.00  0.00     0.124 S 
ATOM    102  O   UNL     1      22.482   5.664   4.689  1.00  0.00    -0.237 OA
ATOM    103  O   UNL     1      21.609   5.238   6.961  1.00  0.00    -0.237 OA
ATOM    104  O   UNL     1      22.099   3.350   5.456  1.00  0.00    -0.744 OA
ENDBRANCH 100 101
ENDBRANCH  74  95
ENDBRANCH  48  49
ENDBRANCH  41  43
ENDBRANCH  40  41
ENDBRANCH  39  40
ENDBRANCH   1  39
TORSDOF 20
