REMARK SMILES COc1cc(/C=C2/C(=O)NN(c3ccc(Cl)c(Cl)c3)C2=O)ccc1OCC(=O)OCCOC(=O)c1ccc(-c2c3nc(c(-c4ccc(S(=O)(=O)[O-])cc4)c4ccc([nH]4)c(-c4ccc(S(=O)(=O)[O-])cc4)c4nc(c(-c5ccc(S(=O)(=O)[O-])cc5)c5ccc2[nH]5)C=C4)C=C3)cc1
REMARK SMILES IDX 30 1 29 2 27 3 28 4 26 5 25 6 24 7 3 8 4 9 5 10 23 11 22 12
REMARK SMILES IDX 2 13 1 14 6 15 7 16 8 17 20 18 9 19 10 20 11 21 21 22 12 24
REMARK SMILES IDX 13 25 19 26 14 27 17 28 15 29 18 30 16 31 31 32 32 33 33 34
REMARK SMILES IDX 34 35 35 36 36 37 94 38 37 39 93 40 38 41 39 42 40 43 87 44
REMARK SMILES IDX 41 45 92 46 86 47 88 48 42 49 91 50 85 51 84 52 43 54 73 55
REMARK SMILES IDX 54 56 72 57 55 58 58 59 71 60 89 61 56 62 57 63 70 65 90 66
REMARK SMILES IDX 59 67 44 68 45 69 53 70 46 71 52 72 47 73 48 74 49 75 50 76
REMARK SMILES IDX 51 77 74 78 75 79 83 80 76 81 82 82 77 83 78 84 79 85 80 86
REMARK SMILES IDX 81 87 60 88 61 89 69 90 62 91 68 92 63 93 64 94 65 95 66 96
REMARK SMILES IDX 67 97
REMARK H PARENT 10 23 88 53 58 64
REMARK Flexibility Score: inf
ROOT
ATOM      1  C   UNL     1       1.250   2.097  -1.884  1.00  0.00     0.274 C 
ENDROOT
BRANCH   1   2
ATOM      2  O   UNL     1       2.236   1.058  -2.088  1.00  0.00    -0.460 OA
BRANCH   2   3
ATOM      3  C   UNL     1       3.384   1.155  -1.366  1.00  0.00     0.344 C 
ATOM      4  O   UNL     1       3.697   2.131  -0.689  1.00  0.00    -0.248 OA
BRANCH   3   5
ATOM      5  C   UNL     1       4.235  -0.125  -1.422  1.00  0.00     0.352 C 
BRANCH   5   6
ATOM      6  O   UNL     1       3.938  -1.204  -2.267  1.00  0.00    -0.478 OA
BRANCH   6   7
ATOM      7  C   UNL     1       2.799  -1.945  -2.228  1.00  0.00     0.162 A 
ATOM      8  C   UNL     1       1.890  -2.252  -1.205  1.00  0.00     0.161 A 
ATOM      9  C   UNL     1       0.789  -3.108  -1.485  1.00  0.00     0.058 A 
ATOM     10  C   UNL     1       0.628  -3.708  -2.744  1.00  0.00    -0.021 A 
ATOM     11  C   UNL     1       2.632  -2.581  -3.470  1.00  0.00     0.051 A 
ATOM     12  C   UNL     1       1.578  -3.453  -3.729  1.00  0.00     0.012 A 
BRANCH   8  13
ATOM     13  O   UNL     1       2.124  -2.076   0.136  1.00  0.00    -0.493 OA
ATOM     14  C   UNL     1       2.063  -0.760   0.644  1.00  0.00     0.278 C 
ENDBRANCH   8  13
BRANCH  10  15
ATOM     15  C   UNL     1      -0.406  -4.702  -3.069  1.00  0.00     0.028 C 
ATOM     16  C   UNL     1      -0.254  -6.019  -2.858  1.00  0.00     0.109 C 
ATOM     17  C   UNL     1      -1.117  -7.056  -3.480  1.00  0.00     0.275 C 
ATOM     18  C   UNL     1       0.825  -6.702  -2.104  1.00  0.00     0.282 C 
ATOM     19  O   UNL     1      -2.113  -6.871  -4.146  1.00  0.00    -0.267 OA
ATOM     20  N   UNL     1      -0.500  -8.256  -3.173  1.00  0.00    -0.256 N 
ATOM     21  N   UNL     1       0.597  -8.063  -2.335  1.00  0.00    -0.217 N 
ATOM     22  O   UNL     1       1.719  -6.168  -1.474  1.00  0.00    -0.267 OA
ATOM     23  H   UNL     1      -0.799  -9.134  -3.503  1.00  0.00     0.192 HD
BRANCH  21  24
ATOM     24  C   UNL     1       1.403  -9.099  -1.831  1.00  0.00     0.068 A 
ATOM     25  C   UNL     1       1.695 -10.228  -2.602  1.00  0.00     0.030 A 
ATOM     26  C   UNL     1       1.969  -8.978  -0.554  1.00  0.00     0.050 A 
ATOM     27  C   UNL     1       2.592 -11.190  -2.120  1.00  0.00     0.024 A 
ATOM     28  C   UNL     1       2.826  -9.960  -0.052  1.00  0.00     0.061 A 
ATOM     29  C   UNL     1       3.157 -11.060  -0.846  1.00  0.00     0.059 A 
ATOM     30  Cl  UNL     1       3.444  -9.746   1.546  1.00  0.00    -0.083 Cl
ATOM     31  Cl  UNL     1       4.270 -12.274  -0.326  1.00  0.00    -0.083 Cl
ENDBRANCH  21  24
ENDBRANCH  10  15
ENDBRANCH   6   7
ENDBRANCH   5   6
ENDBRANCH   3   5
ENDBRANCH   2   3
ENDBRANCH   1   2
BRANCH   1  32
ATOM     32  C   UNL     1      -0.155   1.489  -2.008  1.00  0.00     0.275 C 
BRANCH  32  33
ATOM     33  O   UNL     1      -0.541   0.811  -0.790  1.00  0.00    -0.458 OA
BRANCH  33  34
ATOM     34  C   UNL     1      -1.707   0.105  -0.881  1.00  0.00     0.338 C 
ATOM     35  O   UNL     1      -2.445   0.099  -1.854  1.00  0.00    -0.246 OA
BRANCH  34  36
ATOM     36  C   UNL     1      -1.931  -0.764   0.316  1.00  0.00     0.060 A 
ATOM     37  C   UNL     1      -1.062  -0.754   1.397  1.00  0.00     0.016 A 
ATOM     38  C   UNL     1      -2.972  -1.696   0.325  1.00  0.00     0.016 A 
ATOM     39  C   UNL     1      -1.061  -1.810   2.320  1.00  0.00     0.010 A 
ATOM     40  C   UNL     1      -3.080  -2.641   1.364  1.00  0.00     0.010 A 
ATOM     41  C   UNL     1      -2.082  -2.770   2.347  1.00  0.00    -0.014 A 
BRANCH  41  42
ATOM     42  C   UNL     1      -2.106  -3.890   3.360  1.00  0.00     0.031 A 
ATOM     43  C   UNL     1      -2.429  -5.314   2.928  1.00  0.00     0.074 A 
ATOM     44  C   UNL     1      -1.859  -3.669   4.674  1.00  0.00     0.049 A 
ATOM     45  N   UNL     1      -2.783  -6.346   3.657  1.00  0.00    -0.248 NA
ATOM     46  C   UNL     1      -2.375  -5.610   1.485  1.00  0.00     0.031 C 
ATOM     47  C   UNL     1      -1.481  -2.386   5.276  1.00  0.00     0.029 A 
ATOM     48  N   UNL     1      -1.888  -4.524   5.758  1.00  0.00    -0.354 N 
ATOM     49  C   UNL     1      -3.084  -7.372   2.762  1.00  0.00     0.074 A 
ATOM     50  C   UNL     1      -2.862  -6.844   1.434  1.00  0.00     0.031 C 
ATOM     51  C   UNL     1      -1.255  -2.549   6.587  1.00  0.00     0.029 A 
ATOM     52  C   UNL     1      -1.611  -3.908   6.960  1.00  0.00     0.049 A 
ATOM     53  H   UNL     1      -2.089  -5.485   5.679  1.00  0.00     0.167 HD
ATOM     54  C   UNL     1      -3.517  -8.632   3.021  1.00  0.00     0.031 A 
ATOM     55  C   UNL     1      -1.699  -4.342   8.234  1.00  0.00     0.031 A 
ATOM     56  C   UNL     1      -3.659  -9.183   4.346  1.00  0.00     0.049 A 
ATOM     57  C   UNL     1      -2.200  -5.736   8.495  1.00  0.00     0.074 A 
ATOM     58  C   UNL     1      -4.068 -10.457   4.709  1.00  0.00     0.029 A 
ATOM     59  N   UNL     1      -3.370  -8.509   5.522  1.00  0.00    -0.354 N 
ATOM     60  N   UNL     1      -2.554  -6.659   7.633  1.00  0.00    -0.248 NA
ATOM     61  C   UNL     1      -2.325  -6.141   9.901  1.00  0.00     0.031 C 
ATOM     62  C   UNL     1      -4.076 -10.535   6.106  1.00  0.00     0.029 A 
ATOM     63  C   UNL     1      -3.606  -9.334   6.610  1.00  0.00     0.049 A 
ATOM     64  H   UNL     1      -3.045  -7.582   5.576  1.00  0.00     0.167 HD
ATOM     65  C   UNL     1      -2.918  -7.763   8.395  1.00  0.00     0.074 A 
ATOM     66  C   UNL     1      -2.713  -7.402   9.782  1.00  0.00     0.031 C 
ATOM     67  C   UNL     1      -3.386  -8.967   7.984  1.00  0.00     0.031 A 
BRANCH  54  68
ATOM     68  C   UNL     1      -3.920  -9.508   1.858  1.00  0.00    -0.014 A 
ATOM     69  C   UNL     1      -2.973 -10.080   0.991  1.00  0.00     0.010 A 
ATOM     70  C   UNL     1      -5.280  -9.842   1.694  1.00  0.00     0.010 A 
ATOM     71  C   UNL     1      -3.381 -10.948  -0.028  1.00  0.00     0.020 A 
ATOM     72  C   UNL     1      -5.689 -10.732   0.695  1.00  0.00     0.020 A 
ATOM     73  C   UNL     1      -4.735 -11.272  -0.167  1.00  0.00     0.054 A 
BRANCH  73  74
ATOM     74  S   UNL     1      -5.219 -12.445  -1.465  1.00  0.00     0.124 S 
ATOM     75  O   UNL     1      -4.984 -11.663  -2.677  1.00  0.00    -0.237 OA
ATOM     76  O   UNL     1      -4.293 -13.554  -1.251  1.00  0.00    -0.237 OA
ATOM     77  O   UNL     1      -6.619 -12.736  -1.170  1.00  0.00    -0.744 OA
ENDBRANCH  73  74
ENDBRANCH  54  68
BRANCH  55  78
ATOM     78  C   UNL     1      -1.402  -3.423   9.376  1.00  0.00    -0.014 A 
ATOM     79  C   UNL     1      -0.345  -3.690  10.267  1.00  0.00     0.010 A 
ATOM     80  C   UNL     1      -2.208  -2.291   9.605  1.00  0.00     0.010 A 
ATOM     81  C   UNL     1      -0.130  -2.872  11.382  1.00  0.00     0.020 A 
ATOM     82  C   UNL     1      -1.968  -1.445  10.691  1.00  0.00     0.020 A 
ATOM     83  C   UNL     1      -0.946  -1.756  11.588  1.00  0.00     0.054 A 
BRANCH  83  84
ATOM     84  S   UNL     1      -0.651  -0.703  13.036  1.00  0.00     0.124 S 
ATOM     85  O   UNL     1      -1.179  -1.526  14.120  1.00  0.00    -0.237 OA
ATOM     86  O   UNL     1       0.800  -0.535  13.017  1.00  0.00    -0.237 OA
ATOM     87  O   UNL     1      -1.414   0.507  12.739  1.00  0.00    -0.744 OA
ENDBRANCH  83  84
ENDBRANCH  55  78
BRANCH  67  88
ATOM     88  C   UNL     1      -3.636 -10.002   9.049  1.00  0.00    -0.014 A 
ATOM     89  C   UNL     1      -4.689  -9.872   9.972  1.00  0.00     0.010 A 
ATOM     90  C   UNL     1      -2.791 -11.124   9.126  1.00  0.00     0.010 A 
ATOM     91  C   UNL     1      -4.853 -10.813  10.992  1.00  0.00     0.020 A 
ATOM     92  C   UNL     1      -2.973 -12.085  10.122  1.00  0.00     0.020 A 
ATOM     93  C   UNL     1      -3.987 -11.909  11.065  1.00  0.00     0.054 A 
BRANCH  93  94
ATOM     94  S   UNL     1      -4.213 -13.114  12.400  1.00  0.00     0.124 S 
ATOM     95  O   UNL     1      -3.697 -12.386  13.556  1.00  0.00    -0.237 OA
ATOM     96  O   UNL     1      -5.657 -13.338  12.391  1.00  0.00    -0.237 OA
ATOM     97  O   UNL     1      -3.409 -14.258  11.975  1.00  0.00    -0.744 OA
ENDBRANCH  93  94
ENDBRANCH  67  88
ENDBRANCH  41  42
ENDBRANCH  34  36
ENDBRANCH  33  34
ENDBRANCH  32  33
ENDBRANCH   1  32
TORSDOF 19
