REMARK SMILES O=C(CN1C(=O)/C(=C2\SC(N3CCN(c4ccccc4F)CC3)=[NH+]C2=O)c2ccccc21)OCCOC(=O)c1ccc(-c2c3nc(c(-c4ccc(S(=O)(=O)[O-])cc4)c4ccc([nH]4)c(-c4ccc(S(=O)(=O)[O-])cc4)c4nc(c(-c5ccc(S(=O)(=O)[O-])cc5)c5ccc2[nH]5)C=C4)C=C3)cc1
REMARK SMILES IDX 35 1 34 2 33 3 2 4 1 5 3 6 4 7 5 8 32 9 6 10 7 11 27 12
REMARK SMILES IDX 31 13 8 14 28 15 30 16 9 17 25 18 29 19 10 20 24 21 26 22
REMARK SMILES IDX 11 23 12 25 23 26 13 27 22 28 14 29 15 30 16 31 20 32 17 33
REMARK SMILES IDX 19 34 21 35 18 36 36 37 37 38 38 39 39 40 40 41 98 42 41 43
REMARK SMILES IDX 97 44 42 45 43 46 44 47 91 48 45 49 96 50 90 51 92 52 46 53
REMARK SMILES IDX 95 54 89 55 88 56 47 58 77 59 58 60 76 61 59 62 62 63 75 64
REMARK SMILES IDX 93 65 60 66 61 67 74 69 94 70 63 71 48 72 49 73 57 74 50 75
REMARK SMILES IDX 56 76 51 77 52 78 53 79 54 80 55 81 78 82 79 83 87 84 80 85
REMARK SMILES IDX 86 86 81 87 82 88 83 89 84 90 85 91 64 92 65 93 73 94 66 95
REMARK SMILES IDX 72 96 67 97 68 98 69 99 70 100 71 101
REMARK H PARENT 24 24 92 57 62 68
REMARK Flexibility Score: inf
ROOT
ATOM      1  C   UNL     1       4.405   2.282   0.359  1.00  0.00     0.275 C 
ENDROOT
BRANCH   1   2
ATOM      2  C   UNL     1       4.189   1.274  -0.777  1.00  0.00     0.274 C 
BRANCH   2   3
ATOM      3  O   UNL     1       2.844   0.762  -0.848  1.00  0.00    -0.461 OA
BRANCH   3   4
ATOM      4  C   UNL     1       2.507  -0.489  -0.438  1.00  0.00     0.326 C 
ATOM      5  O   UNL     1       1.540  -1.063  -0.938  1.00  0.00    -0.250 OA
BRANCH   4   6
ATOM      6  C   UNL     1       3.295  -1.118   0.705  1.00  0.00     0.248 C 
BRANCH   6   7
ATOM      7  N   UNL     1       3.989  -2.323   0.362  1.00  0.00    -0.296 N 
ATOM      8  C   UNL     1       5.329  -2.318   0.031  1.00  0.00     0.260 C 
ATOM      9  C   UNL     1       3.500  -3.623   0.498  1.00  0.00     0.053 A 
ATOM     10  O   UNL     1       6.040  -1.332  -0.025  1.00  0.00    -0.269 OA
ATOM     11  C   UNL     1       5.695  -3.761  -0.213  1.00  0.00     0.071 C 
ATOM     12  C   UNL     1       4.508  -4.549   0.177  1.00  0.00     0.012 A 
ATOM     13  C   UNL     1       2.259  -3.997   0.989  1.00  0.00     0.027 A 
ATOM     14  C   UNL     1       6.896  -4.069  -0.730  1.00  0.00     0.122 C 
ATOM     15  C   UNL     1       4.282  -5.893   0.413  1.00  0.00     0.011 A 
ATOM     16  C   UNL     1       2.038  -5.350   1.221  1.00  0.00     0.002 A 
ATOM     17  S   UNL     1       8.196  -2.943  -0.931  1.00  0.00     0.007 SA
ATOM     18  C   UNL     1       7.379  -5.391  -1.238  1.00  0.00     0.347 C 
ATOM     19  C   UNL     1       3.043  -6.288   0.941  1.00  0.00     0.001 A 
ATOM     20  C   UNL     1       9.274  -4.217  -1.400  1.00  0.00     0.319 C 
ATOM     21  N   UNL     1       8.725  -5.371  -1.560  1.00  0.00    -0.200 N 
ATOM     22  O   UNL     1       6.660  -6.358  -1.410  1.00  0.00    -0.240 OA
ATOM     23  N   UNL     1      10.586  -3.899  -1.597  1.00  0.00    -0.252 N 
ATOM     24  H   UNL     1       9.215  -6.163  -1.880  1.00  0.00     0.316 HD
ATOM     25  C   UNL     1      11.326  -2.933  -0.760  1.00  0.00     0.258 C 
ATOM     26  C   UNL     1      11.356  -4.499  -2.693  1.00  0.00     0.258 C 
ATOM     27  C   UNL     1      12.648  -3.550  -0.246  1.00  0.00     0.162 C 
ATOM     28  C   UNL     1      12.689  -5.079  -2.193  1.00  0.00     0.162 C 
ATOM     29  N   UNL     1      13.396  -4.068  -1.394  1.00  0.00    -0.361 N 
BRANCH  29  30
ATOM     30  C   UNL     1      14.766  -3.944  -1.481  1.00  0.00     0.073 A 
ATOM     31  C   UNL     1      15.335  -3.563  -2.706  1.00  0.00     0.029 A 
ATOM     32  C   UNL     1      15.638  -4.140  -0.400  1.00  0.00     0.146 A 
ATOM     33  C   UNL     1      16.713  -3.380  -2.845  1.00  0.00     0.002 A 
ATOM     34  C   UNL     1      17.017  -3.981  -0.534  1.00  0.00     0.041 A 
ATOM     35  F   UNL     1      15.156  -4.511   0.797  1.00  0.00    -0.205 F 
ATOM     36  C   UNL     1      17.556  -3.596  -1.759  1.00  0.00     0.003 A 
ENDBRANCH  29  30
ENDBRANCH   6   7
ENDBRANCH   4   6
ENDBRANCH   3   4
ENDBRANCH   2   3
ENDBRANCH   1   2
BRANCH   1  37
ATOM     37  O   UNL     1       4.071   1.750   1.655  1.00  0.00    -0.458 OA
BRANCH  37  38
ATOM     38  C   UNL     1       2.772   1.868   2.038  1.00  0.00     0.338 C 
ATOM     39  O   UNL     1       1.897   2.466   1.437  1.00  0.00    -0.246 OA
BRANCH  38  40
ATOM     40  C   UNL     1       2.516   0.961   3.191  1.00  0.00     0.060 A 
ATOM     41  C   UNL     1       3.498   0.686   4.147  1.00  0.00     0.016 A 
ATOM     42  C   UNL     1       1.275   0.309   3.269  1.00  0.00     0.016 A 
ATOM     43  C   UNL     1       3.233  -0.223   5.179  1.00  0.00     0.010 A 
ATOM     44  C   UNL     1       1.012  -0.600   4.305  1.00  0.00     0.010 A 
ATOM     45  C   UNL     1       1.983  -0.865   5.281  1.00  0.00    -0.014 A 
BRANCH  45  46
ATOM     46  C   UNL     1       1.661  -1.663   6.499  1.00  0.00     0.031 A 
ATOM     47  C   UNL     1       1.593  -3.165   6.495  1.00  0.00     0.074 A 
ATOM     48  C   UNL     1       1.439  -0.997   7.651  1.00  0.00     0.049 A 
ATOM     49  N   UNL     1       1.460  -3.978   7.515  1.00  0.00    -0.248 NA
ATOM     50  C   UNL     1       1.681  -3.846   5.196  1.00  0.00     0.031 C 
ATOM     51  C   UNL     1       1.451   0.461   7.784  1.00  0.00     0.029 A 
ATOM     52  N   UNL     1       1.189  -1.445   8.926  1.00  0.00    -0.354 N 
ATOM     53  C   UNL     1       1.464  -5.265   6.990  1.00  0.00     0.074 A 
ATOM     54  C   UNL     1       1.571  -5.123   5.551  1.00  0.00     0.031 C 
ATOM     55  C   UNL     1       1.276   0.784   9.073  1.00  0.00     0.029 A 
ATOM     56  C   UNL     1       1.099  -0.436   9.857  1.00  0.00     0.049 A 
ATOM     57  H   UNL     1       1.085  -2.398   9.152  1.00  0.00     0.167 HD
ATOM     58  C   UNL     1       1.402  -6.448   7.650  1.00  0.00     0.031 A 
ATOM     59  C   UNL     1       0.914  -0.473  11.194  1.00  0.00     0.031 A 
ATOM     60  C   UNL     1       1.290  -6.580   9.086  1.00  0.00     0.049 A 
ATOM     61  C   UNL     1       0.820  -1.799  11.896  1.00  0.00     0.074 A 
ATOM     62  C   UNL     1       1.287  -7.745   9.836  1.00  0.00     0.029 A 
ATOM     63  N   UNL     1       1.152  -5.534   9.986  1.00  0.00    -0.354 N 
ATOM     64  N   UNL     1       0.925  -3.005  11.391  1.00  0.00    -0.248 NA
ATOM     65  C   UNL     1       0.606  -1.773  13.350  1.00  0.00     0.031 C 
ATOM     66  C   UNL     1       1.055  -7.412  11.171  1.00  0.00     0.029 A 
ATOM     67  C   UNL     1       1.020  -6.032  11.275  1.00  0.00     0.049 A 
ATOM     68  H   UNL     1       1.148  -4.579   9.746  1.00  0.00     0.167 HD
ATOM     69  C   UNL     1       0.827  -3.878  12.471  1.00  0.00     0.074 A 
ATOM     70  C   UNL     1       0.668  -3.063  13.656  1.00  0.00     0.031 C 
ATOM     71  C   UNL     1       0.868  -5.233  12.468  1.00  0.00     0.031 A 
BRANCH  58  72
ATOM     72  C   UNL     1       1.479  -7.734   6.858  1.00  0.00    -0.014 A 
ATOM     73  C   UNL     1       0.399  -8.640   6.887  1.00  0.00     0.010 A 
ATOM     74  C   UNL     1       2.685  -8.137   6.257  1.00  0.00     0.010 A 
ATOM     75  C   UNL     1       0.540  -9.937   6.383  1.00  0.00     0.020 A 
ATOM     76  C   UNL     1       2.820  -9.423   5.721  1.00  0.00     0.020 A 
ATOM     77  C   UNL     1       1.757 -10.324   5.816  1.00  0.00     0.054 A 
BRANCH  77  78
ATOM     78  S   UNL     1       1.944 -12.033   5.234  1.00  0.00     0.124 S 
ATOM     79  O   UNL     1       1.986 -12.784   6.484  1.00  0.00    -0.237 OA
ATOM     80  O   UNL     1       0.744 -12.222   4.421  1.00  0.00    -0.237 OA
ATOM     81  O   UNL     1       3.196 -12.002   4.481  1.00  0.00    -0.744 OA
ENDBRANCH  77  78
ENDBRANCH  58  72
BRANCH  59  82
ATOM     82  C   UNL     1       0.886   0.808  11.956  1.00  0.00    -0.014 A 
ATOM     83  C   UNL     1      -0.144   1.745  11.748  1.00  0.00     0.010 A 
ATOM     84  C   UNL     1       1.935   1.134  12.834  1.00  0.00     0.010 A 
ATOM     85  C   UNL     1      -0.091   3.004  12.350  1.00  0.00     0.020 A 
ATOM     86  C   UNL     1       1.971   2.379  13.470  1.00  0.00     0.020 A 
ATOM     87  C   UNL     1       0.974   3.317  13.197  1.00  0.00     0.054 A 
BRANCH  87  88
ATOM     88  S   UNL     1       1.052   4.981  13.914  1.00  0.00     0.124 S 
ATOM     89  O   UNL     1       1.416   5.790  12.754  1.00  0.00    -0.237 OA
ATOM     90  O   UNL     1      -0.305   5.174  14.416  1.00  0.00    -0.237 OA
ATOM     91  O   UNL     1       2.084   4.864  14.942  1.00  0.00    -0.744 OA
ENDBRANCH  87  88
ENDBRANCH  59  82
BRANCH  71  92
ATOM     92  C   UNL     1       0.762  -5.965  13.787  1.00  0.00    -0.014 A 
ATOM     93  C   UNL     1       1.836  -6.763  14.229  1.00  0.00     0.010 A 
ATOM     94  C   UNL     1      -0.435  -5.976  14.525  1.00  0.00     0.010 A 
ATOM     95  C   UNL     1       1.702  -7.588  15.350  1.00  0.00     0.020 A 
ATOM     96  C   UNL     1      -0.561  -6.771  15.670  1.00  0.00     0.020 A 
ATOM     97  C   UNL     1       0.499  -7.594  16.058  1.00  0.00     0.054 A 
BRANCH  97  98
ATOM     98  S   UNL     1       0.331  -8.704  17.484  1.00  0.00     0.124 S 
ATOM     99  O   UNL     1       0.215 -10.012  16.845  1.00  0.00    -0.237 OA
ATOM    100  O   UNL     1       1.570  -8.470  18.220  1.00  0.00    -0.237 OA
ATOM    101  O   UNL     1      -0.880  -8.228  18.150  1.00  0.00    -0.744 OA
ENDBRANCH  97  98
ENDBRANCH  71  92
ENDBRANCH  45  46
ENDBRANCH  38  40
ENDBRANCH  37  38
ENDBRANCH   1  37
TORSDOF 16
