REMARK SMILES CC(C)[C@H](NC(=O)[C@H](C)NC(=O)CNC(=O)OCc1ccccc1)C(=O)OCCOC(=O)c1ccc(-c2c3nc(c(-c4ccc(S(=O)(=O)[O-])cc4)c4ccc([nH]4)c(-c4ccc(S(=O)(=O)[O-])cc4)c4nc(c(-c5ccc(S(=O)(=O)[O-])cc5)c5ccc2[nH]5)C=C4)C=C3)cc1
REMARK SMILES IDX 25 1 26 2 4 3 2 4 1 5 3 6 5 7 6 8 7 10 8 11 9 12 10 13 11 14
REMARK SMILES IDX 12 16 13 17 14 18 15 19 16 21 17 22 18 23 19 24 20 25 24 26
REMARK SMILES IDX 21 27 23 28 22 29 27 30 28 31 29 32 30 33 31 34 32 35 33 36
REMARK SMILES IDX 34 37 92 38 35 39 91 40 36 41 37 42 38 43 85 44 39 45 90 46
REMARK SMILES IDX 84 47 86 48 40 49 89 50 83 51 82 52 41 54 71 55 52 56 70 57
REMARK SMILES IDX 53 58 56 59 69 60 87 61 54 62 55 63 68 65 88 66 57 67 42 68
REMARK SMILES IDX 43 69 51 70 44 71 50 72 45 73 46 74 47 75 48 76 49 77 72 78
REMARK SMILES IDX 73 79 81 80 74 81 80 82 75 83 76 84 77 85 78 86 79 87 58 88
REMARK SMILES IDX 59 89 67 90 60 91 66 92 61 93 62 94 63 95 64 96 65 97
REMARK H PARENT 5 9 10 15 14 20 86 53 56 64
REMARK Flexibility Score: inf
ROOT
ATOM      1  C   UNL     1      -3.467  -4.683   0.100  1.00  0.00     0.329 C 
ATOM      2  O   UNL     1      -3.477  -3.490   0.380  1.00  0.00    -0.250 OA
ENDROOT
BRANCH   1   3
ATOM      3  C   UNL     1      -2.532  -5.714   0.790  1.00  0.00     0.194 C 
BRANCH   3   4
ATOM      4  C   UNL     1      -1.121  -5.181   1.142  1.00  0.00     0.017 C 
ATOM      5  C   UNL     1      -1.076  -3.799   1.812  1.00  0.00     0.010 C 
ATOM      6  C   UNL     1      -0.360  -6.161   2.044  1.00  0.00     0.010 C 
ENDBRANCH   3   4
BRANCH   3   7
ATOM      7  N   UNL     1      -2.626  -7.108   0.318  1.00  0.00    -0.341 N 
ATOM      8  C   UNL     1      -2.072  -7.889  -0.636  1.00  0.00     0.242 C 
ATOM      9  H   UNL     1      -3.281  -7.615   0.850  1.00  0.00     0.164 HD
ATOM     10  O   UNL     1      -2.525  -9.038  -0.710  1.00  0.00    -0.273 OA
BRANCH   8  11
ATOM     11  C   UNL     1      -1.083  -7.369  -1.694  1.00  0.00     0.168 C 
ATOM     12  C   UNL     1      -0.669  -8.517  -2.623  1.00  0.00     0.041 C 
BRANCH  11  13
ATOM     13  N   UNL     1       0.142  -6.742  -1.211  1.00  0.00    -0.343 N 
ATOM     14  C   UNL     1       0.735  -5.592  -1.660  1.00  0.00     0.240 C 
ATOM     15  H   UNL     1       0.599  -7.203  -0.471  1.00  0.00     0.164 HD
ATOM     16  O   UNL     1       1.908  -5.370  -1.361  1.00  0.00    -0.273 OA
BRANCH  14  17
ATOM     17  C   UNL     1      -0.060  -4.623  -2.542  1.00  0.00     0.219 C 
BRANCH  17  18
ATOM     18  N   UNL     1      -0.001  -5.114  -3.900  1.00  0.00    -0.312 N 
ATOM     19  C   UNL     1      -1.042  -5.616  -4.616  1.00  0.00     0.407 C 
ATOM     20  H   UNL     1       0.874  -5.081  -4.349  1.00  0.00     0.167 HD
ATOM     21  O   UNL     1      -0.841  -6.335  -5.584  1.00  0.00    -0.225 OA
BRANCH  19  22
ATOM     22  O   UNL     1      -2.254  -5.272  -4.115  1.00  0.00    -0.445 OA
BRANCH  22  23
ATOM     23  C   UNL     1      -3.394  -5.831  -4.786  1.00  0.00     0.270 C 
BRANCH  23  24
ATOM     24  C   UNL     1      -3.788  -4.965  -5.954  1.00  0.00    -0.011 A 
ATOM     25  C   UNL     1      -3.148  -5.128  -7.192  1.00  0.00     0.007 A 
ATOM     26  C   UNL     1      -4.735  -3.943  -5.814  1.00  0.00     0.007 A 
ATOM     27  C   UNL     1      -3.413  -4.266  -8.253  1.00  0.00     0.000 A 
ATOM     28  C   UNL     1      -5.018  -3.094  -6.886  1.00  0.00     0.000 A 
ATOM     29  C   UNL     1      -4.348  -3.247  -8.099  1.00  0.00     0.000 A 
ENDBRANCH  23  24
ENDBRANCH  22  23
ENDBRANCH  19  22
ENDBRANCH  17  18
ENDBRANCH  14  17
ENDBRANCH  11  13
ENDBRANCH   8  11
ENDBRANCH   3   7
ENDBRANCH   1   3
BRANCH   1  30
ATOM     30  O   UNL     1      -4.378  -5.248  -0.742  1.00  0.00    -0.461 OA
BRANCH  30  31
ATOM     31  C   UNL     1      -5.430  -4.359  -1.181  1.00  0.00     0.274 C 
BRANCH  31  32
ATOM     32  C   UNL     1      -6.732  -4.553  -0.389  1.00  0.00     0.275 C 
BRANCH  32  33
ATOM     33  O   UNL     1      -6.595  -4.243   1.013  1.00  0.00    -0.458 OA
BRANCH  33  34
ATOM     34  C   UNL     1      -6.272  -5.306   1.784  1.00  0.00     0.338 C 
ATOM     35  O   UNL     1      -6.044  -6.443   1.400  1.00  0.00    -0.246 OA
BRANCH  34  36
ATOM     36  C   UNL     1      -6.064  -4.924   3.189  1.00  0.00     0.060 A 
ATOM     37  C   UNL     1      -4.746  -4.832   3.617  1.00  0.00     0.016 A 
ATOM     38  C   UNL     1      -7.098  -4.924   4.122  1.00  0.00     0.016 A 
ATOM     39  C   UNL     1      -4.433  -4.915   4.963  1.00  0.00     0.010 A 
ATOM     40  C   UNL     1      -6.785  -4.872   5.492  1.00  0.00     0.010 A 
ATOM     41  C   UNL     1      -5.447  -4.926   5.926  1.00  0.00    -0.014 A 
BRANCH  41  42
ATOM     42  C   UNL     1      -5.056  -5.037   7.359  1.00  0.00     0.031 A 
ATOM     43  C   UNL     1      -5.496  -6.218   8.187  1.00  0.00     0.074 A 
ATOM     44  C   UNL     1      -4.210  -4.128   7.889  1.00  0.00     0.049 A 
ATOM     45  N   UNL     1      -5.259  -6.471   9.449  1.00  0.00    -0.248 NA
ATOM     46  C   UNL     1      -6.312  -7.243   7.516  1.00  0.00     0.031 C 
ATOM     47  C   UNL     1      -3.666  -2.963   7.181  1.00  0.00     0.029 A 
ATOM     48  N   UNL     1      -3.623  -4.060   9.127  1.00  0.00    -0.354 N 
ATOM     49  C   UNL     1      -5.935  -7.652   9.736  1.00  0.00     0.074 A 
ATOM     50  C   UNL     1      -6.598  -8.063   8.517  1.00  0.00     0.031 C 
ATOM     51  C   UNL     1      -2.774  -2.344   7.968  1.00  0.00     0.029 A 
ATOM     52  C   UNL     1      -2.745  -3.009   9.265  1.00  0.00     0.049 A 
ATOM     53  H   UNL     1      -3.812  -4.702   9.849  1.00  0.00     0.167 HD
ATOM     54  C   UNL     1      -6.001  -8.332  10.907  1.00  0.00     0.031 A 
ATOM     55  C   UNL     1      -2.012  -2.606  10.319  1.00  0.00     0.031 A 
ATOM     56  C   UNL     1      -5.313  -7.941  12.109  1.00  0.00     0.049 A 
ATOM     57  C   UNL     1      -2.108  -3.371  11.607  1.00  0.00     0.074 A 
ATOM     58  C   UNL     1      -5.327  -8.556  13.350  1.00  0.00     0.029 A 
ATOM     59  N   UNL     1      -4.471  -6.844  12.218  1.00  0.00    -0.354 N 
ATOM     60  N   UNL     1      -2.805  -4.451  11.870  1.00  0.00    -0.248 NA
ATOM     61  C   UNL     1      -1.328  -2.859  12.739  1.00  0.00     0.031 C 
ATOM     62  C   UNL     1      -4.518  -7.811  14.217  1.00  0.00     0.029 A 
ATOM     63  C   UNL     1      -3.964  -6.760  13.504  1.00  0.00     0.049 A 
ATOM     64  H   UNL     1      -4.263  -6.218  11.487  1.00  0.00     0.167 HD
ATOM     65  C   UNL     1      -2.540  -4.752  13.200  1.00  0.00     0.074 A 
ATOM     66  C   UNL     1      -1.600  -3.757  13.676  1.00  0.00     0.031 C 
ATOM     67  C   UNL     1      -3.037  -5.758  13.961  1.00  0.00     0.031 A 
BRANCH  54  68
ATOM     68  C   UNL     1      -6.892  -9.545  10.954  1.00  0.00    -0.014 A 
ATOM     69  C   UNL     1      -6.529 -10.752  10.331  1.00  0.00     0.010 A 
ATOM     70  C   UNL     1      -8.110  -9.479  11.658  1.00  0.00     0.010 A 
ATOM     71  C   UNL     1      -7.387 -11.856  10.372  1.00  0.00     0.020 A 
ATOM     72  C   UNL     1      -8.959 -10.587  11.722  1.00  0.00     0.020 A 
ATOM     73  C   UNL     1      -8.601 -11.763  11.061  1.00  0.00     0.054 A 
BRANCH  73  74
ATOM     74  S   UNL     1      -9.696 -13.209  11.107  1.00  0.00     0.124 S 
ATOM     75  O   UNL     1     -10.277 -13.187   9.766  1.00  0.00    -0.237 OA
ATOM     76  O   UNL     1      -8.771 -14.307  11.372  1.00  0.00    -0.237 OA
ATOM     77  O   UNL     1     -10.625 -12.905  12.193  1.00  0.00    -0.744 OA
ENDBRANCH  73  74
ENDBRANCH  54  68
BRANCH  55  78
ATOM     78  C   UNL     1      -1.153  -1.396  10.205  1.00  0.00    -0.014 A 
ATOM     79  C   UNL     1       0.248  -1.506  10.206  1.00  0.00     0.010 A 
ATOM     80  C   UNL     1      -1.740  -0.124  10.067  1.00  0.00     0.010 A 
ATOM     81  C   UNL     1       1.047  -0.364  10.081  1.00  0.00     0.020 A 
ATOM     82  C   UNL     1      -0.946   1.014   9.912  1.00  0.00     0.020 A 
ATOM     83  C   UNL     1       0.444   0.888   9.931  1.00  0.00     0.054 A 
BRANCH  83  84
ATOM     84  S   UNL     1       1.492   2.351   9.701  1.00  0.00     0.124 S 
ATOM     85  O   UNL     1       1.936   2.622  11.064  1.00  0.00    -0.237 OA
ATOM     86  O   UNL     1       2.521   1.866   8.784  1.00  0.00    -0.237 OA
ATOM     87  O   UNL     1       0.577   3.337   9.130  1.00  0.00    -0.744 OA
ENDBRANCH  83  84
ENDBRANCH  55  78
BRANCH  67  88
ATOM     88  C   UNL     1      -2.545  -5.841  15.380  1.00  0.00    -0.014 A 
ATOM     89  C   UNL     1      -2.977  -4.923  16.353  1.00  0.00     0.010 A 
ATOM     90  C   UNL     1      -1.643  -6.857  15.742  1.00  0.00     0.010 A 
ATOM     91  C   UNL     1      -2.477  -4.991  17.656  1.00  0.00     0.020 A 
ATOM     92  C   UNL     1      -1.160  -6.942  17.050  1.00  0.00     0.020 A 
ATOM     93  C   UNL     1      -1.564  -5.995  17.993  1.00  0.00     0.054 A 
BRANCH  93  94
ATOM     94  S   UNL     1      -0.931  -6.071  19.691  1.00  0.00     0.124 S 
ATOM     95  O   UNL     1       0.074  -5.012  19.687  1.00  0.00    -0.237 OA
ATOM     96  O   UNL     1      -2.123  -5.803  20.494  1.00  0.00    -0.237 OA
ATOM     97  O   UNL     1      -0.406  -7.430  19.802  1.00  0.00    -0.744 OA
ENDBRANCH  93  94
ENDBRANCH  67  88
ENDBRANCH  41  42
ENDBRANCH  34  36
ENDBRANCH  33  34
ENDBRANCH  32  33
ENDBRANCH  31  32
ENDBRANCH  30  31
ENDBRANCH   1  30
TORSDOF 23
