REMARK SMILES O=C(OCCOC(=O)[C@@H]1C[C@@H](O)CN1C(=O)c1ccccc1)c1ccc(-c2c3nc(c(-c4ccc(S(=O)(=O)[O-])cc4)c4ccc([nH]4)c(-c4ccc(S(=O)(=O)[O-])cc4)c4nc(c(-c5ccc(S(=O)(=O)[O-])cc5)c5ccc2[nH]5)C=C4)C=C3)cc1
REMARK SMILES IDX 4 1 3 2 2 3 1 4 23 5 24 6 82 7 25 8 81 9 26 10 27 11 28 12
REMARK SMILES IDX 75 13 29 14 80 15 74 16 76 17 30 18 79 19 73 20 72 21 31 23
REMARK SMILES IDX 61 24 42 25 60 26 43 27 46 28 59 29 77 30 44 31 45 32 58 34
REMARK SMILES IDX 78 35 47 36 32 37 33 38 41 39 34 40 40 41 35 42 36 43 37 44
REMARK SMILES IDX 38 45 39 46 62 47 63 48 71 49 64 50 70 51 65 52 66 53 67 54
REMARK SMILES IDX 68 55 69 56 48 57 49 58 57 59 50 60 56 61 51 62 52 63 53 64
REMARK SMILES IDX 54 65 55 66 5 67 6 68 7 69 8 70 9 71 10 72 14 73 11 74 13 75
REMARK SMILES IDX 15 76 16 77 17 78 18 79 22 80 19 81 21 82 20 83 12 84
REMARK H PARENT 76 22 46 33 12 85
REMARK Flexibility Score: inf
ROOT
ATOM      1  C   UNL     1       5.632  -3.973   2.754  1.00  0.00     0.275 C 
ENDROOT
BRANCH   1   2
ATOM      2  O   UNL     1       5.968  -2.819   1.968  1.00  0.00    -0.458 OA
BRANCH   2   3
ATOM      3  C   UNL     1       5.591  -2.558   0.690  1.00  0.00     0.338 C 
ATOM      4  O   UNL     1       6.136  -1.674   0.047  1.00  0.00    -0.246 OA
BRANCH   3   5
ATOM      5  C   UNL     1       4.381  -3.219   0.143  1.00  0.00     0.060 A 
ATOM      6  C   UNL     1       4.152  -4.599   0.156  1.00  0.00     0.016 A 
ATOM      7  C   UNL     1       3.412  -2.373  -0.393  1.00  0.00     0.016 A 
ATOM      8  C   UNL     1       2.900  -5.114  -0.202  1.00  0.00     0.010 A 
ATOM      9  C   UNL     1       2.181  -2.891  -0.784  1.00  0.00     0.010 A 
ATOM     10  C   UNL     1       1.891  -4.256  -0.641  1.00  0.00    -0.014 A 
BRANCH  10  11
ATOM     11  C   UNL     1       0.539  -4.739  -1.022  1.00  0.00     0.031 A 
ATOM     12  C   UNL     1       0.111  -4.575  -2.455  1.00  0.00     0.074 A 
ATOM     13  C   UNL     1      -0.347  -5.100  -0.069  1.00  0.00     0.049 A 
ATOM     14  N   UNL     1      -1.084  -4.639  -2.982  1.00  0.00    -0.248 NA
ATOM     15  C   UNL     1       1.179  -4.240  -3.413  1.00  0.00     0.031 C 
ATOM     16  C   UNL     1      -0.083  -5.138   1.375  1.00  0.00     0.029 A 
ATOM     17  N   UNL     1      -1.699  -5.348  -0.162  1.00  0.00    -0.354 N 
ATOM     18  C   UNL     1      -0.911  -4.335  -4.329  1.00  0.00     0.074 A 
ATOM     19  C   UNL     1       0.488  -4.022  -4.520  1.00  0.00     0.031 C 
ATOM     20  C   UNL     1      -1.252  -5.264   2.033  1.00  0.00     0.029 A 
ATOM     21  C   UNL     1      -2.339  -5.322   1.061  1.00  0.00     0.049 A 
ATOM     22  H   UNL     1      -2.161  -5.526  -1.013  1.00  0.00     0.167 HD
ATOM     23  C   UNL     1      -1.825  -4.343  -5.329  1.00  0.00     0.031 A 
ATOM     24  C   UNL     1      -3.654  -5.269   1.354  1.00  0.00     0.031 A 
ATOM     25  C   UNL     1      -3.217  -4.635  -5.128  1.00  0.00     0.049 A 
ATOM     26  C   UNL     1      -4.663  -5.314   0.237  1.00  0.00     0.074 A 
ATOM     27  C   UNL     1      -4.228  -4.746  -6.067  1.00  0.00     0.029 A 
ATOM     28  N   UNL     1      -3.793  -4.859  -3.888  1.00  0.00    -0.354 N 
ATOM     29  N   UNL     1      -4.467  -5.197  -1.054  1.00  0.00    -0.248 NA
ATOM     30  C   UNL     1      -6.066  -5.529   0.619  1.00  0.00     0.031 C 
ATOM     31  C   UNL     1      -5.422  -5.015  -5.389  1.00  0.00     0.029 A 
ATOM     32  C   UNL     1      -5.144  -5.109  -4.035  1.00  0.00     0.049 A 
ATOM     33  H   UNL     1      -3.311  -4.842  -3.030  1.00  0.00     0.167 HD
ATOM     34  C   UNL     1      -5.713  -5.395  -1.641  1.00  0.00     0.074 A 
ATOM     35  C   UNL     1      -6.655  -5.619  -0.565  1.00  0.00     0.031 C 
ATOM     36  C   UNL     1      -6.047  -5.402  -2.954  1.00  0.00     0.031 A 
BRANCH  23  37
ATOM     37  C   UNL     1      -1.327  -4.065  -6.724  1.00  0.00    -0.014 A 
ATOM     38  C   UNL     1      -0.446  -4.963  -7.357  1.00  0.00     0.010 A 
ATOM     39  C   UNL     1      -1.742  -2.916  -7.419  1.00  0.00     0.010 A 
ATOM     40  C   UNL     1       0.057  -4.690  -8.630  1.00  0.00     0.020 A 
ATOM     41  C   UNL     1      -1.268  -2.656  -8.710  1.00  0.00     0.020 A 
ATOM     42  C   UNL     1      -0.354  -3.534  -9.297  1.00  0.00     0.054 A 
BRANCH  42  43
ATOM     43  S   UNL     1       0.296  -3.218 -10.960  1.00  0.00     0.124 S 
ATOM     44  O   UNL     1       1.641  -2.729 -10.669  1.00  0.00    -0.237 OA
ATOM     45  O   UNL     1       0.231  -4.535 -11.588  1.00  0.00    -0.237 OA
ATOM     46  O   UNL     1      -0.625  -2.225 -11.508  1.00  0.00    -0.744 OA
ENDBRANCH  42  43
ENDBRANCH  23  37
BRANCH  24  47
ATOM     47  C   UNL     1      -4.133  -5.143   2.757  1.00  0.00    -0.014 A 
ATOM     48  C   UNL     1      -4.620  -6.270   3.442  1.00  0.00     0.010 A 
ATOM     49  C   UNL     1      -4.212  -3.879   3.369  1.00  0.00     0.010 A 
ATOM     50  C   UNL     1      -5.231  -6.129   4.691  1.00  0.00     0.020 A 
ATOM     51  C   UNL     1      -4.805  -3.737   4.628  1.00  0.00     0.020 A 
ATOM     52  C   UNL     1      -5.332  -4.861   5.270  1.00  0.00     0.054 A 
BRANCH  52  53
ATOM     53  S   UNL     1      -6.165  -4.701   6.875  1.00  0.00     0.124 S 
ATOM     54  O   UNL     1      -7.567  -4.864   6.505  1.00  0.00    -0.237 OA
ATOM     55  O   UNL     1      -5.581  -5.798   7.642  1.00  0.00    -0.237 OA
ATOM     56  O   UNL     1      -5.783  -3.364   7.323  1.00  0.00    -0.744 OA
ENDBRANCH  52  53
ENDBRANCH  24  47
BRANCH  36  57
ATOM     57  C   UNL     1      -7.453  -5.796  -3.312  1.00  0.00    -0.014 A 
ATOM     58  C   UNL     1      -8.538  -4.923  -3.128  1.00  0.00     0.010 A 
ATOM     59  C   UNL     1      -7.672  -7.057  -3.897  1.00  0.00     0.010 A 
ATOM     60  C   UNL     1      -9.826  -5.319  -3.497  1.00  0.00     0.020 A 
ATOM     61  C   UNL     1      -8.954  -7.445  -4.289  1.00  0.00     0.020 A 
ATOM     62  C   UNL     1     -10.026  -6.578  -4.073  1.00  0.00     0.054 A 
BRANCH  62  63
ATOM     63  S   UNL     1     -11.699  -7.053  -4.588  1.00  0.00     0.124 S 
ATOM     64  O   UNL     1     -12.329  -7.376  -3.311  1.00  0.00    -0.237 OA
ATOM     65  O   UNL     1     -12.189  -5.843  -5.244  1.00  0.00    -0.237 OA
ATOM     66  O   UNL     1     -11.476  -8.190  -5.479  1.00  0.00    -0.744 OA
ENDBRANCH  62  63
ENDBRANCH  36  57
ENDBRANCH  10  11
ENDBRANCH   3   5
ENDBRANCH   2   3
ENDBRANCH   1   2
BRANCH   1  67
ATOM     67  C   UNL     1       4.241  -4.012   3.415  1.00  0.00     0.274 C 
BRANCH  67  68
ATOM     68  O   UNL     1       3.228  -3.131   2.884  1.00  0.00    -0.461 OA
BRANCH  68  69
ATOM     69  C   UNL     1       3.330  -1.858   3.342  1.00  0.00     0.329 C 
ATOM     70  O   UNL     1       4.263  -1.486   4.056  1.00  0.00    -0.250 OA
BRANCH  69  71
ATOM     71  C   UNL     1       2.155  -0.907   3.023  1.00  0.00     0.198 C 
ATOM     72  C   UNL     1       1.610  -0.477   4.407  1.00  0.00     0.071 C 
ATOM     73  N   UNL     1       0.917  -1.180   2.230  1.00  0.00    -0.322 N 
ATOM     74  C   UNL     1       0.139  -0.191   4.168  1.00  0.00     0.136 C 
ATOM     75  C   UNL     1      -0.229  -1.253   3.135  1.00  0.00     0.152 C 
BRANCH  73  76
ATOM     76  C   UNL     1       0.769  -0.574   0.968  1.00  0.00     0.254 C 
ATOM     77  O   UNL     1       1.670   0.108   0.480  1.00  0.00    -0.269 OA
BRANCH  76  78
ATOM     78  C   UNL     1      -0.521  -0.651   0.206  1.00  0.00     0.040 A 
ATOM     79  C   UNL     1      -1.286  -1.815   0.154  1.00  0.00     0.014 A 
ATOM     80  C   UNL     1      -0.920   0.447  -0.569  1.00  0.00     0.014 A 
ATOM     81  C   UNL     1      -2.404  -1.903  -0.683  1.00  0.00     0.001 A 
ATOM     82  C   UNL     1      -2.056   0.370  -1.384  1.00  0.00     0.001 A 
ATOM     83  C   UNL     1      -2.788  -0.812  -1.454  1.00  0.00     0.000 A 
ENDBRANCH  76  78
ENDBRANCH  73  76
BRANCH  74  84
ATOM     84  O   UNL     1      -0.003   1.129   3.633  1.00  0.00    -0.391 OA
ATOM     85  H   UNL     1       0.539   1.214   2.833  1.00  0.00     0.211 HD
ENDBRANCH  74  84
ENDBRANCH  69  71
ENDBRANCH  68  69
ENDBRANCH  67  68
ENDBRANCH   1  67
TORSDOF 17
