REMARK SMILES CCC[C@@](C)(C(=O)OCCOC(=O)c1ccc(-c2c3nc(c(-c4ccc(S(=O)(=O)[O-])cc4)c4ccc([nH]4)c(-c4ccc(S(=O)(=O)[O-])cc4)c4nc(c(-c5ccc(S(=O)(=O)[O-])cc5)c5ccc2[nH]5)C=C4)C=C3)cc1)[C@H]1CCOC1
REMARK SMILES IDX 10 1 9 2 8 3 6 4 7 5 4 6 5 7 3 8 2 9 1 10 74 11 75 12 78 13
REMARK SMILES IDX 76 14 77 15 11 16 12 17 13 18 14 19 15 20 73 21 16 22 72 23
REMARK SMILES IDX 17 24 18 25 19 26 66 27 20 28 71 29 65 30 67 31 21 32 70 33
REMARK SMILES IDX 64 34 63 35 22 37 52 38 33 39 51 40 34 41 37 42 50 43 68 44
REMARK SMILES IDX 35 45 36 46 49 48 69 49 38 50 23 51 24 52 32 53 25 54 31 55
REMARK SMILES IDX 26 56 27 57 28 58 29 59 30 60 53 61 54 62 62 63 55 64 61 65
REMARK SMILES IDX 56 66 57 67 58 68 59 69 60 70 39 71 40 72 48 73 41 74 47 75
REMARK SMILES IDX 42 76 43 77 44 78 45 79 46 80
REMARK H PARENT 67 36 37 47
REMARK Flexibility Score: inf
ROOT
ATOM      1  C   UNL     1       3.373  -3.448   1.866  1.00  0.00     0.275 C 
ENDROOT
BRANCH   1   2
ATOM      2  C   UNL     1       3.575  -1.966   1.563  1.00  0.00     0.274 C 
BRANCH   2   3
ATOM      3  O   UNL     1       2.398  -1.404   0.937  1.00  0.00    -0.462 OA
BRANCH   3   4
ATOM      4  C   UNL     1       2.489  -1.108  -0.391  1.00  0.00     0.312 C 
ATOM      5  O   UNL     1       3.474  -1.382  -1.066  1.00  0.00    -0.252 OA
BRANCH   4   6
ATOM      6  C   UNL     1       1.307  -0.234  -0.903  1.00  0.00     0.070 C 
ATOM      7  C   UNL     1       1.919   1.185  -0.970  1.00  0.00     0.024 C 
BRANCH   6   8
ATOM      8  C   UNL     1       0.120  -0.250   0.122  1.00  0.00     0.018 C 
BRANCH   8   9
ATOM      9  C   UNL     1      -1.020   0.773  -0.030  1.00  0.00    -0.002 C 
ATOM     10  C   UNL     1      -2.123   0.413  -1.010  1.00  0.00     0.004 C 
ENDBRANCH   8   9
ENDBRANCH   6   8
BRANCH   6  11
ATOM     11  C   UNL     1       0.826  -0.630  -2.332  1.00  0.00     0.034 C 
ATOM     12  C   UNL     1       1.849  -0.876  -3.434  1.00  0.00     0.035 C 
ATOM     13  C   UNL     1      -0.026  -1.886  -2.450  1.00  0.00     0.165 C 
ATOM     14  C   UNL     1       0.990  -1.498  -4.517  1.00  0.00     0.160 C 
ATOM     15  O   UNL     1      -0.004  -2.273  -3.830  1.00  0.00    -0.381 OA
ENDBRANCH   6  11
ENDBRANCH   4   6
ENDBRANCH   3   4
ENDBRANCH   2   3
ENDBRANCH   1   2
BRANCH   1  16
ATOM     16  O   UNL     1       3.240  -4.142   0.620  1.00  0.00    -0.458 OA
BRANCH  16  17
ATOM     17  C   UNL     1       2.502  -5.277   0.638  1.00  0.00     0.338 C 
ATOM     18  O   UNL     1       2.090  -5.858   1.626  1.00  0.00    -0.246 OA
BRANCH  17  19
ATOM     19  C   UNL     1       2.206  -5.679  -0.760  1.00  0.00     0.060 A 
ATOM     20  C   UNL     1       2.143  -4.713  -1.760  1.00  0.00     0.016 A 
ATOM     21  C   UNL     1       1.880  -7.002  -1.071  1.00  0.00     0.016 A 
ATOM     22  C   UNL     1       1.650  -5.039  -3.020  1.00  0.00     0.010 A 
ATOM     23  C   UNL     1       1.478  -7.342  -2.375  1.00  0.00     0.010 A 
ATOM     24  C   UNL     1       1.306  -6.352  -3.358  1.00  0.00    -0.014 A 
BRANCH  24  25
ATOM     25  C   UNL     1       0.688  -6.623  -4.695  1.00  0.00     0.031 A 
ATOM     26  C   UNL     1      -0.676  -7.269  -4.792  1.00  0.00     0.074 A 
ATOM     27  C   UNL     1       1.276  -6.193  -5.833  1.00  0.00     0.049 A 
ATOM     28  N   UNL     1      -1.331  -7.663  -5.857  1.00  0.00    -0.248 NA
ATOM     29  C   UNL     1      -1.395  -7.514  -3.531  1.00  0.00     0.031 C 
ATOM     30  C   UNL     1       2.553  -5.479  -5.916  1.00  0.00     0.029 A 
ATOM     31  N   UNL     1       0.847  -6.242  -7.140  1.00  0.00    -0.354 N 
ATOM     32  C   UNL     1      -2.497  -8.262  -5.392  1.00  0.00     0.074 A 
ATOM     33  C   UNL     1      -2.466  -8.173  -3.948  1.00  0.00     0.031 C 
ATOM     34  C   UNL     1       2.748  -5.067  -7.178  1.00  0.00     0.029 A 
ATOM     35  C   UNL     1       1.673  -5.581  -8.020  1.00  0.00     0.049 A 
ATOM     36  H   UNL     1       0.026  -6.707  -7.419  1.00  0.00     0.167 HD
ATOM     37  C   UNL     1      -3.498  -8.843  -6.096  1.00  0.00     0.031 A 
ATOM     38  C   UNL     1       1.601  -5.423  -9.357  1.00  0.00     0.031 A 
ATOM     39  C   UNL     1      -3.571  -8.886  -7.533  1.00  0.00     0.049 A 
ATOM     40  C   UNL     1       0.487  -6.084 -10.119  1.00  0.00     0.074 A 
ATOM     41  C   UNL     1      -4.524  -9.498  -8.330  1.00  0.00     0.029 A 
ATOM     42  N   UNL     1      -2.675  -8.265  -8.388  1.00  0.00    -0.354 N 
ATOM     43  N   UNL     1      -0.537  -6.763  -9.662  1.00  0.00    -0.248 NA
ATOM     44  C   UNL     1       0.541  -5.986 -11.585  1.00  0.00     0.031 C 
ATOM     45  C   UNL     1      -4.186  -9.272  -9.671  1.00  0.00     0.029 A 
ATOM     46  C   UNL     1      -3.049  -8.483  -9.705  1.00  0.00     0.049 A 
ATOM     47  H   UNL     1      -1.889  -7.745  -8.103  1.00  0.00     0.167 HD
ATOM     48  C   UNL     1      -1.243  -7.182 -10.784  1.00  0.00     0.074 A 
ATOM     49  C   UNL     1      -0.554  -6.645 -11.939  1.00  0.00     0.031 C 
ATOM     50  C   UNL     1      -2.352  -7.959 -10.850  1.00  0.00     0.031 A 
BRANCH  37  51
ATOM     51  C   UNL     1      -4.569  -9.551  -5.310  1.00  0.00    -0.014 A 
ATOM     52  C   UNL     1      -5.584  -8.849  -4.638  1.00  0.00     0.010 A 
ATOM     53  C   UNL     1      -4.559 -10.957  -5.261  1.00  0.00     0.010 A 
ATOM     54  C   UNL     1      -6.547  -9.541  -3.896  1.00  0.00     0.020 A 
ATOM     55  C   UNL     1      -5.531 -11.653  -4.540  1.00  0.00     0.020 A 
ATOM     56  C   UNL     1      -6.508 -10.939  -3.844  1.00  0.00     0.054 A 
BRANCH  56  57
ATOM     57  S   UNL     1      -7.766 -11.819  -2.877  1.00  0.00     0.124 S 
ATOM     58  O   UNL     1      -7.289 -11.616  -1.511  1.00  0.00    -0.237 OA
ATOM     59  O   UNL     1      -8.996 -11.112  -3.224  1.00  0.00    -0.237 OA
ATOM     60  O   UNL     1      -7.682 -13.192  -3.368  1.00  0.00    -0.744 OA
ENDBRANCH  56  57
ENDBRANCH  37  51
BRANCH  38  61
ATOM     61  C   UNL     1       2.654  -4.653 -10.076  1.00  0.00    -0.014 A 
ATOM     62  C   UNL     1       2.352  -3.429 -10.697  1.00  0.00     0.010 A 
ATOM     63  C   UNL     1       3.971  -5.146 -10.142  1.00  0.00     0.010 A 
ATOM     64  C   UNL     1       3.344  -2.715 -11.377  1.00  0.00     0.020 A 
ATOM     65  C   UNL     1       4.972  -4.420 -10.792  1.00  0.00     0.020 A 
ATOM     66  C   UNL     1       4.649  -3.215 -11.417  1.00  0.00     0.054 A 
BRANCH  66  67
ATOM     67  S   UNL     1       5.944  -2.250 -12.244  1.00  0.00     0.124 S 
ATOM     68  O   UNL     1       5.740  -2.607 -13.644  1.00  0.00    -0.237 OA
ATOM     69  O   UNL     1       5.603  -0.876 -11.883  1.00  0.00    -0.237 OA
ATOM     70  O   UNL     1       7.176  -2.754 -11.640  1.00  0.00    -0.744 OA
ENDBRANCH  66  67
ENDBRANCH  38  61
BRANCH  50  71
ATOM     71  C   UNL     1      -2.890  -8.268 -12.220  1.00  0.00    -0.014 A 
ATOM     72  C   UNL     1      -2.227  -9.174 -13.069  1.00  0.00     0.010 A 
ATOM     73  C   UNL     1      -4.076  -7.656 -12.662  1.00  0.00     0.010 A 
ATOM     74  C   UNL     1      -2.716  -9.425 -14.354  1.00  0.00     0.020 A 
ATOM     75  C   UNL     1      -4.580  -7.922 -13.938  1.00  0.00     0.020 A 
ATOM     76  C   UNL     1      -3.885  -8.790 -14.784  1.00  0.00     0.054 A 
BRANCH  76  77
ATOM     77  S   UNL     1      -4.509  -9.134 -16.453  1.00  0.00     0.124 S 
ATOM     78  O   UNL     1      -3.634  -8.308 -17.280  1.00  0.00    -0.237 OA
ATOM     79  O   UNL     1      -4.315 -10.577 -16.581  1.00  0.00    -0.237 OA
ATOM     80  O   UNL     1      -5.904  -8.703 -16.395  1.00  0.00    -0.744 OA
ENDBRANCH  76  77
ENDBRANCH  50  71
ENDBRANCH  24  25
ENDBRANCH  17  19
ENDBRANCH  16  17
ENDBRANCH   1  16
TORSDOF 17
