REMARK SMILES COc1ccc(Cl)cc1C(=O)Nc1ccc(OCC(=O)OCCOC(=O)c2ccc(-c3c4nc(c(-c5ccc(S(=O)(=O)[O-])cc5)c5ccc([nH]5)c(-c5ccc(S(=O)(=O)[O-])cc5)c5nc(c(-c6ccc(S(=O)(=O)[O-])cc6)c6ccc3[nH]6)C=C5)C=C4)cc2)cc1
REMARK SMILES IDX 22 1 21 2 19 3 20 4 18 5 17 6 16 7 13 8 14 9 88 10 15 11
REMARK SMILES IDX 87 12 12 13 10 14 11 15 9 17 3 18 4 19 5 20 8 21 6 22 7 23
REMARK SMILES IDX 2 24 1 25 23 26 24 27 25 28 26 29 27 30 28 31 86 32 29 33
REMARK SMILES IDX 85 34 30 35 31 36 32 37 79 38 33 39 84 40 78 41 80 42 34 43
REMARK SMILES IDX 83 44 77 45 76 46 35 48 65 49 46 50 64 51 47 52 50 53 63 54
REMARK SMILES IDX 81 55 48 56 49 57 62 59 82 60 51 61 36 62 37 63 45 64 38 65
REMARK SMILES IDX 44 66 39 67 40 68 41 69 42 70 43 71 66 72 67 73 75 74 68 75
REMARK SMILES IDX 74 76 69 77 70 78 71 79 72 80 73 81 52 82 53 83 61 84 54 85
REMARK SMILES IDX 60 86 55 87 56 88 57 89 58 90 59 91
REMARK H PARENT 12 16 80 47 50 58
REMARK Flexibility Score: inf
ROOT
ATOM      1  C   UNL     1       5.460   1.038   0.714  1.00  0.00     0.274 C 
ENDROOT
BRANCH   1   2
ATOM      2  O   UNL     1       4.334   1.941   0.755  1.00  0.00    -0.460 OA
BRANCH   2   3
ATOM      3  C   UNL     1       3.945   2.478  -0.434  1.00  0.00     0.344 C 
ATOM      4  O   UNL     1       4.595   2.397  -1.474  1.00  0.00    -0.248 OA
BRANCH   3   5
ATOM      5  C   UNL     1       2.560   3.132  -0.390  1.00  0.00     0.351 C 
BRANCH   5   6
ATOM      6  O   UNL     1       1.959   3.336   0.885  1.00  0.00    -0.482 OA
BRANCH   6   7
ATOM      7  C   UNL     1       0.876   2.540   1.154  1.00  0.00     0.120 A 
ATOM      8  C   UNL     1      -1.172   0.753   1.837  1.00  0.00     0.041 A 
ATOM      9  C   UNL     1      -0.154   1.028   2.748  1.00  0.00     0.030 A 
ATOM     10  C   UNL     1      -1.231   1.465   0.633  1.00  0.00     0.030 A 
ATOM     11  C   UNL     1       0.853   1.940   2.414  1.00  0.00     0.048 A 
ATOM     12  C   UNL     1      -0.194   2.338   0.280  1.00  0.00     0.048 A 
BRANCH   8  13
ATOM     13  N   UNL     1      -2.140  -0.235   2.067  1.00  0.00    -0.322 N 
ATOM     14  C   UNL     1      -2.029  -1.482   2.653  1.00  0.00     0.259 C 
ATOM     15  O   UNL     1      -3.058  -2.038   3.042  1.00  0.00    -0.269 OA
ATOM     16  H   UNL     1      -3.047  -0.003   1.763  1.00  0.00     0.170 HD
BRANCH  14  17
ATOM     17  C   UNL     1      -0.751  -2.261   2.725  1.00  0.00     0.083 A 
ATOM     18  C   UNL     1       0.322  -2.146   1.832  1.00  0.00     0.131 A 
ATOM     19  C   UNL     1       1.494  -2.896   1.998  1.00  0.00     0.049 A 
ATOM     20  C   UNL     1       1.552  -3.890   2.965  1.00  0.00     0.024 A 
ATOM     21  C   UNL     1      -0.689  -3.296   3.675  1.00  0.00     0.038 A 
ATOM     22  C   UNL     1       0.443  -4.112   3.775  1.00  0.00     0.042 A 
ATOM     23  Cl  UNL     1       0.465  -5.422   4.890  1.00  0.00    -0.084 Cl
BRANCH  18  24
ATOM     24  O   UNL     1       0.316  -1.336   0.738  1.00  0.00    -0.496 OA
ATOM     25  C   UNL     1      -0.489  -1.872  -0.305  1.00  0.00     0.278 C 
ENDBRANCH  18  24
ENDBRANCH  14  17
ENDBRANCH   8  13
ENDBRANCH   6   7
ENDBRANCH   5   6
ENDBRANCH   3   5
ENDBRANCH   2   3
ENDBRANCH   1   2
BRANCH   1  26
ATOM     26  C   UNL     1       5.022  -0.434   0.816  1.00  0.00     0.275 C 
BRANCH  26  27
ATOM     27  O   UNL     1       4.495  -0.976  -0.417  1.00  0.00    -0.458 OA
BRANCH  27  28
ATOM     28  C   UNL     1       3.213  -0.624  -0.658  1.00  0.00     0.338 C 
ATOM     29  O   UNL     1       2.536   0.126   0.021  1.00  0.00    -0.246 OA
BRANCH  28  30
ATOM     30  C   UNL     1       2.655  -1.215  -1.878  1.00  0.00     0.060 A 
ATOM     31  C   UNL     1       2.095  -0.338  -2.815  1.00  0.00     0.016 A 
ATOM     32  C   UNL     1       2.444  -2.592  -1.973  1.00  0.00     0.016 A 
ATOM     33  C   UNL     1       1.285  -0.834  -3.834  1.00  0.00     0.010 A 
ATOM     34  C   UNL     1       1.626  -3.087  -2.995  1.00  0.00     0.010 A 
ATOM     35  C   UNL     1       1.026  -2.209  -3.917  1.00  0.00    -0.014 A 
BRANCH  35  36
ATOM     36  C   UNL     1       0.248  -2.741  -5.056  1.00  0.00     0.031 A 
ATOM     37  C   UNL     1      -1.231  -2.984  -4.981  1.00  0.00     0.074 A 
ATOM     38  C   UNL     1       0.926  -3.011  -6.185  1.00  0.00     0.049 A 
ATOM     39  N   UNL     1      -2.025  -3.501  -5.884  1.00  0.00    -0.248 NA
ATOM     40  C   UNL     1      -1.914  -2.591  -3.743  1.00  0.00     0.031 C 
ATOM     41  C   UNL     1       2.358  -2.768  -6.377  1.00  0.00     0.029 A 
ATOM     42  N   UNL     1       0.512  -3.561  -7.366  1.00  0.00    -0.354 N 
ATOM     43  C   UNL     1      -3.299  -3.492  -5.328  1.00  0.00     0.074 A 
ATOM     44  C   UNL     1      -3.171  -2.935  -3.998  1.00  0.00     0.031 C 
ATOM     45  C   UNL     1       2.711  -3.202  -7.595  1.00  0.00     0.029 A 
ATOM     46  C   UNL     1       1.540  -3.777  -8.249  1.00  0.00     0.049 A 
ATOM     47  H   UNL     1      -0.428  -3.779  -7.564  1.00  0.00     0.167 HD
ATOM     48  C   UNL     1      -4.464  -3.905  -5.883  1.00  0.00     0.031 A 
ATOM     49  C   UNL     1       1.550  -4.405  -9.438  1.00  0.00     0.031 A 
ATOM     50  C   UNL     1      -4.572  -4.472  -7.203  1.00  0.00     0.049 A 
ATOM     51  C   UNL     1       0.268  -4.944  -9.990  1.00  0.00     0.074 A 
ATOM     52  C   UNL     1      -5.712  -4.887  -7.871  1.00  0.00     0.029 A 
ATOM     53  N   UNL     1      -3.503  -4.717  -8.050  1.00  0.00    -0.354 N 
ATOM     54  N   UNL     1      -0.932  -4.903  -9.462  1.00  0.00    -0.248 NA
ATOM     55  C   UNL     1       0.336  -5.606 -11.298  1.00  0.00     0.031 C 
ATOM     56  C   UNL     1      -5.325  -5.429  -9.102  1.00  0.00     0.029 A 
ATOM     57  C   UNL     1      -3.950  -5.309  -9.220  1.00  0.00     0.049 A 
ATOM     58  H   UNL     1      -2.563  -4.503  -7.850  1.00  0.00     0.167 HD
ATOM     59  C   UNL     1      -1.769  -5.515 -10.385  1.00  0.00     0.074 A 
ATOM     60  C   UNL     1      -0.938  -5.917 -11.503  1.00  0.00     0.031 C 
ATOM     61  C   UNL     1      -3.107  -5.715 -10.315  1.00  0.00     0.031 A 
BRANCH  48  62
ATOM     62  C   UNL     1      -5.724  -3.782  -5.068  1.00  0.00    -0.014 A 
ATOM     63  C   UNL     1      -6.364  -2.541  -4.905  1.00  0.00     0.010 A 
ATOM     64  C   UNL     1      -6.331  -4.938  -4.542  1.00  0.00     0.010 A 
ATOM     65  C   UNL     1      -7.580  -2.455  -4.218  1.00  0.00     0.020 A 
ATOM     66  C   UNL     1      -7.554  -4.859  -3.868  1.00  0.00     0.020 A 
ATOM     67  C   UNL     1      -8.167  -3.615  -3.703  1.00  0.00     0.054 A 
BRANCH  67  68
ATOM     68  S   UNL     1      -9.770  -3.485  -2.860  1.00  0.00     0.124 S 
ATOM     69  O   UNL     1      -9.386  -2.911  -1.573  1.00  0.00    -0.237 OA
ATOM     70  O   UNL     1     -10.526  -2.598  -3.741  1.00  0.00    -0.237 OA
ATOM     71  O   UNL     1     -10.249  -4.864  -2.811  1.00  0.00    -0.744 OA
ENDBRANCH  67  68
ENDBRANCH  48  62
BRANCH  49  72
ATOM     72  C   UNL     1       2.843  -4.568 -10.145  1.00  0.00    -0.014 A 
ATOM     73  C   UNL     1       3.166  -3.753 -11.241  1.00  0.00     0.010 A 
ATOM     74  C   UNL     1       3.797  -5.477  -9.651  1.00  0.00     0.010 A 
ATOM     75  C   UNL     1       4.431  -3.839 -11.828  1.00  0.00     0.020 A 
ATOM     76  C   UNL     1       5.067  -5.550 -10.222  1.00  0.00     0.020 A 
ATOM     77  C   UNL     1       5.375  -4.732 -11.310  1.00  0.00     0.054 A 
BRANCH  77  78
ATOM     78  S   UNL     1       7.045  -4.755 -12.018  1.00  0.00     0.124 S 
ATOM     79  O   UNL     1       6.852  -5.559 -13.220  1.00  0.00    -0.237 OA
ATOM     80  O   UNL     1       7.318  -3.337 -12.241  1.00  0.00    -0.237 OA
ATOM     81  O   UNL     1       7.849  -5.377 -10.968  1.00  0.00    -0.744 OA
ENDBRANCH  77  78
ENDBRANCH  49  72
BRANCH  61  82
ATOM     82  C   UNL     1      -3.760  -6.381 -11.493  1.00  0.00    -0.014 A 
ATOM     83  C   UNL     1      -3.659  -7.769 -11.684  1.00  0.00     0.010 A 
ATOM     84  C   UNL     1      -4.520  -5.612 -12.392  1.00  0.00     0.010 A 
ATOM     85  C   UNL     1      -4.291  -8.376 -12.772  1.00  0.00     0.020 A 
ATOM     86  C   UNL     1      -5.168  -6.218 -13.470  1.00  0.00     0.020 A 
ATOM     87  C   UNL     1      -5.039  -7.596 -13.660  1.00  0.00     0.054 A 
BRANCH  87  88
ATOM     88  S   UNL     1      -5.888  -8.410 -15.041  1.00  0.00     0.124 S 
ATOM     89  O   UNL     1      -4.792  -8.632 -15.981  1.00  0.00    -0.237 OA
ATOM     90  O   UNL     1      -6.436  -9.613 -14.420  1.00  0.00    -0.237 OA
ATOM     91  O   UNL     1      -6.882  -7.426 -15.463  1.00  0.00    -0.744 OA
ENDBRANCH  87  88
ENDBRANCH  61  82
ENDBRANCH  35  36
ENDBRANCH  28  30
ENDBRANCH  27  28
ENDBRANCH  26  27
ENDBRANCH   1  26
TORSDOF 19
