REMARK SMILES NS(=O)(=O)c1ccc(C#Cc2cc(Cl)cc3c2O[C@H](C(F)(F)F)C(C(=O)OCCOC(=O)c2ccc(-c4c5nc(c(-c6ccc(S(=O)(=O)[O-])cc6)c6ccc([nH]6)c(-c6ccc(S(=O)(=O)[O-])cc6)c6nc(c(-c7ccc(S(=O)(=O)[O-])cc7)c7ccc4[nH]7)C=C6)C=C5)cc2)=C3)cc1
REMARK SMILES IDX 28 1 27 2 25 3 26 4 24 5 11 6 12 7 17 8 13 9 16 10 18 11
REMARK SMILES IDX 14 12 15 13 93 14 19 15 10 16 9 17 8 18 5 19 6 20 95 21 7 22
REMARK SMILES IDX 94 23 2 24 3 25 4 26 1 27 20 30 21 31 22 32 23 33 29 34
REMARK SMILES IDX 30 35 31 36 32 37 33 38 34 39 92 40 35 41 91 42 36 43 37 44
REMARK SMILES IDX 38 45 85 46 39 47 90 48 84 49 86 50 40 51 89 52 83 53 82 54
REMARK SMILES IDX 41 56 71 57 52 58 70 59 53 60 56 61 69 62 87 63 54 64 55 65
REMARK SMILES IDX 68 67 88 68 57 69 42 70 43 71 51 72 44 73 50 74 45 75 46 76
REMARK SMILES IDX 47 77 48 78 49 79 72 80 73 81 81 82 74 83 80 84 75 85 76 86
REMARK SMILES IDX 77 87 78 88 79 89 58 90 59 91 67 92 60 93 66 94 61 95 62 96
REMARK SMILES IDX 63 97 64 98 65 99
REMARK H PARENT 1 28 1 29 86 55 56 66
REMARK Flexibility Score: inf
ROOT
ATOM      1  C   UNL     1      10.748  -9.299  -0.870  1.00  0.00     0.275 C 
ENDROOT
BRANCH   1   2
ATOM      2  O   UNL     1       9.439  -9.033  -0.315  1.00  0.00    -0.459 OA
BRANCH   2   3
ATOM      3  C   UNL     1       8.425  -9.769  -0.828  1.00  0.00     0.338 C 
ATOM      4  O   UNL     1       8.509 -10.580  -1.736  1.00  0.00    -0.246 OA
BRANCH   3   5
ATOM      5  C   UNL     1       7.154  -9.482  -0.129  1.00  0.00     0.087 C 
ATOM      6  C   UNL     1       3.340  -8.733   1.433  1.00  0.00     0.069 A 
ATOM      7  C   UNL     1       2.488  -9.808   1.717  1.00  0.00     0.041 A 
ATOM      8  C   UNL     1       4.640  -8.951   0.960  1.00  0.00     0.143 A 
ATOM      9  C   UNL     1       2.941 -11.110   1.549  1.00  0.00     0.043 A 
ATOM     10  C   UNL     1       5.070 -10.262   0.785  1.00  0.00     0.020 A 
ATOM     11  O   UNL     1       5.439  -7.867   0.696  1.00  0.00    -0.474 OA
ATOM     12  Cl  UNL     1       1.895 -12.432   1.883  1.00  0.00    -0.084 Cl
ATOM     13  C   UNL     1       4.231 -11.344   1.092  1.00  0.00     0.032 A 
ATOM     14  C   UNL     1       6.382 -10.511   0.235  1.00  0.00     0.027 C 
ATOM     15  C   UNL     1       6.706  -8.058  -0.000  1.00  0.00     0.316 C 
BRANCH   6  16
ATOM     16  C   UNL     1       2.835  -7.413   1.601  1.00  0.00    -0.058 C 
ATOM     17  C   UNL     1       2.405  -6.297   1.705  1.00  0.00    -0.062 C 
BRANCH  17  18
ATOM     18  C   UNL     1       1.920  -4.963   1.768  1.00  0.00     0.025 A 
ATOM     19  C   UNL     1       0.995  -2.353   1.775  1.00  0.00     0.082 A 
ATOM     20  C   UNL     1       2.372  -2.597   1.827  1.00  0.00     0.023 A 
ATOM     21  C   UNL     1       0.075  -3.404   1.746  1.00  0.00     0.023 A 
ATOM     22  C   UNL     1       2.834  -3.909   1.819  1.00  0.00     0.018 A 
ATOM     23  C   UNL     1       0.545  -4.717   1.743  1.00  0.00     0.018 A 
BRANCH  19  24
ATOM     24  S   UNL     1       0.443  -0.678   1.730  1.00  0.00     0.238 S 
ATOM     25  O   UNL     1       1.156   0.077   2.732  1.00  0.00    -0.207 OA
ATOM     26  O   UNL     1      -0.996  -0.643   1.603  1.00  0.00    -0.207 OA
BRANCH  24  27
ATOM     27  N   UNL     1       1.040  -0.168   0.245  1.00  0.00    -0.225 NA
ATOM     28  H   UNL     1       0.783   0.807   0.093  1.00  0.00     0.137 HD
ATOM     29  H   UNL     1       0.642  -0.744  -0.497  1.00  0.00     0.137 HD
ENDBRANCH  24  27
ENDBRANCH  19  24
ENDBRANCH  17  18
ENDBRANCH   6  16
BRANCH  15  30
ATOM     30  C   UNL     1       6.626  -7.385  -1.381  1.00  0.00     0.430 C 
ATOM     31  F   UNL     1       6.210  -6.100  -1.281  1.00  0.00    -0.167 F 
ATOM     32  F   UNL     1       7.836  -7.348  -1.991  1.00  0.00    -0.167 F 
ATOM     33  F   UNL     1       5.774  -8.025  -2.213  1.00  0.00    -0.167 F 
ENDBRANCH  15  30
ENDBRANCH   3   5
ENDBRANCH   2   3
ENDBRANCH   1   2
BRANCH   1  34
ATOM     34  C   UNL     1      11.610 -10.134   0.082  1.00  0.00     0.275 C 
BRANCH  34  35
ATOM     35  O   UNL     1      11.139 -11.490   0.164  1.00  0.00    -0.458 OA
BRANCH  35  36
ATOM     36  C   UNL     1      10.266 -11.723   1.169  1.00  0.00     0.338 C 
ATOM     37  O   UNL     1       9.864 -10.927   2.000  1.00  0.00    -0.246 OA
BRANCH  36  38
ATOM     38  C   UNL     1       9.716 -13.075   1.037  1.00  0.00     0.060 A 
ATOM     39  C   UNL     1      10.220 -14.155   1.743  1.00  0.00     0.016 A 
ATOM     40  C   UNL     1       8.549 -13.213   0.300  1.00  0.00     0.016 A 
ATOM     41  C   UNL     1       9.534 -15.374   1.680  1.00  0.00     0.010 A 
ATOM     42  C   UNL     1       7.765 -14.349   0.410  1.00  0.00     0.010 A 
ATOM     43  C   UNL     1       8.274 -15.476   1.048  1.00  0.00    -0.014 A 
BRANCH  43  44
ATOM     44  C   UNL     1       7.503 -16.750   1.017  1.00  0.00     0.031 A 
ATOM     45  C   UNL     1       7.025 -17.335  -0.296  1.00  0.00     0.074 A 
ATOM     46  C   UNL     1       7.217 -17.375   2.178  1.00  0.00     0.049 A 
ATOM     47  N   UNL     1       6.396 -18.464  -0.507  1.00  0.00    -0.248 NA
ATOM     48  C   UNL     1       7.242 -16.550  -1.527  1.00  0.00     0.031 C 
ATOM     49  C   UNL     1       7.542 -16.862   3.511  1.00  0.00     0.029 A 
ATOM     50  N   UNL     1       6.622 -18.587   2.430  1.00  0.00    -0.354 N 
ATOM     51  C   UNL     1       6.145 -18.512  -1.875  1.00  0.00     0.074 A 
ATOM     52  C   UNL     1       6.594 -17.263  -2.435  1.00  0.00     0.031 C 
ATOM     53  C   UNL     1       7.241 -17.792   4.428  1.00  0.00     0.029 A 
ATOM     54  C   UNL     1       6.635 -18.940   3.761  1.00  0.00     0.049 A 
ATOM     55  H   UNL     1       6.225 -19.149   1.726  1.00  0.00     0.167 HD
ATOM     56  C   UNL     1       5.641 -19.528  -2.611  1.00  0.00     0.031 A 
ATOM     57  C   UNL     1       6.224 -20.066   4.380  1.00  0.00     0.031 A 
ATOM     58  C   UNL     1       5.246 -20.791  -2.047  1.00  0.00     0.049 A 
ATOM     59  C   UNL     1       5.677 -21.188   3.542  1.00  0.00     0.074 A 
ATOM     60  C   UNL     1       4.793 -21.916  -2.711  1.00  0.00     0.029 A 
ATOM     61  N   UNL     1       5.267 -21.100  -0.696  1.00  0.00    -0.354 N 
ATOM     62  N   UNL     1       5.548 -21.251   2.237  1.00  0.00    -0.248 NA
ATOM     63  C   UNL     1       5.236 -22.397   4.250  1.00  0.00     0.031 C 
ATOM     64  C   UNL     1       4.456 -22.873  -1.755  1.00  0.00     0.029 A 
ATOM     65  C   UNL     1       4.796 -22.386  -0.502  1.00  0.00     0.049 A 
ATOM     66  H   UNL     1       5.572 -20.495   0.019  1.00  0.00     0.167 HD
ATOM     67  C   UNL     1       5.029 -22.512   1.967  1.00  0.00     0.074 A 
ATOM     68  C   UNL     1       4.897 -23.189   3.240  1.00  0.00     0.031 C 
ATOM     69  C   UNL     1       4.682 -23.053   0.773  1.00  0.00     0.031 A 
BRANCH  56  70
ATOM     70  C   UNL     1       5.537 -19.363  -4.110  1.00  0.00    -0.014 A 
ATOM     71  C   UNL     1       4.283 -19.456  -4.742  1.00  0.00     0.010 A 
ATOM     72  C   UNL     1       6.693 -19.267  -4.907  1.00  0.00     0.010 A 
ATOM     73  C   UNL     1       4.191 -19.516  -6.136  1.00  0.00     0.020 A 
ATOM     74  C   UNL     1       6.603 -19.286  -6.302  1.00  0.00     0.020 A 
ATOM     75  C   UNL     1       5.354 -19.446  -6.906  1.00  0.00     0.054 A 
BRANCH  75  76
ATOM     76  S   UNL     1       5.222 -19.612  -8.708  1.00  0.00     0.124 S 
ATOM     77  O   UNL     1       4.857 -21.017  -8.862  1.00  0.00    -0.237 OA
ATOM     78  O   UNL     1       4.177 -18.646  -9.039  1.00  0.00    -0.237 OA
ATOM     79  O   UNL     1       6.558 -19.258  -9.185  1.00  0.00    -0.744 OA
ENDBRANCH  75  76
ENDBRANCH  56  70
BRANCH  57  80
ATOM     80  C   UNL     1       6.394 -20.191   5.857  1.00  0.00    -0.014 A 
ATOM     81  C   UNL     1       5.718 -19.317   6.731  1.00  0.00     0.010 A 
ATOM     82  C   UNL     1       7.308 -21.114   6.397  1.00  0.00     0.010 A 
ATOM     83  C   UNL     1       6.005 -19.312   8.099  1.00  0.00     0.020 A 
ATOM     84  C   UNL     1       7.567 -21.142   7.773  1.00  0.00     0.020 A 
ATOM     85  C   UNL     1       6.940 -20.215   8.608  1.00  0.00     0.054 A 
BRANCH  85  86
ATOM     86  S   UNL     1       7.349 -20.136  10.374  1.00  0.00     0.124 S 
ATOM     87  O   UNL     1       8.105 -18.889  10.450  1.00  0.00    -0.237 OA
ATOM     88  O   UNL     1       6.031 -20.112  11.003  1.00  0.00    -0.237 OA
ATOM     89  O   UNL     1       8.125 -21.352  10.602  1.00  0.00    -0.744 OA
ENDBRANCH  85  86
ENDBRANCH  57  80
BRANCH  69  90
ATOM     90  C   UNL     1       4.117 -24.451   0.757  1.00  0.00    -0.014 A 
ATOM     91  C   UNL     1       4.799 -25.470   0.064  1.00  0.00     0.010 A 
ATOM     92  C   UNL     1       2.840 -24.716   1.280  1.00  0.00     0.010 A 
ATOM     93  C   UNL     1       4.191 -26.707  -0.156  1.00  0.00     0.020 A 
ATOM     94  C   UNL     1       2.246 -25.968   1.099  1.00  0.00     0.020 A 
ATOM     95  C   UNL     1       2.912 -26.943   0.354  1.00  0.00     0.054 A 
BRANCH  95  96
ATOM     96  S   UNL     1       2.114 -28.532  -0.000  1.00  0.00     0.124 S 
ATOM     97  O   UNL     1       1.816 -28.416  -1.425  1.00  0.00    -0.237 OA
ATOM     98  O   UNL     1       3.155 -29.495   0.350  1.00  0.00    -0.237 OA
ATOM     99  O   UNL     1       0.949 -28.537   0.882  1.00  0.00    -0.744 OA
ENDBRANCH  95  96
ENDBRANCH  69  90
ENDBRANCH  43  44
ENDBRANCH  36  38
ENDBRANCH  35  36
ENDBRANCH  34  35
ENDBRANCH   1  34
TORSDOF 19
