REMARK SMILES Cc1cccc([C@H]([NH3+])[C@H](O)C(=O)OCCOC(=O)c2ccc(-c3c4nc(c(-c5ccc(S(=O)(=O)[O-])cc5)c5ccc([nH]5)c(-c5ccc(S(=O)(=O)[O-])cc5)c5nc(c(-c6ccc(S(=O)(=O)[O-])cc6)c6ccc3[nH]6)C=C5)C=C4)cc2)c1
REMARK SMILES IDX 15 1 14 2 13 3 11 4 12 5 9 6 7 7 6 8 1 9 2 10 3 11 79 12
REMARK SMILES IDX 4 13 5 14 8 15 10 19 16 21 17 22 18 23 19 24 20 25 78 26
REMARK SMILES IDX 21 27 77 28 22 29 23 30 24 31 71 32 25 33 76 34 70 35 72 36
REMARK SMILES IDX 26 37 75 38 69 39 68 40 27 42 57 43 38 44 56 45 39 46 42 47
REMARK SMILES IDX 55 48 73 49 40 50 41 51 54 53 74 54 43 55 28 56 29 57 37 58
REMARK SMILES IDX 30 59 36 60 31 61 32 62 33 63 34 64 35 65 58 66 59 67 67 68
REMARK SMILES IDX 60 69 66 70 61 71 62 72 63 73 64 74 65 75 44 76 45 77 53 78
REMARK SMILES IDX 46 79 52 80 47 81 48 82 49 83 50 84 51 85
REMARK H PARENT 8 16 8 17 8 18 10 20 72 41 42 52
REMARK Flexibility Score: inf
ROOT
ATOM      1  C   UNL     1      -3.819   6.348  -1.858  1.00  0.00     0.275 C 
ENDROOT
BRANCH   1   2
ATOM      2  C   UNL     1      -2.651   6.126  -0.880  1.00  0.00     0.274 C 
BRANCH   2   3
ATOM      3  O   UNL     1      -2.329   4.726  -0.822  1.00  0.00    -0.460 OA
BRANCH   3   4
ATOM      4  C   UNL     1      -1.655   4.338   0.303  1.00  0.00     0.341 C 
ATOM      5  O   UNL     1      -1.181   5.113   1.104  1.00  0.00    -0.249 OA
BRANCH   4   6
ATOM      6  C   UNL     1      -1.654   2.796   0.398  1.00  0.00     0.287 C 
BRANCH   6   7
ATOM      7  C   UNL     1      -0.871   2.263   1.643  1.00  0.00     0.252 C 
BRANCH   7   8
ATOM      8  C   UNL     1       0.647   2.445   1.658  1.00  0.00     0.013 A 
ATOM      9  C   UNL     1       3.604   1.533   3.922  1.00  0.00     0.044 C 
ATOM     10  C   UNL     1       2.799   2.126   2.804  1.00  0.00    -0.051 A 
ATOM     11  C   UNL     1       3.446   2.818   1.778  1.00  0.00     0.003 A 
ATOM     12  C   UNL     1       1.407   1.958   2.744  1.00  0.00     0.013 A 
ATOM     13  C   UNL     1       2.716   3.321   0.707  1.00  0.00     0.001 A 
ATOM     14  C   UNL     1       1.336   3.124   0.643  1.00  0.00     0.010 A 
ENDBRANCH   7   8
BRANCH   7  15
ATOM     15  N   UNL     1      -1.215   0.837   1.887  1.00  0.00    -0.349 N 
ATOM     16  H   UNL     1      -0.881   0.269   1.108  1.00  0.00     0.345 HD
ATOM     17  H   UNL     1      -2.228   0.740   1.967  1.00  0.00     0.345 HD
ATOM     18  H   UNL     1      -0.774   0.523   2.751  1.00  0.00     0.345 HD
ENDBRANCH   7  15
ENDBRANCH   6   7
BRANCH   6  19
ATOM     19  O   UNL     1      -1.279   2.173  -0.832  1.00  0.00    -0.376 OA
ATOM     20  H   UNL     1      -0.360   2.402  -1.043  1.00  0.00     0.212 HD
ENDBRANCH   6  19
ENDBRANCH   4   6
ENDBRANCH   3   4
ENDBRANCH   2   3
ENDBRANCH   1   2
BRANCH   1  21
ATOM     21  O   UNL     1      -5.112   5.867  -1.422  1.00  0.00    -0.458 OA
BRANCH  21  22
ATOM     22  C   UNL     1      -5.156   4.600  -0.919  1.00  0.00     0.338 C 
ATOM     23  O   UNL     1      -4.854   3.600  -1.550  1.00  0.00    -0.246 OA
BRANCH  22  24
ATOM     24  C   UNL     1      -5.228   4.708   0.569  1.00  0.00     0.060 A 
ATOM     25  C   UNL     1      -4.875   3.609   1.364  1.00  0.00     0.016 A 
ATOM     26  C   UNL     1      -5.304   5.981   1.138  1.00  0.00     0.016 A 
ATOM     27  C   UNL     1      -4.429   3.806   2.677  1.00  0.00     0.010 A 
ATOM     28  C   UNL     1      -4.797   6.185   2.400  1.00  0.00     0.010 A 
ATOM     29  C   UNL     1      -4.337   5.107   3.172  1.00  0.00    -0.014 A 
BRANCH  29  30
ATOM     30  C   UNL     1      -4.010   5.462   4.552  1.00  0.00     0.031 A 
ATOM     31  C   UNL     1      -2.650   5.454   5.137  1.00  0.00     0.074 A 
ATOM     32  C   UNL     1      -5.070   5.928   5.246  1.00  0.00     0.049 A 
ATOM     33  N   UNL     1      -2.404   5.494   6.405  1.00  0.00    -0.248 NA
ATOM     34  C   UNL     1      -1.435   5.352   4.343  1.00  0.00     0.031 C 
ATOM     35  C   UNL     1      -5.110   6.654   6.501  1.00  0.00     0.029 A 
ATOM     36  N   UNL     1      -6.409   5.611   4.986  1.00  0.00    -0.354 N 
ATOM     37  C   UNL     1      -1.047   5.710   6.572  1.00  0.00     0.074 A 
ATOM     38  C   UNL     1      -0.477   5.500   5.266  1.00  0.00     0.031 C 
ATOM     39  C   UNL     1      -6.322   6.459   7.053  1.00  0.00     0.029 A 
ATOM     40  C   UNL     1      -7.004   5.459   6.235  1.00  0.00     0.049 A 
ATOM     41  H   UNL     1      -6.839   5.515   4.105  1.00  0.00     0.167 HD
ATOM     42  C   UNL     1      -0.582   6.192   7.762  1.00  0.00     0.031 A 
ATOM     43  C   UNL     1      -7.459   4.249   6.675  1.00  0.00     0.031 A 
ATOM     44  C   UNL     1      -1.658   6.246   8.747  1.00  0.00     0.049 A 
ATOM     45  C   UNL     1      -6.807   3.888   7.983  1.00  0.00     0.074 A 
ATOM     46  C   UNL     1      -2.488   7.276   9.155  1.00  0.00     0.029 A 
ATOM     47  N   UNL     1      -2.220   5.064   9.214  1.00  0.00    -0.354 N 
ATOM     48  N   UNL     1      -5.580   4.200   8.302  1.00  0.00    -0.248 NA
ATOM     49  C   UNL     1      -7.522   3.195   9.046  1.00  0.00     0.031 C 
ATOM     50  C   UNL     1      -3.629   6.690   9.760  1.00  0.00     0.029 A 
ATOM     51  C   UNL     1      -3.461   5.314   9.763  1.00  0.00     0.049 A 
ATOM     52  H   UNL     1      -1.794   4.178   9.160  1.00  0.00     0.167 HD
ATOM     53  C   UNL     1      -5.379   3.881   9.619  1.00  0.00     0.074 A 
ATOM     54  C   UNL     1      -6.605   3.212  10.027  1.00  0.00     0.031 C 
ATOM     55  C   UNL     1      -4.263   4.237  10.317  1.00  0.00     0.031 A 
BRANCH  42  56
ATOM     56  C   UNL     1       0.750   6.898   7.965  1.00  0.00    -0.014 A 
ATOM     57  C   UNL     1       0.898   7.786   9.056  1.00  0.00     0.010 A 
ATOM     58  C   UNL     1       1.854   6.812   7.096  1.00  0.00     0.010 A 
ATOM     59  C   UNL     1       2.026   8.610   9.212  1.00  0.00     0.020 A 
ATOM     60  C   UNL     1       2.984   7.641   7.230  1.00  0.00     0.020 A 
ATOM     61  C   UNL     1       3.053   8.554   8.276  1.00  0.00     0.054 A 
BRANCH  61  62
ATOM     62  S   UNL     1       4.456   9.693   8.431  1.00  0.00     0.124 S 
ATOM     63  O   UNL     1       3.816  11.000   8.299  1.00  0.00    -0.237 OA
ATOM     64  O   UNL     1       4.977   9.379   9.758  1.00  0.00    -0.237 OA
ATOM     65  O   UNL     1       5.331   9.322   7.320  1.00  0.00    -0.744 OA
ENDBRANCH  61  62
ENDBRANCH  42  56
BRANCH  43  66
ATOM     66  C   UNL     1      -7.813   3.259   5.609  1.00  0.00    -0.014 A 
ATOM     67  C   UNL     1      -8.847   3.588   4.702  1.00  0.00     0.010 A 
ATOM     68  C   UNL     1      -6.948   2.200   5.280  1.00  0.00     0.010 A 
ATOM     69  C   UNL     1      -8.939   2.961   3.454  1.00  0.00     0.020 A 
ATOM     70  C   UNL     1      -7.051   1.554   4.036  1.00  0.00     0.020 A 
ATOM     71  C   UNL     1      -8.020   1.968   3.116  1.00  0.00     0.054 A 
BRANCH  71  72
ATOM     72  S   UNL     1      -7.992   1.367   1.398  1.00  0.00     0.124 S 
ATOM     73  O   UNL     1      -9.210   0.567   1.331  1.00  0.00    -0.237 OA
ATOM     74  O   UNL     1      -8.011   2.615   0.637  1.00  0.00    -0.237 OA
ATOM     75  O   UNL     1      -6.737   0.623   1.323  1.00  0.00    -0.744 OA
ENDBRANCH  71  72
ENDBRANCH  43  66
BRANCH  55  76
ATOM     76  C   UNL     1      -3.899   3.704  11.676  1.00  0.00    -0.014 A 
ATOM     77  C   UNL     1      -4.331   2.456  12.152  1.00  0.00     0.010 A 
ATOM     78  C   UNL     1      -2.965   4.411  12.469  1.00  0.00     0.010 A 
ATOM     79  C   UNL     1      -3.919   1.974  13.399  1.00  0.00     0.020 A 
ATOM     80  C   UNL     1      -2.511   3.918  13.693  1.00  0.00     0.020 A 
ATOM     81  C   UNL     1      -3.016   2.712  14.164  1.00  0.00     0.054 A 
BRANCH  81  82
ATOM     82  S   UNL     1      -2.448   2.050  15.748  1.00  0.00     0.124 S 
ATOM     83  O   UNL     1      -3.485   2.526  16.660  1.00  0.00    -0.237 OA
ATOM     84  O   UNL     1      -2.434   0.608  15.514  1.00  0.00    -0.237 OA
ATOM     85  O   UNL     1      -1.131   2.659  15.921  1.00  0.00    -0.744 OA
ENDBRANCH  81  82
ENDBRANCH  55  76
ENDBRANCH  29  30
ENDBRANCH  22  24
ENDBRANCH  21  22
ENDBRANCH   1  21
TORSDOF 18
