REMARK SMILES O=C(OCCOC(=O)c1cccc2c(C(F)(F)F)cc(Br)nc12)c1ccc(-c2c3nc(c(-c4ccc(S(=O)(=O)[O-])cc4)c4ccc([nH]4)c(-c4ccc(S(=O)(=O)[O-])cc4)c4nc(c(-c5ccc(S(=O)(=O)[O-])cc5)c5ccc2[nH]5)C=C4)C=C3)cc1
REMARK SMILES IDX 4 1 3 2 2 3 1 4 24 5 25 6 83 7 26 8 82 9 27 10 28 11 29 12
REMARK SMILES IDX 76 13 30 14 81 15 75 16 77 17 31 18 80 19 74 20 73 21 32 23
REMARK SMILES IDX 62 24 43 25 61 26 44 27 47 28 60 29 78 30 45 31 46 32 59 34
REMARK SMILES IDX 79 35 48 36 33 37 34 38 42 39 35 40 41 41 36 42 37 43 38 44
REMARK SMILES IDX 39 45 40 46 63 47 64 48 72 49 65 50 71 51 66 52 67 53 68 54
REMARK SMILES IDX 69 55 70 56 49 57 50 58 58 59 51 60 57 61 52 62 53 63 54 64
REMARK SMILES IDX 55 65 56 66 5 67 6 68 7 69 8 70 9 71 10 72 23 73 11 74 13 75
REMARK SMILES IDX 22 76 12 77 14 78 20 79 19 80 21 81 15 82 16 83 17 84 18 85
REMARK H PARENT 77 22 47 33
REMARK Flexibility Score: inf
ROOT
ATOM      1  C   UNL     1       4.245  -0.560   1.355  1.00  0.00     0.275 C 
ENDROOT
BRANCH   1   2
ATOM      2  O   UNL     1       3.288   0.474   1.072  1.00  0.00    -0.458 OA
BRANCH   2   3
ATOM      3  C   UNL     1       3.273   1.313   0.005  1.00  0.00     0.338 C 
ATOM      4  O   UNL     1       2.690   2.392   0.087  1.00  0.00    -0.246 OA
BRANCH   3   5
ATOM      5  C   UNL     1       3.785   0.887  -1.331  1.00  0.00     0.060 A 
ATOM      6  C   UNL     1       2.989   1.217  -2.436  1.00  0.00     0.016 A 
ATOM      7  C   UNL     1       4.990   0.221  -1.566  1.00  0.00     0.016 A 
ATOM      8  C   UNL     1       3.317   0.773  -3.720  1.00  0.00     0.010 A 
ATOM      9  C   UNL     1       5.336  -0.208  -2.851  1.00  0.00     0.010 A 
ATOM     10  C   UNL     1       4.496   0.048  -3.938  1.00  0.00    -0.014 A 
BRANCH  10  11
ATOM     11  C   UNL     1       4.974  -0.221  -5.313  1.00  0.00     0.031 A 
ATOM     12  C   UNL     1       5.081  -1.606  -5.883  1.00  0.00     0.074 A 
ATOM     13  C   UNL     1       5.385   0.842  -6.029  1.00  0.00     0.049 A 
ATOM     14  N   UNL     1       5.306  -1.960  -7.122  1.00  0.00    -0.248 NA
ATOM     15  C   UNL     1       4.893  -2.741  -4.969  1.00  0.00     0.031 C 
ATOM     16  C   UNL     1       5.369   2.228  -5.550  1.00  0.00     0.029 A 
ATOM     17  N   UNL     1       5.910   0.931  -7.289  1.00  0.00    -0.354 N 
ATOM     18  C   UNL     1       5.186  -3.344  -7.154  1.00  0.00     0.074 A 
ATOM     19  C   UNL     1       4.932  -3.778  -5.800  1.00  0.00     0.031 C 
ATOM     20  C   UNL     1       5.855   3.028  -6.505  1.00  0.00     0.029 A 
ATOM     21  C   UNL     1       6.264   2.211  -7.641  1.00  0.00     0.049 A 
ATOM     22  H   UNL     1       6.023   0.155  -7.885  1.00  0.00     0.167 HD
ATOM     23  C   UNL     1       5.283  -4.167  -8.224  1.00  0.00     0.031 A 
ATOM     24  C   UNL     1       6.873   2.678  -8.746  1.00  0.00     0.031 A 
ATOM     25  C   UNL     1       5.753  -3.729  -9.514  1.00  0.00     0.049 A 
ATOM     26  C   UNL     1       7.176   1.714  -9.851  1.00  0.00     0.074 A 
ATOM     27  C   UNL     1       5.952  -4.483 -10.657  1.00  0.00     0.029 A 
ATOM     28  N   UNL     1       6.173  -2.438  -9.808  1.00  0.00    -0.354 N 
ATOM     29  N   UNL     1       6.889   0.435  -9.920  1.00  0.00    -0.248 NA
ATOM     30  C   UNL     1       7.866   2.246 -11.030  1.00  0.00     0.031 C 
ATOM     31  C   UNL     1       6.614  -3.681 -11.590  1.00  0.00     0.029 A 
ATOM     32  C   UNL     1       6.718  -2.396 -11.079  1.00  0.00     0.049 A 
ATOM     33  H   UNL     1       6.095  -1.667  -9.201  1.00  0.00     0.167 HD
ATOM     34  C   UNL     1       7.345   0.010 -11.160  1.00  0.00     0.074 A 
ATOM     35  C   UNL     1       7.911   1.175 -11.814  1.00  0.00     0.031 C 
ATOM     36  C   UNL     1       7.296  -1.230 -11.706  1.00  0.00     0.031 A 
BRANCH  23  37
ATOM     37  C   UNL     1       4.910  -5.622  -8.064  1.00  0.00    -0.014 A 
ATOM     38  C   UNL     1       5.884  -6.629  -8.195  1.00  0.00     0.010 A 
ATOM     39  C   UNL     1       3.558  -5.996  -7.950  1.00  0.00     0.010 A 
ATOM     40  C   UNL     1       5.511  -7.977  -8.259  1.00  0.00     0.020 A 
ATOM     41  C   UNL     1       3.183  -7.345  -7.993  1.00  0.00     0.020 A 
ATOM     42  C   UNL     1       4.161  -8.325  -8.171  1.00  0.00     0.054 A 
BRANCH  42  43
ATOM     43  S   UNL     1       3.698 -10.075  -8.322  1.00  0.00     0.124 S 
ATOM     44  O   UNL     1       4.007 -10.359  -9.720  1.00  0.00    -0.237 OA
ATOM     45  O   UNL     1       4.568 -10.715  -7.338  1.00  0.00    -0.237 OA
ATOM     46  O   UNL     1       2.276 -10.084  -7.982  1.00  0.00    -0.744 OA
ENDBRANCH  42  43
ENDBRANCH  23  37
BRANCH  24  47
ATOM     47  C   UNL     1       7.183   4.131  -8.826  1.00  0.00    -0.014 A 
ATOM     48  C   UNL     1       8.085   4.715  -7.913  1.00  0.00     0.010 A 
ATOM     49  C   UNL     1       6.474   4.961  -9.709  1.00  0.00     0.010 A 
ATOM     50  C   UNL     1       8.211   6.103  -7.827  1.00  0.00     0.020 A 
ATOM     51  C   UNL     1       6.626   6.351  -9.651  1.00  0.00     0.020 A 
ATOM     52  C   UNL     1       7.467   6.912  -8.686  1.00  0.00     0.054 A 
BRANCH  52  53
ATOM     53  S   UNL     1       7.586   8.712  -8.501  1.00  0.00     0.124 S 
ATOM     54  O   UNL     1       6.847   8.935  -7.261  1.00  0.00    -0.237 OA
ATOM     55  O   UNL     1       9.028   8.927  -8.421  1.00  0.00    -0.237 OA
ATOM     56  O   UNL     1       6.948   9.224  -9.711  1.00  0.00    -0.744 OA
ENDBRANCH  52  53
ENDBRANCH  24  47
BRANCH  36  57
ATOM     57  C   UNL     1       7.891  -1.420 -13.076  1.00  0.00    -0.014 A 
ATOM     58  C   UNL     1       7.062  -1.799 -14.149  1.00  0.00     0.010 A 
ATOM     59  C   UNL     1       9.283  -1.371 -13.267  1.00  0.00     0.010 A 
ATOM     60  C   UNL     1       7.617  -2.186 -15.369  1.00  0.00     0.020 A 
ATOM     61  C   UNL     1       9.839  -1.719 -14.500  1.00  0.00     0.020 A 
ATOM     62  C   UNL     1       9.005  -2.157 -15.531  1.00  0.00     0.054 A 
BRANCH  62  63
ATOM     63  S   UNL     1       9.709  -2.730 -17.100  1.00  0.00     0.124 S 
ATOM     64  O   UNL     1       9.521  -4.175 -17.010  1.00  0.00    -0.237 OA
ATOM     65  O   UNL     1       8.880  -2.046 -18.090  1.00  0.00    -0.237 OA
ATOM     66  O   UNL     1      11.096  -2.276 -17.040  1.00  0.00    -0.744 OA
ENDBRANCH  62  63
ENDBRANCH  36  57
ENDBRANCH  10  11
ENDBRANCH   3   5
ENDBRANCH   2   3
ENDBRANCH   1   2
BRANCH   1  67
ATOM     67  C   UNL     1       3.853  -1.954   0.860  1.00  0.00     0.275 C 
BRANCH  67  68
ATOM     68  O   UNL     1       3.280  -1.957  -0.455  1.00  0.00    -0.458 OA
BRANCH  68  69
ATOM     69  C   UNL     1       1.920  -2.011  -0.509  1.00  0.00     0.340 C 
ATOM     70  O   UNL     1       1.162  -2.105   0.444  1.00  0.00    -0.246 OA
BRANCH  69  71
ATOM     71  C   UNL     1       1.501  -1.988  -1.926  1.00  0.00     0.086 A 
ATOM     72  C   UNL     1       2.032  -2.963  -2.781  1.00  0.00     0.018 A 
ATOM     73  C   UNL     1       0.612  -1.003  -2.377  1.00  0.00     0.087 A 
ATOM     74  C   UNL     1       1.682  -2.961  -4.122  1.00  0.00     0.002 A 
ATOM     75  C   UNL     1       0.282  -0.988  -3.758  1.00  0.00     0.013 A 
ATOM     76  N   UNL     1       0.134  -0.059  -1.540  1.00  0.00    -0.240 NA
ATOM     77  C   UNL     1       0.831  -1.974  -4.609  1.00  0.00     0.011 A 
ATOM     78  C   UNL     1      -0.568   0.045  -4.232  1.00  0.00     0.068 A 
ATOM     79  C   UNL     1      -0.655   0.923  -2.015  1.00  0.00     0.107 A 
ATOM     80  C   UNL     1      -1.024   1.020  -3.338  1.00  0.00     0.049 A 
ATOM     81  Br  UNL     1      -1.240   2.253  -0.799  1.00  0.00    -0.029 Br
BRANCH  78  82
ATOM     82  C   UNL     1      -0.984   0.140  -5.681  1.00  0.00     0.417 C 
ATOM     83  F   UNL     1       0.065   0.371  -6.513  1.00  0.00    -0.166 F 
ATOM     84  F   UNL     1      -1.589  -0.995  -6.128  1.00  0.00    -0.166 F 
ATOM     85  F   UNL     1      -1.876   1.143  -5.919  1.00  0.00    -0.166 F 
ENDBRANCH  78  82
ENDBRANCH  69  71
ENDBRANCH  68  69
ENDBRANCH  67  68
ENDBRANCH   1  67
TORSDOF 15
