REMARK SMILES O=C(CC1(NC(=O)C2(c3ccccc3)CC2)CCC1)OCCOC(=O)c1ccc(-c2c3nc(c(-c4ccc(S(=O)(=O)[O-])cc4)c4ccc([nH]4)c(-c4ccc(S(=O)(=O)[O-])cc4)c4nc(c(-c5ccc(S(=O)(=O)[O-])cc5)c5ccc2[nH]5)C=C4)C=C3)cc1
REMARK SMILES IDX 21 1 20 2 2 3 1 4 3 5 4 6 17 7 19 8 18 9 5 10 6 11 7 13 8 14
REMARK SMILES IDX 15 15 16 16 9 17 10 18 14 19 11 20 13 21 12 22 22 23 23 24
REMARK SMILES IDX 24 25 25 26 26 27 27 28 85 29 28 30 84 31 29 32 30 33 31 34
REMARK SMILES IDX 78 35 32 36 83 37 77 38 79 39 33 40 82 41 76 42 75 43 34 45
REMARK SMILES IDX 64 46 45 47 63 48 46 49 49 50 62 51 80 52 47 53 48 54 61 56
REMARK SMILES IDX 81 57 50 58 35 59 36 60 44 61 37 62 43 63 38 64 39 65 40 66
REMARK SMILES IDX 41 67 42 68 65 69 66 70 74 71 67 72 73 73 68 74 69 75 70 76
REMARK SMILES IDX 71 77 72 78 51 79 52 80 60 81 53 82 59 83 54 84 55 85 56 86
REMARK SMILES IDX 57 87 58 88
REMARK H PARENT 5 12 79 44 49 55
REMARK Flexibility Score: inf
ROOT
ATOM      1  C   UNL     1       4.574  -0.662   2.532  1.00  0.00     0.274 C 
ENDROOT
BRANCH   1   2
ATOM      2  O   UNL     1       3.231  -0.374   2.116  1.00  0.00    -0.462 OA
BRANCH   2   3
ATOM      3  C   UNL     1       3.059   0.581   1.139  1.00  0.00     0.308 C 
ATOM      4  O   UNL     1       2.484   1.620   1.443  1.00  0.00    -0.252 OA
BRANCH   3   5
ATOM      5  C   UNL     1       3.474  -0.069  -0.390  1.00  0.00     0.151 C 
BRANCH   5   6
ATOM      6  C   UNL     1       3.764   0.759  -2.387  1.00  0.00     0.051 C 
ATOM      7  C   UNL     1       3.536   2.461  -3.082  1.00  0.00     0.029 C 
ATOM      8  C   UNL     1       5.300   1.126  -3.365  1.00  0.00     0.029 C 
ATOM      9  C   UNL     1       5.040   2.628  -3.294  1.00  0.00     0.005 C 
BRANCH   6  10
ATOM     10  N   UNL     1       2.953   0.068  -3.894  1.00  0.00    -0.349 N 
ATOM     11  C   UNL     1       1.600  -0.201  -4.083  1.00  0.00     0.231 C 
ATOM     12  H   UNL     1       3.546  -0.135  -4.653  1.00  0.00     0.164 HD
ATOM     13  O   UNL     1       1.074  -0.368  -5.173  1.00  0.00    -0.274 OA
BRANCH  11  14
ATOM     14  C   UNL     1       0.901  -0.360  -2.799  1.00  0.00     0.074 C 
ATOM     15  C   UNL     1      -0.512   0.088  -2.574  1.00  0.00     0.023 C 
ATOM     16  C   UNL     1      -0.185  -1.380  -2.596  1.00  0.00     0.023 C 
BRANCH  14  17
ATOM     17  C   UNL     1       1.978  -0.185  -1.809  1.00  0.00    -0.032 A 
ATOM     18  C   UNL     1       2.257   1.442  -1.120  1.00  0.00     0.005 A 
ATOM     19  C   UNL     1       3.412  -1.308  -2.054  1.00  0.00     0.005 A 
ATOM     20  C   UNL     1       3.936   1.945  -0.656  1.00  0.00     0.000 A 
ATOM     21  C   UNL     1       5.055  -0.778  -1.647  1.00  0.00     0.000 A 
ATOM     22  C   UNL     1       5.306   0.833  -0.888  1.00  0.00     0.000 A 
ENDBRANCH  14  17
ENDBRANCH  11  14
ENDBRANCH   6  10
ENDBRANCH   5   6
ENDBRANCH   3   5
ENDBRANCH   2   3
ENDBRANCH   1   2
BRANCH   1  23
ATOM     23  C   UNL     1       4.753  -2.163   2.748  1.00  0.00     0.275 C 
BRANCH  23  24
ATOM     24  O   UNL     1       4.516  -2.898   1.531  1.00  0.00    -0.458 OA
BRANCH  24  25
ATOM     25  C   UNL     1       3.264  -3.407   1.403  1.00  0.00     0.338 C 
ATOM     26  O   UNL     1       2.366  -3.321   2.224  1.00  0.00    -0.246 OA
BRANCH  25  27
ATOM     27  C   UNL     1       3.082  -4.038   0.077  1.00  0.00     0.060 A 
ATOM     28  C   UNL     1       1.799  -4.006  -0.484  1.00  0.00     0.016 A 
ATOM     29  C   UNL     1       4.121  -4.692  -0.592  1.00  0.00     0.016 A 
ATOM     30  C   UNL     1       1.548  -4.638  -1.704  1.00  0.00     0.010 A 
ATOM     31  C   UNL     1       3.864  -5.350  -1.802  1.00  0.00     0.010 A 
ATOM     32  C   UNL     1       2.571  -5.347  -2.351  1.00  0.00    -0.014 A 
BRANCH  32  33
ATOM     33  C   UNL     1       2.235  -6.237  -3.490  1.00  0.00     0.031 A 
ATOM     34  C   UNL     1       1.637  -7.585  -3.192  1.00  0.00     0.074 A 
ATOM     35  C   UNL     1       2.427  -5.858  -4.765  1.00  0.00     0.049 A 
ATOM     36  N   UNL     1       1.267  -8.527  -4.020  1.00  0.00    -0.248 NA
ATOM     37  C   UNL     1       1.414  -7.902  -1.772  1.00  0.00     0.031 C 
ATOM     38  C   UNL     1       2.930  -4.557  -5.201  1.00  0.00     0.029 A 
ATOM     39  N   UNL     1       2.206  -6.544  -5.934  1.00  0.00    -0.354 N 
ATOM     40  C   UNL     1       0.747  -9.539  -3.225  1.00  0.00     0.074 A 
ATOM     41  C   UNL     1       0.853  -9.098  -1.850  1.00  0.00     0.031 C 
ATOM     42  C   UNL     1       2.983  -4.540  -6.545  1.00  0.00     0.029 A 
ATOM     43  C   UNL     1       2.539  -5.835  -7.061  1.00  0.00     0.049 A 
ATOM     44  H   UNL     1       1.843  -7.459  -5.960  1.00  0.00     0.167 HD
ATOM     45  C   UNL     1       0.237 -10.738  -3.594  1.00  0.00     0.031 A 
ATOM     46  C   UNL     1       2.504  -6.193  -8.360  1.00  0.00     0.031 A 
ATOM     47  C   UNL     1       0.191 -11.223  -4.941  1.00  0.00     0.049 A 
ATOM     48  C   UNL     1       2.040  -7.573  -8.744  1.00  0.00     0.074 A 
ATOM     49  C   UNL     1      -0.229 -12.458  -5.402  1.00  0.00     0.029 A 
ATOM     50  N   UNL     1       0.602 -10.498  -6.048  1.00  0.00    -0.354 N 
ATOM     51  N   UNL     1       1.575  -8.529  -7.976  1.00  0.00    -0.248 NA
ATOM     52  C   UNL     1       2.113  -7.926 -10.170  1.00  0.00     0.031 C 
ATOM     53  C   UNL     1      -0.041 -12.490  -6.790  1.00  0.00     0.029 A 
ATOM     54  C   UNL     1       0.472 -11.265  -7.191  1.00  0.00     0.049 A 
ATOM     55  H   UNL     1       0.938  -9.572  -6.024  1.00  0.00     0.167 HD
ATOM     56  C   UNL     1       1.305  -9.598  -8.824  1.00  0.00     0.074 A 
ATOM     57  C   UNL     1       1.643  -9.168 -10.166  1.00  0.00     0.031 C 
ATOM     58  C   UNL     1       0.826 -10.828  -8.516  1.00  0.00     0.031 A 
BRANCH  45  59
ATOM     59  C   UNL     1      -0.247 -11.612  -2.476  1.00  0.00    -0.014 A 
ATOM     60  C   UNL     1      -1.526 -11.421  -1.926  1.00  0.00     0.010 A 
ATOM     61  C   UNL     1       0.623 -12.556  -1.903  1.00  0.00     0.010 A 
ATOM     62  C   UNL     1      -1.906 -12.116  -0.775  1.00  0.00     0.020 A 
ATOM     63  C   UNL     1       0.244 -13.257  -0.757  1.00  0.00     0.020 A 
ATOM     64  C   UNL     1      -1.006 -13.008  -0.183  1.00  0.00     0.054 A 
BRANCH  64  65
ATOM     65  S   UNL     1      -1.470 -13.840   1.361  1.00  0.00     0.124 S 
ATOM     66  O   UNL     1      -1.102 -12.839   2.359  1.00  0.00    -0.237 OA
ATOM     67  O   UNL     1      -2.904 -14.066   1.198  1.00  0.00    -0.237 OA
ATOM     68  O   UNL     1      -0.649 -15.049   1.356  1.00  0.00    -0.744 OA
ENDBRANCH  64  65
ENDBRANCH  45  59
BRANCH  46  69
ATOM     69  C   UNL     1       2.968  -5.238  -9.399  1.00  0.00    -0.014 A 
ATOM     70  C   UNL     1       2.043  -4.529 -10.183  1.00  0.00     0.010 A 
ATOM     71  C   UNL     1       4.344  -5.027  -9.597  1.00  0.00     0.010 A 
ATOM     72  C   UNL     1       2.486  -3.624 -11.152  1.00  0.00     0.020 A 
ATOM     73  C   UNL     1       4.790  -4.114 -10.556  1.00  0.00     0.020 A 
ATOM     74  C   UNL     1       3.857  -3.424 -11.334  1.00  0.00     0.054 A 
BRANCH  74  75
ATOM     75  S   UNL     1       4.437  -2.200 -12.545  1.00  0.00     0.124 S 
ATOM     76  O   UNL     1       4.574  -3.010 -13.751  1.00  0.00    -0.237 OA
ATOM     77  O   UNL     1       3.358  -1.216 -12.564  1.00  0.00    -0.237 OA
ATOM     78  O   UNL     1       5.689  -1.726 -11.960  1.00  0.00    -0.744 OA
ENDBRANCH  74  75
ENDBRANCH  46  69
BRANCH  58  79
ATOM     79  C   UNL     1       0.657 -11.812  -9.637  1.00  0.00    -0.014 A 
ATOM     80  C   UNL     1       1.755 -12.562 -10.093  1.00  0.00     0.010 A 
ATOM     81  C   UNL     1      -0.619 -12.062 -10.171  1.00  0.00     0.010 A 
ATOM     82  C   UNL     1       1.580 -13.550 -11.066  1.00  0.00     0.020 A 
ATOM     83  C   UNL     1      -0.799 -13.055 -11.137  1.00  0.00     0.020 A 
ATOM     84  C   UNL     1       0.303 -13.791 -11.581  1.00  0.00     0.054 A 
BRANCH  84  85
ATOM     85  S   UNL     1       0.071 -15.138 -12.777  1.00  0.00     0.124 S 
ATOM     86  O   UNL     1       0.416 -14.487 -14.038  1.00  0.00    -0.237 OA
ATOM     87  O   UNL     1       1.016 -16.153 -12.316  1.00  0.00    -0.237 OA
ATOM     88  O   UNL     1      -1.337 -15.494 -12.620  1.00  0.00    -0.744 OA
ENDBRANCH  84  85
ENDBRANCH  58  79
ENDBRANCH  32  33
ENDBRANCH  25  27
ENDBRANCH  24  25
ENDBRANCH  23  24
ENDBRANCH   1  23
TORSDOF 18
