REMARK SMILES O=C(CN1C(=O)S/C(=C\c2cccc(F)c2)C1=O)NCC(=O)OCCOC(=O)c1ccc(-c2c3nc(c(-c4ccc(S(=O)(=O)[O-])cc4)c4ccc([nH]4)c(-c4ccc(S(=O)(=O)[O-])cc4)c4nc(c(-c5ccc(S(=O)(=O)[O-])cc5)c5ccc2[nH]5)C=C4)C=C3)cc1
REMARK SMILES IDX 24 1 23 2 21 3 22 4 20 5 19 6 1 7 2 8 3 10 4 11 5 12 17 13
REMARK SMILES IDX 6 14 7 15 8 16 18 17 9 18 10 19 11 20 16 21 12 22 14 23
REMARK SMILES IDX 13 24 15 25 25 26 26 27 27 28 28 29 29 30 30 31 88 32 31 33
REMARK SMILES IDX 87 34 32 35 33 36 34 37 81 38 35 39 86 40 80 41 82 42 36 43
REMARK SMILES IDX 85 44 79 45 78 46 37 48 67 49 48 50 66 51 49 52 52 53 65 54
REMARK SMILES IDX 83 55 50 56 51 57 64 59 84 60 53 61 38 62 39 63 47 64 40 65
REMARK SMILES IDX 46 66 41 67 42 68 43 69 44 70 45 71 68 72 69 73 77 74 70 75
REMARK SMILES IDX 76 76 71 77 72 78 73 79 74 80 75 81 54 82 55 83 63 84 56 85
REMARK SMILES IDX 62 86 57 87 58 88 59 89 60 90 61 91
REMARK H PARENT 19 9 82 47 52 58
REMARK Flexibility Score: inf
ROOT
ATOM      1  C   UNL     1       2.707  -0.152   5.053  1.00  0.00     0.274 C 
ENDROOT
BRANCH   1   2
ATOM      2  O   UNL     1       2.347  -0.017   3.667  1.00  0.00    -0.461 OA
BRANCH   2   3
ATOM      3  C   UNL     1       1.674   1.116   3.327  1.00  0.00     0.325 C 
ATOM      4  O   UNL     1       1.213   1.922   4.127  1.00  0.00    -0.250 OA
BRANCH   3   5
ATOM      5  C   UNL     1       1.531   1.278   1.819  1.00  0.00     0.238 C 
BRANCH   5   6
ATOM      6  N   UNL     1       2.414   0.465   0.994  1.00  0.00    -0.344 N 
ATOM      7  O   UNL     1       0.727  -0.737   0.042  1.00  0.00    -0.273 OA
ATOM      8  C   UNL     1       1.903  -0.375   0.039  1.00  0.00     0.240 C 
ATOM      9  H   UNL     1       3.389   0.519   1.124  1.00  0.00     0.164 HD
BRANCH   8  10
ATOM     10  C   UNL     1       2.889  -0.949  -0.977  1.00  0.00     0.229 C 
BRANCH  10  11
ATOM     11  N   UNL     1       3.768  -0.018  -1.670  1.00  0.00    -0.259 N 
ATOM     12  C   UNL     1       3.371   1.249  -2.005  1.00  0.00     0.294 C 
ATOM     13  C   UNL     1       4.825  -0.523  -2.398  1.00  0.00     0.268 C 
ATOM     14  O   UNL     1       2.325   1.807  -1.714  1.00  0.00    -0.261 OA
ATOM     15  S   UNL     1       4.582   2.016  -3.012  1.00  0.00    -0.022 SA
ATOM     16  C   UNL     1       5.444   0.546  -3.230  1.00  0.00     0.083 C 
ATOM     17  O   UNL     1       5.169  -1.697  -2.437  1.00  0.00    -0.268 OA
ATOM     18  C   UNL     1       6.478   0.314  -4.053  1.00  0.00     0.029 C 
BRANCH  18  19
ATOM     19  C   UNL     1       7.138   1.325  -4.891  1.00  0.00    -0.021 A 
ATOM     20  C   UNL     1       7.814   2.405  -4.304  1.00  0.00     0.008 A 
ATOM     21  C   UNL     1       7.114   1.212  -6.285  1.00  0.00     0.047 A 
ATOM     22  C   UNL     1       8.429   3.377  -5.098  1.00  0.00     0.004 A 
ATOM     23  C   UNL     1       7.733   2.186  -7.065  1.00  0.00     0.123 A 
ATOM     24  C   UNL     1       8.384   3.269  -6.485  1.00  0.00     0.039 A 
ATOM     25  F   UNL     1       7.697   2.078  -8.401  1.00  0.00    -0.207 F 
ENDBRANCH  18  19
ENDBRANCH  10  11
ENDBRANCH   8  10
ENDBRANCH   5   6
ENDBRANCH   3   5
ENDBRANCH   2   3
ENDBRANCH   1   2
BRANCH   1  26
ATOM     26  C   UNL     1       4.212   0.071   5.225  1.00  0.00     0.275 C 
BRANCH  26  27
ATOM     27  O   UNL     1       4.585   1.443   4.994  1.00  0.00    -0.458 OA
BRANCH  27  28
ATOM     28  C   UNL     1       4.825   1.779   3.705  1.00  0.00     0.338 C 
ATOM     29  O   UNL     1       4.761   1.060   2.719  1.00  0.00    -0.246 OA
BRANCH  28  30
ATOM     30  C   UNL     1       5.065   3.226   3.609  1.00  0.00     0.060 A 
ATOM     31  C   UNL     1       4.208   3.981   2.805  1.00  0.00     0.016 A 
ATOM     32  C   UNL     1       6.175   3.816   4.215  1.00  0.00     0.016 A 
ATOM     33  C   UNL     1       4.480   5.324   2.564  1.00  0.00     0.010 A 
ATOM     34  C   UNL     1       6.433   5.171   3.991  1.00  0.00     0.010 A 
ATOM     35  C   UNL     1       5.601   5.928   3.145  1.00  0.00    -0.014 A 
BRANCH  35  36
ATOM     36  C   UNL     1       5.931   7.339   2.824  1.00  0.00     0.031 A 
ATOM     37  C   UNL     1       7.151   7.652   2.001  1.00  0.00     0.074 A 
ATOM     38  C   UNL     1       5.132   8.332   3.259  1.00  0.00     0.049 A 
ATOM     39  N   UNL     1       7.662   8.815   1.691  1.00  0.00    -0.248 NA
ATOM     40  C   UNL     1       7.897   6.503   1.460  1.00  0.00     0.031 C 
ATOM     41  C   UNL     1       3.894   8.150   4.020  1.00  0.00     0.029 A 
ATOM     42  N   UNL     1       5.244   9.692   3.126  1.00  0.00    -0.354 N 
ATOM     43  C   UNL     1       8.800   8.541   0.940  1.00  0.00     0.074 A 
ATOM     44  C   UNL     1       8.919   7.101   0.864  1.00  0.00     0.031 C 
ATOM     45  C   UNL     1       3.359   9.353   4.279  1.00  0.00     0.029 A 
ATOM     46  C   UNL     1       4.243  10.391   3.759  1.00  0.00     0.049 A 
ATOM     47  H   UNL     1       5.972  10.127   2.624  1.00  0.00     0.167 HD
ATOM     48  C   UNL     1       9.662   9.413   0.365  1.00  0.00     0.031 A 
ATOM     49  C   UNL     1       4.075  11.716   3.930  1.00  0.00     0.031 A 
ATOM     50  C   UNL     1       9.534  10.845   0.450  1.00  0.00     0.049 A 
ATOM     51  C   UNL     1       5.093  12.662   3.350  1.00  0.00     0.074 A 
ATOM     52  C   UNL     1      10.352  11.815  -0.104  1.00  0.00     0.029 A 
ATOM     53  N   UNL     1       8.527  11.512   1.131  1.00  0.00    -0.354 N 
ATOM     54  N   UNL     1       6.165  12.388   2.644  1.00  0.00    -0.248 NA
ATOM     55  C   UNL     1       4.876  14.095   3.587  1.00  0.00     0.031 C 
ATOM     56  C   UNL     1       9.874  13.067   0.295  1.00  0.00     0.029 A 
ATOM     57  C   UNL     1       8.716  12.880   1.033  1.00  0.00     0.049 A 
ATOM     58  H   UNL     1       7.787  11.078   1.612  1.00  0.00     0.167 HD
ATOM     59  C   UNL     1       6.729  13.617   2.322  1.00  0.00     0.074 A 
ATOM     60  C   UNL     1       5.875  14.634   2.900  1.00  0.00     0.031 C 
ATOM     61  C   UNL     1       7.852  13.881   1.608  1.00  0.00     0.031 A 
BRANCH  48  62
ATOM     62  C   UNL     1      10.843   8.844  -0.378  1.00  0.00    -0.014 A 
ATOM     63  C   UNL     1      10.683   8.169  -1.602  1.00  0.00     0.010 A 
ATOM     64  C   UNL     1      12.141   9.029   0.134  1.00  0.00     0.010 A 
ATOM     65  C   UNL     1      11.794   7.658  -2.279  1.00  0.00     0.020 A 
ATOM     66  C   UNL     1      13.258   8.547  -0.555  1.00  0.00     0.020 A 
ATOM     67  C   UNL     1      13.074   7.849  -1.750  1.00  0.00     0.054 A 
BRANCH  67  68
ATOM     68  S   UNL     1      14.497   7.193  -2.664  1.00  0.00     0.124 S 
ATOM     69  O   UNL     1      14.334   5.753  -2.477  1.00  0.00    -0.237 OA
ATOM     70  O   UNL     1      14.256   7.680  -4.020  1.00  0.00    -0.237 OA
ATOM     71  O   UNL     1      15.649   7.783  -1.987  1.00  0.00    -0.744 OA
ENDBRANCH  67  68
ENDBRANCH  48  62
BRANCH  49  72
ATOM     72  C   UNL     1       2.913  12.227   4.710  1.00  0.00    -0.014 A 
ATOM     73  C   UNL     1       1.899  12.972   4.083  1.00  0.00     0.010 A 
ATOM     74  C   UNL     1       2.818  11.972   6.091  1.00  0.00     0.010 A 
ATOM     75  C   UNL     1       0.827  13.474   4.827  1.00  0.00     0.020 A 
ATOM     76  C   UNL     1       1.730  12.443   6.831  1.00  0.00     0.020 A 
ATOM     77  C   UNL     1       0.749  13.205   6.196  1.00  0.00     0.054 A 
BRANCH  77  78
ATOM     78  S   UNL     1      -0.669  13.840   7.133  1.00  0.00     0.124 S 
ATOM     79  O   UNL     1      -0.388  15.271   7.175  1.00  0.00    -0.237 OA
ATOM     80  O   UNL     1      -1.800  13.441   6.300  1.00  0.00    -0.237 OA
ATOM     81  O   UNL     1      -0.572  13.145   8.414  1.00  0.00    -0.744 OA
ENDBRANCH  77  78
ENDBRANCH  49  72
BRANCH  61  82
ATOM     82  C   UNL     1       8.196  15.327   1.360  1.00  0.00    -0.014 A 
ATOM     83  C   UNL     1       8.658  16.161   2.393  1.00  0.00     0.010 A 
ATOM     84  C   UNL     1       8.109  15.840   0.052  1.00  0.00     0.010 A 
ATOM     85  C   UNL     1       8.999  17.491   2.127  1.00  0.00     0.020 A 
ATOM     86  C   UNL     1       8.480  17.158  -0.224  1.00  0.00     0.020 A 
ATOM     87  C   UNL     1       8.910  17.979   0.819  1.00  0.00     0.054 A 
BRANCH  87  88
ATOM     88  S   UNL     1       9.408  19.692   0.493  1.00  0.00     0.124 S 
ATOM     89  O   UNL     1       8.321  20.448   1.108  1.00  0.00    -0.237 OA
ATOM     90  O   UNL     1      10.699  19.784   1.170  1.00  0.00    -0.237 OA
ATOM     91  O   UNL     1       9.469  19.765  -0.965  1.00  0.00    -0.744 OA
ENDBRANCH  87  88
ENDBRANCH  61  82
ENDBRANCH  35  36
ENDBRANCH  28  30
ENDBRANCH  27  28
ENDBRANCH  26  27
ENDBRANCH   1  26
TORSDOF 18
