REMARK SMILES Cc1cnn(-c2ccccc2OCC(=O)OCCOC(=O)c2ccc(-c3c4nc(c(-c5ccc(S(=O)(=O)[O-])cc5)c5ccc([nH]5)c(-c5ccc(S(=O)(=O)[O-])cc5)c5nc(c(-c6ccc(S(=O)(=O)[O-])cc6)c6ccc3[nH]6)C=C5)C=C4)cc2)c1
REMARK SMILES IDX 17 1 16 2 14 3 15 4 13 5 12 6 11 7 6 8 7 9 8 10 10 11 9 12
REMARK SMILES IDX 5 13 1 14 2 15 3 16 82 17 4 18 18 19 19 20 20 21 21 22 22 23
REMARK SMILES IDX 23 24 81 25 24 26 80 27 25 28 26 29 27 30 74 31 28 32 79 33
REMARK SMILES IDX 73 34 75 35 29 36 78 37 72 38 71 39 30 41 60 42 41 43 59 44
REMARK SMILES IDX 42 45 45 46 58 47 76 48 43 49 44 50 57 52 77 53 46 54 31 55
REMARK SMILES IDX 32 56 40 57 33 58 39 59 34 60 35 61 36 62 37 63 38 64 61 65
REMARK SMILES IDX 62 66 70 67 63 68 69 69 64 70 65 71 66 72 67 73 68 74 47 75
REMARK SMILES IDX 48 76 56 77 49 78 55 79 50 80 51 81 52 82 53 83 54 84
REMARK H PARENT 75 40 45 51
REMARK Flexibility Score: inf
ROOT
ATOM      1  C   UNL     1       3.943   2.085  -1.881  1.00  0.00     0.274 C 
ENDROOT
BRANCH   1   2
ATOM      2  O   UNL     1       2.888   3.006  -2.209  1.00  0.00    -0.460 OA
BRANCH   2   3
ATOM      3  C   UNL     1       1.882   2.519  -2.991  1.00  0.00     0.344 C 
ATOM      4  O   UNL     1       1.892   1.409  -3.513  1.00  0.00    -0.248 OA
BRANCH   3   5
ATOM      5  C   UNL     1       0.698   3.490  -3.096  1.00  0.00     0.352 C 
BRANCH   5   6
ATOM      6  O   UNL     1       0.976   4.790  -2.631  1.00  0.00    -0.480 OA
BRANCH   6   7
ATOM      7  C   UNL     1       0.541   5.338  -1.462  1.00  0.00     0.145 A 
ATOM      8  C   UNL     1      -0.229   4.854  -0.391  1.00  0.00     0.107 A 
ATOM      9  C   UNL     1      -0.573   5.735   0.668  1.00  0.00     0.032 A 
ATOM     10  C   UNL     1      -0.097   7.046   0.713  1.00  0.00     0.003 A 
ATOM     11  C   UNL     1       0.962   6.686  -1.409  1.00  0.00     0.049 A 
ATOM     12  C   UNL     1       0.672   7.524  -0.333  1.00  0.00     0.004 A 
BRANCH   8  13
ATOM     13  N   UNL     1      -0.574   3.494  -0.163  1.00  0.00    -0.237 N 
ATOM     14  C   UNL     1       0.178  -0.064   0.383  1.00  0.00     0.048 C 
ATOM     15  C   UNL     1      -0.370   1.304   0.259  1.00  0.00    -0.013 A 
ATOM     16  C   UNL     1      -1.599   1.825   0.701  1.00  0.00     0.139 A 
ATOM     17  C   UNL     1       0.263   2.404  -0.262  1.00  0.00     0.118 A 
ATOM     18  N   UNL     1      -1.719   3.138   0.483  1.00  0.00    -0.176 NA
ENDBRANCH   8  13
ENDBRANCH   6   7
ENDBRANCH   5   6
ENDBRANCH   3   5
ENDBRANCH   2   3
ENDBRANCH   1   2
BRANCH   1  19
ATOM     19  C   UNL     1       4.742   2.568  -0.665  1.00  0.00     0.275 C 
BRANCH  19  20
ATOM     20  O   UNL     1       4.080   2.289   0.584  1.00  0.00    -0.458 OA
BRANCH  20  21
ATOM     21  C   UNL     1       3.271   3.281   0.990  1.00  0.00     0.338 C 
ATOM     22  O   UNL     1       2.934   4.262   0.316  1.00  0.00    -0.246 OA
BRANCH  21  23
ATOM     23  C   UNL     1       2.865   3.164   2.390  1.00  0.00     0.060 A 
ATOM     24  C   UNL     1       1.593   3.639   2.718  1.00  0.00     0.016 A 
ATOM     25  C   UNL     1       3.838   2.986   3.373  1.00  0.00     0.016 A 
ATOM     26  C   UNL     1       1.351   4.164   3.964  1.00  0.00     0.010 A 
ATOM     27  C   UNL     1       3.587   3.487   4.642  1.00  0.00     0.010 A 
ATOM     28  C   UNL     1       2.393   4.185   4.883  1.00  0.00    -0.014 A 
BRANCH  28  29
ATOM     29  C   UNL     1       2.211   5.045   6.051  1.00  0.00     0.031 A 
ATOM     30  C   UNL     1       1.126   4.662   6.998  1.00  0.00     0.074 A 
ATOM     31  C   UNL     1       3.059   6.072   6.265  1.00  0.00     0.049 A 
ATOM     32  N   UNL     1       0.274   5.417   7.619  1.00  0.00    -0.248 NA
ATOM     33  C   UNL     1       0.928   3.219   7.221  1.00  0.00     0.031 C 
ATOM     34  C   UNL     1       4.254   6.399   5.475  1.00  0.00     0.029 A 
ATOM     35  N   UNL     1       3.144   6.925   7.327  1.00  0.00    -0.354 N 
ATOM     36  C   UNL     1      -0.451   4.560   8.444  1.00  0.00     0.074 A 
ATOM     37  C   UNL     1      -0.100   3.216   8.063  1.00  0.00     0.031 C 
ATOM     38  C   UNL     1       5.087   7.137   6.234  1.00  0.00     0.029 A 
ATOM     39  C   UNL     1       4.432   7.418   7.499  1.00  0.00     0.049 A 
ATOM     40  H   UNL     1       2.382   7.163   7.903  1.00  0.00     0.167 HD
ATOM     41  C   UNL     1      -1.132   4.977   9.545  1.00  0.00     0.031 A 
ATOM     42  C   UNL     1       4.982   7.878   8.648  1.00  0.00     0.031 A 
ATOM     43  C   UNL     1      -1.485   6.365   9.504  1.00  0.00     0.049 A 
ATOM     44  C   UNL     1       3.886   8.221   9.580  1.00  0.00     0.074 A 
ATOM     45  C   UNL     1      -2.310   7.136   8.712  1.00  0.00     0.029 A 
ATOM     46  N   UNL     1      -0.719   7.242  10.230  1.00  0.00    -0.354 N 
ATOM     47  N   UNL     1       3.045   9.197   9.386  1.00  0.00    -0.248 NA
ATOM     48  C   UNL     1       3.483   7.248  10.585  1.00  0.00     0.031 C 
ATOM     49  C   UNL     1      -1.724   8.433   8.700  1.00  0.00     0.029 A 
ATOM     50  C   UNL     1      -0.568   8.383   9.482  1.00  0.00     0.049 A 
ATOM     51  H   UNL     1      -0.345   7.082  11.127  1.00  0.00     0.167 HD
ATOM     52  C   UNL     1       1.850   8.756   9.932  1.00  0.00     0.074 A 
ATOM     53  C   UNL     1       2.217   7.628  10.779  1.00  0.00     0.031 C 
ATOM     54  C   UNL     1       0.650   9.168   9.427  1.00  0.00     0.031 A 
BRANCH  41  55
ATOM     55  C   UNL     1      -1.151   4.159  10.815  1.00  0.00    -0.014 A 
ATOM     56  C   UNL     1      -1.984   4.533  11.886  1.00  0.00     0.010 A 
ATOM     57  C   UNL     1      -0.169   3.178  11.079  1.00  0.00     0.010 A 
ATOM     58  C   UNL     1      -1.807   3.981  13.165  1.00  0.00     0.020 A 
ATOM     59  C   UNL     1      -0.017   2.588  12.332  1.00  0.00     0.020 A 
ATOM     60  C   UNL     1      -0.812   3.024  13.380  1.00  0.00     0.054 A 
BRANCH  60  61
ATOM     61  S   UNL     1      -0.495   2.410  15.053  1.00  0.00     0.124 S 
ATOM     62  O   UNL     1       0.112   3.576  15.686  1.00  0.00    -0.237 OA
ATOM     63  O   UNL     1      -1.834   2.059  15.518  1.00  0.00    -0.237 OA
ATOM     64  O   UNL     1       0.400   1.276  14.836  1.00  0.00    -0.744 OA
ENDBRANCH  60  61
ENDBRANCH  41  55
BRANCH  42  65
ATOM     65  C   UNL     1       6.392   7.681   9.070  1.00  0.00    -0.014 A 
ATOM     66  C   UNL     1       6.959   8.441  10.105  1.00  0.00     0.010 A 
ATOM     67  C   UNL     1       7.129   6.576   8.589  1.00  0.00     0.010 A 
ATOM     68  C   UNL     1       8.208   8.094  10.650  1.00  0.00     0.020 A 
ATOM     69  C   UNL     1       8.378   6.236   9.111  1.00  0.00     0.020 A 
ATOM     70  C   UNL     1       8.906   6.989  10.153  1.00  0.00     0.054 A 
BRANCH  70  71
ATOM     71  S   UNL     1      10.458   6.474  10.942  1.00  0.00     0.124 S 
ATOM     72  O   UNL     1      11.368   7.552  10.568  1.00  0.00    -0.237 OA
ATOM     73  O   UNL     1      10.091   6.416  12.354  1.00  0.00    -0.237 OA
ATOM     74  O   UNL     1      10.745   5.179  10.326  1.00  0.00    -0.744 OA
ENDBRANCH  70  71
ENDBRANCH  42  65
BRANCH  54  75
ATOM     75  C   UNL     1       0.651  10.341   8.471  1.00  0.00    -0.014 A 
ATOM     76  C   UNL     1       1.292  10.290   7.217  1.00  0.00     0.010 A 
ATOM     77  C   UNL     1      -0.146  11.460   8.770  1.00  0.00     0.010 A 
ATOM     78  C   UNL     1       1.157  11.336   6.295  1.00  0.00     0.020 A 
ATOM     79  C   UNL     1      -0.299  12.501   7.846  1.00  0.00     0.020 A 
ATOM     80  C   UNL     1       0.358  12.436   6.615  1.00  0.00     0.054 A 
BRANCH  80  81
ATOM     81  S   UNL     1       0.120  13.745   5.380  1.00  0.00     0.124 S 
ATOM     82  O   UNL     1       1.404  14.440   5.403  1.00  0.00    -0.237 OA
ATOM     83  O   UNL     1      -0.166  12.994   4.159  1.00  0.00    -0.237 OA
ATOM     84  O   UNL     1      -1.009  14.513   5.901  1.00  0.00    -0.744 OA
ENDBRANCH  80  81
ENDBRANCH  54  75
ENDBRANCH  28  29
ENDBRANCH  21  23
ENDBRANCH  20  21
ENDBRANCH  19  20
ENDBRANCH   1  19
TORSDOF 17
