REMARK SMILES CC(C)(C)N(CC(=O)OCCOC(=O)c1ccc(-c2c3nc(c(-c4ccc(S(=O)(=O)[O-])cc4)c4ccc([nH]4)c(-c4ccc(S(=O)(=O)[O-])cc4)c4nc(c(-c5ccc(S(=O)(=O)[O-])cc5)c5ccc2[nH]5)C=C4)C=C3)cc1)C(=O)C1C[NH2+]C1
REMARK SMILES IDX 10 1 9 2 7 3 8 4 6 5 5 6 2 7 1 8 3 9 4 10 75 11 76 12 77 13
REMARK SMILES IDX 78 14 80 15 79 16 11 19 12 20 13 21 14 22 15 23 16 24 74 25
REMARK SMILES IDX 17 26 73 27 18 28 19 29 20 30 67 31 21 32 72 33 66 34 68 35
REMARK SMILES IDX 22 36 71 37 65 38 64 39 23 41 53 42 34 43 52 44 35 45 38 46
REMARK SMILES IDX 51 47 69 48 36 49 37 50 50 52 70 53 39 54 24 55 25 56 33 57
REMARK SMILES IDX 26 58 32 59 27 60 28 61 29 62 30 63 31 64 54 65 55 66 63 67
REMARK SMILES IDX 56 68 62 69 57 70 58 71 59 72 60 73 61 74 40 75 41 76 49 77
REMARK SMILES IDX 42 78 48 79 43 80 44 81 45 82 46 83 47 84
REMARK H PARENT 79 17 79 18 68 40 38 51
REMARK Flexibility Score: inf
ROOT
ATOM      1  C   UNL     1       5.009   1.768   2.252  1.00  0.00     0.274 C 
ENDROOT
BRANCH   1   2
ATOM      2  O   UNL     1       3.575   1.776   2.100  1.00  0.00    -0.461 OA
BRANCH   2   3
ATOM      3  C   UNL     1       2.964   0.598   2.403  1.00  0.00     0.325 C 
ATOM      4  O   UNL     1       3.553  -0.429   2.728  1.00  0.00    -0.250 OA
BRANCH   3   5
ATOM      5  C   UNL     1       1.445   0.712   2.486  1.00  0.00     0.242 C 
BRANCH   5   6
ATOM      6  N   UNL     1       0.774   1.755   1.696  1.00  0.00    -0.326 N 
BRANCH   6   7
ATOM      7  C   UNL     1       0.535   1.508   0.229  1.00  0.00     0.035 C 
ATOM      8  C   UNL     1       1.188   0.202  -0.297  1.00  0.00     0.034 C 
ATOM      9  C   UNL     1       1.118   2.644  -0.639  1.00  0.00     0.034 C 
ATOM     10  C   UNL     1      -0.982   1.366  -0.025  1.00  0.00     0.034 C 
ENDBRANCH   6   7
BRANCH   6  11
ATOM     11  C   UNL     1       0.264   2.929   2.303  1.00  0.00     0.238 C 
ATOM     12  O   UNL     1      -0.289   3.804   1.623  1.00  0.00    -0.274 OA
BRANCH  11  13
ATOM     13  C   UNL     1       0.400   3.106   3.829  1.00  0.00     0.188 C 
ATOM     14  C   UNL     1      -0.337   4.316   4.469  1.00  0.00     0.280 C 
ATOM     15  C   UNL     1      -0.530   2.293   4.765  1.00  0.00     0.280 C 
ATOM     16  N   UNL     1      -0.595   3.470   5.660  1.00  0.00    -0.345 N 
ATOM     17  H   UNL     1      -1.504   3.620   6.099  1.00  0.00     0.346 HD
ATOM     18  H   UNL     1      -0.019   3.537   6.499  1.00  0.00     0.346 HD
ENDBRANCH  11  13
ENDBRANCH   6  11
ENDBRANCH   5   6
ENDBRANCH   3   5
ENDBRANCH   2   3
ENDBRANCH   1   2
BRANCH   1  19
ATOM     19  C   UNL     1       5.417   2.311   3.623  1.00  0.00     0.275 C 
BRANCH  19  20
ATOM     20  O   UNL     1       4.704   1.624   4.669  1.00  0.00    -0.458 OA
BRANCH  20  21
ATOM     21  C   UNL     1       4.061   2.420   5.553  1.00  0.00     0.338 C 
ATOM     22  O   UNL     1       4.077   3.643   5.574  1.00  0.00    -0.246 OA
BRANCH  21  23
ATOM     23  C   UNL     1       3.271   1.631   6.523  1.00  0.00     0.060 A 
ATOM     24  C   UNL     1       2.597   0.464   6.154  1.00  0.00     0.016 A 
ATOM     25  C   UNL     1       3.099   2.152   7.809  1.00  0.00     0.016 A 
ATOM     26  C   UNL     1       1.676  -0.116   7.033  1.00  0.00     0.010 A 
ATOM     27  C   UNL     1       2.242   1.520   8.714  1.00  0.00     0.010 A 
ATOM     28  C   UNL     1       1.484   0.406   8.323  1.00  0.00    -0.014 A 
BRANCH  28  29
ATOM     29  C   UNL     1       0.495  -0.191   9.264  1.00  0.00     0.031 A 
ATOM     30  C   UNL     1      -0.653   0.631   9.802  1.00  0.00     0.074 A 
ATOM     31  C   UNL     1       0.632  -1.470   9.667  1.00  0.00     0.049 A 
ATOM     32  N   UNL     1      -1.519   0.331  10.737  1.00  0.00    -0.248 NA
ATOM     33  C   UNL     1      -0.844   1.969   9.220  1.00  0.00     0.031 C 
ATOM     34  C   UNL     1       1.680  -2.392   9.226  1.00  0.00     0.029 A 
ATOM     35  N   UNL     1      -0.117  -2.214  10.546  1.00  0.00    -0.354 N 
ATOM     36  C   UNL     1      -2.328   1.454  10.885  1.00  0.00     0.074 A 
ATOM     37  C   UNL     1      -1.847   2.444   9.946  1.00  0.00     0.031 C 
ATOM     38  C   UNL     1       1.491  -3.584   9.813  1.00  0.00     0.029 A 
ATOM     39  C   UNL     1       0.354  -3.493  10.722  1.00  0.00     0.049 A 
ATOM     40  H   UNL     1      -0.914  -1.864  11.005  1.00  0.00     0.167 HD
ATOM     41  C   UNL     1      -3.372   1.648  11.726  1.00  0.00     0.031 A 
ATOM     42  C   UNL     1      -0.055  -4.477  11.545  1.00  0.00     0.031 A 
ATOM     43  C   UNL     1      -3.877   0.658  12.642  1.00  0.00     0.049 A 
ATOM     44  C   UNL     1      -1.207  -4.239  12.475  1.00  0.00     0.074 A 
ATOM     45  C   UNL     1      -4.943   0.761  13.520  1.00  0.00     0.029 A 
ATOM     46  N   UNL     1      -3.360  -0.619  12.792  1.00  0.00    -0.354 N 
ATOM     47  N   UNL     1      -1.930  -3.157  12.626  1.00  0.00    -0.248 NA
ATOM     48  C   UNL     1      -1.589  -5.354  13.353  1.00  0.00     0.031 C 
ATOM     49  C   UNL     1      -5.052  -0.445  14.223  1.00  0.00     0.029 A 
ATOM     50  C   UNL     1      -4.077  -1.310  13.755  1.00  0.00     0.049 A 
ATOM     51  H   UNL     1      -2.596  -0.981  12.288  1.00  0.00     0.167 HD
ATOM     52  C   UNL     1      -2.856  -3.459  13.617  1.00  0.00     0.074 A 
ATOM     53  C   UNL     1      -2.614  -4.832  14.014  1.00  0.00     0.031 C 
ATOM     54  C   UNL     1      -3.816  -2.668  14.153  1.00  0.00     0.031 A 
BRANCH  41  55
ATOM     55  C   UNL     1      -4.030   3.002  11.722  1.00  0.00    -0.014 A 
ATOM     56  C   UNL     1      -4.915   3.382  10.698  1.00  0.00     0.010 A 
ATOM     57  C   UNL     1      -3.803   3.885  12.794  1.00  0.00     0.010 A 
ATOM     58  C   UNL     1      -5.542   4.631  10.733  1.00  0.00     0.020 A 
ATOM     59  C   UNL     1      -4.442   5.127  12.842  1.00  0.00     0.020 A 
ATOM     60  C   UNL     1      -5.299   5.498  11.804  1.00  0.00     0.054 A 
BRANCH  60  61
ATOM     61  S   UNL     1      -6.154   7.098  11.853  1.00  0.00     0.124 S 
ATOM     62  O   UNL     1      -5.369   7.889  10.909  1.00  0.00    -0.237 OA
ATOM     63  O   UNL     1      -7.506   6.758  11.416  1.00  0.00    -0.237 OA
ATOM     64  O   UNL     1      -6.042   7.506  13.252  1.00  0.00    -0.744 OA
ENDBRANCH  60  61
ENDBRANCH  41  55
BRANCH  42  65
ATOM     65  C   UNL     1       0.667  -5.775  11.535  1.00  0.00    -0.014 A 
ATOM     66  C   UNL     1       0.101  -6.898  10.910  1.00  0.00     0.010 A 
ATOM     67  C   UNL     1       1.955  -5.872  12.093  1.00  0.00     0.010 A 
ATOM     68  C   UNL     1       0.816  -8.096  10.831  1.00  0.00     0.020 A 
ATOM     69  C   UNL     1       2.681  -7.061  11.996  1.00  0.00     0.020 A 
ATOM     70  C   UNL     1       2.105  -8.167  11.368  1.00  0.00     0.054 A 
BRANCH  70  71
ATOM     71  S   UNL     1       3.069  -9.691  11.160  1.00  0.00     0.124 S 
ATOM     72  O   UNL     1       2.595 -10.504  12.275  1.00  0.00    -0.237 OA
ATOM     73  O   UNL     1       2.671 -10.146   9.830  1.00  0.00    -0.237 OA
ATOM     74  O   UNL     1       4.452  -9.229  11.261  1.00  0.00    -0.744 OA
ENDBRANCH  70  71
ENDBRANCH  42  65
BRANCH  54  75
ATOM     75  C   UNL     1      -4.682  -3.276  15.220  1.00  0.00    -0.014 A 
ATOM     76  C   UNL     1      -4.199  -3.446  16.529  1.00  0.00     0.010 A 
ATOM     77  C   UNL     1      -5.994  -3.674  14.912  1.00  0.00     0.010 A 
ATOM     78  C   UNL     1      -5.002  -4.042  17.505  1.00  0.00     0.020 A 
ATOM     79  C   UNL     1      -6.806  -4.255  15.889  1.00  0.00     0.020 A 
ATOM     80  C   UNL     1      -6.297  -4.453  17.175  1.00  0.00     0.054 A 
BRANCH  80  81
ATOM     81  S   UNL     1      -7.330  -5.221  18.454  1.00  0.00     0.124 S 
ATOM     82  O   UNL     1      -6.837  -6.595  18.455  1.00  0.00    -0.237 OA
ATOM     83  O   UNL     1      -7.010  -4.438  19.646  1.00  0.00    -0.237 OA
ATOM     84  O   UNL     1      -8.690  -5.045  17.948  1.00  0.00    -0.744 OA
ENDBRANCH  80  81
ENDBRANCH  54  75
ENDBRANCH  28  29
ENDBRANCH  21  23
ENDBRANCH  20  21
ENDBRANCH  19  20
ENDBRANCH   1  19
TORSDOF 18
