REMARK SMILES C[NH2+][C@@]1(C(=O)OCCOC(=O)c2ccc(-c3c4nc(c(-c5ccc(S(=O)(=O)[O-])cc5)c5ccc([nH]5)c(-c5ccc(S(=O)(=O)[O-])cc5)c5nc(c(-c6ccc(S(=O)(=O)[O-])cc6)c6ccc3[nH]6)C=C5)C=C4)cc2)CC[C@H]([NH+]2CC[NH+](C)CC2)C1
REMARK SMILES IDX 8 1 7 2 6 3 4 4 5 5 3 6 72 7 82 8 73 9 74 10 2 11 1 12 75 15
REMARK SMILES IDX 76 16 81 17 77 19 80 20 78 21 79 22 9 24 10 25 11 26 12 27
REMARK SMILES IDX 13 28 71 29 14 30 70 31 15 32 16 33 17 34 64 35 18 36 69 37
REMARK SMILES IDX 63 38 65 39 19 40 68 41 62 42 61 43 20 45 50 46 31 47 49 48
REMARK SMILES IDX 32 49 35 50 48 51 66 52 33 53 34 54 47 56 67 57 36 58 21 59
REMARK SMILES IDX 22 60 30 61 23 62 29 63 24 64 25 65 26 66 27 67 28 68 51 69
REMARK SMILES IDX 52 70 60 71 53 72 59 73 54 74 55 75 56 76 57 77 58 78 37 79
REMARK SMILES IDX 38 80 46 81 39 82 45 83 40 84 41 85 42 86 43 87 44 88
REMARK H PARENT 2 13 2 14 75 18 78 23 65 44 35 55
REMARK Flexibility Score: inf
ROOT
ATOM      1  C   UNL     1      -1.934   0.180   5.101  1.00  0.00     0.275 C 
ENDROOT
BRANCH   1   2
ATOM      2  C   UNL     1      -2.082   1.302   4.075  1.00  0.00     0.274 C 
BRANCH   2   3
ATOM      3  O   UNL     1      -1.786   0.782   2.764  1.00  0.00    -0.457 OA
BRANCH   3   4
ATOM      4  C   UNL     1      -1.574   1.716   1.793  1.00  0.00     0.368 C 
ATOM      5  O   UNL     1      -1.611   2.923   2.006  1.00  0.00    -0.245 OA
BRANCH   4   6
ATOM      6  C   UNL     1      -1.256   1.052   0.402  1.00  0.00     0.200 C 
ATOM      7  C   UNL     1      -1.669   2.049  -0.694  1.00  0.00     0.087 C 
ATOM      8  C   UNL     1      -2.188  -0.146   0.129  1.00  0.00     0.146 C 
ATOM      9  C   UNL     1      -3.193   1.957  -0.667  1.00  0.00     0.072 C 
ATOM     10  C   UNL     1      -3.478   0.456  -0.483  1.00  0.00     0.191 C 
BRANCH   6  11
ATOM     11  N   UNL     1       0.175   0.685   0.429  1.00  0.00    -0.334 N 
ATOM     12  C   UNL     1       0.771   0.229  -0.817  1.00  0.00     0.331 C 
ATOM     13  H   UNL     1       0.697   1.507   0.735  1.00  0.00     0.347 HD
ATOM     14  H   UNL     1       0.228  -0.119   1.054  1.00  0.00     0.347 HD
ENDBRANCH   6  11
BRANCH  10  15
ATOM     15  N   UNL     1      -4.748   0.016   0.104  1.00  0.00    -0.323 N 
ATOM     16  C   UNL     1      -5.944   0.604  -0.524  1.00  0.00     0.324 C 
ATOM     17  C   UNL     1      -4.903   0.075   1.563  1.00  0.00     0.324 C 
ATOM     18  H   UNL     1      -4.679  -0.977  -0.121  1.00  0.00     0.348 HD
ATOM     19  C   UNL     1      -6.383   1.984   0.028  1.00  0.00     0.324 C 
ATOM     20  C   UNL     1      -5.262   1.461   2.130  1.00  0.00     0.324 C 
ATOM     21  N   UNL     1      -6.448   2.064   1.500  1.00  0.00    -0.328 N 
ATOM     22  C   UNL     1      -6.585   3.456   1.930  1.00  0.00     0.333 C 
ATOM     23  H   UNL     1      -7.268   1.536   1.798  1.00  0.00     0.348 HD
ENDBRANCH  10  15
ENDBRANCH   4   6
ENDBRANCH   3   4
ENDBRANCH   2   3
ENDBRANCH   1   2
BRANCH   1  24
ATOM     24  O   UNL     1      -0.533  -0.101   5.243  1.00  0.00    -0.458 OA
BRANCH  24  25
ATOM     25  C   UNL     1      -0.063  -1.054   4.407  1.00  0.00     0.338 C 
ATOM     26  O   UNL     1      -0.693  -1.889   3.785  1.00  0.00    -0.246 OA
BRANCH  25  27
ATOM     27  C   UNL     1       1.361  -0.789   4.192  1.00  0.00     0.060 A 
ATOM     28  C   UNL     1       1.707   0.242   3.318  1.00  0.00     0.016 A 
ATOM     29  C   UNL     1       2.334  -1.613   4.747  1.00  0.00     0.016 A 
ATOM     30  C   UNL     1       3.024   0.382   2.900  1.00  0.00     0.010 A 
ATOM     31  C   UNL     1       3.671  -1.395   4.410  1.00  0.00     0.010 A 
ATOM     32  C   UNL     1       4.027  -0.422   3.454  1.00  0.00    -0.014 A 
BRANCH  32  33
ATOM     33  C   UNL     1       5.442  -0.286   3.015  1.00  0.00     0.031 A 
ATOM     34  C   UNL     1       6.165  -1.485   2.462  1.00  0.00     0.074 A 
ATOM     35  C   UNL     1       6.085   0.893   3.122  1.00  0.00     0.049 A 
ATOM     36  N   UNL     1       7.448  -1.668   2.287  1.00  0.00    -0.248 NA
ATOM     37  C   UNL     1       5.335  -2.640   2.079  1.00  0.00     0.031 C 
ATOM     38  C   UNL     1       5.492   2.153   3.578  1.00  0.00     0.029 A 
ATOM     39  N   UNL     1       7.391   1.224   2.853  1.00  0.00    -0.354 N 
ATOM     40  C   UNL     1       7.586  -2.982   1.856  1.00  0.00     0.074 A 
ATOM     41  C   UNL     1       6.255  -3.545   1.776  1.00  0.00     0.031 C 
ATOM     42  C   UNL     1       6.418   3.123   3.523  1.00  0.00     0.029 A 
ATOM     43  C   UNL     1       7.692   2.537   3.126  1.00  0.00     0.049 A 
ATOM     44  H   UNL     1       8.047   0.582   2.498  1.00  0.00     0.167 HD
ATOM     45  C   UNL     1       8.724  -3.660   1.572  1.00  0.00     0.031 A 
ATOM     46  C   UNL     1       8.870   3.189   3.114  1.00  0.00     0.031 A 
ATOM     47  C   UNL     1      10.036  -3.069   1.603  1.00  0.00     0.049 A 
ATOM     48  C   UNL     1      10.119   2.423   2.790  1.00  0.00     0.074 A 
ATOM     49  C   UNL     1      11.258  -3.663   1.342  1.00  0.00     0.029 A 
ATOM     50  N   UNL     1      10.291  -1.735   1.886  1.00  0.00    -0.354 N 
ATOM     51  N   UNL     1      10.249   1.153   2.489  1.00  0.00    -0.248 NA
ATOM     52  C   UNL     1      11.383   3.171   2.830  1.00  0.00     0.031 C 
ATOM     53  C   UNL     1      12.256  -2.691   1.489  1.00  0.00     0.029 A 
ATOM     54  C   UNL     1      11.650  -1.485   1.804  1.00  0.00     0.049 A 
ATOM     55  H   UNL     1       9.607  -1.065   2.112  1.00  0.00     0.167 HD
ATOM     56  C   UNL     1      11.610   0.947   2.306  1.00  0.00     0.074 A 
ATOM     57  C   UNL     1      12.258   2.229   2.505  1.00  0.00     0.031 C 
ATOM     58  C   UNL     1      12.267  -0.201   2.012  1.00  0.00     0.031 A 
BRANCH  45  59
ATOM     59  C   UNL     1       8.601  -5.127   1.260  1.00  0.00    -0.014 A 
ATOM     60  C   UNL     1       8.098  -5.582   0.029  1.00  0.00     0.010 A 
ATOM     61  C   UNL     1       9.017  -6.069   2.220  1.00  0.00     0.010 A 
ATOM     62  C   UNL     1       7.974  -6.953  -0.220  1.00  0.00     0.020 A 
ATOM     63  C   UNL     1       8.917  -7.439   1.966  1.00  0.00     0.020 A 
ATOM     64  C   UNL     1       8.376  -7.873   0.754  1.00  0.00     0.054 A 
BRANCH  64  65
ATOM     65  S   UNL     1       8.215  -9.647   0.408  1.00  0.00     0.124 S 
ATOM     66  O   UNL     1       6.788  -9.867   0.627  1.00  0.00    -0.237 OA
ATOM     67  O   UNL     1       8.659  -9.748  -0.980  1.00  0.00    -0.237 OA
ATOM     68  O   UNL     1       9.100 -10.272   1.388  1.00  0.00    -0.744 OA
ENDBRANCH  64  65
ENDBRANCH  45  59
BRANCH  46  69
ATOM     69  C   UNL     1       8.917   4.629   3.482  1.00  0.00    -0.014 A 
ATOM     70  C   UNL     1       9.137   5.609   2.499  1.00  0.00     0.010 A 
ATOM     71  C   UNL     1       8.687   5.031   4.811  1.00  0.00     0.010 A 
ATOM     72  C   UNL     1       9.120   6.966   2.838  1.00  0.00     0.020 A 
ATOM     73  C   UNL     1       8.643   6.386   5.148  1.00  0.00     0.020 A 
ATOM     74  C   UNL     1       8.867   7.346   4.160  1.00  0.00     0.054 A 
BRANCH  74  75
ATOM     75  S   UNL     1       8.754   9.111   4.566  1.00  0.00     0.124 S 
ATOM     76  O   UNL     1      10.160   9.485   4.687  1.00  0.00    -0.237 OA
ATOM     77  O   UNL     1       8.050   9.663   3.412  1.00  0.00    -0.237 OA
ATOM     78  O   UNL     1       7.991   9.123   5.813  1.00  0.00    -0.744 OA
ENDBRANCH  74  75
ENDBRANCH  46  69
BRANCH  58  79
ATOM     79  C   UNL     1      13.759  -0.111   1.869  1.00  0.00    -0.014 A 
ATOM     80  C   UNL     1      14.588  -0.039   3.001  1.00  0.00     0.010 A 
ATOM     81  C   UNL     1      14.337  -0.136   0.587  1.00  0.00     0.010 A 
ATOM     82  C   UNL     1      15.975   0.037   2.853  1.00  0.00     0.020 A 
ATOM     83  C   UNL     1      15.724  -0.079   0.436  1.00  0.00     0.020 A 
ATOM     84  C   UNL     1      16.533   0.022   1.571  1.00  0.00     0.054 A 
BRANCH  84  85
ATOM     85  S   UNL     1      18.337   0.088   1.399  1.00  0.00     0.124 S 
ATOM     86  O   UNL     1      18.609   1.508   1.603  1.00  0.00    -0.237 OA
ATOM     87  O   UNL     1      18.798  -0.799   2.464  1.00  0.00    -0.237 OA
ATOM     88  O   UNL     1      18.572  -0.404   0.043  1.00  0.00    -0.744 OA
ENDBRANCH  84  85
ENDBRANCH  58  79
ENDBRANCH  32  33
ENDBRANCH  25  27
ENDBRANCH  24  25
ENDBRANCH   1  24
TORSDOF 16
