REMARK SMILES CCC[NH2+][C@]1(C(=O)OCCOC(=O)c2ccc(-c3c4nc(c(-c5ccc(S(=O)(=O)[O-])cc5)c5ccc([nH]5)c(-c5ccc(S(=O)(=O)[O-])cc5)c5nc(c(-c6ccc(S(=O)(=O)[O-])cc6)c6ccc3[nH]6)C=C5)C=C4)cc2)CC[C@@H](Sc2nnc(C)n2C)C1
REMARK SMILES IDX 9 1 8 2 6 3 7 4 5 5 74 6 85 7 75 8 76 9 4 10 3 13 2 14 1 15
REMARK SMILES IDX 77 16 78 17 79 18 83 19 80 20 81 21 84 22 82 23 10 24 11 25
REMARK SMILES IDX 12 26 13 27 14 28 15 29 73 30 16 31 72 32 17 33 18 34 19 35
REMARK SMILES IDX 66 36 20 37 71 38 65 39 67 40 21 41 70 42 64 43 63 44 22 46
REMARK SMILES IDX 52 47 33 48 51 49 34 50 37 51 50 52 68 53 35 54 36 55 49 57
REMARK SMILES IDX 69 58 38 59 23 60 24 61 32 62 25 63 31 64 26 65 27 66 28 67
REMARK SMILES IDX 29 68 30 69 53 70 54 71 62 72 55 73 61 74 56 75 57 76 58 77
REMARK SMILES IDX 59 78 60 79 39 80 40 81 48 82 41 83 47 84 42 85 43 86 44 87
REMARK SMILES IDX 45 88 46 89
REMARK H PARENT 4 11 4 12 67 45 37 56
REMARK Flexibility Score: inf
ROOT
ATOM      1  C   UNL     1      -0.935  -1.472   0.584  1.00  0.00     0.274 C 
ENDROOT
BRANCH   1   2
ATOM      2  O   UNL     1      -0.673  -2.146   1.829  1.00  0.00    -0.457 OA
BRANCH   2   3
ATOM      3  C   UNL     1       0.644  -2.292   2.147  1.00  0.00     0.368 C 
ATOM      4  O   UNL     1       1.563  -1.923   1.422  1.00  0.00    -0.245 OA
BRANCH   3   5
ATOM      5  C   UNL     1       0.855  -3.006   3.506  1.00  0.00     0.195 C 
ATOM      6  C   UNL     1       0.699  -4.518   3.291  1.00  0.00     0.082 C 
ATOM      7  C   UNL     1       2.343  -2.870   3.946  1.00  0.00     0.096 C 
ATOM      8  C   UNL     1       1.589  -5.172   4.336  1.00  0.00     0.022 C 
ATOM      9  C   UNL     1       2.781  -4.231   4.495  1.00  0.00     0.062 C 
BRANCH   5  10
ATOM     10  N   UNL     1       0.092  -2.405   4.628  1.00  0.00    -0.332 N 
ATOM     11  H   UNL     1       0.542  -2.708   5.492  1.00  0.00     0.347 HD
ATOM     12  H   UNL     1       0.114  -1.404   4.432  1.00  0.00     0.347 HD
BRANCH  10  13
ATOM     13  C   UNL     1      -1.326  -2.707   4.756  1.00  0.00     0.261 C 
BRANCH  13  14
ATOM     14  C   UNL     1      -1.870  -2.148   6.081  1.00  0.00     0.058 C 
ATOM     15  C   UNL     1      -1.916  -0.627   6.149  1.00  0.00     0.010 C 
ENDBRANCH  13  14
ENDBRANCH  10  13
ENDBRANCH   5  10
BRANCH   9  16
ATOM     16  S   UNL     1       4.355  -4.799   3.754  1.00  0.00    -0.082 SA
BRANCH  16  17
ATOM     17  C   UNL     1       3.946  -5.011   2.091  1.00  0.00     0.191 A 
ATOM     18  N   UNL     1       3.299  -6.042   1.601  1.00  0.00    -0.123 NA
ATOM     19  N   UNL     1       4.269  -4.146   1.082  1.00  0.00    -0.309 N 
ATOM     20  N   UNL     1       3.174  -5.854   0.246  1.00  0.00    -0.135 NA
ATOM     21  C   UNL     1       3.759  -4.715  -0.064  1.00  0.00     0.130 A 
ATOM     22  C   UNL     1       4.959  -2.882   1.144  1.00  0.00     0.154 C 
ATOM     23  C   UNL     1       3.872  -4.125  -1.417  1.00  0.00     0.090 C 
ENDBRANCH  16  17
ENDBRANCH   9  16
ENDBRANCH   3   5
ENDBRANCH   2   3
ENDBRANCH   1   2
BRANCH   1  24
ATOM     24  C   UNL     1      -1.217   0.012   0.810  1.00  0.00     0.275 C 
BRANCH  24  25
ATOM     25  O   UNL     1      -0.109   0.641   1.478  1.00  0.00    -0.458 OA
BRANCH  25  26
ATOM     26  C   UNL     1      -0.366   1.100   2.725  1.00  0.00     0.338 C 
ATOM     27  O   UNL     1      -1.427   1.074   3.322  1.00  0.00    -0.246 OA
BRANCH  26  28
ATOM     28  C   UNL     1       0.862   1.665   3.306  1.00  0.00     0.060 A 
ATOM     29  C   UNL     1       1.933   0.830   3.622  1.00  0.00     0.016 A 
ATOM     30  C   UNL     1       0.909   3.022   3.618  1.00  0.00     0.016 A 
ATOM     31  C   UNL     1       3.050   1.342   4.279  1.00  0.00     0.010 A 
ATOM     32  C   UNL     1       2.056   3.549   4.216  1.00  0.00     0.010 A 
ATOM     33  C   UNL     1       3.134   2.712   4.558  1.00  0.00    -0.014 A 
BRANCH  33  34
ATOM     34  C   UNL     1       4.360   3.290   5.160  1.00  0.00     0.031 A 
ATOM     35  C   UNL     1       4.319   3.906   6.529  1.00  0.00     0.074 A 
ATOM     36  C   UNL     1       5.504   3.301   4.449  1.00  0.00     0.049 A 
ATOM     37  N   UNL     1       5.227   4.628   7.133  1.00  0.00    -0.248 NA
ATOM     38  C   UNL     1       3.098   3.685   7.320  1.00  0.00     0.031 C 
ATOM     39  C   UNL     1       5.685   2.699   3.125  1.00  0.00     0.029 A 
ATOM     40  N   UNL     1       6.727   3.855   4.731  1.00  0.00    -0.354 N 
ATOM     41  C   UNL     1       4.678   4.978   8.361  1.00  0.00     0.074 A 
ATOM     42  C   UNL     1       3.357   4.386   8.416  1.00  0.00     0.031 C 
ATOM     43  C   UNL     1       6.943   2.915   2.712  1.00  0.00     0.029 A 
ATOM     44  C   UNL     1       7.633   3.732   3.705  1.00  0.00     0.049 A 
ATOM     45  H   UNL     1       6.935   4.297   5.586  1.00  0.00     0.167 HD
ATOM     46  C   UNL     1       5.224   5.731   9.345  1.00  0.00     0.031 A 
ATOM     47  C   UNL     1       8.861   4.262   3.549  1.00  0.00     0.031 A 
ATOM     48  C   UNL     1       6.540   6.311   9.285  1.00  0.00     0.049 A 
ATOM     49  C   UNL     1       9.413   5.161   4.616  1.00  0.00     0.074 A 
ATOM     50  C   UNL     1       7.189   7.075  10.239  1.00  0.00     0.029 A 
ATOM     51  N   UNL     1       7.406   6.195   8.209  1.00  0.00    -0.354 N 
ATOM     52  N   UNL     1       8.872   5.503   5.760  1.00  0.00    -0.248 NA
ATOM     53  C   UNL     1      10.728   5.764   4.361  1.00  0.00     0.031 C 
ATOM     54  C   UNL     1       8.432   7.458   9.721  1.00  0.00     0.029 A 
ATOM     55  C   UNL     1       8.572   6.898   8.461  1.00  0.00     0.049 A 
ATOM     56  H   UNL     1       7.220   5.688   7.386  1.00  0.00     0.167 HD
ATOM     57  C   UNL     1       9.780   6.365   6.362  1.00  0.00     0.074 A 
ATOM     58  C   UNL     1      10.913   6.475   5.465  1.00  0.00     0.031 C 
ATOM     59  C   UNL     1       9.680   7.011   7.549  1.00  0.00     0.031 A 
BRANCH  46  60
ATOM     60  C   UNL     1       4.378   6.009  10.557  1.00  0.00    -0.014 A 
ATOM     61  C   UNL     1       4.174   5.030  11.545  1.00  0.00     0.010 A 
ATOM     62  C   UNL     1       3.811   7.285  10.726  1.00  0.00     0.010 A 
ATOM     63  C   UNL     1       3.388   5.314  12.666  1.00  0.00     0.020 A 
ATOM     64  C   UNL     1       3.039   7.577  11.853  1.00  0.00     0.020 A 
ATOM     65  C   UNL     1       2.818   6.583  12.809  1.00  0.00     0.054 A 
BRANCH  65  66
ATOM     66  S   UNL     1       1.811   6.933  14.277  1.00  0.00     0.124 S 
ATOM     67  O   UNL     1       0.558   6.258  13.948  1.00  0.00    -0.237 OA
ATOM     68  O   UNL     1       2.587   6.324  15.354  1.00  0.00    -0.237 OA
ATOM     69  O   UNL     1       1.743   8.392  14.311  1.00  0.00    -0.744 OA
ENDBRANCH  65  66
ENDBRANCH  46  60
BRANCH  47  70
ATOM     70  C   UNL     1       9.613   4.007   2.293  1.00  0.00    -0.014 A 
ATOM     71  C   UNL     1      10.713   3.133   2.284  1.00  0.00     0.010 A 
ATOM     72  C   UNL     1       9.197   4.603   1.088  1.00  0.00     0.010 A 
ATOM     73  C   UNL     1      11.381   2.855   1.089  1.00  0.00     0.020 A 
ATOM     74  C   UNL     1       9.849   4.309  -0.112  1.00  0.00     0.020 A 
ATOM     75  C   UNL     1      10.941   3.440  -0.103  1.00  0.00     0.054 A 
BRANCH  75  76
ATOM     76  S   UNL     1      11.759   2.995  -1.660  1.00  0.00     0.124 S 
ATOM     77  O   UNL     1      12.949   3.839  -1.629  1.00  0.00    -0.237 OA
ATOM     78  O   UNL     1      11.993   1.562  -1.499  1.00  0.00    -0.237 OA
ATOM     79  O   UNL     1      10.766   3.343  -2.674  1.00  0.00    -0.744 OA
ENDBRANCH  75  76
ENDBRANCH  47  70
BRANCH  59  80
ATOM     80  C   UNL     1      10.828   7.895   7.946  1.00  0.00    -0.014 A 
ATOM     81  C   UNL     1      10.973   9.175   7.383  1.00  0.00     0.010 A 
ATOM     82  C   UNL     1      11.735   7.465   8.930  1.00  0.00     0.010 A 
ATOM     83  C   UNL     1      12.020  10.007   7.787  1.00  0.00     0.020 A 
ATOM     84  C   UNL     1      12.773   8.302   9.349  1.00  0.00     0.020 A 
ATOM     85  C   UNL     1      12.914   9.564   8.767  1.00  0.00     0.054 A 
BRANCH  85  86
ATOM     86  S   UNL     1      14.233  10.681   9.319  1.00  0.00     0.124 S 
ATOM     87  O   UNL     1      15.200  10.569   8.230  1.00  0.00    -0.237 OA
ATOM     88  O   UNL     1      13.547  11.967   9.419  1.00  0.00    -0.237 OA
ATOM     89  O   UNL     1      14.659  10.109  10.594  1.00  0.00    -0.744 OA
ENDBRANCH  85  86
ENDBRANCH  59  80
ENDBRANCH  33  34
ENDBRANCH  26  28
ENDBRANCH  25  26
ENDBRANCH  24  25
ENDBRANCH   1  24
TORSDOF 19
