REMARK SMILES COc1ccc([C@H](C)[N@H+]2CC[C@H](C(=O)OCCOC(=O)c3ccc(-c4c5nc(c(-c6ccc(S(=O)(=O)[O-])cc6)c6ccc([nH]6)c(-c6ccc(S(=O)(=O)[O-])cc6)c6nc(c(-c7ccc(S(=O)(=O)[O-])cc7)c7ccc4[nH]7)C=C6)C=C5)cc3)[C@@H]2C)cc1
REMARK SMILES IDX 16 1 15 2 13 3 14 4 12 5 9 6 10 7 81 8 11 10 82 11 7 12 8 13
REMARK SMILES IDX 6 14 3 15 4 16 84 17 5 18 83 19 2 20 1 21 17 22 18 23 19 24
REMARK SMILES IDX 20 25 21 26 22 27 80 28 23 29 79 30 24 31 25 32 26 33 73 34
REMARK SMILES IDX 27 35 78 36 72 37 74 38 28 39 77 40 71 41 70 42 29 44 59 45
REMARK SMILES IDX 40 46 58 47 41 48 44 49 57 50 75 51 42 52 43 53 56 55 76 56
REMARK SMILES IDX 45 57 30 58 31 59 39 60 32 61 38 62 33 63 34 64 35 65 36 66
REMARK SMILES IDX 37 67 60 68 61 69 69 70 62 71 68 72 63 73 64 74 65 75 66 76
REMARK SMILES IDX 67 77 46 78 47 79 55 80 48 81 54 82 49 83 50 84 51 85 52 86
REMARK SMILES IDX 53 87
REMARK H PARENT 9 9 74 43 44 54
REMARK Flexibility Score: inf
ROOT
ATOM      1  C   UNL     1      -2.804  -3.246  -6.843  1.00  0.00     0.274 C 
ENDROOT
BRANCH   1   2
ATOM      2  O   UNL     1      -2.054  -3.117  -5.619  1.00  0.00    -0.462 OA
BRANCH   2   3
ATOM      3  C   UNL     1      -1.515  -4.255  -5.088  1.00  0.00     0.315 C 
ATOM      4  O   UNL     1      -1.593  -5.365  -5.595  1.00  0.00    -0.252 OA
BRANCH   3   5
ATOM      5  C   UNL     1      -0.906  -3.937  -3.734  1.00  0.00     0.162 C 
ATOM      6  N   UNL     1       0.291  -5.693  -2.615  1.00  0.00    -0.326 N 
ATOM      7  C   UNL     1      -1.116  -5.832  -2.267  1.00  0.00     0.264 C 
ATOM      8  C   UNL     1       0.487  -4.492  -3.428  1.00  0.00     0.196 C 
ATOM      9  H   UNL     1       0.508  -6.501  -3.198  1.00  0.00     0.348 HD
ATOM     10  C   UNL     1      -1.768  -4.506  -2.616  1.00  0.00     0.083 C 
ATOM     11  C   UNL     1       1.367  -4.827  -4.609  1.00  0.00     0.076 C 
BRANCH   6  12
ATOM     12  C   UNL     1       1.307  -5.987  -1.592  1.00  0.00     0.212 C 
ATOM     13  C   UNL     1       1.505  -4.841  -0.582  1.00  0.00     0.081 C 
BRANCH  12  14
ATOM     14  C   UNL     1       1.058  -7.347  -0.935  1.00  0.00     0.009 A 
ATOM     15  C   UNL     1       0.435  -9.866   0.154  1.00  0.00     0.118 A 
ATOM     16  C   UNL     1       0.877  -9.768  -1.162  1.00  0.00     0.047 A 
ATOM     17  C   UNL     1       0.364  -8.726   0.950  1.00  0.00     0.047 A 
ATOM     18  C   UNL     1       1.178  -8.517  -1.707  1.00  0.00     0.013 A 
ATOM     19  C   UNL     1       0.665  -7.477   0.407  1.00  0.00     0.013 A 
BRANCH  15  20
ATOM     20  O   UNL     1       0.120 -11.116   0.615  1.00  0.00    -0.497 OA
ATOM     21  C   UNL     1      -1.129 -11.148   1.304  1.00  0.00     0.278 C 
ENDBRANCH  15  20
ENDBRANCH  12  14
ENDBRANCH   6  12
ENDBRANCH   3   5
ENDBRANCH   2   3
ENDBRANCH   1   2
BRANCH   1  22
ATOM     22  C   UNL     1      -2.039  -2.621  -8.005  1.00  0.00     0.275 C 
BRANCH  22  23
ATOM     23  O   UNL     1      -0.902  -3.441  -8.325  1.00  0.00    -0.458 OA
BRANCH  23  24
ATOM     24  C   UNL     1       0.307  -2.841  -8.233  1.00  0.00     0.338 C 
ATOM     25  O   UNL     1       0.527  -1.670  -7.971  1.00  0.00    -0.246 OA
BRANCH  24  26
ATOM     26  C   UNL     1       1.386  -3.828  -8.442  1.00  0.00     0.060 A 
ATOM     27  C   UNL     1       1.347  -5.040  -7.766  1.00  0.00     0.016 A 
ATOM     28  C   UNL     1       2.537  -3.471  -9.144  1.00  0.00     0.016 A 
ATOM     29  C   UNL     1       2.518  -5.788  -7.628  1.00  0.00     0.010 A 
ATOM     30  C   UNL     1       3.653  -4.323  -9.142  1.00  0.00     0.010 A 
ATOM     31  C   UNL     1       3.694  -5.469  -8.326  1.00  0.00    -0.014 A 
BRANCH  31  32
ATOM     32  C   UNL     1       4.952  -6.283  -8.169  1.00  0.00     0.031 A 
ATOM     33  C   UNL     1       6.298  -5.606  -7.981  1.00  0.00     0.074 A 
ATOM     34  C   UNL     1       4.926  -7.636  -8.166  1.00  0.00     0.049 A 
ATOM     35  N   UNL     1       7.504  -6.102  -8.125  1.00  0.00    -0.248 NA
ATOM     36  C   UNL     1       6.291  -4.183  -7.602  1.00  0.00     0.031 C 
ATOM     37  C   UNL     1       3.729  -8.475  -8.263  1.00  0.00     0.029 A 
ATOM     38  N   UNL     1       5.948  -8.555  -8.057  1.00  0.00    -0.354 N 
ATOM     39  C   UNL     1       8.386  -5.037  -7.954  1.00  0.00     0.074 A 
ATOM     40  C   UNL     1       7.578  -3.869  -7.676  1.00  0.00     0.031 C 
ATOM     41  C   UNL     1       4.069  -9.761  -8.113  1.00  0.00     0.029 A 
ATOM     42  C   UNL     1       5.520  -9.863  -8.083  1.00  0.00     0.049 A 
ATOM     43  H   UNL     1       6.895  -8.299  -7.970  1.00  0.00     0.167 HD
ATOM     44  C   UNL     1       9.741  -5.030  -8.034  1.00  0.00     0.031 A 
ATOM     45  C   UNL     1       6.196 -11.027  -8.161  1.00  0.00     0.031 A 
ATOM     46  C   UNL     1      10.548  -6.209  -8.226  1.00  0.00     0.049 A 
ATOM     47  C   UNL     1       7.690 -11.000  -8.291  1.00  0.00     0.074 A 
ATOM     48  C   UNL     1      11.927  -6.303  -8.329  1.00  0.00     0.029 A 
ATOM     49  N   UNL     1      10.056  -7.503  -8.305  1.00  0.00    -0.354 N 
ATOM     50  N   UNL     1       8.498  -9.968  -8.277  1.00  0.00    -0.248 NA
ATOM     51  C   UNL     1       8.360 -12.293  -8.491  1.00  0.00     0.031 C 
ATOM     52  C   UNL     1      12.264  -7.649  -8.509  1.00  0.00     0.029 A 
ATOM     53  C   UNL     1      11.101  -8.399  -8.464  1.00  0.00     0.049 A 
ATOM     54  H   UNL     1       9.104  -7.749  -8.256  1.00  0.00     0.167 HD
ATOM     55  C   UNL     1       9.773 -10.487  -8.465  1.00  0.00     0.074 A 
ATOM     56  C   UNL     1       9.632 -11.926  -8.563  1.00  0.00     0.031 C 
ATOM     57  C   UNL     1      10.952  -9.828  -8.561  1.00  0.00     0.031 A 
BRANCH  44  58
ATOM     58  C   UNL     1      10.450  -3.698  -7.974  1.00  0.00    -0.014 A 
ATOM     59  C   UNL     1      10.581  -2.973  -6.778  1.00  0.00     0.010 A 
ATOM     60  C   UNL     1      11.052  -3.193  -9.144  1.00  0.00     0.010 A 
ATOM     61  C   UNL     1      11.267  -1.752  -6.761  1.00  0.00     0.020 A 
ATOM     62  C   UNL     1      11.761  -1.989  -9.126  1.00  0.00     0.020 A 
ATOM     63  C   UNL     1      11.848  -1.265  -7.937  1.00  0.00     0.054 A 
BRANCH  63  64
ATOM     64  S   UNL     1      12.746   0.312  -7.885  1.00  0.00     0.124 S 
ATOM     65  O   UNL     1      11.653   1.277  -7.789  1.00  0.00    -0.237 OA
ATOM     66  O   UNL     1      13.569   0.175  -6.687  1.00  0.00    -0.237 OA
ATOM     67  O   UNL     1      13.485   0.333  -9.145  1.00  0.00    -0.744 OA
ENDBRANCH  63  64
ENDBRANCH  44  58
BRANCH  45  68
ATOM     68  C   UNL     1       5.446 -12.315  -8.233  1.00  0.00    -0.014 A 
ATOM     69  C   UNL     1       5.512 -13.248  -7.185  1.00  0.00     0.010 A 
ATOM     70  C   UNL     1       4.635 -12.599  -9.349  1.00  0.00     0.010 A 
ATOM     71  C   UNL     1       4.779 -14.438  -7.250  1.00  0.00     0.020 A 
ATOM     72  C   UNL     1       3.872 -13.766  -9.400  1.00  0.00     0.020 A 
ATOM     73  C   UNL     1       3.958 -14.686  -8.355  1.00  0.00     0.054 A 
BRANCH  73  74
ATOM     74  S   UNL     1       2.955 -16.198  -8.390  1.00  0.00     0.124 S 
ATOM     75  O   UNL     1       3.944 -17.207  -8.755  1.00  0.00    -0.237 OA
ATOM     76  O   UNL     1       2.445 -16.275  -7.024  1.00  0.00    -0.237 OA
ATOM     77  O   UNL     1       1.945 -15.912  -9.407  1.00  0.00    -0.744 OA
ENDBRANCH  73  74
ENDBRANCH  45  68
BRANCH  57  78
ATOM     78  C   UNL     1      12.190 -10.661  -8.745  1.00  0.00    -0.014 A 
ATOM     79  C   UNL     1      12.481 -11.269  -9.979  1.00  0.00     0.010 A 
ATOM     80  C   UNL     1      13.089 -10.813  -7.675  1.00  0.00     0.010 A 
ATOM     81  C   UNL     1      13.634 -12.044 -10.129  1.00  0.00     0.020 A 
ATOM     82  C   UNL     1      14.255 -11.567  -7.828  1.00  0.00     0.020 A 
ATOM     83  C   UNL     1      14.513 -12.190  -9.051  1.00  0.00     0.054 A 
BRANCH  83  84
ATOM     84  S   UNL     1      16.020 -13.173  -9.279  1.00  0.00     0.124 S 
ATOM     85  O   UNL     1      15.499 -14.537  -9.268  1.00  0.00    -0.237 OA
ATOM     86  O   UNL     1      16.520 -12.701 -10.568  1.00  0.00    -0.237 OA
ATOM     87  O   UNL     1      16.846 -12.812  -8.128  1.00  0.00    -0.744 OA
ENDBRANCH  83  84
ENDBRANCH  57  78
ENDBRANCH  31  32
ENDBRANCH  24  26
ENDBRANCH  23  24
ENDBRANCH  22  23
ENDBRANCH   1  22
TORSDOF 17
