REMARK SMILES COc1ccc(-n2cc(C(=O)OCCOC(=O)c3ccc(-c4c5nc(c(-c6ccc(S(=O)(=O)[O-])cc6)c6ccc([nH]6)c(-c6ccc(S(=O)(=O)[O-])cc6)c6nc(c(-c7ccc(S(=O)(=O)[O-])cc7)c7ccc4[nH]7)C=C6)C=C5)cc3)c3c2[C@H](c2ccc(OCC(N)=O)cc2)CC(O)=N3)cc1
REMARK SMILES IDX 13 1 12 2 10 3 11 4 9 5 7 6 8 7 79 8 78 9 80 10 95 11 92 12
REMARK SMILES IDX 93 13 6 14 3 15 4 16 97 17 5 18 96 19 2 20 1 21 81 22 82 23
REMARK SMILES IDX 91 24 83 25 90 26 84 27 85 28 86 29 87 30 88 31 89 32 94 35
REMARK SMILES IDX 14 37 15 38 16 39 17 40 18 41 19 42 77 43 20 44 76 45 21 46
REMARK SMILES IDX 22 47 23 48 70 49 24 50 75 51 69 52 71 53 25 54 74 55 68 56
REMARK SMILES IDX 67 57 26 59 56 60 37 61 55 62 38 63 41 64 54 65 72 66 39 67
REMARK SMILES IDX 40 68 53 70 73 71 42 72 27 73 28 74 36 75 29 76 35 77 30 78
REMARK SMILES IDX 31 79 32 80 33 81 34 82 57 83 58 84 66 85 59 86 65 87 60 88
REMARK SMILES IDX 61 89 62 90 63 91 64 92 43 93 44 94 52 95 45 96 51 97 46 98
REMARK SMILES IDX 47 99 48 100 49 101 50 102
REMARK H PARENT 88 33 88 34 94 36 71 58 41 69
REMARK Flexibility Score: inf
ROOT
ATOM      1  C   UNL     1       3.675 -12.281  -0.221  1.00  0.00     0.275 C 
ENDROOT
BRANCH   1   2
ATOM      2  O   UNL     1       2.848 -11.134  -0.450  1.00  0.00    -0.458 OA
BRANCH   2   3
ATOM      3  C   UNL     1       2.894 -10.111   0.451  1.00  0.00     0.342 C 
ATOM      4  O   UNL     1       3.448 -10.175   1.546  1.00  0.00    -0.246 OA
BRANCH   3   5
ATOM      5  C   UNL     1       2.271  -8.901  -0.059  1.00  0.00     0.104 A 
ATOM      6  N   UNL     1       1.691  -6.728  -0.315  1.00  0.00    -0.317 N 
ATOM      7  C   UNL     1       2.451  -7.610   0.430  1.00  0.00     0.109 A 
ATOM      8  C   UNL     1       1.038  -7.447  -1.295  1.00  0.00     0.057 A 
ATOM      9  C   UNL     1       1.409  -8.760  -1.162  1.00  0.00     0.103 A 
ATOM     10  C   UNL     1       0.107  -6.966  -2.356  1.00  0.00     0.078 C 
ATOM     11  N   UNL     1       0.953  -9.785  -1.992  1.00  0.00    -0.215 NA
ATOM     12  C   UNL     1       0.221  -7.943  -3.549  1.00  0.00     0.111 C 
ATOM     13  C   UNL     1       0.423  -9.374  -3.095  1.00  0.00     0.186 C 
BRANCH   6  14
ATOM     14  C   UNL     1       1.515  -5.367   0.010  1.00  0.00     0.046 A 
ATOM     15  C   UNL     1       1.052  -2.668   0.563  1.00  0.00     0.119 A 
ATOM     16  C   UNL     1       0.158  -3.642   1.011  1.00  0.00     0.048 A 
ATOM     17  C   UNL     1       2.221  -3.058  -0.100  1.00  0.00     0.048 A 
ATOM     18  C   UNL     1       0.388  -4.992   0.744  1.00  0.00     0.030 A 
ATOM     19  C   UNL     1       2.459  -4.414  -0.377  1.00  0.00     0.030 A 
BRANCH  15  20
ATOM     20  O   UNL     1       0.701  -1.380   0.865  1.00  0.00    -0.497 OA
ATOM     21  C   UNL     1       1.168  -0.384  -0.039  1.00  0.00     0.278 C 
ENDBRANCH  15  20
ENDBRANCH   6  14
BRANCH  10  22
ATOM     22  C   UNL     1      -1.314  -6.831  -1.816  1.00  0.00    -0.038 A 
ATOM     23  C   UNL     1      -1.782  -5.560  -1.456  1.00  0.00     0.008 A 
ATOM     24  C   UNL     1      -2.131  -7.939  -1.538  1.00  0.00     0.008 A 
ATOM     25  C   UNL     1      -2.981  -5.409  -0.760  1.00  0.00     0.047 A 
ATOM     26  C   UNL     1      -3.353  -7.782  -0.875  1.00  0.00     0.047 A 
ATOM     27  C   UNL     1      -3.774  -6.516  -0.476  1.00  0.00     0.120 A 
BRANCH  27  28
ATOM     28  O   UNL     1      -4.908  -6.253   0.239  1.00  0.00    -0.484 OA
BRANCH  28  29
ATOM     29  C   UNL     1      -6.035  -7.058  -0.070  1.00  0.00     0.329 C 
BRANCH  29  30
ATOM     30  C   UNL     1      -6.505  -6.972  -1.525  1.00  0.00     0.255 C 
ATOM     31  N   UNL     1      -6.552  -8.158  -2.203  1.00  0.00    -0.367 N 
ATOM     32  O   UNL     1      -6.822  -5.926  -2.084  1.00  0.00    -0.271 OA
ATOM     33  H   UNL     1      -6.297  -8.994  -1.751  1.00  0.00     0.159 HD
ATOM     34  H   UNL     1      -6.840  -8.176  -3.145  1.00  0.00     0.159 HD
ENDBRANCH  29  30
ENDBRANCH  28  29
ENDBRANCH  27  28
ENDBRANCH  10  22
BRANCH  13  35
ATOM     35  O   UNL     1       0.012 -10.304  -3.982  1.00  0.00    -0.496 OA
ATOM     36  H   UNL     1      -0.377 -10.039  -4.792  1.00  0.00     0.294 HD
ENDBRANCH  13  35
ENDBRANCH   3   5
ENDBRANCH   2   3
ENDBRANCH   1   2
BRANCH   1  37
ATOM     37  C   UNL     1       5.057 -12.079  -0.820  1.00  0.00     0.275 C 
BRANCH  37  38
ATOM     38  O   UNL     1       5.808 -11.183  -0.007  1.00  0.00    -0.458 OA
BRANCH  38  39
ATOM     39  C   UNL     1       5.783  -9.886  -0.385  1.00  0.00     0.338 C 
ATOM     40  O   UNL     1       5.071  -9.374  -1.231  1.00  0.00    -0.246 OA
BRANCH  39  41
ATOM     41  C   UNL     1       6.929  -9.209   0.226  1.00  0.00     0.060 A 
ATOM     42  C   UNL     1       7.143  -7.880  -0.149  1.00  0.00     0.016 A 
ATOM     43  C   UNL     1       7.923  -9.981   0.846  1.00  0.00     0.016 A 
ATOM     44  C   UNL     1       8.432  -7.402  -0.119  1.00  0.00     0.010 A 
ATOM     45  C   UNL     1       9.210  -9.512   0.852  1.00  0.00     0.010 A 
ATOM     46  C   UNL     1       9.456  -8.266   0.286  1.00  0.00    -0.014 A 
BRANCH  46  47
ATOM     47  C   UNL     1      10.817  -7.794   0.203  1.00  0.00     0.031 A 
ATOM     48  C   UNL     1      11.123  -6.790   1.243  1.00  0.00     0.074 A 
ATOM     49  C   UNL     1      11.715  -8.327  -0.644  1.00  0.00     0.049 A 
ATOM     50  N   UNL     1      11.344  -5.529   1.081  1.00  0.00    -0.248 NA
ATOM     51  C   UNL     1      10.957  -7.204   2.647  1.00  0.00     0.031 C 
ATOM     52  C   UNL     1      11.576  -9.518  -1.488  1.00  0.00     0.029 A 
ATOM     53  N   UNL     1      13.010  -7.970  -0.832  1.00  0.00    -0.354 N 
ATOM     54  C   UNL     1      11.572  -5.035   2.359  1.00  0.00     0.074 A 
ATOM     55  C   UNL     1      11.103  -6.040   3.277  1.00  0.00     0.031 C 
ATOM     56  C   UNL     1      12.804  -9.918  -1.893  1.00  0.00     0.029 A 
ATOM     57  C   UNL     1      13.786  -8.939  -1.453  1.00  0.00     0.049 A 
ATOM     58  H   UNL     1      13.369  -7.098  -0.551  1.00  0.00     0.167 HD
ATOM     59  C   UNL     1      12.394  -3.972   2.570  1.00  0.00     0.031 A 
ATOM     60  C   UNL     1      15.142  -8.960  -1.516  1.00  0.00     0.031 A 
ATOM     61  C   UNL     1      12.637  -3.237   1.356  1.00  0.00     0.049 A 
ATOM     62  C   UNL     1      15.614  -7.579  -1.231  1.00  0.00     0.074 A 
ATOM     63  C   UNL     1      11.835  -2.558   0.461  1.00  0.00     0.029 A 
ATOM     64  N   UNL     1      13.819  -3.489   0.699  1.00  0.00    -0.354 N 
ATOM     65  N   UNL     1      15.374  -6.564  -2.015  1.00  0.00    -0.248 NA
ATOM     66  C   UNL     1      15.925  -7.235   0.149  1.00  0.00     0.031 C 
ATOM     67  C   UNL     1      12.391  -2.841  -0.820  1.00  0.00     0.029 A 
ATOM     68  C   UNL     1      13.537  -3.619  -0.637  1.00  0.00     0.049 A 
ATOM     69  H   UNL     1      14.709  -3.564   1.113  1.00  0.00     0.167 HD
ATOM     70  C   UNL     1      15.085  -5.508  -1.161  1.00  0.00     0.074 A 
ATOM     71  C   UNL     1      15.530  -5.958   0.158  1.00  0.00     0.031 C 
ATOM     72  C   UNL     1      14.259  -4.489  -1.545  1.00  0.00     0.031 A 
BRANCH  59  73
ATOM     73  C   UNL     1      13.306  -3.884   3.767  1.00  0.00    -0.014 A 
ATOM     74  C   UNL     1      14.093  -2.731   3.937  1.00  0.00     0.010 A 
ATOM     75  C   UNL     1      13.623  -5.001   4.571  1.00  0.00     0.010 A 
ATOM     76  C   UNL     1      15.184  -2.724   4.816  1.00  0.00     0.020 A 
ATOM     77  C   UNL     1      14.676  -4.989   5.483  1.00  0.00     0.020 A 
ATOM     78  C   UNL     1      15.473  -3.860   5.573  1.00  0.00     0.054 A 
BRANCH  78  79
ATOM     79  S   UNL     1      16.946  -3.881   6.620  1.00  0.00     0.124 S 
ATOM     80  O   UNL     1      18.017  -3.815   5.631  1.00  0.00    -0.237 OA
ATOM     81  O   UNL     1      16.759  -2.686   7.438  1.00  0.00    -0.237 OA
ATOM     82  O   UNL     1      16.835  -5.148   7.341  1.00  0.00    -0.744 OA
ENDBRANCH  78  79
ENDBRANCH  59  73
BRANCH  60  83
ATOM     83  C   UNL     1      16.031 -10.150  -1.453  1.00  0.00    -0.014 A 
ATOM     84  C   UNL     1      17.387 -10.080  -1.823  1.00  0.00     0.010 A 
ATOM     85  C   UNL     1      15.600 -11.310  -0.775  1.00  0.00     0.010 A 
ATOM     86  C   UNL     1      18.283 -11.116  -1.495  1.00  0.00     0.020 A 
ATOM     87  C   UNL     1      16.484 -12.346  -0.448  1.00  0.00     0.020 A 
ATOM     88  C   UNL     1      17.828 -12.237  -0.796  1.00  0.00     0.054 A 
BRANCH  88  89
ATOM     89  S   UNL     1      19.015 -13.505  -0.254  1.00  0.00     0.124 S 
ATOM     90  O   UNL     1      19.419 -14.113  -1.518  1.00  0.00    -0.237 OA
ATOM     91  O   UNL     1      20.038 -12.715   0.424  1.00  0.00    -0.237 OA
ATOM     92  O   UNL     1      18.222 -14.368   0.622  1.00  0.00    -0.744 OA
ENDBRANCH  88  89
ENDBRANCH  60  83
BRANCH  72  93
ATOM     93  C   UNL     1      13.877  -4.383  -3.006  1.00  0.00    -0.014 A 
ATOM     94  C   UNL     1      13.114  -5.353  -3.688  1.00  0.00     0.010 A 
ATOM     95  C   UNL     1      14.148  -3.167  -3.656  1.00  0.00     0.010 A 
ATOM     96  C   UNL     1      12.646  -5.110  -4.991  1.00  0.00     0.020 A 
ATOM     97  C   UNL     1      13.671  -2.913  -4.944  1.00  0.00     0.020 A 
ATOM     98  C   UNL     1      12.925  -3.886  -5.608  1.00  0.00     0.054 A 
BRANCH  98  99
ATOM     99  S   UNL     1      12.258  -3.543  -7.262  1.00  0.00     0.124 S 
ATOM    100  O   UNL     1      13.021  -4.455  -8.109  1.00  0.00    -0.237 OA
ATOM    101  O   UNL     1      10.839  -3.860  -7.114  1.00  0.00    -0.237 OA
ATOM    102  O   UNL     1      12.546  -2.124  -7.467  1.00  0.00    -0.744 OA
ENDBRANCH  98  99
ENDBRANCH  72  93
ENDBRANCH  46  47
ENDBRANCH  39  41
ENDBRANCH  38  39
ENDBRANCH  37  38
ENDBRANCH   1  37
TORSDOF 21
