REMARK SMILES O=C(OCCOC(=O)[C@@H]1CCCC[C@@H]1C(=O)Nc1cccc(C(F)(F)F)c1)c1ccc(-c2c3nc(c(-c4ccc(S(=O)(=O)[O-])cc4)c4ccc([nH]4)c(-c4ccc(S(=O)(=O)[O-])cc4)c4nc(c(-c5ccc(S(=O)(=O)[O-])cc5)c5ccc2[nH]5)C=C4)C=C3)cc1
REMARK SMILES IDX 4 1 3 2 2 3 1 4 28 5 29 6 87 7 30 8 86 9 31 10 32 11 33 12
REMARK SMILES IDX 80 13 34 14 85 15 79 16 81 17 35 18 84 19 78 20 77 21 36 23
REMARK SMILES IDX 66 24 47 25 65 26 48 27 51 28 64 29 82 30 49 31 50 32 63 34
REMARK SMILES IDX 83 35 52 36 37 37 38 38 46 39 39 40 45 41 40 42 41 43 42 44
REMARK SMILES IDX 43 45 44 46 67 47 68 48 76 49 69 50 75 51 70 52 71 53 72 54
REMARK SMILES IDX 73 55 74 56 53 57 54 58 62 59 55 60 61 61 56 62 57 63 58 64
REMARK SMILES IDX 59 65 60 66 5 67 6 68 7 69 8 70 9 71 10 72 14 73 11 74 13 75
REMARK SMILES IDX 12 76 15 77 16 78 17 79 18 81 19 82 27 83 20 84 22 85 21 86
REMARK SMILES IDX 23 87 24 88 25 89 26 90
REMARK H PARENT 81 22 51 33 17 80
REMARK Flexibility Score: inf
ROOT
ATOM      1  C   UNL     1       3.869   1.719  -0.206  1.00  0.00     0.275 C 
ENDROOT
BRANCH   1   2
ATOM      2  O   UNL     1       3.026   0.967  -1.068  1.00  0.00    -0.458 OA
BRANCH   2   3
ATOM      3  C   UNL     1       3.154  -0.361  -1.232  1.00  0.00     0.338 C 
ATOM      4  O   UNL     1       2.633  -0.900  -2.206  1.00  0.00    -0.246 OA
BRANCH   3   5
ATOM      5  C   UNL     1       3.754  -1.244  -0.173  1.00  0.00     0.060 A 
ATOM      6  C   UNL     1       3.842  -0.911   1.592  1.00  0.00     0.016 A 
ATOM      7  C   UNL     1       3.726  -2.933  -0.709  1.00  0.00     0.016 A 
ATOM      8  C   UNL     1       3.765  -2.344   2.765  1.00  0.00     0.010 A 
ATOM      9  C   UNL     1       3.835  -4.256   0.420  1.00  0.00     0.010 A 
ATOM     10  C   UNL     1       4.018  -4.059   2.155  1.00  0.00    -0.014 A 
BRANCH  10  11
ATOM     11  C   UNL     1       5.259  -5.106   2.626  1.00  0.00     0.031 A 
ATOM     12  C   UNL     1       6.125  -5.930   1.656  1.00  0.00     0.074 A 
ATOM     13  C   UNL     1       6.029  -5.114   3.751  1.00  0.00     0.049 A 
ATOM     14  N   UNL     1       6.834  -6.980   2.025  1.00  0.00    -0.248 NA
ATOM     15  C   UNL     1       6.236  -5.672   0.219  1.00  0.00     0.031 C 
ATOM     16  C   UNL     1       7.315  -4.411   3.923  1.00  0.00     0.029 A 
ATOM     17  N   UNL     1       5.796  -5.683   4.997  1.00  0.00    -0.354 N 
ATOM     18  C   UNL     1       7.379  -7.521   0.879  1.00  0.00     0.074 A 
ATOM     19  C   UNL     1       6.868  -6.750  -0.225  1.00  0.00     0.031 C 
ATOM     20  C   UNL     1       7.628  -4.380   5.234  1.00  0.00     0.029 A 
ATOM     21  C   UNL     1       6.650  -5.173   5.987  1.00  0.00     0.049 A 
ATOM     22  H   UNL     1       5.109  -6.367   5.167  1.00  0.00     0.167 HD
ATOM     23  C   UNL     1       8.266  -8.536   0.773  1.00  0.00     0.031 A 
ATOM     24  C   UNL     1       7.001  -5.742   7.160  1.00  0.00     0.031 A 
ATOM     25  C   UNL     1       8.927  -9.146   1.901  1.00  0.00     0.049 A 
ATOM     26  C   UNL     1       7.982  -6.853   6.996  1.00  0.00     0.074 A 
ATOM     27  C   UNL     1       9.813 -10.209   1.894  1.00  0.00     0.029 A 
ATOM     28  N   UNL     1       8.846  -8.702   3.221  1.00  0.00    -0.354 N 
ATOM     29  N   UNL     1       8.271  -7.493   5.892  1.00  0.00    -0.248 NA
ATOM     30  C   UNL     1       8.728  -7.281   8.180  1.00  0.00     0.031 C 
ATOM     31  C   UNL     1      10.237 -10.438   3.206  1.00  0.00     0.029 A 
ATOM     32  C   UNL     1       9.659  -9.487   4.031  1.00  0.00     0.049 A 
ATOM     33  H   UNL     1       8.296  -7.947   3.532  1.00  0.00     0.167 HD
ATOM     34  C   UNL     1       9.260  -8.390   6.232  1.00  0.00     0.074 A 
ATOM     35  C   UNL     1       9.538  -8.186   7.646  1.00  0.00     0.031 C 
ATOM     36  C   UNL     1       9.868  -9.310   5.447  1.00  0.00     0.031 A 
BRANCH  23  37
ATOM     37  C   UNL     1       8.525  -9.081  -0.608  1.00  0.00    -0.014 A 
ATOM     38  C   UNL     1       9.257  -8.376  -1.579  1.00  0.00     0.010 A 
ATOM     39  C   UNL     1       8.016 -10.354  -0.929  1.00  0.00     0.010 A 
ATOM     40  C   UNL     1       9.446  -8.920  -2.855  1.00  0.00     0.020 A 
ATOM     41  C   UNL     1       8.232 -10.916  -2.189  1.00  0.00     0.020 A 
ATOM     42  C   UNL     1       8.936 -10.189  -3.149  1.00  0.00     0.054 A 
BRANCH  42  43
ATOM     43  S   UNL     1       9.238 -10.894  -4.793  1.00  0.00     0.124 S 
ATOM     44  O   UNL     1       8.374 -10.075  -5.639  1.00  0.00    -0.237 OA
ATOM     45  O   UNL     1      10.673 -10.684  -4.970  1.00  0.00    -0.237 OA
ATOM     46  O   UNL     1       8.829 -12.290  -4.653  1.00  0.00    -0.744 OA
ENDBRANCH  42  43
ENDBRANCH  23  37
BRANCH  24  47
ATOM     47  C   UNL     1       6.910  -4.947   8.422  1.00  0.00    -0.014 A 
ATOM     48  C   UNL     1       7.963  -4.184   8.961  1.00  0.00     0.010 A 
ATOM     49  C   UNL     1       5.699  -4.991   9.136  1.00  0.00     0.010 A 
ATOM     50  C   UNL     1       7.793  -3.476  10.166  1.00  0.00     0.020 A 
ATOM     51  C   UNL     1       5.504  -4.248  10.306  1.00  0.00     0.020 A 
ATOM     52  C   UNL     1       6.559  -3.503  10.824  1.00  0.00     0.054 A 
BRANCH  52  53
ATOM     53  S   UNL     1       6.321  -2.536  12.344  1.00  0.00     0.124 S 
ATOM     54  O   UNL     1       6.956  -3.383  13.347  1.00  0.00    -0.237 OA
ATOM     55  O   UNL     1       7.013  -1.286  12.038  1.00  0.00    -0.237 OA
ATOM     56  O   UNL     1       4.868  -2.420  12.449  1.00  0.00    -0.744 OA
ENDBRANCH  52  53
ENDBRANCH  24  47
BRANCH  36  57
ATOM     57  C   UNL     1      10.823 -10.222   6.157  1.00  0.00    -0.014 A 
ATOM     58  C   UNL     1      10.331 -11.160   7.083  1.00  0.00     0.010 A 
ATOM     59  C   UNL     1      12.205 -10.128   5.930  1.00  0.00     0.010 A 
ATOM     60  C   UNL     1      11.211 -11.942   7.825  1.00  0.00     0.020 A 
ATOM     61  C   UNL     1      13.089 -10.937   6.647  1.00  0.00     0.020 A 
ATOM     62  C   UNL     1      12.586 -11.819   7.608  1.00  0.00     0.054 A 
BRANCH  62  63
ATOM     63  S   UNL     1      13.706 -12.842   8.596  1.00  0.00     0.124 S 
ATOM     64  O   UNL     1      13.653 -12.178   9.895  1.00  0.00    -0.237 OA
ATOM     65  O   UNL     1      13.074 -14.158   8.536  1.00  0.00    -0.237 OA
ATOM     66  O   UNL     1      14.982 -12.736   7.892  1.00  0.00    -0.744 OA
ENDBRANCH  62  63
ENDBRANCH  36  57
ENDBRANCH  10  11
ENDBRANCH   3   5
ENDBRANCH   2   3
ENDBRANCH   1   2
BRANCH   1  67
ATOM     67  C   UNL     1       3.110   2.203   1.044  1.00  0.00     0.274 C 
BRANCH  67  68
ATOM     68  O   UNL     1       2.517   1.147   1.853  1.00  0.00    -0.462 OA
BRANCH  68  69
ATOM     69  C   UNL     1       1.525   0.372   1.321  1.00  0.00     0.309 C 
ATOM     70  O   UNL     1       0.691   0.828   0.550  1.00  0.00    -0.252 OA
BRANCH  69  71
ATOM     71  C   UNL     1       1.522  -1.144   1.820  1.00  0.00     0.111 C 
ATOM     72  C   UNL     1       1.171  -1.160   3.329  1.00  0.00     0.016 C 
ATOM     73  C   UNL     1       2.674  -2.521   1.196  1.00  0.00     0.093 C 
ATOM     74  C   UNL     1       0.612  -2.490   3.821  1.00  0.00     0.001 C 
ATOM     75  C   UNL     1       1.561  -3.726   1.761  1.00  0.00     0.014 C 
ATOM     76  C   UNL     1       1.239  -3.761   3.259  1.00  0.00     0.001 C 
BRANCH  73  77
ATOM     77  C   UNL     1       4.872  -2.496   1.163  1.00  0.00     0.228 C 
ATOM     78  O   UNL     1       5.728  -2.580   0.220  1.00  0.00    -0.274 OA
ATOM     79  N   UNL     1       5.920  -2.067   2.415  1.00  0.00    -0.326 N 
ATOM     80  H   UNL     1       6.831  -1.913   2.077  1.00  0.00     0.169 HD
BRANCH  79  81
ATOM     81  C   UNL     1       5.848  -1.848   3.944  1.00  0.00     0.041 A 
ATOM     82  C   UNL     1       6.482  -0.779   4.552  1.00  0.00     0.026 A 
ATOM     83  C   UNL     1       5.081  -2.637   4.867  1.00  0.00     0.039 A 
ATOM     84  C   UNL     1       6.207  -0.474   5.921  1.00  0.00     0.003 A 
ATOM     85  C   UNL     1       4.718  -2.337   6.185  1.00  0.00     0.058 A 
ATOM     86  C   UNL     1       5.312  -1.221   6.721  1.00  0.00     0.013 A 
BRANCH  85  87
ATOM     87  C   UNL     1       3.637  -3.187   6.829  1.00  0.00     0.416 C 
ATOM     88  F   UNL     1       4.001  -4.461   7.113  1.00  0.00    -0.166 F 
ATOM     89  F   UNL     1       3.107  -2.666   7.965  1.00  0.00    -0.166 F 
ATOM     90  F   UNL     1       2.566  -3.339   5.989  1.00  0.00    -0.166 F 
ENDBRANCH  85  87
ENDBRANCH  79  81
ENDBRANCH  73  77
ENDBRANCH  69  71
ENDBRANCH  68  69
ENDBRANCH  67  68
ENDBRANCH   1  67
TORSDOF 17
