REMARK SMILES CCc1sc(NC(=O)[C@H]2CC(C)=C(C)C[C@H]2C(=O)OCCOC(=O)c2ccc(-c3c4nc(c(-c5ccc(S(=O)(=O)[O-])cc5)c5ccc([nH]5)c(-c5ccc(S(=O)(=O)[O-])cc5)c5nc(c(-c6ccc(S(=O)(=O)[O-])cc6)c6ccc3[nH]6)C=C5)C=C4)cc2)nc1-c1ccccc1
REMARK SMILES IDX 20 1 19 2 17 3 18 4 16 5 9 6 10 7 11 8 15 9 12 10 13 11
REMARK SMILES IDX 14 12 7 13 6 14 8 16 5 17 3 18 4 19 86 20 85 21 2 22 1 23
REMARK SMILES IDX 87 24 88 25 92 26 89 27 91 28 90 29 21 30 22 31 23 32 24 33
REMARK SMILES IDX 25 34 26 35 84 36 27 37 83 38 28 39 29 40 30 41 77 42 31 43
REMARK SMILES IDX 82 44 76 45 78 46 32 47 81 48 75 49 74 50 33 52 63 53 44 54
REMARK SMILES IDX 62 55 45 56 48 57 61 58 79 59 46 60 47 61 60 63 80 64 49 65
REMARK SMILES IDX 34 66 35 67 43 68 36 69 42 70 37 71 38 72 39 73 40 74 41 75
REMARK SMILES IDX 64 76 65 77 73 78 66 79 72 80 67 81 68 82 69 83 70 84 71 85
REMARK SMILES IDX 50 86 51 87 59 88 52 89 58 90 53 91 54 92 55 93 56 94 57 95
REMARK H PARENT 6 15 78 51 48 62
REMARK Flexibility Score: inf
ROOT
ATOM      1  C   UNL     1       3.740  -8.857   3.715  1.00  0.00     0.274 C 
ENDROOT
BRANCH   1   2
ATOM      2  O   UNL     1       3.208  -7.980   2.704  1.00  0.00    -0.462 OA
BRANCH   2   3
ATOM      3  C   UNL     1       2.181  -8.452   1.982  1.00  0.00     0.310 C 
ATOM      4  O   UNL     1       1.837  -9.632   1.990  1.00  0.00    -0.252 OA
BRANCH   3   5
ATOM      5  C   UNL     1       1.499  -7.447   1.066  1.00  0.00     0.116 C 
ATOM      6  C   UNL     1       1.294  -5.950   1.421  1.00  0.00     0.097 C 
ATOM      7  C   UNL     1       1.664  -4.963   0.300  1.00  0.00     0.045 C 
ATOM      8  C   UNL     1       2.432  -5.426  -0.897  1.00  0.00    -0.074 C 
ATOM      9  C   UNL     1       1.922  -7.798  -0.372  1.00  0.00     0.046 C 
ATOM     10  C   UNL     1       2.946  -4.291  -1.746  1.00  0.00     0.039 C 
ATOM     11  C   UNL     1       2.550  -6.726  -1.209  1.00  0.00    -0.073 C 
ATOM     12  C   UNL     1       3.228  -7.206  -2.464  1.00  0.00     0.039 C 
BRANCH   6  13
ATOM     13  C   UNL     1       1.824  -5.385   2.757  1.00  0.00     0.230 C 
ATOM     14  N   UNL     1       1.024  -4.530   3.496  1.00  0.00    -0.302 N 
ATOM     15  H   UNL     1       0.654  -4.809   4.365  1.00  0.00     0.172 HD
ATOM     16  O   UNL     1       2.972  -5.572   3.163  1.00  0.00    -0.274 OA
BRANCH  14  17
ATOM     17  C   UNL     1       0.761  -3.280   2.984  1.00  0.00     0.190 A 
ATOM     18  C   UNL     1       0.256  -1.543   1.403  1.00  0.00     0.034 A 
ATOM     19  S   UNL     1      -0.482  -3.055   1.848  1.00  0.00    -0.101 S 
ATOM     20  C   UNL     1       1.095  -1.174   2.451  1.00  0.00     0.087 A 
ATOM     21  N   UNL     1       1.384  -2.191   3.353  1.00  0.00    -0.220 NA
BRANCH  18  22
ATOM     22  C   UNL     1      -0.111  -0.961   0.068  1.00  0.00     0.046 C 
ATOM     23  C   UNL     1       0.767   0.166  -0.449  1.00  0.00     0.010 C 
ENDBRANCH  18  22
BRANCH  20  24
ATOM     24  C   UNL     1       1.751   0.113   2.595  1.00  0.00     0.001 A 
ATOM     25  C   UNL     1       0.999   1.288   2.705  1.00  0.00     0.010 A 
ATOM     26  C   UNL     1       3.148   0.183   2.658  1.00  0.00     0.010 A 
ATOM     27  C   UNL     1       1.638   2.524   2.826  1.00  0.00     0.001 A 
ATOM     28  C   UNL     1       3.786   1.419   2.784  1.00  0.00     0.001 A 
ATOM     29  C   UNL     1       3.030   2.589   2.859  1.00  0.00     0.000 A 
ENDBRANCH  20  24
ENDBRANCH  14  17
ENDBRANCH   6  13
ENDBRANCH   3   5
ENDBRANCH   2   3
ENDBRANCH   1   2
BRANCH   1  30
ATOM     30  C   UNL     1       2.954  -8.759   5.030  1.00  0.00     0.275 C 
BRANCH  30  31
ATOM     31  O   UNL     1       1.694  -9.463   4.978  1.00  0.00    -0.458 OA
BRANCH  31  32
ATOM     32  C   UNL     1       0.614  -8.716   4.661  1.00  0.00     0.338 C 
ATOM     33  O   UNL     1       0.586  -7.510   4.444  1.00  0.00    -0.246 OA
BRANCH  32  34
ATOM     34  C   UNL     1      -0.568  -9.568   4.468  1.00  0.00     0.060 A 
ATOM     35  C   UNL     1      -1.141  -9.620   3.194  1.00  0.00     0.016 A 
ATOM     36  C   UNL     1      -1.172 -10.225   5.540  1.00  0.00     0.016 A 
ATOM     37  C   UNL     1      -2.321 -10.322   2.980  1.00  0.00     0.010 A 
ATOM     38  C   UNL     1      -2.357 -10.937   5.324  1.00  0.00     0.010 A 
ATOM     39  C   UNL     1      -2.941 -10.982   4.045  1.00  0.00    -0.014 A 
BRANCH  39  40
ATOM     40  C   UNL     1      -4.215 -11.700   3.814  1.00  0.00     0.031 A 
ATOM     41  C   UNL     1      -5.506 -11.116   4.306  1.00  0.00     0.074 A 
ATOM     42  C   UNL     1      -4.207 -12.858   3.128  1.00  0.00     0.049 A 
ATOM     43  N   UNL     1      -6.708 -11.628   4.274  1.00  0.00    -0.248 NA
ATOM     44  C   UNL     1      -5.435  -9.776   4.911  1.00  0.00     0.031 C 
ATOM     45  C   UNL     1      -3.021 -13.480   2.535  1.00  0.00     0.029 A 
ATOM     46  N   UNL     1      -5.229 -13.711   2.806  1.00  0.00    -0.354 N 
ATOM     47  C   UNL     1      -7.536 -10.687   4.875  1.00  0.00     0.074 A 
ATOM     48  C   UNL     1      -6.695  -9.576   5.269  1.00  0.00     0.031 C 
ATOM     49  C   UNL     1      -3.387 -14.608   1.906  1.00  0.00     0.029 A 
ATOM     50  C   UNL     1      -4.819 -14.817   2.101  1.00  0.00     0.049 A 
ATOM     51  H   UNL     1      -6.168 -13.548   3.055  1.00  0.00     0.167 HD
ATOM     52  C   UNL     1      -8.874 -10.750   5.083  1.00  0.00     0.031 A 
ATOM     53  C   UNL     1      -5.513 -15.892   1.683  1.00  0.00     0.031 A 
ATOM     54  C   UNL     1      -9.696 -11.867   4.699  1.00  0.00     0.049 A 
ATOM     55  C   UNL     1      -6.979 -15.979   2.000  1.00  0.00     0.074 A 
ATOM     56  C   UNL     1     -11.056 -12.045   4.887  1.00  0.00     0.029 A 
ATOM     57  N   UNL     1      -9.232 -13.000   4.045  1.00  0.00    -0.354 N 
ATOM     58  N   UNL     1      -7.740 -15.105   2.615  1.00  0.00    -0.248 NA
ATOM     59  C   UNL     1      -7.676 -17.201   1.579  1.00  0.00     0.031 C 
ATOM     60  C   UNL     1     -11.406 -13.303   4.381  1.00  0.00     0.029 A 
ATOM     61  C   UNL     1     -10.273 -13.888   3.837  1.00  0.00     0.049 A 
ATOM     62  H   UNL     1      -8.299 -13.149   3.770  1.00  0.00     0.167 HD
ATOM     63  C   UNL     1      -9.011 -15.666   2.645  1.00  0.00     0.074 A 
ATOM     64  C   UNL     1      -8.917 -16.948   1.974  1.00  0.00     0.031 C 
ATOM     65  C   UNL     1     -10.152 -15.165   3.178  1.00  0.00     0.031 A 
BRANCH  52  66
ATOM     66  C   UNL     1      -9.507  -9.595   5.811  1.00  0.00    -0.014 A 
ATOM     67  C   UNL     1      -9.692  -8.349   5.185  1.00  0.00     0.010 A 
ATOM     68  C   UNL     1      -9.912  -9.755   7.149  1.00  0.00     0.010 A 
ATOM     69  C   UNL     1     -10.219  -7.269   5.900  1.00  0.00     0.020 A 
ATOM     70  C   UNL     1     -10.460  -8.684   7.861  1.00  0.00     0.020 A 
ATOM     71  C   UNL     1     -10.587  -7.440   7.238  1.00  0.00     0.054 A 
BRANCH  71  72
ATOM     72  S   UNL     1     -11.245  -6.020   8.156  1.00  0.00     0.124 S 
ATOM     73  O   UNL     1     -10.029  -5.268   8.457  1.00  0.00    -0.237 OA
ATOM     74  O   UNL     1     -12.145  -5.397   7.189  1.00  0.00    -0.237 OA
ATOM     75  O   UNL     1     -11.902  -6.630   9.310  1.00  0.00    -0.744 OA
ENDBRANCH  71  72
ENDBRANCH  52  66
BRANCH  53  76
ATOM     76  C   UNL     1      -4.815 -16.974   0.941  1.00  0.00    -0.014 A 
ATOM     77  C   UNL     1      -5.024 -17.139  -0.439  1.00  0.00     0.010 A 
ATOM     78  C   UNL     1      -3.898 -17.813   1.600  1.00  0.00     0.010 A 
ATOM     79  C   UNL     1      -4.323 -18.119  -1.148  1.00  0.00     0.020 A 
ATOM     80  C   UNL     1      -3.178 -18.778   0.891  1.00  0.00     0.020 A 
ATOM     81  C   UNL     1      -3.399 -18.928  -0.480  1.00  0.00     0.054 A 
BRANCH  81  82
ATOM     82  S   UNL     1      -2.433 -20.131  -1.435  1.00  0.00     0.124 S 
ATOM     83  O   UNL     1      -3.402 -21.202  -1.642  1.00  0.00    -0.237 OA
ATOM     84  O   UNL     1      -2.065 -19.370  -2.627  1.00  0.00    -0.237 OA
ATOM     85  O   UNL     1      -1.319 -20.456  -0.546  1.00  0.00    -0.744 OA
ENDBRANCH  81  82
ENDBRANCH  53  76
BRANCH  65  86
ATOM     86  C   UNL     1     -11.393 -16.002   3.037  1.00  0.00    -0.014 A 
ATOM     87  C   UNL     1     -11.598 -17.133   3.846  1.00  0.00     0.010 A 
ATOM     88  C   UNL     1     -12.379 -15.631   2.106  1.00  0.00     0.010 A 
ATOM     89  C   UNL     1     -12.759 -17.898   3.704  1.00  0.00     0.020 A 
ATOM     90  C   UNL     1     -13.549 -16.382   1.976  1.00  0.00     0.020 A 
ATOM     91  C   UNL     1     -13.725 -17.520   2.766  1.00  0.00     0.054 A 
BRANCH  91  92
ATOM     92  S   UNL     1     -15.241 -18.506   2.621  1.00  0.00     0.124 S 
ATOM     93  O   UNL     1     -14.781 -19.655   1.846  1.00  0.00    -0.237 OA
ATOM     94  O   UNL     1     -15.581 -18.784   4.015  1.00  0.00    -0.237 OA
ATOM     95  O   UNL     1     -16.167 -17.615   1.928  1.00  0.00    -0.744 OA
ENDBRANCH  91  92
ENDBRANCH  65  86
ENDBRANCH  39  40
ENDBRANCH  32  34
ENDBRANCH  31  32
ENDBRANCH  30  31
ENDBRANCH   1  30
TORSDOF 18
