REMARK SMILES O=C(CCC(=O)N1CCC[C@@]2(CCC(=O)N(Cc3ccncc3)C2)C1)OCCOC(=O)c1ccc(-c2c3nc(c(-c4ccc(S(=O)(=O)[O-])cc4)c4ccc([nH]4)c(-c4ccc(S(=O)(=O)[O-])cc4)c4nc(c(-c5ccc(S(=O)(=O)[O-])cc5)c5ccc2[nH]5)C=C4)C=C3)cc1
REMARK SMILES IDX 27 1 26 2 2 3 1 4 3 5 4 6 5 7 6 8 7 9 8 10 25 11 9 12 11 13
REMARK SMILES IDX 10 14 12 15 24 16 13 17 16 18 14 19 15 20 17 21 18 22 19 23
REMARK SMILES IDX 23 24 20 25 22 26 21 27 28 28 29 29 30 30 31 31 32 32 33 33
REMARK SMILES IDX 91 34 34 35 90 36 35 37 36 38 37 39 84 40 38 41 89 42 83 43
REMARK SMILES IDX 85 44 39 45 88 46 82 47 81 48 40 50 70 51 51 52 69 53 52 54
REMARK SMILES IDX 55 55 68 56 86 57 53 58 54 59 67 61 87 62 56 63 41 64 42 65
REMARK SMILES IDX 50 66 43 67 49 68 44 69 45 70 46 71 47 72 48 73 71 74 72 75
REMARK SMILES IDX 80 76 73 77 79 78 74 79 75 80 76 81 77 82 78 83 57 84 58 85
REMARK SMILES IDX 66 86 59 87 65 88 60 89 61 90 62 91 63 92 64 93
REMARK H PARENT 85 49 55 60
REMARK Flexibility Score: inf
ROOT
ATOM      1  C   UNL     1       5.004  -1.333  -0.806  1.00  0.00     0.274 C 
ENDROOT
BRANCH   1   2
ATOM      2  O   UNL     1       3.659  -0.844  -0.562  1.00  0.00    -0.462 OA
BRANCH   2   3
ATOM      3  C   UNL     1       3.080   0.276  -1.036  1.00  0.00     0.306 C 
ATOM      4  O   UNL     1       1.894   0.503  -0.805  1.00  0.00    -0.252 OA
BRANCH   3   5
ATOM      5  C   UNL     1       3.923   1.277  -1.772  1.00  0.00     0.132 C 
BRANCH   5   6
ATOM      6  C   UNL     1       4.574   2.320  -0.864  1.00  0.00     0.112 C 
BRANCH   6   7
ATOM      7  C   UNL     1       5.138   1.707   0.409  1.00  0.00     0.223 C 
ATOM      8  O   UNL     1       6.282   1.249   0.405  1.00  0.00    -0.275 OA
BRANCH   7   9
ATOM      9  N   UNL     1       4.269   1.531   1.483  1.00  0.00    -0.342 N 
ATOM     10  C   UNL     1       4.433   0.306   2.284  1.00  0.00     0.119 C 
ATOM     11  C   UNL     1       3.097   2.388   1.678  1.00  0.00     0.128 C 
ATOM     12  C   UNL     1       3.583   0.128   3.535  1.00  0.00     0.022 C 
ATOM     13  C   UNL     1       2.623   2.410   3.131  1.00  0.00     0.006 C 
ATOM     14  C   UNL     1       2.312   0.950   3.514  1.00  0.00     0.012 C 
ATOM     15  C   UNL     1       3.696   3.090   4.005  1.00  0.00     0.020 C 
ATOM     16  C   UNL     1       1.363   3.264   3.278  1.00  0.00     0.128 C 
ATOM     17  C   UNL     1       3.283   3.135   5.459  1.00  0.00     0.101 C 
ATOM     18  N   UNL     1       0.941   3.331   4.676  1.00  0.00    -0.338 N 
ATOM     19  C   UNL     1       1.843   3.520   5.718  1.00  0.00     0.222 C 
ATOM     20  O   UNL     1       1.513   3.810   6.868  1.00  0.00    -0.275 OA
BRANCH  18  21
ATOM     21  C   UNL     1      -0.451   3.032   4.991  1.00  0.00     0.155 C 
BRANCH  21  22
ATOM     22  C   UNL     1      -1.157   4.133   5.726  1.00  0.00    -0.026 A 
ATOM     23  C   UNL     1      -1.398   5.367   5.123  1.00  0.00     0.025 A 
ATOM     24  C   UNL     1      -1.524   3.956   7.064  1.00  0.00     0.025 A 
ATOM     25  C   UNL     1      -1.979   6.367   5.885  1.00  0.00     0.111 A 
ATOM     26  C   UNL     1      -2.091   5.019   7.742  1.00  0.00     0.111 A 
ATOM     27  N   UNL     1      -2.338   6.221   7.180  1.00  0.00    -0.265 NA
ENDBRANCH  21  22
ENDBRANCH  18  21
ENDBRANCH   7   9
ENDBRANCH   6   7
ENDBRANCH   5   6
ENDBRANCH   3   5
ENDBRANCH   2   3
ENDBRANCH   1   2
BRANCH   1  28
ATOM     28  C   UNL     1       4.986  -2.855  -0.631  1.00  0.00     0.275 C 
BRANCH  28  29
ATOM     29  O   UNL     1       4.292  -3.428  -1.744  1.00  0.00    -0.458 OA
BRANCH  29  30
ATOM     30  C   UNL     1       2.942  -3.257  -1.683  1.00  0.00     0.338 C 
ATOM     31  O   UNL     1       2.248  -3.394  -0.702  1.00  0.00    -0.246 OA
BRANCH  30  32
ATOM     32  C   UNL     1       2.515  -2.628  -2.964  1.00  0.00     0.060 A 
ATOM     33  C   UNL     1       1.319  -1.899  -2.990  1.00  0.00     0.016 A 
ATOM     34  C   UNL     1       3.322  -2.694  -4.107  1.00  0.00     0.016 A 
ATOM     35  C   UNL     1       0.883  -1.314  -4.181  1.00  0.00     0.010 A 
ATOM     36  C   UNL     1       2.897  -2.102  -5.289  1.00  0.00     0.010 A 
ATOM     37  C   UNL     1       1.647  -1.468  -5.344  1.00  0.00    -0.014 A 
BRANCH  37  38
ATOM     38  C   UNL     1       1.052  -1.252  -6.678  1.00  0.00     0.031 A 
ATOM     39  C   UNL     1       0.510  -2.464  -7.388  1.00  0.00     0.074 A 
ATOM     40  C   UNL     1       1.058  -0.046  -7.269  1.00  0.00     0.049 A 
ATOM     41  N   UNL     1       0.060  -2.579  -8.608  1.00  0.00    -0.248 NA
ATOM     42  C   UNL     1       0.498  -3.723  -6.619  1.00  0.00     0.031 C 
ATOM     43  C   UNL     1       1.540   1.195  -6.666  1.00  0.00     0.029 A 
ATOM     44  N   UNL     1       0.662   0.320  -8.529  1.00  0.00    -0.354 N 
ATOM     45  C   UNL     1      -0.279  -3.920  -8.754  1.00  0.00     0.074 A 
ATOM     46  C   UNL     1       0.058  -4.587  -7.518  1.00  0.00     0.031 C 
ATOM     47  C   UNL     1       1.420   2.189  -7.565  1.00  0.00     0.029 A 
ATOM     48  C   UNL     1       0.887   1.645  -8.813  1.00  0.00     0.049 A 
ATOM     49  H   UNL     1       0.254  -0.307  -9.169  1.00  0.00     0.167 HD
ATOM     50  C   UNL     1      -0.832  -4.540  -9.821  1.00  0.00     0.031 A 
ATOM     51  C   UNL     1       0.699   2.327  -9.960  1.00  0.00     0.031 A 
ATOM     52  C   UNL     1      -1.141  -3.872 -11.054  1.00  0.00     0.049 A 
ATOM     53  C   UNL     1       0.144   1.602 -11.161  1.00  0.00     0.074 A 
ATOM     54  C   UNL     1      -1.716  -4.397 -12.197  1.00  0.00     0.029 A 
ATOM     55  N   UNL     1      -0.893  -2.531 -11.306  1.00  0.00    -0.354 N 
ATOM     56  N   UNL     1      -0.206   0.342 -11.277  1.00  0.00    -0.248 NA
ATOM     57  C   UNL     1      -0.050   2.394 -12.383  1.00  0.00     0.031 C 
ATOM     58  C   UNL     1      -1.764  -3.385 -13.160  1.00  0.00     0.029 A 
ATOM     59  C   UNL     1      -1.282  -2.214 -12.594  1.00  0.00     0.049 A 
ATOM     60  H   UNL     1      -0.499  -1.899 -10.662  1.00  0.00     0.167 HD
ATOM     61  C   UNL     1      -0.696   0.200 -12.572  1.00  0.00     0.074 A 
ATOM     62  C   UNL     1      -0.604   1.504 -13.196  1.00  0.00     0.031 C 
ATOM     63  C   UNL     1      -1.183  -0.905 -13.190  1.00  0.00     0.031 A 
BRANCH  50  64
ATOM     64  C   UNL     1      -1.109  -6.014  -9.699  1.00  0.00    -0.014 A 
ATOM     65  C   UNL     1      -2.118  -6.494  -8.843  1.00  0.00     0.010 A 
ATOM     66  C   UNL     1      -0.365  -6.931 -10.462  1.00  0.00     0.010 A 
ATOM     67  C   UNL     1      -2.352  -7.866  -8.724  1.00  0.00     0.020 A 
ATOM     68  C   UNL     1      -0.617  -8.303 -10.369  1.00  0.00     0.020 A 
ATOM     69  C   UNL     1      -1.598  -8.762  -9.489  1.00  0.00     0.054 A 
BRANCH  69  70
ATOM     70  S   UNL     1      -1.943 -10.536  -9.335  1.00  0.00     0.124 S 
ATOM     71  O   UNL     1      -1.411 -10.832  -8.007  1.00  0.00    -0.237 OA
ATOM     72  O   UNL     1      -3.398 -10.590  -9.455  1.00  0.00    -0.237 OA
ATOM     73  O   UNL     1      -1.206 -11.130 -10.448  1.00  0.00    -0.744 OA
ENDBRANCH  69  70
ENDBRANCH  50  64
BRANCH  51  74
ATOM     74  C   UNL     1       1.030   3.776 -10.030  1.00  0.00    -0.014 A 
ATOM     75  C   UNL     1       0.008   4.735 -10.146  1.00  0.00     0.010 A 
ATOM     76  C   UNL     1       2.368   4.208  -9.980  1.00  0.00     0.010 A 
ATOM     77  C   UNL     1       0.317   6.096 -10.229  1.00  0.00     0.020 A 
ATOM     78  C   UNL     1       2.680   5.570 -10.033  1.00  0.00     0.020 A 
ATOM     79  C   UNL     1       1.652   6.505 -10.168  1.00  0.00     0.054 A 
BRANCH  79  80
ATOM     80  S   UNL     1       2.024   8.280 -10.221  1.00  0.00     0.124 S 
ATOM     81  O   UNL     1       1.740   8.609 -11.614  1.00  0.00    -0.237 OA
ATOM     82  O   UNL     1       1.092   8.826  -9.238  1.00  0.00    -0.237 OA
ATOM     83  O   UNL     1       3.432   8.346  -9.836  1.00  0.00    -0.744 OA
ENDBRANCH  79  80
ENDBRANCH  51  74
BRANCH  63  84
ATOM     84  C   UNL     1      -1.696  -0.748 -14.597  1.00  0.00    -0.014 A 
ATOM     85  C   UNL     1      -0.822  -0.549 -15.679  1.00  0.00     0.010 A 
ATOM     86  C   UNL     1      -3.077  -0.873 -14.844  1.00  0.00     0.010 A 
ATOM     87  C   UNL     1      -1.322  -0.447 -16.980  1.00  0.00     0.020 A 
ATOM     88  C   UNL     1      -3.577  -0.803 -16.146  1.00  0.00     0.020 A 
ATOM     89  C   UNL     1      -2.696  -0.576 -17.205  1.00  0.00     0.054 A 
BRANCH  89  90
ATOM     90  S   UNL     1      -3.313  -0.488 -18.908  1.00  0.00     0.124 S 
ATOM     91  O   UNL     1      -3.173   0.934 -19.208  1.00  0.00    -0.237 OA
ATOM     92  O   UNL     1      -2.401  -1.375 -19.625  1.00  0.00    -0.237 OA
ATOM     93  O   UNL     1      -4.689  -0.970 -18.804  1.00  0.00    -0.744 OA
ENDBRANCH  89  90
ENDBRANCH  63  84
ENDBRANCH  37  38
ENDBRANCH  30  32
ENDBRANCH  29  30
ENDBRANCH  28  29
ENDBRANCH   1  28
TORSDOF 19
