REMARK SMILES O=C(OCCOC(=O)[C@@H]1CN(c2ncccn2)CCN1C(=O)C1CCOCC1)c1ccc(-c2c3nc(c(-c4ccc(S(=O)(=O)[O-])cc4)c4ccc([nH]4)c(-c4ccc(S(=O)(=O)[O-])cc4)c4nc(c(-c5ccc(S(=O)(=O)[O-])cc5)c5ccc2[nH]5)C=C4)C=C3)cc1
REMARK SMILES IDX 4 1 3 2 2 3 1 4 29 5 30 6 88 7 31 8 87 9 32 10 33 11 34 12
REMARK SMILES IDX 81 13 35 14 86 15 80 16 82 17 36 18 85 19 79 20 78 21 37 23
REMARK SMILES IDX 67 24 48 25 66 26 49 27 52 28 65 29 83 30 50 31 51 32 64 34
REMARK SMILES IDX 84 35 53 36 38 37 39 38 47 39 40 40 46 41 41 42 42 43 43 44
REMARK SMILES IDX 44 45 45 46 68 47 69 48 77 49 70 50 76 51 71 52 72 53 73 54
REMARK SMILES IDX 74 55 75 56 54 57 55 58 63 59 56 60 62 61 57 62 58 63 59 64
REMARK SMILES IDX 60 65 61 66 5 67 6 68 7 69 8 70 9 71 10 72 20 73 11 74 19 75
REMARK SMILES IDX 18 76 21 77 22 78 23 79 24 80 28 81 25 82 27 83 26 84 12 85
REMARK SMILES IDX 13 86 17 87 14 88 16 89 15 90
REMARK H PARENT 82 22 52 33
REMARK Flexibility Score: inf
ROOT
ATOM      1  C   UNL     1       4.507   1.235  -0.759  1.00  0.00     0.275 C 
ENDROOT
BRANCH   1   2
ATOM      2  O   UNL     1       3.656   0.256  -1.365  1.00  0.00    -0.458 OA
BRANCH   2   3
ATOM      3  C   UNL     1       3.810  -1.091  -1.335  1.00  0.00     0.338 C 
ATOM      4  O   UNL     1       3.231  -1.820  -2.134  1.00  0.00    -0.246 OA
BRANCH   3   5
ATOM      5  C   UNL     1       4.532  -1.689  -0.191  1.00  0.00     0.060 A 
ATOM      6  C   UNL     1       5.806  -1.285   0.214  1.00  0.00     0.016 A 
ATOM      7  C   UNL     1       3.862  -2.679   0.530  1.00  0.00     0.016 A 
ATOM      8  C   UNL     1       6.341  -1.737   1.417  1.00  0.00     0.010 A 
ATOM      9  C   UNL     1       4.413  -3.156   1.716  1.00  0.00     0.010 A 
ATOM     10  C   UNL     1       5.641  -2.663   2.189  1.00  0.00    -0.014 A 
BRANCH  10  11
ATOM     11  C   UNL     1       6.295  -3.256   3.376  1.00  0.00     0.031 A 
ATOM     12  C   UNL     1       6.725  -4.690   3.262  1.00  0.00     0.074 A 
ATOM     13  C   UNL     1       6.524  -2.539   4.497  1.00  0.00     0.049 A 
ATOM     14  N   UNL     1       7.342  -5.441   4.133  1.00  0.00    -0.248 NA
ATOM     15  C   UNL     1       6.406  -5.379   1.996  1.00  0.00     0.031 C 
ATOM     16  C   UNL     1       6.096  -1.156   4.739  1.00  0.00     0.029 A 
ATOM     17  N   UNL     1       7.136  -2.893   5.675  1.00  0.00    -0.354 N 
ATOM     18  C   UNL     1       7.543  -6.653   3.485  1.00  0.00     0.074 A 
ATOM     19  C   UNL     1       6.830  -6.606   2.234  1.00  0.00     0.031 C 
ATOM     20  C   UNL     1       6.368  -0.820   6.014  1.00  0.00     0.029 A 
ATOM     21  C   UNL     1       7.043  -1.935   6.662  1.00  0.00     0.049 A 
ATOM     22  H   UNL     1       7.599  -3.753   5.802  1.00  0.00     0.167 HD
ATOM     23  C   UNL     1       8.349  -7.676   3.844  1.00  0.00     0.031 A 
ATOM     24  C   UNL     1       7.458  -1.971   7.945  1.00  0.00     0.031 A 
ATOM     25  C   UNL     1       9.062  -7.706   5.084  1.00  0.00     0.049 A 
ATOM     26  C   UNL     1       8.255  -3.172   8.386  1.00  0.00     0.074 A 
ATOM     27  C   UNL     1       9.919  -8.672   5.569  1.00  0.00     0.029 A 
ATOM     28  N   UNL     1       8.996  -6.700   6.038  1.00  0.00    -0.354 N 
ATOM     29  N   UNL     1       8.513  -4.277   7.721  1.00  0.00    -0.248 NA
ATOM     30  C   UNL     1       8.870  -3.111   9.717  1.00  0.00     0.031 C 
ATOM     31  C   UNL     1      10.342  -8.267   6.840  1.00  0.00     0.029 A 
ATOM     32  C   UNL     1       9.786  -7.026   7.120  1.00  0.00     0.049 A 
ATOM     33  H   UNL     1       8.463  -5.875   5.954  1.00  0.00     0.167 HD
ATOM     34  C   UNL     1       9.380  -5.007   8.525  1.00  0.00     0.074 A 
ATOM     35  C   UNL     1       9.586  -4.226   9.729  1.00  0.00     0.031 C 
ATOM     36  C   UNL     1       9.971  -6.205   8.289  1.00  0.00     0.031 A 
BRANCH  23  37
ATOM     37  C   UNL     1       8.523  -8.775   2.834  1.00  0.00    -0.014 A 
ATOM     38  C   UNL     1       9.188  -8.515   1.617  1.00  0.00     0.010 A 
ATOM     39  C   UNL     1       7.973 -10.047   3.055  1.00  0.00     0.010 A 
ATOM     40  C   UNL     1       9.241  -9.484   0.615  1.00  0.00     0.020 A 
ATOM     41  C   UNL     1       8.053 -11.032   2.064  1.00  0.00     0.020 A 
ATOM     42  C   UNL     1       8.666 -10.736   0.843  1.00  0.00     0.054 A 
BRANCH  42  43
ATOM     43  S   UNL     1       8.746 -11.975  -0.478  1.00  0.00     0.124 S 
ATOM     44  O   UNL     1       7.781 -11.451  -1.441  1.00  0.00    -0.237 OA
ATOM     45  O   UNL     1      10.145 -11.909  -0.892  1.00  0.00    -0.237 OA
ATOM     46  O   UNL     1       8.354 -13.214   0.187  1.00  0.00    -0.744 OA
ENDBRANCH  42  43
ENDBRANCH  23  37
BRANCH  24  47
ATOM     47  C   UNL     1       7.176  -0.851   8.891  1.00  0.00    -0.014 A 
ATOM     48  C   UNL     1       8.203   0.005   9.331  1.00  0.00     0.010 A 
ATOM     49  C   UNL     1       5.881  -0.673   9.412  1.00  0.00     0.010 A 
ATOM     50  C   UNL     1       7.955   0.976  10.310  1.00  0.00     0.020 A 
ATOM     51  C   UNL     1       5.623   0.310  10.378  1.00  0.00     0.020 A 
ATOM     52  C   UNL     1       6.668   1.116  10.836  1.00  0.00     0.054 A 
BRANCH  52  53
ATOM     53  S   UNL     1       6.378   2.372  12.117  1.00  0.00     0.124 S 
ATOM     54  O   UNL     1       7.095   1.813  13.259  1.00  0.00    -0.237 OA
ATOM     55  O   UNL     1       6.971   3.567  11.522  1.00  0.00    -0.237 OA
ATOM     56  O   UNL     1       4.924   2.404  12.246  1.00  0.00    -0.744 OA
ENDBRANCH  52  53
ENDBRANCH  24  47
BRANCH  36  57
ATOM     57  C   UNL     1      10.940  -6.704   9.322  1.00  0.00    -0.014 A 
ATOM     58  C   UNL     1      10.496  -7.196  10.560  1.00  0.00     0.010 A 
ATOM     59  C   UNL     1      12.311  -6.741   9.009  1.00  0.00     0.010 A 
ATOM     60  C   UNL     1      11.416  -7.691  11.485  1.00  0.00     0.020 A 
ATOM     61  C   UNL     1      13.229  -7.266   9.918  1.00  0.00     0.020 A 
ATOM     62  C   UNL     1      12.776  -7.725  11.156  1.00  0.00     0.054 A 
BRANCH  62  63
ATOM     63  S   UNL     1      13.943  -8.424  12.352  1.00  0.00     0.124 S 
ATOM     64  O   UNL     1      14.028  -7.360  13.348  1.00  0.00    -0.237 OA
ATOM     65  O   UNL     1      13.264  -9.642  12.787  1.00  0.00    -0.237 OA
ATOM     66  O   UNL     1      15.155  -8.641  11.566  1.00  0.00    -0.744 OA
ENDBRANCH  62  63
ENDBRANCH  36  57
ENDBRANCH  10  11
ENDBRANCH   3   5
ENDBRANCH   2   3
ENDBRANCH   1   2
BRANCH   1  67
ATOM     67  C   UNL     1       4.385   1.639   0.729  1.00  0.00     0.274 C 
BRANCH  67  68
ATOM     68  O   UNL     1       3.847   0.832   1.798  1.00  0.00    -0.460 OA
BRANCH  68  69
ATOM     69  C   UNL     1       2.609   0.281   1.715  1.00  0.00     0.330 C 
ATOM     70  O   UNL     1       2.084  -0.067   0.671  1.00  0.00    -0.250 OA
BRANCH  69  71
ATOM     71  C   UNL     1       1.974   0.059   3.099  1.00  0.00     0.214 C 
ATOM     72  C   UNL     1       2.543  -1.336   3.480  1.00  0.00     0.157 C 
ATOM     73  N   UNL     1       0.460   0.092   3.196  1.00  0.00    -0.325 N 
ATOM     74  N   UNL     1       1.944  -1.926   4.672  1.00  0.00    -0.336 N 
ATOM     75  C   UNL     1      -0.078  -0.669   4.357  1.00  0.00     0.142 C 
ATOM     76  C   UNL     1       0.507  -2.073   4.545  1.00  0.00     0.141 C 
BRANCH  73  77
ATOM     77  C   UNL     1      -0.432   1.040   2.700  1.00  0.00     0.226 C 
ATOM     78  O   UNL     1      -1.608   1.046   3.103  1.00  0.00    -0.275 OA
BRANCH  77  79
ATOM     79  C   UNL     1      -0.126   2.068   1.605  1.00  0.00     0.083 C 
ATOM     80  C   UNL     1      -0.184   1.463   0.197  1.00  0.00     0.042 C 
ATOM     81  C   UNL     1       0.993   3.054   1.915  1.00  0.00     0.042 C 
ATOM     82  C   UNL     1       0.651   2.178  -0.861  1.00  0.00     0.161 C 
ATOM     83  C   UNL     1       1.427   3.801   0.671  1.00  0.00     0.161 C 
ATOM     84  O   UNL     1       1.782   2.869  -0.339  1.00  0.00    -0.381 OA
ENDBRANCH  77  79
ENDBRANCH  73  77
BRANCH  74  85
ATOM     85  C   UNL     1       2.600  -3.075   5.101  1.00  0.00     0.225 A 
ATOM     86  N   UNL     1       2.454  -4.223   4.413  1.00  0.00    -0.221 NA
ATOM     87  N   UNL     1       3.393  -2.954   6.171  1.00  0.00    -0.221 NA
ATOM     88  C   UNL     1       3.190  -5.281   4.826  1.00  0.00     0.117 A 
ATOM     89  C   UNL     1       4.106  -4.038   6.542  1.00  0.00     0.117 A 
ATOM     90  C   UNL     1       4.053  -5.242   5.890  1.00  0.00     0.040 A 
ENDBRANCH  74  85
ENDBRANCH  69  71
ENDBRANCH  68  69
ENDBRANCH  67  68
ENDBRANCH   1  67
TORSDOF 17
