REMARK SMILES C[C@]1(CCC(=O)OCCOC(=O)c2ccc(-c3c4nc(c(-c5ccc(S(=O)(=O)[O-])cc5)c5ccc([nH]5)c(-c5ccc(S(=O)(=O)[O-])cc5)c5nc(c(-c6ccc(S(=O)(=O)[O-])cc6)c6ccc3[nH]6)C=C5)C=C4)cc2)CCCCC1=O
REMARK SMILES IDX 9 1 8 2 7 3 5 4 6 5 4 6 3 7 2 8 1 9 73 10 77 11 74 12 76 13
REMARK SMILES IDX 78 14 75 15 10 16 11 17 12 18 13 19 14 20 72 21 15 22 71 23
REMARK SMILES IDX 16 24 17 25 18 26 65 27 19 28 70 29 64 30 66 31 20 32 69 33
REMARK SMILES IDX 63 34 62 35 21 37 51 38 32 39 50 40 33 41 36 42 49 43 67 44
REMARK SMILES IDX 34 45 35 46 48 48 68 49 37 50 22 51 23 52 31 53 24 54 30 55
REMARK SMILES IDX 25 56 26 57 27 58 28 59 29 60 52 61 53 62 61 63 54 64 60 65
REMARK SMILES IDX 55 66 56 67 57 68 58 69 59 70 38 71 39 72 47 73 40 74 46 75
REMARK SMILES IDX 41 76 42 77 43 78 44 79 45 80
REMARK H PARENT 66 36 36 47
REMARK Flexibility Score: inf
ROOT
ATOM      1  C   UNL     1      -2.554  -2.555  -1.548  1.00  0.00     0.275 C 
ENDROOT
BRANCH   1   2
ATOM      2  C   UNL     1      -2.778  -1.548  -0.421  1.00  0.00     0.274 C 
BRANCH   2   3
ATOM      3  O   UNL     1      -1.555  -0.858  -0.097  1.00  0.00    -0.462 OA
BRANCH   3   4
ATOM      4  C   UNL     1      -1.000  -1.127   1.106  1.00  0.00     0.305 C 
ATOM      5  O   UNL     1      -1.477  -1.885   1.942  1.00  0.00    -0.252 OA
BRANCH   4   6
ATOM      6  C   UNL     1       0.282  -0.365   1.365  1.00  0.00     0.124 C 
BRANCH   6   7
ATOM      7  C   UNL     1       0.979   0.324   0.190  1.00  0.00     0.026 C 
BRANCH   7   8
ATOM      8  C   UNL     1       0.402   1.657  -0.387  1.00  0.00     0.027 C 
ATOM      9  C   UNL     1      -0.022   1.409  -1.855  1.00  0.00     0.019 C 
ATOM     10  C   UNL     1      -0.797   2.290   0.362  1.00  0.00     0.014 C 
ATOM     11  C   UNL     1       1.533   2.708  -0.397  1.00  0.00     0.138 C 
ATOM     12  C   UNL     1      -0.468   2.962   1.698  1.00  0.00     0.001 C 
ATOM     13  C   UNL     1       1.894   3.337   0.932  1.00  0.00     0.076 C 
ATOM     14  O   UNL     1       2.166   3.001  -1.412  1.00  0.00    -0.299 OA
ATOM     15  C   UNL     1       0.666   3.967   1.562  1.00  0.00     0.008 C 
ENDBRANCH   7   8
ENDBRANCH   6   7
ENDBRANCH   4   6
ENDBRANCH   3   4
ENDBRANCH   2   3
ENDBRANCH   1   2
BRANCH   1  16
ATOM     16  O   UNL     1      -1.673  -3.609  -1.125  1.00  0.00    -0.458 OA
BRANCH  16  17
ATOM     17  C   UNL     1      -0.365  -3.401  -1.407  1.00  0.00     0.338 C 
ATOM     18  O   UNL     1       0.123  -2.471  -2.023  1.00  0.00    -0.246 OA
BRANCH  17  19
ATOM     19  C   UNL     1       0.441  -4.417  -0.722  1.00  0.00     0.060 A 
ATOM     20  C   UNL     1       1.135  -4.036   0.427  1.00  0.00     0.016 A 
ATOM     21  C   UNL     1       0.587  -5.697  -1.252  1.00  0.00     0.016 A 
ATOM     22  C   UNL     1       2.005  -4.926   1.045  1.00  0.00     0.010 A 
ATOM     23  C   UNL     1       1.446  -6.599  -0.619  1.00  0.00     0.010 A 
ATOM     24  C   UNL     1       2.172  -6.213   0.523  1.00  0.00    -0.014 A 
BRANCH  24  25
ATOM     25  C   UNL     1       3.152  -7.136   1.142  1.00  0.00     0.031 A 
ATOM     26  C   UNL     1       4.415  -7.480   0.404  1.00  0.00     0.074 A 
ATOM     27  C   UNL     1       2.916  -7.646   2.365  1.00  0.00     0.049 A 
ATOM     28  N   UNL     1       5.333  -8.361   0.706  1.00  0.00    -0.248 NA
ATOM     29  C   UNL     1       4.676  -6.738  -0.841  1.00  0.00     0.031 C 
ATOM     30  C   UNL     1       1.756  -7.332   3.203  1.00  0.00     0.029 A 
ATOM     31  N   UNL     1       3.639  -8.536   3.116  1.00  0.00    -0.354 N 
ATOM     32  C   UNL     1       6.261  -8.308  -0.327  1.00  0.00     0.074 A 
ATOM     33  C   UNL     1       5.793  -7.312  -1.267  1.00  0.00     0.031 C 
ATOM     34  C   UNL     1       1.852  -8.015   4.356  1.00  0.00     0.029 A 
ATOM     35  C   UNL     1       3.042  -8.858   4.311  1.00  0.00     0.049 A 
ATOM     36  H   UNL     1       4.503  -8.909   2.827  1.00  0.00     0.167 HD
ATOM     37  C   UNL     1       7.396  -9.031  -0.479  1.00  0.00     0.031 A 
ATOM     38  C   UNL     1       3.394  -9.759   5.248  1.00  0.00     0.031 A 
ATOM     39  C   UNL     1       7.855 -10.011   0.468  1.00  0.00     0.049 A 
ATOM     40  C   UNL     1       4.629 -10.588   5.032  1.00  0.00     0.074 A 
ATOM     41  C   UNL     1       8.989 -10.803   0.409  1.00  0.00     0.029 A 
ATOM     42  N   UNL     1       7.207 -10.329   1.653  1.00  0.00    -0.354 N 
ATOM     43  N   UNL     1       5.476 -10.556   4.031  1.00  0.00    -0.248 NA
ATOM     44  C   UNL     1       4.951 -11.580   6.066  1.00  0.00     0.031 C 
ATOM     45  C   UNL     1       9.004 -11.627   1.540  1.00  0.00     0.029 A 
ATOM     46  C   UNL     1       7.907 -11.315   2.326  1.00  0.00     0.049 A 
ATOM     47  H   UNL     1       6.371  -9.914   1.968  1.00  0.00     0.167 HD
ATOM     48  C   UNL     1       6.441 -11.513   4.322  1.00  0.00     0.074 A 
ATOM     49  C   UNL     1       6.081 -12.095   5.599  1.00  0.00     0.031 C 
ATOM     50  C   UNL     1       7.527 -11.879   3.597  1.00  0.00     0.031 A 
BRANCH  37  51
ATOM     51  C   UNL     1       8.188  -8.821  -1.741  1.00  0.00    -0.014 A 
ATOM     52  C   UNL     1       8.951  -7.657  -1.943  1.00  0.00     0.010 A 
ATOM     53  C   UNL     1       8.184  -9.818  -2.734  1.00  0.00     0.010 A 
ATOM     54  C   UNL     1       9.664  -7.477  -3.132  1.00  0.00     0.020 A 
ATOM     55  C   UNL     1       8.913  -9.652  -3.914  1.00  0.00     0.020 A 
ATOM     56  C   UNL     1       9.634  -8.473  -4.114  1.00  0.00     0.054 A 
BRANCH  56  57
ATOM     57  S   UNL     1      10.575  -8.221  -5.645  1.00  0.00     0.124 S 
ATOM     58  O   UNL     1       9.736  -7.261  -6.358  1.00  0.00    -0.237 OA
ATOM     59  O   UNL     1      11.850  -7.702  -5.159  1.00  0.00    -0.237 OA
ATOM     60  O   UNL     1      10.635  -9.555  -6.237  1.00  0.00    -0.744 OA
ENDBRANCH  56  57
ENDBRANCH  37  51
BRANCH  38  61
ATOM     61  C   UNL     1       2.539  -9.948   6.451  1.00  0.00    -0.014 A 
ATOM     62  C   UNL     1       2.978  -9.524   7.716  1.00  0.00     0.010 A 
ATOM     63  C   UNL     1       1.265 -10.534   6.329  1.00  0.00     0.010 A 
ATOM     64  C   UNL     1       2.162  -9.689   8.840  1.00  0.00     0.020 A 
ATOM     65  C   UNL     1       0.437 -10.677   7.445  1.00  0.00     0.020 A 
ATOM     66  C   UNL     1       0.895 -10.262   8.696  1.00  0.00     0.054 A 
BRANCH  66  67
ATOM     67  S   UNL     1      -0.175 -10.408  10.155  1.00  0.00     0.124 S 
ATOM     68  O   UNL     1       0.406 -11.556  10.843  1.00  0.00    -0.237 OA
ATOM     69  O   UNL     1       0.006  -9.117  10.813  1.00  0.00    -0.237 OA
ATOM     70  O   UNL     1      -1.502 -10.626   9.583  1.00  0.00    -0.744 OA
ENDBRANCH  66  67
ENDBRANCH  38  61
BRANCH  50  71
ATOM     71  C   UNL     1       8.419 -12.936   4.185  1.00  0.00    -0.014 A 
ATOM     72  C   UNL     1       8.040 -14.290   4.181  1.00  0.00     0.010 A 
ATOM     73  C   UNL     1       9.677 -12.573   4.700  1.00  0.00     0.010 A 
ATOM     74  C   UNL     1       8.895 -15.261   4.708  1.00  0.00     0.020 A 
ATOM     75  C   UNL     1      10.542 -13.544   5.208  1.00  0.00     0.020 A 
ATOM     76  C   UNL     1      10.140 -14.882   5.221  1.00  0.00     0.054 A 
BRANCH  76  77
ATOM     77  S   UNL     1      11.251 -16.164   5.860  1.00  0.00     0.124 S 
ATOM     78  O   UNL     1      10.655 -16.462   7.160  1.00  0.00    -0.237 OA
ATOM     79  O   UNL     1      11.135 -17.221   4.858  1.00  0.00    -0.237 OA
ATOM     80  O   UNL     1      12.553 -15.501   5.908  1.00  0.00    -0.744 OA
ENDBRANCH  76  77
ENDBRANCH  50  71
ENDBRANCH  24  25
ENDBRANCH  17  19
ENDBRANCH  16  17
ENDBRANCH   1  16
TORSDOF 16
