REMARK SMILES O=C(OCCOC(=O)[C@H]1Cc2[nH]cnc2CN1C(=O)c1ccncc1Cl)c1ccc(-c2c3nc(c(-c4ccc(S(=O)(=O)[O-])cc4)c4ccc([nH]4)c(-c4ccc(S(=O)(=O)[O-])cc4)c4nc(c(-c5ccc(S(=O)(=O)[O-])cc5)c5ccc2[nH]5)C=C4)C=C3)cc1
REMARK SMILES IDX 4 1 3 2 2 3 1 4 27 5 28 6 86 7 29 8 85 9 30 10 31 11 32 12
REMARK SMILES IDX 79 13 33 14 84 15 78 16 80 17 34 18 83 19 77 20 76 21 35 23
REMARK SMILES IDX 65 24 46 25 64 26 47 27 50 28 63 29 81 30 48 31 49 32 62 34
REMARK SMILES IDX 82 35 51 36 36 37 37 38 45 39 38 40 44 41 39 42 40 43 41 44
REMARK SMILES IDX 42 45 43 46 66 47 67 48 75 49 68 50 74 51 69 52 70 53 71 54
REMARK SMILES IDX 72 55 73 56 52 57 53 58 61 59 54 60 60 61 55 62 56 63 57 64
REMARK SMILES IDX 58 65 59 66 5 67 6 68 7 69 8 70 9 71 10 72 17 73 11 74 16 75
REMARK SMILES IDX 12 76 15 77 13 78 14 80 18 81 19 82 20 83 21 84 25 85 22 86
REMARK SMILES IDX 24 87 26 88 23 89
REMARK H PARENT 80 22 50 33 12 79
REMARK Flexibility Score: inf
ROOT
ATOM      1  C   UNL     1       5.157  -0.775  -0.667  1.00  0.00     0.275 C 
ENDROOT
BRANCH   1   2
ATOM      2  O   UNL     1       4.351  -0.979   0.494  1.00  0.00    -0.458 OA
BRANCH   2   3
ATOM      3  C   UNL     1       3.094  -0.504   0.534  1.00  0.00     0.338 C 
ATOM      4  O   UNL     1       2.364  -0.303  -0.403  1.00  0.00    -0.246 OA
BRANCH   3   5
ATOM      5  C   UNL     1       2.773  -0.156   1.924  1.00  0.00     0.060 A 
ATOM      6  C   UNL     1       3.744  -0.240   2.923  1.00  0.00     0.016 A 
ATOM      7  C   UNL     1       1.474   0.262   2.214  1.00  0.00     0.016 A 
ATOM      8  C   UNL     1       3.359  -0.084   4.231  1.00  0.00     0.010 A 
ATOM      9  C   UNL     1       1.070   0.382   3.519  1.00  0.00     0.010 A 
ATOM     10  C   UNL     1       2.010   0.155   4.512  1.00  0.00    -0.014 A 
BRANCH  10  11
ATOM     11  C   UNL     1       1.639   0.402   5.880  1.00  0.00     0.031 A 
ATOM     12  C   UNL     1       2.166   1.704   6.346  1.00  0.00     0.074 A 
ATOM     13  C   UNL     1       0.835  -0.419   6.574  1.00  0.00     0.049 A 
ATOM     14  N   UNL     1       3.271   1.897   6.988  1.00  0.00    -0.248 NA
ATOM     15  C   UNL     1       1.579   2.938   5.792  1.00  0.00     0.031 C 
ATOM     16  C   UNL     1       0.052  -1.560   6.095  1.00  0.00     0.029 A 
ATOM     17  N   UNL     1       0.481  -0.339   7.877  1.00  0.00    -0.354 N 
ATOM     18  C   UNL     1       3.330   3.266   7.200  1.00  0.00     0.074 A 
ATOM     19  C   UNL     1       2.453   3.852   6.220  1.00  0.00     0.031 C 
ATOM     20  C   UNL     1      -0.859  -1.901   7.039  1.00  0.00     0.029 A 
ATOM     21  C   UNL     1      -0.620  -1.105   8.232  1.00  0.00     0.049 A 
ATOM     22  H   UNL     1       0.969   0.220   8.524  1.00  0.00     0.167 HD
ATOM     23  C   UNL     1       3.784   3.751   8.391  1.00  0.00     0.031 A 
ATOM     24  C   UNL     1      -1.302  -1.027   9.406  1.00  0.00     0.031 A 
ATOM     25  C   UNL     1       4.477   2.721   9.136  1.00  0.00     0.049 A 
ATOM     26  C   UNL     1      -0.386  -0.385  10.389  1.00  0.00     0.074 A 
ATOM     27  C   UNL     1       5.556   1.894   8.889  1.00  0.00     0.029 A 
ATOM     28  N   UNL     1       3.769   2.130  10.159  1.00  0.00    -0.354 N 
ATOM     29  N   UNL     1       0.721  -0.948  10.796  1.00  0.00    -0.248 NA
ATOM     30  C   UNL     1      -0.422   1.066  10.510  1.00  0.00     0.031 C 
ATOM     31  C   UNL     1       5.190   0.633   9.449  1.00  0.00     0.029 A 
ATOM     32  C   UNL     1       3.958   0.776  10.092  1.00  0.00     0.049 A 
ATOM     33  H   UNL     1       3.221   2.601  10.827  1.00  0.00     0.167 HD
ATOM     34  C   UNL     1       1.664   0.072  10.788  1.00  0.00     0.074 A 
ATOM     35  C   UNL     1       0.881   1.307  10.688  1.00  0.00     0.031 C 
ATOM     36  C   UNL     1       2.986  -0.192  10.558  1.00  0.00     0.031 A 
BRANCH  23  37
ATOM     37  C   UNL     1       3.143   4.931   9.093  1.00  0.00    -0.014 A 
ATOM     38  C   UNL     1       3.606   5.255  10.386  1.00  0.00     0.010 A 
ATOM     39  C   UNL     1       1.924   5.516   8.691  1.00  0.00     0.010 A 
ATOM     40  C   UNL     1       2.821   6.000  11.272  1.00  0.00     0.020 A 
ATOM     41  C   UNL     1       1.153   6.296   9.552  1.00  0.00     0.020 A 
ATOM     42  C   UNL     1       1.588   6.497  10.853  1.00  0.00     0.054 A 
BRANCH  42  43
ATOM     43  S   UNL     1       0.536   7.360  12.040  1.00  0.00     0.124 S 
ATOM     44  O   UNL     1       0.206   6.291  12.976  1.00  0.00    -0.237 OA
ATOM     45  O   UNL     1       1.435   8.394  12.545  1.00  0.00    -0.237 OA
ATOM     46  O   UNL     1      -0.571   7.848  11.222  1.00  0.00    -0.744 OA
ENDBRANCH  42  43
ENDBRANCH  23  37
BRANCH  24  47
ATOM     47  C   UNL     1      -2.774  -1.114   9.611  1.00  0.00    -0.014 A 
ATOM     48  C   UNL     1      -3.333  -1.180  10.902  1.00  0.00     0.010 A 
ATOM     49  C   UNL     1      -3.650  -0.841   8.540  1.00  0.00     0.010 A 
ATOM     50  C   UNL     1      -4.701  -0.923  11.119  1.00  0.00     0.020 A 
ATOM     51  C   UNL     1      -5.013  -0.588   8.746  1.00  0.00     0.020 A 
ATOM     52  C   UNL     1      -5.529  -0.606  10.039  1.00  0.00     0.054 A 
BRANCH  52  53
ATOM     53  S   UNL     1      -7.252  -0.100  10.339  1.00  0.00     0.124 S 
ATOM     54  O   UNL     1      -7.874  -1.349  10.768  1.00  0.00    -0.237 OA
ATOM     55  O   UNL     1      -7.110   0.921  11.373  1.00  0.00    -0.237 OA
ATOM     56  O   UNL     1      -7.697   0.398   9.039  1.00  0.00    -0.744 OA
ENDBRANCH  52  53
ENDBRANCH  24  47
BRANCH  36  57
ATOM     57  C   UNL     1       3.456  -1.628  10.614  1.00  0.00    -0.014 A 
ATOM     58  C   UNL     1       3.021  -2.647   9.742  1.00  0.00     0.010 A 
ATOM     59  C   UNL     1       4.502  -1.914  11.508  1.00  0.00     0.010 A 
ATOM     60  C   UNL     1       3.599  -3.926   9.793  1.00  0.00     0.020 A 
ATOM     61  C   UNL     1       5.092  -3.177  11.551  1.00  0.00     0.020 A 
ATOM     62  C   UNL     1       4.630  -4.183  10.703  1.00  0.00     0.054 A 
BRANCH  62  63
ATOM     63  S   UNL     1       5.392  -5.829  10.764  1.00  0.00     0.124 S 
ATOM     64  O   UNL     1       4.309  -6.663  11.275  1.00  0.00    -0.237 OA
ATOM     65  O   UNL     1       5.767  -6.065   9.371  1.00  0.00    -0.237 OA
ATOM     66  O   UNL     1       6.522  -5.657  11.677  1.00  0.00    -0.744 OA
ENDBRANCH  62  63
ENDBRANCH  36  57
ENDBRANCH  10  11
ENDBRANCH   3   5
ENDBRANCH   2   3
ENDBRANCH   1   2
BRANCH   1  67
ATOM     67  C   UNL     1       4.742   0.324  -1.659  1.00  0.00     0.274 C 
BRANCH  67  68
ATOM     68  O   UNL     1       4.208   1.477  -0.981  1.00  0.00    -0.461 OA
BRANCH  68  69
ATOM     69  C   UNL     1       3.119   2.058  -1.595  1.00  0.00     0.329 C 
ATOM     70  O   UNL     1       2.902   1.995  -2.797  1.00  0.00    -0.250 OA
BRANCH  69  71
ATOM     71  C   UNL     1       2.352   2.928  -0.577  1.00  0.00     0.201 C 
ATOM     72  C   UNL     1       2.998   4.329  -0.894  1.00  0.00     0.093 C 
ATOM     73  N   UNL     1       0.827   3.037  -0.426  1.00  0.00    -0.318 N 
ATOM     74  C   UNL     1       2.389   5.376  -0.062  1.00  0.00     0.042 A 
ATOM     75  C   UNL     1       0.377   4.014   0.618  1.00  0.00     0.179 C 
ATOM     76  N   UNL     1       2.829   6.644   0.176  1.00  0.00    -0.348 N 
ATOM     77  C   UNL     1       1.202   5.249   0.607  1.00  0.00     0.081 A 
ATOM     78  C   UNL     1       1.902   7.228   0.999  1.00  0.00     0.197 A 
ATOM     79  H   UNL     1       3.650   7.058  -0.173  1.00  0.00     0.167 HD
ATOM     80  N   UNL     1       0.910   6.408   1.276  1.00  0.00    -0.240 NA
BRANCH  73  81
ATOM     81  C   UNL     1      -0.155   2.032  -0.623  1.00  0.00     0.256 C 
ATOM     82  O   UNL     1      -1.241   2.063  -0.040  1.00  0.00    -0.269 OA
BRANCH  81  83
ATOM     83  C   UNL     1      -0.010   0.946  -1.609  1.00  0.00     0.061 A 
ATOM     84  C   UNL     1       0.218   1.295  -2.938  1.00  0.00     0.035 A 
ATOM     85  C   UNL     1      -0.225  -0.403  -1.300  1.00  0.00     0.072 A 
ATOM     86  C   UNL     1       0.430   0.280  -3.857  1.00  0.00     0.112 A 
ATOM     87  C   UNL     1       0.089  -1.341  -2.274  1.00  0.00     0.132 A 
ATOM     88  Cl  UNL     1      -0.876  -1.012   0.176  1.00  0.00    -0.082 Cl
ATOM     89  N   UNL     1       0.422  -1.033  -3.548  1.00  0.00    -0.263 NA
ENDBRANCH  81  83
ENDBRANCH  73  81
ENDBRANCH  69  71
ENDBRANCH  68  69
ENDBRANCH  67  68
ENDBRANCH   1  67
TORSDOF 16
