REMARK SMILES O=C(OCCOC(=O)[C@H]1CC(=O)N(Cc2ccccc2CN2CCCC2=O)C1)c1ccc(-c2c3nc(c(-c4ccc(S(=O)(=O)[O-])cc4)c4ccc([nH]4)c(-c4ccc(S(=O)(=O)[O-])cc4)c4nc(c(-c5ccc(S(=O)(=O)[O-])cc5)c5ccc2[nH]5)C=C4)C=C3)cc1
REMARK SMILES IDX 5 1 4 2 3 3 2 4 1 5 29 6 30 7 88 8 31 9 87 10 32 11 33 12
REMARK SMILES IDX 34 13 81 14 35 15 86 16 80 17 82 18 36 19 85 20 79 21 78 22
REMARK SMILES IDX 37 24 67 25 48 26 66 27 49 28 52 29 65 30 83 31 50 32 51 33
REMARK SMILES IDX 64 35 84 36 53 37 38 38 39 39 47 40 40 41 46 42 41 43 42 44
REMARK SMILES IDX 43 45 44 46 45 47 68 48 69 49 77 50 70 51 76 52 71 53 72 54
REMARK SMILES IDX 73 55 74 56 75 57 54 58 55 59 63 60 56 61 62 62 57 63 58 64
REMARK SMILES IDX 59 65 60 66 61 67 6 68 7 69 8 70 9 71 10 72 28 73 11 74
REMARK SMILES IDX 13 75 12 76 14 77 15 78 16 79 20 80 17 81 19 82 18 83 21 84
REMARK SMILES IDX 22 85 23 86 26 87 24 88 25 89 27 90
REMARK H PARENT 82 23 52 34
REMARK Flexibility Score: inf
ROOT
ATOM      1  C   UNL     1      -0.289  -1.315  -4.577  1.00  0.00     0.274 C 
ENDROOT
BRANCH   1   2
ATOM      2  C   UNL     1      -1.198  -1.560  -3.368  1.00  0.00     0.275 C 
BRANCH   2   3
ATOM      3  O   UNL     1      -1.389  -0.382  -2.568  1.00  0.00    -0.458 OA
BRANCH   3   4
ATOM      4  C   UNL     1      -0.648   0.133  -1.565  1.00  0.00     0.338 C 
ATOM      5  O   UNL     1      -1.050   1.169  -1.035  1.00  0.00    -0.246 OA
BRANCH   4   6
ATOM      6  C   UNL     1       0.693  -0.384  -1.120  1.00  0.00     0.060 A 
ATOM      7  C   UNL     1       1.308  -1.588  -1.469  1.00  0.00     0.016 A 
ATOM      8  C   UNL     1       1.430   0.498  -0.310  1.00  0.00     0.016 A 
ATOM      9  C   UNL     1       2.639  -1.855  -1.120  1.00  0.00     0.010 A 
ATOM     10  C   UNL     1       2.770   0.271  -0.001  1.00  0.00     0.010 A 
ATOM     11  C   UNL     1       3.379  -0.919  -0.401  1.00  0.00    -0.014 A 
BRANCH  11  12
ATOM     12  C   UNL     1       4.709  -1.268   0.135  1.00  0.00     0.031 A 
ATOM     13  C   UNL     1       4.787  -1.614   1.591  1.00  0.00     0.074 A 
ATOM     14  C   UNL     1       5.805  -1.254  -0.644  1.00  0.00     0.049 A 
ATOM     15  N   UNL     1       5.831  -1.890   2.322  1.00  0.00    -0.248 NA
ATOM     16  C   UNL     1       3.510  -1.625   2.327  1.00  0.00     0.031 C 
ATOM     17  C   UNL     1       5.826  -0.942  -2.073  1.00  0.00     0.029 A 
ATOM     18  N   UNL     1       7.119  -1.498  -0.337  1.00  0.00    -0.354 N 
ATOM     19  C   UNL     1       5.338  -2.085   3.606  1.00  0.00     0.074 A 
ATOM     20  C   UNL     1       3.916  -1.838   3.566  1.00  0.00     0.031 C 
ATOM     21  C   UNL     1       7.093  -1.004  -2.518  1.00  0.00     0.029 A 
ATOM     22  C   UNL     1       7.975  -1.337  -1.402  1.00  0.00     0.049 A 
ATOM     23  H   UNL     1       7.421  -1.764   0.561  1.00  0.00     0.167 HD
ATOM     24  C   UNL     1       6.011  -2.454   4.719  1.00  0.00     0.031 A 
ATOM     25  C   UNL     1       9.319  -1.436  -1.457  1.00  0.00     0.031 A 
ATOM     26  C   UNL     1       7.426  -2.675   4.739  1.00  0.00     0.049 A 
ATOM     27  C   UNL     1      10.060  -1.815  -0.200  1.00  0.00     0.074 A 
ATOM     28  C   UNL     1       8.225  -3.057   5.799  1.00  0.00     0.029 A 
ATOM     29  N   UNL     1       8.257  -2.520   3.637  1.00  0.00    -0.354 N 
ATOM     30  N   UNL     1       9.578  -2.045   1.000  1.00  0.00    -0.248 NA
ATOM     31  C   UNL     1      11.518  -1.963  -0.300  1.00  0.00     0.031 C 
ATOM     32  C   UNL     1       9.549  -3.081   5.349  1.00  0.00     0.029 A 
ATOM     33  C   UNL     1       9.565  -2.781   3.993  1.00  0.00     0.049 A 
ATOM     34  H   UNL     1       7.957  -2.262   2.735  1.00  0.00     0.167 HD
ATOM     35  C   UNL     1      10.667  -2.401   1.789  1.00  0.00     0.074 A 
ATOM     36  C   UNL     1      11.834  -2.353   0.930  1.00  0.00     0.031 C 
ATOM     37  C   UNL     1      10.699  -2.744   3.101  1.00  0.00     0.031 A 
BRANCH  24  38
ATOM     38  C   UNL     1       5.205  -2.574   5.984  1.00  0.00    -0.014 A 
ATOM     39  C   UNL     1       4.216  -3.566   6.129  1.00  0.00     0.010 A 
ATOM     40  C   UNL     1       5.379  -1.626   7.007  1.00  0.00     0.010 A 
ATOM     41  C   UNL     1       3.356  -3.550   7.229  1.00  0.00     0.020 A 
ATOM     42  C   UNL     1       4.545  -1.630   8.127  1.00  0.00     0.020 A 
ATOM     43  C   UNL     1       3.516  -2.570   8.212  1.00  0.00     0.054 A 
BRANCH  43  44
ATOM     44  S   UNL     1       2.346  -2.530   9.597  1.00  0.00     0.124 S 
ATOM     45  O   UNL     1       1.149  -1.988   8.958  1.00  0.00    -0.237 OA
ATOM     46  O   UNL     1       2.266  -3.934   9.991  1.00  0.00    -0.237 OA
ATOM     47  O   UNL     1       2.989  -1.647  10.567  1.00  0.00    -0.744 OA
ENDBRANCH  43  44
ENDBRANCH  24  38
BRANCH  25  48
ATOM     48  C   UNL     1      10.029  -1.191  -2.745  1.00  0.00    -0.014 A 
ATOM     49  C   UNL     1      10.618  -2.251  -3.457  1.00  0.00     0.010 A 
ATOM     50  C   UNL     1      10.075   0.104  -3.297  1.00  0.00     0.010 A 
ATOM     51  C   UNL     1      11.238  -2.022  -4.691  1.00  0.00     0.020 A 
ATOM     52  C   UNL     1      10.673   0.333  -4.542  1.00  0.00     0.020 A 
ATOM     53  C   UNL     1      11.254  -0.732  -5.231  1.00  0.00     0.054 A 
BRANCH  53  54
ATOM     54  S   UNL     1      11.995  -0.481  -6.870  1.00  0.00     0.124 S 
ATOM     55  O   UNL     1      13.413  -0.698  -6.600  1.00  0.00    -0.237 OA
ATOM     56  O   UNL     1      11.340  -1.514  -7.669  1.00  0.00    -0.237 OA
ATOM     57  O   UNL     1      11.625   0.890  -7.211  1.00  0.00    -0.744 OA
ENDBRANCH  53  54
ENDBRANCH  25  48
BRANCH  37  58
ATOM     58  C   UNL     1      12.020  -3.154   3.692  1.00  0.00    -0.014 A 
ATOM     59  C   UNL     1      12.998  -2.203   4.024  1.00  0.00     0.010 A 
ATOM     60  C   UNL     1      12.208  -4.500   4.062  1.00  0.00     0.010 A 
ATOM     61  C   UNL     1      14.141  -2.592   4.729  1.00  0.00     0.020 A 
ATOM     62  C   UNL     1      13.335  -4.885   4.788  1.00  0.00     0.020 A 
ATOM     63  C   UNL     1      14.295  -3.927   5.118  1.00  0.00     0.054 A 
BRANCH  63  64
ATOM     64  S   UNL     1      15.725  -4.380   6.137  1.00  0.00     0.124 S 
ATOM     65  O   UNL     1      16.819  -4.313   5.172  1.00  0.00    -0.237 OA
ATOM     66  O   UNL     1      15.727  -3.341   7.164  1.00  0.00    -0.237 OA
ATOM     67  O   UNL     1      15.398  -5.721   6.616  1.00  0.00    -0.744 OA
ENDBRANCH  63  64
ENDBRANCH  37  58
ENDBRANCH  11  12
ENDBRANCH   4   6
ENDBRANCH   3   4
ENDBRANCH   2   3
ENDBRANCH   1   2
BRANCH   1  68
ATOM     68  O   UNL     1       0.974  -0.745  -4.191  1.00  0.00    -0.462 OA
BRANCH  68  69
ATOM     69  C   UNL     1       1.279   0.501  -4.658  1.00  0.00     0.311 C 
ATOM     70  O   UNL     1       0.612   1.132  -5.463  1.00  0.00    -0.252 OA
BRANCH  69  71
ATOM     71  C   UNL     1       2.528   1.013  -3.988  1.00  0.00     0.128 C 
ATOM     72  C   UNL     1       3.663   1.394  -4.926  1.00  0.00     0.117 C 
ATOM     73  C   UNL     1       2.238   2.309  -3.259  1.00  0.00     0.135 C 
ATOM     74  C   UNL     1       4.388   2.468  -4.138  1.00  0.00     0.223 C 
ATOM     75  N   UNL     1       3.526   2.942  -3.162  1.00  0.00    -0.337 N 
ATOM     76  O   UNL     1       5.530   2.844  -4.346  1.00  0.00    -0.275 OA
BRANCH  75  77
ATOM     77  C   UNL     1       3.889   3.925  -2.145  1.00  0.00     0.155 C 
BRANCH  77  78
ATOM     78  C   UNL     1       3.011   5.164  -2.126  1.00  0.00    -0.024 A 
ATOM     79  C   UNL     1       3.457   6.274  -2.873  1.00  0.00     0.006 A 
ATOM     80  C   UNL     1       1.776   5.258  -1.433  1.00  0.00    -0.024 A 
ATOM     81  C   UNL     1       2.698   7.440  -2.967  1.00  0.00     0.000 A 
ATOM     82  C   UNL     1       1.012   6.432  -1.581  1.00  0.00     0.006 A 
ATOM     83  C   UNL     1       1.466   7.512  -2.334  1.00  0.00     0.000 A 
BRANCH  80  84
ATOM     84  C   UNL     1       1.178   4.113  -0.647  1.00  0.00     0.155 C 
BRANCH  84  85
ATOM     85  N   UNL     1       0.819   4.374   0.735  1.00  0.00    -0.338 N 
ATOM     86  C   UNL     1       1.635   3.935   1.844  1.00  0.00     0.120 C 
ATOM     87  C   UNL     1      -0.399   4.885   1.159  1.00  0.00     0.222 C 
ATOM     88  C   UNL     1       0.630   3.785   2.970  1.00  0.00     0.031 C 
ATOM     89  C   UNL     1      -0.392   4.870   2.668  1.00  0.00     0.102 C 
ATOM     90  O   UNL     1      -1.312   5.308   0.469  1.00  0.00    -0.275 OA
ENDBRANCH  84  85
ENDBRANCH  80  84
ENDBRANCH  77  78
ENDBRANCH  75  77
ENDBRANCH  69  71
ENDBRANCH  68  69
ENDBRANCH   1  68
TORSDOF 18
