REMARK SMILES CC[C@@H]([NH3+])C(=O)N1CC[C@H](C(=O)OCCOC(=O)c2ccc(-c3c4nc(c(-c5ccc(S(=O)(=O)[O-])cc5)c5ccc([nH]5)c(-c5ccc(S(=O)(=O)[O-])cc5)c5nc(c(-c6ccc(S(=O)(=O)[O-])cc6)c6ccc3[nH]6)C=C5)C=C4)cc2)[C@@H]1C
REMARK SMILES IDX 14 1 13 2 11 3 12 4 10 5 7 6 8 7 79 8 9 9 80 10 5 11 6 12
REMARK SMILES IDX 3 13 2 14 1 15 4 16 15 20 16 21 17 22 18 23 19 24 20 25
REMARK SMILES IDX 78 26 21 27 77 28 22 29 23 30 24 31 71 32 25 33 76 34 70 35
REMARK SMILES IDX 72 36 26 37 75 38 69 39 68 40 27 42 57 43 38 44 56 45 39 46
REMARK SMILES IDX 42 47 55 48 73 49 40 50 41 51 54 53 74 54 43 55 28 56 29 57
REMARK SMILES IDX 37 58 30 59 36 60 31 61 32 62 33 63 34 64 35 65 58 66 59 67
REMARK SMILES IDX 67 68 60 69 66 70 61 71 62 72 63 73 64 74 65 75 44 76 45 77
REMARK SMILES IDX 53 78 46 79 52 80 47 81 48 82 49 83 50 84 51 85
REMARK H PARENT 4 17 4 18 4 19 72 41 42 52
REMARK Flexibility Score: inf
ROOT
ATOM      1  C   UNL     1      -5.568  -1.124   6.431  1.00  0.00     0.274 C 
ENDROOT
BRANCH   1   2
ATOM      2  O   UNL     1      -4.669  -0.143   5.877  1.00  0.00    -0.462 OA
BRANCH   2   3
ATOM      3  C   UNL     1      -3.634  -0.657   5.149  1.00  0.00     0.311 C 
ATOM      4  O   UNL     1      -3.433  -1.858   5.047  1.00  0.00    -0.252 OA
BRANCH   3   5
ATOM      5  C   UNL     1      -2.905   0.441   4.378  1.00  0.00     0.123 C 
ATOM      6  N   UNL     1      -0.551   0.880   4.204  1.00  0.00    -0.334 N 
ATOM      7  C   UNL     1      -1.001   1.423   5.468  1.00  0.00     0.121 C 
ATOM      8  C   UNL     1      -1.608   0.063   3.602  1.00  0.00     0.096 C 
ATOM      9  C   UNL     1      -2.489   1.626   5.256  1.00  0.00     0.039 C 
ATOM     10  C   UNL     1      -1.211  -1.414   3.650  1.00  0.00     0.032 C 
BRANCH   6  11
ATOM     11  C   UNL     1       0.705   1.194   3.725  1.00  0.00     0.280 C 
ATOM     12  O   UNL     1       1.554   1.668   4.495  1.00  0.00    -0.268 OA
BRANCH  11  13
ATOM     13  C   UNL     1       1.026   1.186   2.194  1.00  0.00     0.270 C 
BRANCH  13  14
ATOM     14  C   UNL     1       0.817  -0.099   1.390  1.00  0.00     0.072 C 
ATOM     15  C   UNL     1       1.402  -0.050  -0.019  1.00  0.00     0.011 C 
ENDBRANCH  13  14
BRANCH  13  16
ATOM     16  N   UNL     1       0.330   2.340   1.582  1.00  0.00    -0.347 N 
ATOM     17  H   UNL     1      -0.679   2.211   1.664  1.00  0.00     0.345 HD
ATOM     18  H   UNL     1       0.585   2.408   0.596  1.00  0.00     0.345 HD
ATOM     19  H   UNL     1       0.603   3.197   2.063  1.00  0.00     0.345 HD
ENDBRANCH  13  16
ENDBRANCH  11  13
ENDBRANCH   6  11
ENDBRANCH   3   5
ENDBRANCH   2   3
ENDBRANCH   1   2
BRANCH   1  20
ATOM     20  C   UNL     1      -6.774  -1.386   5.518  1.00  0.00     0.275 C 
BRANCH  20  21
ATOM     21  O   UNL     1      -6.409  -1.962   4.247  1.00  0.00    -0.458 OA
BRANCH  21  22
ATOM     22  C   UNL     1      -6.153  -1.058   3.269  1.00  0.00     0.338 C 
ATOM     23  O   UNL     1      -6.204   0.157   3.379  1.00  0.00    -0.246 OA
BRANCH  22  24
ATOM     24  C   UNL     1      -5.674  -1.714   2.033  1.00  0.00     0.060 A 
ATOM     25  C   UNL     1      -4.604  -1.115   1.357  1.00  0.00     0.016 A 
ATOM     26  C   UNL     1      -6.322  -2.819   1.474  1.00  0.00     0.016 A 
ATOM     27  C   UNL     1      -4.191  -1.596   0.119  1.00  0.00     0.010 A 
ATOM     28  C   UNL     1      -5.920  -3.290   0.216  1.00  0.00     0.010 A 
ATOM     29  C   UNL     1      -4.871  -2.663  -0.478  1.00  0.00    -0.014 A 
BRANCH  29  30
ATOM     30  C   UNL     1      -4.561  -3.000  -1.889  1.00  0.00     0.031 A 
ATOM     31  C   UNL     1      -5.413  -2.415  -2.984  1.00  0.00     0.074 A 
ATOM     32  C   UNL     1      -3.476  -3.735  -2.196  1.00  0.00     0.049 A 
ATOM     33  N   UNL     1      -5.298  -2.545  -4.280  1.00  0.00    -0.248 NA
ATOM     34  C   UNL     1      -6.533  -1.558  -2.561  1.00  0.00     0.031 C 
ATOM     35  C   UNL     1      -2.531  -4.294  -1.230  1.00  0.00     0.029 A 
ATOM     36  N   UNL     1      -2.979  -4.122  -3.415  1.00  0.00    -0.354 N 
ATOM     37  C   UNL     1      -6.323  -1.782  -4.829  1.00  0.00     0.074 A 
ATOM     38  C   UNL     1      -7.068  -1.217  -3.724  1.00  0.00     0.031 C 
ATOM     39  C   UNL     1      -1.563  -4.949  -1.896  1.00  0.00     0.029 A 
ATOM     40  C   UNL     1      -1.836  -4.879  -3.330  1.00  0.00     0.049 A 
ATOM     41  H   UNL     1      -3.402  -3.879  -4.270  1.00  0.00     0.167 HD
ATOM     42  C   UNL     1      -6.613  -1.562  -6.134  1.00  0.00     0.031 A 
ATOM     43  C   UNL     1      -1.100  -5.458  -4.299  1.00  0.00     0.031 A 
ATOM     44  C   UNL     1      -5.890  -2.142  -7.234  1.00  0.00     0.049 A 
ATOM     45  C   UNL     1      -1.503  -5.276  -5.740  1.00  0.00     0.074 A 
ATOM     46  C   UNL     1      -6.138  -2.018  -8.590  1.00  0.00     0.029 A 
ATOM     47  N   UNL     1      -4.774  -2.953  -7.104  1.00  0.00    -0.354 N 
ATOM     48  N   UNL     1      -2.491  -4.572  -6.240  1.00  0.00    -0.248 NA
ATOM     49  C   UNL     1      -0.680  -5.959  -6.748  1.00  0.00     0.031 C 
ATOM     50  C   UNL     1      -5.190  -2.783  -9.280  1.00  0.00     0.029 A 
ATOM     51  C   UNL     1      -4.324  -3.341  -8.354  1.00  0.00     0.049 A 
ATOM     52  H   UNL     1      -4.362  -3.214  -6.249  1.00  0.00     0.167 HD
ATOM     53  C   UNL     1      -2.384  -4.698  -7.622  1.00  0.00     0.074 A 
ATOM     54  C   UNL     1      -1.231  -5.536  -7.878  1.00  0.00     0.031 C 
ATOM     55  C   UNL     1      -3.168  -4.166  -8.593  1.00  0.00     0.031 A 
BRANCH  42  56
ATOM     56  C   UNL     1      -7.787  -0.671  -6.438  1.00  0.00    -0.014 A 
ATOM     57  C   UNL     1      -7.701   0.722  -6.265  1.00  0.00     0.010 A 
ATOM     58  C   UNL     1      -8.979  -1.228  -6.934  1.00  0.00     0.010 A 
ATOM     59  C   UNL     1      -8.798   1.539  -6.552  1.00  0.00     0.020 A 
ATOM     60  C   UNL     1     -10.071  -0.412  -7.243  1.00  0.00     0.020 A 
ATOM     61  C   UNL     1      -9.978   0.966  -7.035  1.00  0.00     0.054 A 
BRANCH  61  62
ATOM     62  S   UNL     1     -11.381   2.050  -7.419  1.00  0.00     0.124 S 
ATOM     63  O   UNL     1     -11.864   2.400  -6.085  1.00  0.00    -0.237 OA
ATOM     64  O   UNL     1     -10.752   3.138  -8.164  1.00  0.00    -0.237 OA
ATOM     65  O   UNL     1     -12.274   1.198  -8.201  1.00  0.00    -0.744 OA
ENDBRANCH  61  62
ENDBRANCH  42  56
BRANCH  43  66
ATOM     66  C   UNL     1       0.086  -6.288  -3.952  1.00  0.00    -0.014 A 
ATOM     67  C   UNL     1       1.384  -5.867  -4.291  1.00  0.00     0.010 A 
ATOM     68  C   UNL     1      -0.085  -7.534  -3.321  1.00  0.00     0.010 A 
ATOM     69  C   UNL     1       2.484  -6.693  -4.043  1.00  0.00     0.020 A 
ATOM     70  C   UNL     1       1.015  -8.350  -3.046  1.00  0.00     0.020 A 
ATOM     71  C   UNL     1       2.292  -7.933  -3.428  1.00  0.00     0.054 A 
BRANCH  71  72
ATOM     72  S   UNL     1       3.731  -8.989  -3.106  1.00  0.00     0.124 S 
ATOM     73  O   UNL     1       4.005  -9.538  -4.430  1.00  0.00    -0.237 OA
ATOM     74  O   UNL     1       4.717  -8.039  -2.598  1.00  0.00    -0.237 OA
ATOM     75  O   UNL     1       3.235  -9.947  -2.120  1.00  0.00    -0.744 OA
ENDBRANCH  71  72
ENDBRANCH  43  66
BRANCH  55  76
ATOM     76  C   UNL     1      -2.766  -4.425 -10.021  1.00  0.00    -0.014 A 
ATOM     77  C   UNL     1      -2.925  -5.692 -10.610  1.00  0.00     0.010 A 
ATOM     78  C   UNL     1      -2.238  -3.372 -10.790  1.00  0.00     0.010 A 
ATOM     79  C   UNL     1      -2.517  -5.913 -11.929  1.00  0.00     0.020 A 
ATOM     80  C   UNL     1      -1.854  -3.582 -12.116  1.00  0.00     0.020 A 
ATOM     81  C   UNL     1      -1.976  -4.858 -12.671  1.00  0.00     0.054 A 
BRANCH  81  82
ATOM     82  S   UNL     1      -1.463  -5.161 -14.384  1.00  0.00     0.124 S 
ATOM     83  O   UNL     1      -0.186  -5.846 -14.201  1.00  0.00    -0.237 OA
ATOM     84  O   UNL     1      -2.549  -5.986 -14.907  1.00  0.00    -0.237 OA
ATOM     85  O   UNL     1      -1.375  -3.821 -14.961  1.00  0.00    -0.744 OA
ENDBRANCH  81  82
ENDBRANCH  55  76
ENDBRANCH  29  30
ENDBRANCH  22  24
ENDBRANCH  21  22
ENDBRANCH  20  21
ENDBRANCH   1  20
TORSDOF 18
