REMARK SMILES COc1ccc(/C=C/c2cc(OC)cc(OC)c2/C=C/C(=O)OCCOC(=O)c2ccc(-c3c4nc(c(-c5ccc(S(=O)(=O)[O-])cc5)c5ccc([nH]5)c(-c5ccc(S(=O)(=O)[O-])cc5)c5nc(c(-c6ccc(S(=O)(=O)[O-])cc6)c6ccc3[nH]6)C=C5)C=C4)cc2)cc1
REMARK SMILES IDX 24 1 23 2 21 3 22 4 20 5 19 6 18 7 9 8 10 9 11 10 15 11
REMARK SMILES IDX 14 12 8 13 7 14 6 15 3 16 4 17 90 18 5 19 89 20 2 21 1 22
REMARK SMILES IDX 12 23 13 24 16 25 17 26 25 27 26 28 27 29 28 30 29 31 30 32
REMARK SMILES IDX 88 33 31 34 87 35 32 36 33 37 34 38 81 39 35 40 86 41 80 42
REMARK SMILES IDX 82 43 36 44 85 45 79 46 78 47 37 49 67 50 48 51 66 52 49 53
REMARK SMILES IDX 52 54 65 55 83 56 50 57 51 58 64 60 84 61 53 62 38 63 39 64
REMARK SMILES IDX 47 65 40 66 46 67 41 68 42 69 43 70 44 71 45 72 68 73 69 74
REMARK SMILES IDX 77 75 70 76 76 77 71 78 72 79 73 80 74 81 75 82 54 83 55 84
REMARK SMILES IDX 63 85 56 86 62 87 57 88 58 89 59 90 60 91 61 92
REMARK H PARENT 82 48 52 59
REMARK Flexibility Score: inf
ROOT
ATOM      1  C   UNL     1       6.577   1.038   5.943  1.00  0.00     0.275 C 
ENDROOT
BRANCH   1   2
ATOM      2  O   UNL     1       5.610   0.382   6.787  1.00  0.00    -0.459 OA
BRANCH   2   3
ATOM      3  C   UNL     1       6.044  -0.723   7.442  1.00  0.00     0.330 C 
ATOM      4  O   UNL     1       7.170  -1.190   7.397  1.00  0.00    -0.247 OA
BRANCH   3   5
ATOM      5  C   UNL     1       4.975  -1.373   8.229  1.00  0.00     0.094 C 
ATOM      6  C   UNL     1       3.780  -0.827   8.498  1.00  0.00     0.020 C 
BRANCH   6   7
ATOM      7  C   UNL     1       2.723  -1.525   9.265  1.00  0.00     0.024 A 
ATOM      8  C   UNL     1       1.432  -1.674   8.709  1.00  0.00    -0.011 A 
ATOM      9  C   UNL     1       0.414  -2.297   9.455  1.00  0.00     0.055 A 
ATOM     10  C   UNL     1       0.643  -2.769  10.748  1.00  0.00     0.123 A 
ATOM     11  C   UNL     1       2.933  -2.018  10.570  1.00  0.00     0.130 A 
ATOM     12  C   UNL     1       1.914  -2.646  11.295  1.00  0.00     0.093 A 
BRANCH   8  13
ATOM     13  C   UNL     1       1.051  -1.163   7.381  1.00  0.00     0.009 C 
ATOM     14  C   UNL     1       1.636  -1.556   6.238  1.00  0.00     0.009 C 
BRANCH  14  15
ATOM     15  C   UNL     1       1.298  -1.014   4.913  1.00  0.00    -0.025 A 
ATOM     16  C   UNL     1       0.725  -0.019   2.337  1.00  0.00     0.118 A 
ATOM     17  C   UNL     1      -0.248  -0.002   3.334  1.00  0.00     0.047 A 
ATOM     18  C   UNL     1       1.992  -0.524   2.627  1.00  0.00     0.047 A 
ATOM     19  C   UNL     1       0.029  -0.510   4.606  1.00  0.00     0.012 A 
ATOM     20  C   UNL     1       2.273  -1.023   3.906  1.00  0.00     0.012 A 
BRANCH  16  21
ATOM     21  O   UNL     1       0.335   0.508   1.137  1.00  0.00    -0.497 OA
ATOM     22  C   UNL     1       1.033   0.024  -0.003  1.00  0.00     0.278 C 
ENDBRANCH  16  21
ENDBRANCH  14  15
ENDBRANCH   8  13
BRANCH  10  23
ATOM     23  O   UNL     1      -0.438  -3.337  11.364  1.00  0.00    -0.497 OA
ATOM     24  C   UNL     1      -0.346  -3.486  12.779  1.00  0.00     0.278 C 
ENDBRANCH  10  23
BRANCH  11  25
ATOM     25  O   UNL     1       4.149  -1.993  11.202  1.00  0.00    -0.496 OA
ATOM     26  C   UNL     1       4.549  -0.675  11.562  1.00  0.00     0.278 C 
ENDBRANCH  11  25
ENDBRANCH   6   7
ENDBRANCH   3   5
ENDBRANCH   2   3
ENDBRANCH   1   2
BRANCH   1  27
ATOM     27  C   UNL     1       6.946   2.414   6.492  1.00  0.00     0.275 C 
BRANCH  27  28
ATOM     28  O   UNL     1       7.631   2.287   7.750  1.00  0.00    -0.458 OA
BRANCH  28  29
ATOM     29  C   UNL     1       6.887   2.592   8.835  1.00  0.00     0.338 C 
ATOM     30  O   UNL     1       5.734   2.992   8.861  1.00  0.00    -0.246 OA
BRANCH  29  31
ATOM     31  C   UNL     1       7.641   2.293  10.059  1.00  0.00     0.060 A 
ATOM     32  C   UNL     1       7.575   1.000  10.562  1.00  0.00     0.016 A 
ATOM     33  C   UNL     1       8.239   3.310  10.801  1.00  0.00     0.016 A 
ATOM     34  C   UNL     1       7.992   0.744  11.869  1.00  0.00     0.010 A 
ATOM     35  C   UNL     1       8.750   3.024  12.075  1.00  0.00     0.010 A 
ATOM     36  C   UNL     1       8.585   1.750  12.650  1.00  0.00    -0.014 A 
BRANCH  36  37
ATOM     37  C   UNL     1       8.978   1.478  14.068  1.00  0.00     0.031 A 
ATOM     38  C   UNL     1       8.412   2.308  15.199  1.00  0.00     0.074 A 
ATOM     39  C   UNL     1       9.814   0.462  14.366  1.00  0.00     0.049 A 
ATOM     40  N   UNL     1       8.739   2.309  16.468  1.00  0.00    -0.248 NA
ATOM     41  C   UNL     1       7.347   3.265  14.859  1.00  0.00     0.031 C 
ATOM     42  C   UNL     1      10.403  -0.468  13.400  1.00  0.00     0.029 A 
ATOM     43  N   UNL     1      10.299   0.026  15.576  1.00  0.00    -0.354 N 
ATOM     44  C   UNL     1       7.967   3.302  17.064  1.00  0.00     0.074 A 
ATOM     45  C   UNL     1       7.154   3.883  16.017  1.00  0.00     0.031 C 
ATOM     46  C   UNL     1      11.115  -1.396  14.057  1.00  0.00     0.029 A 
ATOM     47  C   UNL     1      11.116  -1.077  15.480  1.00  0.00     0.049 A 
ATOM     48  H   UNL     1      10.083   0.463  16.432  1.00  0.00     0.167 HD
ATOM     49  C   UNL     1       7.935   3.699  18.361  1.00  0.00     0.031 A 
ATOM     50  C   UNL     1      11.819  -1.742  16.416  1.00  0.00     0.031 A 
ATOM     51  C   UNL     1       8.706   3.098  19.418  1.00  0.00     0.049 A 
ATOM     52  C   UNL     1      11.801  -1.263  17.839  1.00  0.00     0.074 A 
ATOM     53  C   UNL     1       8.740   3.438  20.761  1.00  0.00     0.029 A 
ATOM     54  N   UNL     1       9.562   2.020  19.260  1.00  0.00    -0.354 N 
ATOM     55  N   UNL     1      11.126  -0.270  18.363  1.00  0.00    -0.248 NA
ATOM     56  C   UNL     1      12.660  -1.982  18.790  1.00  0.00     0.031 C 
ATOM     57  C   UNL     1       9.643   2.586  21.408  1.00  0.00     0.029 A 
ATOM     58  C   UNL     1      10.137   1.688  20.477  1.00  0.00     0.049 A 
ATOM     59  H   UNL     1       9.737   1.558  18.409  1.00  0.00     0.167 HD
ATOM     60  C   UNL     1      11.475  -0.247  19.709  1.00  0.00     0.074 A 
ATOM     61  C   UNL     1      12.403  -1.339  19.922  1.00  0.00     0.031 C 
ATOM     62  C   UNL     1      11.066   0.607  20.678  1.00  0.00     0.031 A 
BRANCH  49  63
ATOM     63  C   UNL     1       7.062   4.877  18.705  1.00  0.00    -0.014 A 
ATOM     64  C   UNL     1       5.662   4.762  18.770  1.00  0.00     0.010 A 
ATOM     65  C   UNL     1       7.661   6.117  18.997  1.00  0.00     0.010 A 
ATOM     66  C   UNL     1       4.875   5.878  19.076  1.00  0.00     0.020 A 
ATOM     67  C   UNL     1       6.880   7.228  19.326  1.00  0.00     0.020 A 
ATOM     68  C   UNL     1       5.489   7.106  19.343  1.00  0.00     0.054 A 
BRANCH  68  69
ATOM     69  S   UNL     1       4.449   8.540  19.738  1.00  0.00     0.124 S 
ATOM     70  O   UNL     1       3.960   8.927  18.417  1.00  0.00    -0.237 OA
ATOM     71  O   UNL     1       3.447   7.975  20.638  1.00  0.00    -0.237 OA
ATOM     72  O   UNL     1       5.379   9.480  20.359  1.00  0.00    -0.744 OA
ENDBRANCH  68  69
ENDBRANCH  49  63
BRANCH  50  73
ATOM     73  C   UNL     1      12.642  -2.918  16.021  1.00  0.00    -0.014 A 
ATOM     74  C   UNL     1      12.255  -4.216  16.396  1.00  0.00     0.010 A 
ATOM     75  C   UNL     1      13.802  -2.745  15.244  1.00  0.00     0.010 A 
ATOM     76  C   UNL     1      13.014  -5.321  15.999  1.00  0.00     0.020 A 
ATOM     77  C   UNL     1      14.547  -3.848  14.823  1.00  0.00     0.020 A 
ATOM     78  C   UNL     1      14.153  -5.130  15.211  1.00  0.00     0.054 A 
BRANCH  78  79
ATOM     79  S   UNL     1      15.083  -6.579  14.639  1.00  0.00     0.124 S 
ATOM     80  O   UNL     1      15.869  -6.919  15.820  1.00  0.00    -0.237 OA
ATOM     81  O   UNL     1      14.023  -7.523  14.291  1.00  0.00    -0.237 OA
ATOM     82  O   UNL     1      15.845  -6.065  13.503  1.00  0.00    -0.744 OA
ENDBRANCH  78  79
ENDBRANCH  50  73
BRANCH  62  83
ATOM     83  C   UNL     1      11.605   0.381  22.064  1.00  0.00    -0.014 A 
ATOM     84  C   UNL     1      12.924   0.737  22.395  1.00  0.00     0.010 A 
ATOM     85  C   UNL     1      10.771  -0.168  23.055  1.00  0.00     0.010 A 
ATOM     86  C   UNL     1      13.411   0.519  23.687  1.00  0.00     0.020 A 
ATOM     87  C   UNL     1      11.248  -0.369  24.353  1.00  0.00     0.020 A 
ATOM     88  C   UNL     1      12.571  -0.038  24.656  1.00  0.00     0.054 A 
BRANCH  88  89
ATOM     89  S   UNL     1      13.213  -0.286  26.335  1.00  0.00     0.124 S 
ATOM     90  O   UNL     1      14.023  -1.491  26.176  1.00  0.00    -0.237 OA
ATOM     91  O   UNL     1      13.960   0.945  26.582  1.00  0.00    -0.237 OA
ATOM     92  O   UNL     1      12.007  -0.448  27.145  1.00  0.00    -0.744 OA
ENDBRANCH  88  89
ENDBRANCH  62  83
ENDBRANCH  36  37
ENDBRANCH  29  31
ENDBRANCH  28  29
ENDBRANCH  27  28
ENDBRANCH   1  27
TORSDOF 20
