REMARK SMILES NS(=O)(=O)c1ccc(-n2nc(C(=O)OCCOC(=O)c3ccc(-c4c5nc(c(-c6ccc(S(=O)(=O)[O-])cc6)c6ccc([nH]6)c(-c6ccc(S(=O)(=O)[O-])cc6)c6nc(c(-c7ccc(S(=O)(=O)[O-])cc7)c7ccc4[nH]7)C=C6)C=C5)cc3)cc2-c2ccc(Cl)s2)cc1
REMARK SMILES IDX 15 1 14 2 12 3 13 4 11 5 9 6 10 7 81 8 80 9 8 10 5 11 6 12
REMARK SMILES IDX 89 13 7 14 88 15 2 16 3 17 4 18 1 19 82 22 83 23 87 24 84 25
REMARK SMILES IDX 85 26 86 27 16 28 17 29 18 30 19 31 20 32 21 33 79 34 22 35
REMARK SMILES IDX 78 36 23 37 24 38 25 39 72 40 26 41 77 42 71 43 73 44 27 45
REMARK SMILES IDX 76 46 70 47 69 48 28 50 58 51 39 52 57 53 40 54 43 55 56 56
REMARK SMILES IDX 74 57 41 58 42 59 55 61 75 62 44 63 29 64 30 65 38 66 31 67
REMARK SMILES IDX 37 68 32 69 33 70 34 71 35 72 36 73 59 74 60 75 68 76 61 77
REMARK SMILES IDX 67 78 62 79 63 80 64 81 65 82 66 83 45 84 46 85 54 86 47 87
REMARK SMILES IDX 53 88 48 89 49 90 50 91 51 92 52 93
REMARK H PARENT 1 20 1 21 73 49 43 60
REMARK Flexibility Score: inf
ROOT
ATOM      1  C   UNL     1       4.601  -9.808  -6.715  1.00  0.00     0.275 C 
ENDROOT
BRANCH   1   2
ATOM      2  O   UNL     1       3.552  -9.093  -6.033  1.00  0.00    -0.457 OA
BRANCH   2   3
ATOM      3  C   UNL     1       3.868  -8.541  -4.814  1.00  0.00     0.358 C 
ATOM      4  O   UNL     1       4.879  -8.822  -4.178  1.00  0.00    -0.244 OA
BRANCH   3   5
ATOM      5  C   UNL     1       2.867  -7.544  -4.395  1.00  0.00     0.171 A 
ATOM      6  N   UNL     1       1.925  -5.916  -3.364  1.00  0.00    -0.231 N 
ATOM      7  N   UNL     1       3.100  -6.585  -3.473  1.00  0.00    -0.160 NA
ATOM      8  C   UNL     1       0.943  -6.445  -4.184  1.00  0.00     0.085 A 
ATOM      9  C   UNL     1       1.550  -7.443  -4.905  1.00  0.00     0.068 A 
BRANCH   6  10
ATOM     10  C   UNL     1       1.745  -4.931  -2.363  1.00  0.00     0.065 A 
ATOM     11  C   UNL     1       1.103  -2.874  -0.608  1.00  0.00     0.082 A 
ATOM     12  C   UNL     1       0.462  -4.112  -0.487  1.00  0.00     0.024 A 
ATOM     13  C   UNL     1       2.081  -2.667  -1.589  1.00  0.00     0.024 A 
ATOM     14  C   UNL     1       0.776  -5.140  -1.372  1.00  0.00     0.030 A 
ATOM     15  C   UNL     1       2.422  -3.710  -2.461  1.00  0.00     0.030 A 
BRANCH  11  16
ATOM     16  S   UNL     1       0.600  -1.593   0.503  1.00  0.00     0.238 S 
ATOM     17  O   UNL     1       1.258  -1.812   1.773  1.00  0.00    -0.207 OA
ATOM     18  O   UNL     1      -0.830  -1.435   0.396  1.00  0.00    -0.207 OA
BRANCH  16  19
ATOM     19  N   UNL     1       1.255  -0.182  -0.121  1.00  0.00    -0.225 NA
ATOM     20  H   UNL     1       1.001   0.604   0.477  1.00  0.00     0.137 HD
ATOM     21  H   UNL     1       0.891  -0.025  -1.061  1.00  0.00     0.137 HD
ENDBRANCH  16  19
ENDBRANCH  11  16
ENDBRANCH   6  10
BRANCH   8  22
ATOM     22  C   UNL     1      -0.425  -6.027  -4.246  1.00  0.00     0.054 A 
ATOM     23  C   UNL     1      -1.522  -6.852  -4.092  1.00  0.00     0.024 A 
ATOM     24  S   UNL     1      -0.892  -4.405  -4.543  1.00  0.00    -0.122 S 
ATOM     25  C   UNL     1      -2.750  -6.131  -4.144  1.00  0.00     0.033 A 
ATOM     26  C   UNL     1      -2.527  -4.798  -4.371  1.00  0.00     0.094 A 
ATOM     27  Cl  UNL     1      -3.721  -3.570  -4.486  1.00  0.00    -0.072 Cl
ENDBRANCH   8  22
ENDBRANCH   3   5
ENDBRANCH   2   3
ENDBRANCH   1   2
BRANCH   1  28
ATOM     28  C   UNL     1       5.473  -8.872  -7.542  1.00  0.00     0.275 C 
BRANCH  28  29
ATOM     29  O   UNL     1       6.253  -8.050  -6.682  1.00  0.00    -0.458 OA
BRANCH  29  30
ATOM     30  C   UNL     1       5.702  -6.859  -6.354  1.00  0.00     0.338 C 
ATOM     31  O   UNL     1       4.575  -6.481  -6.627  1.00  0.00    -0.246 OA
BRANCH  30  32
ATOM     32  C   UNL     1       6.747  -6.002  -5.787  1.00  0.00     0.060 A 
ATOM     33  C   UNL     1       6.402  -4.661  -5.601  1.00  0.00     0.016 A 
ATOM     34  C   UNL     1       8.080  -6.431  -5.867  1.00  0.00     0.016 A 
ATOM     35  C   UNL     1       7.379  -3.718  -5.808  1.00  0.00     0.010 A 
ATOM     36  C   UNL     1       9.046  -5.490  -6.098  1.00  0.00     0.010 A 
ATOM     37  C   UNL     1       8.653  -4.158  -6.177  1.00  0.00    -0.014 A 
BRANCH  37  38
ATOM     38  C   UNL     1       9.615  -3.177  -6.615  1.00  0.00     0.031 A 
ATOM     39  C   UNL     1      10.198  -2.424  -5.488  1.00  0.00     0.074 A 
ATOM     40  C   UNL     1      10.009  -3.088  -7.898  1.00  0.00     0.049 A 
ATOM     41  N   UNL     1       9.988  -1.191  -5.172  1.00  0.00    -0.248 NA
ATOM     42  C   UNL     1      10.930  -3.198  -4.471  1.00  0.00     0.031 C 
ATOM     43  C   UNL     1       9.719  -3.993  -9.015  1.00  0.00     0.029 A 
ATOM     44  N   UNL     1      10.881  -2.209  -8.445  1.00  0.00    -0.354 N 
ATOM     45  C   UNL     1      10.747  -0.978  -4.029  1.00  0.00     0.074 A 
ATOM     46  C   UNL     1      11.099  -2.279  -3.523  1.00  0.00     0.031 C 
ATOM     47  C   UNL     1      10.611  -3.764 -10.009  1.00  0.00     0.029 A 
ATOM     48  C   UNL     1      11.436  -2.621  -9.648  1.00  0.00     0.049 A 
ATOM     49  H   UNL     1      11.104  -1.347  -8.024  1.00  0.00     0.167 HD
ATOM     50  C   UNL     1      11.280   0.240  -3.744  1.00  0.00     0.031 A 
ATOM     51  C   UNL     1      12.561  -2.114 -10.220  1.00  0.00     0.031 A 
ATOM     52  C   UNL     1      10.675   1.287  -4.526  1.00  0.00     0.049 A 
ATOM     53  C   UNL     1      12.795  -0.780  -9.596  1.00  0.00     0.074 A 
ATOM     54  C   UNL     1       9.389   1.771  -4.658  1.00  0.00     0.029 A 
ATOM     55  N   UNL     1      11.357   1.709  -5.646  1.00  0.00    -0.354 N 
ATOM     56  N   UNL     1      11.975   0.227  -9.736  1.00  0.00    -0.248 NA
ATOM     57  C   UNL     1      13.648  -0.723  -8.416  1.00  0.00     0.031 C 
ATOM     58  C   UNL     1       9.236   2.029  -6.052  1.00  0.00     0.029 A 
ATOM     59  C   UNL     1      10.454   1.760  -6.680  1.00  0.00     0.049 A 
ATOM     60  H   UNL     1      12.314   1.933  -5.696  1.00  0.00     0.167 HD
ATOM     61  C   UNL     1      11.901   0.812  -8.478  1.00  0.00     0.074 A 
ATOM     62  C   UNL     1      13.012   0.229  -7.724  1.00  0.00     0.031 C 
ATOM     63  C   UNL     1      10.785   1.486  -8.065  1.00  0.00     0.031 A 
BRANCH  50  64
ATOM     64  C   UNL     1      12.618   0.396  -3.074  1.00  0.00    -0.014 A 
ATOM     65  C   UNL     1      13.050   1.682  -2.704  1.00  0.00     0.010 A 
ATOM     66  C   UNL     1      13.577  -0.640  -3.037  1.00  0.00     0.010 A 
ATOM     67  C   UNL     1      14.389   1.923  -2.369  1.00  0.00     0.020 A 
ATOM     68  C   UNL     1      14.899  -0.421  -2.659  1.00  0.00     0.020 A 
ATOM     69  C   UNL     1      15.305   0.870  -2.361  1.00  0.00     0.054 A 
BRANCH  69  70
ATOM     70  S   UNL     1      17.049   1.210  -2.034  1.00  0.00     0.124 S 
ATOM     71  O   UNL     1      17.418   2.018  -3.192  1.00  0.00    -0.237 OA
ATOM     72  O   UNL     1      16.991   1.917  -0.758  1.00  0.00    -0.237 OA
ATOM     73  O   UNL     1      17.653  -0.119  -1.978  1.00  0.00    -0.744 OA
ENDBRANCH  69  70
ENDBRANCH  50  64
BRANCH  51  74
ATOM     74  C   UNL     1      13.632  -2.896 -10.900  1.00  0.00    -0.014 A 
ATOM     75  C   UNL     1      14.655  -2.269 -11.637  1.00  0.00     0.010 A 
ATOM     76  C   UNL     1      13.799  -4.266 -10.601  1.00  0.00     0.010 A 
ATOM     77  C   UNL     1      15.815  -2.975 -12.018  1.00  0.00     0.020 A 
ATOM     78  C   UNL     1      14.944  -4.976 -10.980  1.00  0.00     0.020 A 
ATOM     79  C   UNL     1      15.959  -4.322 -11.671  1.00  0.00     0.054 A 
BRANCH  79  80
ATOM     80  S   UNL     1      17.520  -5.189 -12.021  1.00  0.00     0.124 S 
ATOM     81  O   UNL     1      17.492  -5.306 -13.476  1.00  0.00    -0.237 OA
ATOM     82  O   UNL     1      18.521  -4.274 -11.480  1.00  0.00    -0.237 OA
ATOM     83  O   UNL     1      17.383  -6.451 -11.296  1.00  0.00    -0.744 OA
ENDBRANCH  79  80
ENDBRANCH  51  74
BRANCH  63  84
ATOM     84  C   UNL     1       9.694   1.772  -9.077  1.00  0.00    -0.014 A 
ATOM     85  C   UNL     1       8.950   0.769  -9.731  1.00  0.00     0.010 A 
ATOM     86  C   UNL     1       9.287   3.108  -9.230  1.00  0.00     0.010 A 
ATOM     87  C   UNL     1       7.842   1.099 -10.531  1.00  0.00     0.020 A 
ATOM     88  C   UNL     1       8.177   3.443 -10.011  1.00  0.00     0.020 A 
ATOM     89  C   UNL     1       7.463   2.438 -10.664  1.00  0.00     0.054 A 
BRANCH  89  90
ATOM     90  S   UNL     1       6.002   2.862 -11.657  1.00  0.00     0.124 S 
ATOM     91  O   UNL     1       6.436   2.543 -13.014  1.00  0.00    -0.237 OA
ATOM     92  O   UNL     1       4.968   1.989 -11.105  1.00  0.00    -0.237 OA
ATOM     93  O   UNL     1       5.803   4.287 -11.391  1.00  0.00    -0.744 OA
ENDBRANCH  89  90
ENDBRANCH  63  84
ENDBRANCH  37  38
ENDBRANCH  30  32
ENDBRANCH  29  30
ENDBRANCH  28  29
ENDBRANCH   1  28
TORSDOF 18
