REMARK SMILES CC[C@@](C)(NC(=O)c1c(C)cc(C)[nH]c1=O)C(=O)OCCOC(=O)c1ccc(-c2c3nc(c(-c4ccc(S(=O)(=O)[O-])cc4)c4ccc([nH]4)c(-c4ccc(S(=O)(=O)[O-])cc4)c4nc(c(-c5ccc(S(=O)(=O)[O-])cc5)c5ccc2[nH]5)C=C4)C=C3)cc1
REMARK SMILES IDX 21 1 20 2 19 3 17 4 18 5 3 6 4 7 2 8 1 9 5 10 6 11 7 13 8 14
REMARK SMILES IDX 9 15 15 16 10 17 11 18 14 19 16 20 12 21 13 23 22 24 23 25
REMARK SMILES IDX 24 26 25 27 26 28 84 29 27 30 83 31 28 32 29 33 30 34 77 35
REMARK SMILES IDX 31 36 82 37 76 38 78 39 32 40 81 41 75 42 74 43 33 45 63 46
REMARK SMILES IDX 44 47 62 48 45 49 48 50 61 51 79 52 46 53 47 54 60 56 80 57
REMARK SMILES IDX 49 58 34 59 35 60 43 61 36 62 42 63 37 64 38 65 39 66 40 67
REMARK SMILES IDX 41 68 64 69 65 70 73 71 66 72 72 73 67 74 68 75 69 76 70 77
REMARK SMILES IDX 71 78 50 79 51 80 59 81 52 82 58 83 53 84 54 85 55 86 56 87
REMARK SMILES IDX 57 88
REMARK H PARENT 5 12 14 22 78 44 48 55
REMARK Flexibility Score: inf
ROOT
ATOM      1  C   UNL     1       5.612   1.539  -1.035  1.00  0.00     0.275 C 
ENDROOT
BRANCH   1   2
ATOM      2  C   UNL     1       4.682   1.025  -2.122  1.00  0.00     0.274 C 
BRANCH   2   3
ATOM      3  O   UNL     1       3.423   1.736  -2.075  1.00  0.00    -0.460 OA
BRANCH   3   4
ATOM      4  C   UNL     1       2.313   0.974  -1.942  1.00  0.00     0.331 C 
ATOM      5  O   UNL     1       2.362  -0.242  -1.776  1.00  0.00    -0.249 OA
BRANCH   4   6
ATOM      6  C   UNL     1       0.971   1.739  -2.155  1.00  0.00     0.135 C 
ATOM      7  C   UNL     1       0.425   1.211  -3.495  1.00  0.00     0.047 C 
BRANCH   6   8
ATOM      8  C   UNL     1      -0.020   1.348  -0.996  1.00  0.00     0.037 C 
ATOM      9  C   UNL     1      -0.273  -0.122  -0.680  1.00  0.00     0.007 C 
ENDBRANCH   6   8
BRANCH   6  10
ATOM     10  N   UNL     1       0.887   3.245  -2.173  1.00  0.00    -0.336 N 
ATOM     11  C   UNL     1       1.458   4.229  -2.925  1.00  0.00     0.258 C 
ATOM     12  H   UNL     1       0.280   3.599  -1.483  1.00  0.00     0.165 HD
ATOM     13  O   UNL     1       0.732   5.134  -3.341  1.00  0.00    -0.269 OA
BRANCH  11  14
ATOM     14  C   UNL     1       2.920   4.387  -2.963  1.00  0.00     0.107 A 
ATOM     15  C   UNL     1       3.525   5.226  -2.089  1.00  0.00    -0.031 A 
ATOM     16  C   UNL     1       3.733   3.748  -4.032  1.00  0.00     0.261 A 
ATOM     17  C   UNL     1       2.841   6.064  -1.039  1.00  0.00     0.045 C 
ATOM     18  C   UNL     1       4.979   5.337  -2.088  1.00  0.00     0.025 A 
ATOM     19  N   UNL     1       5.097   3.938  -3.960  1.00  0.00    -0.326 N 
ATOM     20  O   UNL     1       3.239   3.053  -4.916  1.00  0.00    -0.269 OA
ATOM     21  C   UNL     1       5.725   4.681  -2.988  1.00  0.00     0.015 A 
ATOM     22  H   UNL     1       5.658   3.514  -4.649  1.00  0.00     0.169 HD
ATOM     23  C   UNL     1       7.220   4.629  -2.925  1.00  0.00     0.064 C 
ENDBRANCH  11  14
ENDBRANCH   6  10
ENDBRANCH   4   6
ENDBRANCH   3   4
ENDBRANCH   2   3
ENDBRANCH   1   2
BRANCH   1  24
ATOM     24  O   UNL     1       4.974   1.346   0.230  1.00  0.00    -0.458 OA
BRANCH  24  25
ATOM     25  C   UNL     1       4.475   2.465   0.801  1.00  0.00     0.338 C 
ATOM     26  O   UNL     1       4.641   3.624   0.477  1.00  0.00    -0.246 OA
BRANCH  25  27
ATOM     27  C   UNL     1       3.679   2.050   1.951  1.00  0.00     0.060 A 
ATOM     28  C   UNL     1       2.531   1.284   1.752  1.00  0.00     0.016 A 
ATOM     29  C   UNL     1       4.092   2.429   3.225  1.00  0.00     0.016 A 
ATOM     30  C   UNL     1       1.773   0.895   2.844  1.00  0.00     0.010 A 
ATOM     31  C   UNL     1       3.377   1.970   4.325  1.00  0.00     0.010 A 
ATOM     32  C   UNL     1       2.221   1.196   4.137  1.00  0.00    -0.014 A 
BRANCH  32  33
ATOM     33  C   UNL     1       1.513   0.623   5.298  1.00  0.00     0.031 A 
ATOM     34  C   UNL     1       0.758   1.518   6.229  1.00  0.00     0.074 A 
ATOM     35  C   UNL     1       1.568  -0.711   5.478  1.00  0.00     0.049 A 
ATOM     36  N   UNL     1       0.134   1.207   7.333  1.00  0.00    -0.248 NA
ATOM     37  C   UNL     1       0.698   2.949   5.883  1.00  0.00     0.031 C 
ATOM     38  C   UNL     1       2.267  -1.652   4.594  1.00  0.00     0.029 A 
ATOM     39  N   UNL     1       1.018  -1.512   6.442  1.00  0.00    -0.354 N 
ATOM     40  C   UNL     1      -0.372   2.402   7.827  1.00  0.00     0.074 A 
ATOM     41  C   UNL     1       0.025   3.447   6.911  1.00  0.00     0.031 C 
ATOM     42  C   UNL     1       2.062  -2.903   5.031  1.00  0.00     0.029 A 
ATOM     43  C   UNL     1       1.284  -2.849   6.261  1.00  0.00     0.049 A 
ATOM     44  H   UNL     1       0.484  -1.164   7.192  1.00  0.00     0.167 HD
ATOM     45  C   UNL     1      -1.099   2.595   8.951  1.00  0.00     0.031 A 
ATOM     46  C   UNL     1       0.957  -3.910   7.022  1.00  0.00     0.031 A 
ATOM     47  C   UNL     1      -1.476   1.531   9.841  1.00  0.00     0.049 A 
ATOM     48  C   UNL     1       0.188  -3.658   8.286  1.00  0.00     0.074 A 
ATOM     49  C   UNL     1      -2.202   1.605  11.014  1.00  0.00     0.029 A 
ATOM     50  N   UNL     1      -1.153   0.194   9.649  1.00  0.00    -0.354 N 
ATOM     51  N   UNL     1      -0.277  -2.519   8.745  1.00  0.00    -0.248 NA
ATOM     52  C   UNL     1      -0.083  -4.816   9.144  1.00  0.00     0.031 C 
ATOM     53  C   UNL     1      -2.280   0.318  11.556  1.00  0.00     0.029 A 
ATOM     54  C   UNL     1      -1.643  -0.565  10.696  1.00  0.00     0.049 A 
ATOM     55  H   UNL     1      -0.649  -0.162   8.881  1.00  0.00     0.167 HD
ATOM     56  C   UNL     1      -0.890  -2.822   9.953  1.00  0.00     0.074 A 
ATOM     57  C   UNL     1      -0.764  -4.256  10.135  1.00  0.00     0.031 C 
ATOM     58  C   UNL     1      -1.489  -1.991  10.839  1.00  0.00     0.031 A 
BRANCH  45  59
ATOM     59  C   UNL     1      -1.496   4.004   9.296  1.00  0.00    -0.014 A 
ATOM     60  C   UNL     1      -2.520   4.664   8.594  1.00  0.00     0.010 A 
ATOM     61  C   UNL     1      -0.864   4.663  10.366  1.00  0.00     0.010 A 
ATOM     62  C   UNL     1      -2.888   5.968   8.942  1.00  0.00     0.020 A 
ATOM     63  C   UNL     1      -1.242   5.959  10.729  1.00  0.00     0.020 A 
ATOM     64  C   UNL     1      -2.245   6.607  10.007  1.00  0.00     0.054 A 
BRANCH  64  65
ATOM     65  S   UNL     1      -2.765   8.287  10.455  1.00  0.00     0.124 S 
ATOM     66  O   UNL     1      -2.246   9.071   9.336  1.00  0.00    -0.237 OA
ATOM     67  O   UNL     1      -4.219   8.167  10.516  1.00  0.00    -0.237 OA
ATOM     68  O   UNL     1      -2.107   8.524  11.737  1.00  0.00    -0.744 OA
ENDBRANCH  64  65
ENDBRANCH  45  59
BRANCH  46  69
ATOM     69  C   UNL     1       1.397  -5.276   6.626  1.00  0.00    -0.014 A 
ATOM     70  C   UNL     1       0.465  -6.238   6.202  1.00  0.00     0.010 A 
ATOM     71  C   UNL     1       2.765  -5.610   6.632  1.00  0.00     0.010 A 
ATOM     72  C   UNL     1       0.891  -7.509   5.800  1.00  0.00     0.020 A 
ATOM     73  C   UNL     1       3.197  -6.869   6.204  1.00  0.00     0.020 A 
ATOM     74  C   UNL     1       2.255  -7.815   5.800  1.00  0.00     0.054 A 
BRANCH  74  75
ATOM     75  S   UNL     1       2.790  -9.450   5.223  1.00  0.00     0.124 S 
ATOM     76  O   UNL     1       2.397 -10.308   6.336  1.00  0.00    -0.237 OA
ATOM     77  O   UNL     1       2.021  -9.619   3.992  1.00  0.00    -0.237 OA
ATOM     78  O   UNL     1       4.230  -9.292   5.032  1.00  0.00    -0.744 OA
ENDBRANCH  74  75
ENDBRANCH  46  69
BRANCH  58  79
ATOM     79  C   UNL     1      -2.041  -2.610  12.089  1.00  0.00    -0.014 A 
ATOM     80  C   UNL     1      -1.183  -2.967  13.144  1.00  0.00     0.010 A 
ATOM     81  C   UNL     1      -3.432  -2.735  12.251  1.00  0.00     0.010 A 
ATOM     82  C   UNL     1      -1.710  -3.440  14.345  1.00  0.00     0.020 A 
ATOM     83  C   UNL     1      -3.962  -3.188  13.459  1.00  0.00     0.020 A 
ATOM     84  C   UNL     1      -3.097  -3.540  14.498  1.00  0.00     0.054 A 
BRANCH  84  85
ATOM     85  S   UNL     1      -3.756  -4.068  16.102  1.00  0.00     0.124 S 
ATOM     86  O   UNL     1      -3.444  -5.494  16.104  1.00  0.00    -0.237 OA
ATOM     87  O   UNL     1      -2.992  -3.255  17.045  1.00  0.00    -0.237 OA
ATOM     88  O   UNL     1      -5.178  -3.741  16.017  1.00  0.00    -0.744 OA
ENDBRANCH  84  85
ENDBRANCH  58  79
ENDBRANCH  32  33
ENDBRANCH  25  27
ENDBRANCH  24  25
ENDBRANCH   1  24
TORSDOF 17
