REMARK SMILES [NH3+][C@H]1CCCCC[C@H]1C(=O)NCCC(=O)OCCOC(=O)c1ccc(-c2c3nc(c(-c4ccc(S(=O)(=O)[O-])cc4)c4ccc([nH]4)c(-c4ccc(S(=O)(=O)[O-])cc4)c4nc(c(-c5ccc(S(=O)(=O)[O-])cc5)c5ccc2[nH]5)C=C4)C=C3)cc1
REMARK SMILES IDX 16 1 14 2 15 3 13 4 12 5 11 6 9 7 10 8 8 10 2 11 1 12 3 16
REMARK SMILES IDX 4 17 7 19 6 20 5 21 17 23 18 24 19 25 20 26 21 27 22 28
REMARK SMILES IDX 23 29 81 30 24 31 80 32 25 33 26 34 27 35 74 36 28 37 79 38
REMARK SMILES IDX 73 39 75 40 29 41 78 42 72 43 71 44 30 46 60 47 41 48 59 49
REMARK SMILES IDX 42 50 45 51 58 52 76 53 43 54 44 55 57 57 77 58 46 59 31 60
REMARK SMILES IDX 32 61 40 62 33 63 39 64 34 65 35 66 36 67 37 68 38 69 61 70
REMARK SMILES IDX 62 71 70 72 63 73 69 74 64 75 65 76 66 77 67 78 68 79 47 80
REMARK SMILES IDX 48 81 56 82 49 83 55 84 50 85 51 86 52 87 53 88 54 89
REMARK H PARENT 11 9 1 13 1 14 1 15 75 45 45 56
REMARK Flexibility Score: 90.00
ROOT
ATOM      1  O   UNL     1      -3.640   2.011  -1.849  1.00  0.00    -0.462 OA
ENDROOT
BRANCH   1   2
ATOM      2  C   UNL     1      -3.617   1.544  -0.574  1.00  0.00     0.307 C 
ATOM      3  O   UNL     1      -4.387   1.893   0.313  1.00  0.00    -0.252 OA
BRANCH   2   4
ATOM      4  C   UNL     1      -2.492   0.574  -0.330  1.00  0.00     0.144 C 
BRANCH   4   5
ATOM      5  C   UNL     1      -2.226  -0.386  -1.485  1.00  0.00     0.127 C 
BRANCH   5   6
ATOM      6  N   UNL     1      -1.055   0.009  -2.245  1.00  0.00    -0.355 N 
ATOM      7  C   UNL     1       0.222  -0.444  -2.218  1.00  0.00     0.229 C 
ATOM      8  O   UNL     1       1.052   0.201  -2.873  1.00  0.00    -0.275 OA
ATOM      9  H   UNL     1      -1.217   0.732  -2.894  1.00  0.00     0.163 HD
BRANCH   7  10
ATOM     10  C   UNL     1       0.667  -1.705  -1.467  1.00  0.00     0.136 C 
BRANCH  10  11
ATOM     11  C   UNL     1       0.865  -1.530   0.051  1.00  0.00     0.193 C 
BRANCH  11  12
ATOM     12  N   UNL     1      -0.361  -1.325   0.826  1.00  0.00    -0.354 N 
ATOM     13  H   UNL     1      -0.125  -1.220   1.813  1.00  0.00     0.344 HD
ATOM     14  H   UNL     1      -0.977  -2.128   0.707  1.00  0.00     0.344 HD
ATOM     15  H   UNL     1      -0.833  -0.482   0.499  1.00  0.00     0.344 HD
ENDBRANCH  11  12
BRANCH  11  16
ATOM     16  C   UNL     1       1.679  -2.692   0.667  1.00  0.00     0.066 C 
BRANCH  16  17
ATOM     17  C   UNL     1       0.962  -4.042   0.761  1.00  0.00     0.006 CG0
ATOM     18  G   UNL     1       0.933  -4.901  -0.502  1.00  0.00     0.000 G0
ENDBRANCH  16  17
ENDBRANCH  11  16
ENDBRANCH  10  11
BRANCH  10  19
ATOM     19  C   UNL     1      -0.061  -2.980  -1.917  1.00  0.00     0.020 C 
BRANCH  19  20
ATOM     20  C   UNL     1       0.853  -4.205  -1.857  1.00  0.00     0.001 C 
BRANCH  20  21
ATOM     21  C   UNL     1       0.933  -4.901  -0.502  1.00  0.00     0.000 CG0
ATOM     22  G   UNL     1       0.962  -4.042   0.761  1.00  0.00     0.000 G0
ENDBRANCH  20  21
ENDBRANCH  19  20
ENDBRANCH  10  19
ENDBRANCH   7  10
ENDBRANCH   5   6
ENDBRANCH   4   5
ENDBRANCH   2   4
ENDBRANCH   1   2
BRANCH   1  23
ATOM     23  C   UNL     1      -4.717   2.916  -2.159  1.00  0.00     0.274 C 
BRANCH  23  24
ATOM     24  C   UNL     1      -5.905   2.187  -2.793  1.00  0.00     0.275 C 
BRANCH  24  25
ATOM     25  O   UNL     1      -6.557   1.303  -1.861  1.00  0.00    -0.458 OA
BRANCH  25  26
ATOM     26  C   UNL     1      -6.187   0.004  -1.947  1.00  0.00     0.338 C 
ATOM     27  O   UNL     1      -5.391  -0.482  -2.733  1.00  0.00    -0.246 OA
BRANCH  26  28
ATOM     28  C   UNL     1      -6.811  -0.787  -0.876  1.00  0.00     0.060 A 
ATOM     29  C   UNL     1      -5.979  -1.407   0.062  1.00  0.00     0.016 A 
ATOM     30  C   UNL     1      -8.184  -1.037  -0.883  1.00  0.00     0.016 A 
ATOM     31  C   UNL     1      -6.516  -2.308   0.981  1.00  0.00     0.010 A 
ATOM     32  C   UNL     1      -8.720  -1.940   0.041  1.00  0.00     0.010 A 
ATOM     33  C   UNL     1      -7.885  -2.603   0.958  1.00  0.00    -0.014 A 
BRANCH  33  34
ATOM     34  C   UNL     1      -8.426  -3.679   1.826  1.00  0.00     0.031 A 
ATOM     35  C   UNL     1      -8.757  -5.020   1.226  1.00  0.00     0.074 A 
ATOM     36  C   UNL     1      -8.605  -3.470   3.143  1.00  0.00     0.049 A 
ATOM     37  N   UNL     1      -9.292  -6.070   1.794  1.00  0.00    -0.248 NA
ATOM     38  C   UNL     1      -8.445  -5.200  -0.201  1.00  0.00     0.031 C 
ATOM     39  C   UNL     1      -8.286  -2.232   3.855  1.00  0.00     0.029 A 
ATOM     40  N   UNL     1      -9.101  -4.300   4.116  1.00  0.00    -0.354 N 
ATOM     41  C   UNL     1      -9.406  -7.026   0.791  1.00  0.00     0.074 A 
ATOM     42  C   UNL     1      -8.892  -6.428  -0.423  1.00  0.00     0.031 C 
ATOM     43  C   UNL     1      -8.593  -2.386   5.155  1.00  0.00     0.029 A 
ATOM     44  C   UNL     1      -9.159  -3.717   5.359  1.00  0.00     0.049 A 
ATOM     45  H   UNL     1      -9.389  -5.225   3.941  1.00  0.00     0.167 HD
ATOM     46  C   UNL     1      -9.897  -8.287   0.871  1.00  0.00     0.031 A 
ATOM     47  C   UNL     1      -9.630  -4.197   6.527  1.00  0.00     0.031 A 
ATOM     48  C   UNL     1     -10.403  -8.888   2.076  1.00  0.00     0.049 A 
ATOM     49  C   UNL     1     -10.192  -5.591   6.585  1.00  0.00     0.074 A 
ATOM     50  C   UNL     1     -10.921 -10.160   2.253  1.00  0.00     0.029 A 
ATOM     51  N   UNL     1     -10.448  -8.262   3.311  1.00  0.00    -0.354 N 
ATOM     52  N   UNL     1     -10.303  -6.476   5.623  1.00  0.00    -0.248 NA
ATOM     53  C   UNL     1     -10.687  -6.052   7.890  1.00  0.00     0.031 C 
ATOM     54  C   UNL     1     -11.304 -10.294   3.593  1.00  0.00     0.029 A 
ATOM     55  C   UNL     1     -10.989  -9.119   4.255  1.00  0.00     0.049 A 
ATOM     56  H   UNL     1     -10.142  -7.344   3.491  1.00  0.00     0.167 HD
ATOM     57  C   UNL     1     -10.852  -7.609   6.215  1.00  0.00     0.074 A 
ATOM     58  C   UNL     1     -11.046  -7.299   7.617  1.00  0.00     0.031 C 
ATOM     59  C   UNL     1     -11.165  -8.800   5.648  1.00  0.00     0.031 A 
BRANCH  46  60
ATOM     60  C   UNL     1      -9.941  -9.090  -0.400  1.00  0.00    -0.014 A 
ATOM     61  C   UNL     1      -8.774  -9.655  -0.944  1.00  0.00     0.010 A 
ATOM     62  C   UNL     1     -11.172  -9.301  -1.045  1.00  0.00     0.010 A 
ATOM     63  C   UNL     1      -8.833 -10.386  -2.134  1.00  0.00     0.020 A 
ATOM     64  C   UNL     1     -11.238 -10.048  -2.224  1.00  0.00     0.020 A 
ATOM     65  C   UNL     1     -10.064 -10.570  -2.771  1.00  0.00     0.054 A 
BRANCH  65  66
ATOM     66  S   UNL     1     -10.121 -11.530  -4.310  1.00  0.00     0.124 S 
ATOM     67  O   UNL     1      -9.639 -10.557  -5.287  1.00  0.00    -0.237 OA
ATOM     68  O   UNL     1      -9.216 -12.642  -4.032  1.00  0.00    -0.237 OA
ATOM     69  O   UNL     1     -11.530 -11.895  -4.436  1.00  0.00    -0.744 OA
ENDBRANCH  65  66
ENDBRANCH  46  60
BRANCH  47  70
ATOM     70  C   UNL     1      -9.597  -3.346   7.746  1.00  0.00    -0.014 A 
ATOM     71  C   UNL     1      -8.684  -3.618   8.779  1.00  0.00     0.010 A 
ATOM     72  C   UNL     1     -10.483  -2.263   7.880  1.00  0.00     0.010 A 
ATOM     73  C   UNL     1      -8.670  -2.832   9.935  1.00  0.00     0.020 A 
ATOM     74  C   UNL     1     -10.457  -1.461   9.024  1.00  0.00     0.020 A 
ATOM     75  C   UNL     1      -9.559  -1.760  10.050  1.00  0.00     0.054 A 
BRANCH  75  76
ATOM     76  S   UNL     1      -9.495  -0.719  11.536  1.00  0.00     0.124 S 
ATOM     77  O   UNL     1     -10.241  -1.522  12.499  1.00  0.00    -0.237 OA
ATOM     78  O   UNL     1      -8.060  -0.602  11.784  1.00  0.00    -0.237 OA
ATOM     79  O   UNL     1     -10.147   0.518  11.110  1.00  0.00    -0.744 OA
ENDBRANCH  75  76
ENDBRANCH  47  70
BRANCH  59  80
ATOM     80  C   UNL     1     -11.699  -9.874   6.556  1.00  0.00    -0.014 A 
ATOM     81  C   UNL     1     -13.021  -9.837   7.032  1.00  0.00     0.010 A 
ATOM     82  C   UNL     1     -10.868 -10.951   6.913  1.00  0.00     0.010 A 
ATOM     83  C   UNL     1     -13.492 -10.842   7.882  1.00  0.00     0.020 A 
ATOM     84  C   UNL     1     -11.342 -11.967   7.747  1.00  0.00     0.020 A 
ATOM     85  C   UNL     1     -12.646 -11.896   8.241  1.00  0.00     0.054 A 
BRANCH  85  86
ATOM     86  S   UNL     1     -13.279 -13.204   9.328  1.00  0.00     0.124 S 
ATOM     87  O   UNL     1     -13.158 -12.588  10.646  1.00  0.00    -0.237 OA
ATOM     88  O   UNL     1     -14.645 -13.396   8.846  1.00  0.00    -0.237 OA
ATOM     89  O   UNL     1     -12.376 -14.325   9.076  1.00  0.00    -0.744 OA
ENDBRANCH  85  86
ENDBRANCH  59  80
ENDBRANCH  33  34
ENDBRANCH  26  28
ENDBRANCH  25  26
ENDBRANCH  24  25
ENDBRANCH  23  24
ENDBRANCH   1  23
TORSDOF 18
