REMARK SMILES O=C(Cn1cc(NC(=O)N2CC[N@@H+]3CCC[C@@H]3C2)cn1)OCCOC(=O)c1ccc(-c2c3nc(c(-c4ccc(S(=O)(=O)[O-])cc4)c4ccc([nH]4)c(-c4ccc(S(=O)(=O)[O-])cc4)c4nc(c(-c5ccc(S(=O)(=O)[O-])cc5)c5ccc2[nH]5)C=C4)C=C3)cc1
REMARK SMILES IDX 22 1 21 2 2 3 1 4 3 5 4 6 5 7 20 8 6 9 19 10 7 11 8 12 9 14
REMARK SMILES IDX 10 15 11 16 18 17 12 18 17 19 13 20 16 21 14 22 15 24 23 25
REMARK SMILES IDX 24 26 25 27 26 28 27 29 28 30 86 31 29 32 85 33 30 34 31 35
REMARK SMILES IDX 32 36 79 37 33 38 84 39 78 40 80 41 34 42 83 43 77 44 76 45
REMARK SMILES IDX 35 47 65 48 46 49 64 50 47 51 50 52 63 53 81 54 48 55 49 56
REMARK SMILES IDX 62 58 82 59 51 60 36 61 37 62 45 63 38 64 44 65 39 66 40 67
REMARK SMILES IDX 41 68 42 69 43 70 66 71 67 72 75 73 68 74 74 75 69 76 70 77
REMARK SMILES IDX 71 78 72 79 73 80 52 81 53 82 61 83 54 84 60 85 55 86 56 87
REMARK SMILES IDX 57 88 58 89 59 90
REMARK H PARENT 7 13 13 23 80 46 50 57
REMARK Flexibility Score: inf
ROOT
ATOM      1  C   UNL     1       4.199   1.092   1.044  1.00  0.00     0.274 C 
ENDROOT
BRANCH   1   2
ATOM      2  O   UNL     1       2.778   1.231   0.801  1.00  0.00    -0.461 OA
BRANCH   2   3
ATOM      3  C   UNL     1       2.013   0.658  -0.156  1.00  0.00     0.327 C 
ATOM      4  O   UNL     1       0.808   0.919  -0.193  1.00  0.00    -0.250 OA
BRANCH   3   5
ATOM      5  C   UNL     1       2.594  -0.258  -1.194  1.00  0.00     0.266 C 
BRANCH   5   6
ATOM      6  N   UNL     1       3.663   0.344  -1.949  1.00  0.00    -0.259 N 
ATOM      7  C   UNL     1       3.615   1.527  -2.625  1.00  0.00     0.135 A 
ATOM      8  N   UNL     1       4.857  -0.277  -2.018  1.00  0.00    -0.179 NA
ATOM      9  C   UNL     1       4.837   1.655  -3.231  1.00  0.00     0.081 A 
ATOM     10  C   UNL     1       5.590   0.554  -2.759  1.00  0.00     0.161 A 
BRANCH   9  11
ATOM     11  N   UNL     1       5.175   2.682  -4.084  1.00  0.00    -0.305 N 
ATOM     12  C   UNL     1       6.293   2.726  -4.866  1.00  0.00     0.322 C 
ATOM     13  H   UNL     1       4.558   3.448  -4.133  1.00  0.00     0.171 HD
ATOM     14  O   UNL     1       6.823   3.811  -5.102  1.00  0.00    -0.248 OA
BRANCH  12  15
ATOM     15  N   UNL     1       6.765   1.533  -5.370  1.00  0.00    -0.313 N 
ATOM     16  C   UNL     1       5.871   0.512  -5.944  1.00  0.00     0.183 C 
ATOM     17  C   UNL     1       8.179   1.397  -5.663  1.00  0.00     0.186 C 
ATOM     18  C   UNL     1       6.561  -0.504  -6.874  1.00  0.00     0.284 C 
ATOM     19  C   UNL     1       8.431   1.103  -7.145  1.00  0.00     0.204 C 
ATOM     20  N   UNL     1       7.604   0.035  -7.753  1.00  0.00    -0.330 N 
ATOM     21  C   UNL     1       9.884   0.701  -7.390  1.00  0.00     0.073 C 
ATOM     22  C   UNL     1       8.504  -1.022  -8.232  1.00  0.00     0.262 C 
ATOM     23  H   UNL     1       7.084   0.448  -8.527  1.00  0.00     0.348 HD
ATOM     24  C   UNL     1       9.798  -0.292  -8.531  1.00  0.00     0.068 C 
ENDBRANCH  12  15
ENDBRANCH   9  11
ENDBRANCH   5   6
ENDBRANCH   3   5
ENDBRANCH   2   3
ENDBRANCH   1   2
BRANCH   1  25
ATOM     25  C   UNL     1       4.519  -0.036   2.004  1.00  0.00     0.275 C 
BRANCH  25  26
ATOM     26  O   UNL     1       4.327  -1.285   1.360  1.00  0.00    -0.458 OA
BRANCH  26  27
ATOM     27  C   UNL     1       3.128  -1.889   1.529  1.00  0.00     0.338 C 
ATOM     28  O   UNL     1       2.122  -1.408   1.990  1.00  0.00    -0.246 OA
BRANCH  27  29
ATOM     29  C   UNL     1       3.288  -3.283   1.085  1.00  0.00     0.060 A 
ATOM     30  C   UNL     1       2.204  -4.150   1.240  1.00  0.00     0.016 A 
ATOM     31  C   UNL     1       4.570  -3.744   0.755  1.00  0.00     0.016 A 
ATOM     32  C   UNL     1       2.462  -5.503   1.307  1.00  0.00     0.010 A 
ATOM     33  C   UNL     1       4.832  -5.079   0.867  1.00  0.00     0.010 A 
ATOM     34  C   UNL     1       3.792  -5.924   1.235  1.00  0.00    -0.014 A 
BRANCH  34  35
ATOM     35  C   UNL     1       4.129  -7.295   1.526  1.00  0.00     0.031 A 
ATOM     36  C   UNL     1       4.017  -8.171   0.344  1.00  0.00     0.074 A 
ATOM     37  C   UNL     1       4.669  -7.642   2.710  1.00  0.00     0.049 A 
ATOM     38  N   UNL     1       3.057  -8.990   0.073  1.00  0.00    -0.248 NA
ATOM     39  C   UNL     1       4.944  -7.941  -0.779  1.00  0.00     0.031 C 
ATOM     40  C   UNL     1       5.109  -6.769   3.804  1.00  0.00     0.029 A 
ATOM     41  N   UNL     1       5.051  -8.869   3.139  1.00  0.00    -0.354 N 
ATOM     42  C   UNL     1       3.415  -9.572  -1.134  1.00  0.00     0.074 A 
ATOM     43  C   UNL     1       4.390  -8.696  -1.727  1.00  0.00     0.031 C 
ATOM     44  C   UNL     1       5.907  -7.473   4.643  1.00  0.00     0.029 A 
ATOM     45  C   UNL     1       5.923  -8.864   4.220  1.00  0.00     0.049 A 
ATOM     46  H   UNL     1       4.734  -9.700   2.717  1.00  0.00     0.167 HD
ATOM     47  C   UNL     1       3.158 -10.885  -1.387  1.00  0.00     0.031 A 
ATOM     48  C   UNL     1       6.651  -9.923   4.667  1.00  0.00     0.031 A 
ATOM     49  C   UNL     1       2.245 -11.437  -0.417  1.00  0.00     0.049 A 
ATOM     50  C   UNL     1       6.013 -11.148   4.111  1.00  0.00     0.074 A 
ATOM     51  C   UNL     1       0.958 -11.142  -0.016  1.00  0.00     0.029 A 
ATOM     52  N   UNL     1       2.804 -12.183   0.597  1.00  0.00    -0.354 N 
ATOM     53  N   UNL     1       4.814 -11.541   4.445  1.00  0.00    -0.248 NA
ATOM     54  C   UNL     1       6.491 -11.641   2.827  1.00  0.00     0.031 C 
ATOM     55  C   UNL     1       0.960 -11.328   1.397  1.00  0.00     0.029 A 
ATOM     56  C   UNL     1       2.216 -11.807   1.777  1.00  0.00     0.049 A 
ATOM     57  H   UNL     1       3.505 -12.867   0.492  1.00  0.00     0.167 HD
ATOM     58  C   UNL     1       4.226 -11.948   3.254  1.00  0.00     0.074 A 
ATOM     59  C   UNL     1       5.336 -12.071   2.308  1.00  0.00     0.031 C 
ATOM     60  C   UNL     1       2.875 -11.856   3.067  1.00  0.00     0.031 A 
BRANCH  47  61
ATOM     61  C   UNL     1       4.067 -11.761  -2.212  1.00  0.00    -0.014 A 
ATOM     62  C   UNL     1       3.667 -13.085  -2.471  1.00  0.00     0.010 A 
ATOM     63  C   UNL     1       5.404 -11.426  -2.515  1.00  0.00     0.010 A 
ATOM     64  C   UNL     1       4.577 -14.037  -2.947  1.00  0.00     0.020 A 
ATOM     65  C   UNL     1       6.306 -12.353  -3.034  1.00  0.00     0.020 A 
ATOM     66  C   UNL     1       5.894 -13.664  -3.216  1.00  0.00     0.054 A 
BRANCH  66  67
ATOM     67  S   UNL     1       7.082 -14.917  -3.747  1.00  0.00     0.124 S 
ATOM     68  O   UNL     1       7.171 -15.765  -2.562  1.00  0.00    -0.237 OA
ATOM     69  O   UNL     1       6.412 -15.504  -4.902  1.00  0.00    -0.237 OA
ATOM     70  O   UNL     1       8.282 -14.141  -4.056  1.00  0.00    -0.744 OA
ENDBRANCH  66  67
ENDBRANCH  47  61
BRANCH  48  71
ATOM     71  C   UNL     1       8.038  -9.921   5.210  1.00  0.00    -0.014 A 
ATOM     72  C   UNL     1       8.588 -11.067   5.820  1.00  0.00     0.010 A 
ATOM     73  C   UNL     1       8.927  -8.881   4.870  1.00  0.00     0.010 A 
ATOM     74  C   UNL     1       9.976 -11.192   6.020  1.00  0.00     0.020 A 
ATOM     75  C   UNL     1      10.309  -8.995   5.070  1.00  0.00     0.020 A 
ATOM     76  C   UNL     1      10.832 -10.162   5.622  1.00  0.00     0.054 A 
BRANCH  76  77
ATOM     77  S   UNL     1      12.634 -10.400   5.707  1.00  0.00     0.124 S 
ATOM     78  O   UNL     1      12.885 -10.374   7.145  1.00  0.00    -0.237 OA
ATOM     79  O   UNL     1      12.816 -11.694   5.056  1.00  0.00    -0.237 OA
ATOM     80  O   UNL     1      13.168  -9.258   4.965  1.00  0.00    -0.744 OA
ENDBRANCH  76  77
ENDBRANCH  48  71
BRANCH  60  81
ATOM     81  C   UNL     1       2.000 -11.580   4.270  1.00  0.00    -0.014 A 
ATOM     82  C   UNL     1       2.056 -10.401   5.041  1.00  0.00     0.010 A 
ATOM     83  C   UNL     1       0.966 -12.497   4.526  1.00  0.00     0.010 A 
ATOM     84  C   UNL     1       1.116 -10.164   6.058  1.00  0.00     0.020 A 
ATOM     85  C   UNL     1       0.017 -12.259   5.522  1.00  0.00     0.020 A 
ATOM     86  C   UNL     1       0.102 -11.099   6.292  1.00  0.00     0.054 A 
BRANCH  86  87
ATOM     87  S   UNL     1      -1.135 -10.781   7.582  1.00  0.00     0.124 S 
ATOM     88  O   UNL     1      -0.347 -10.884   8.808  1.00  0.00    -0.237 OA
ATOM     89  O   UNL     1      -1.614  -9.441   7.252  1.00  0.00    -0.237 OA
ATOM     90  O   UNL     1      -2.119 -11.846   7.391  1.00  0.00    -0.744 OA
ENDBRANCH  86  87
ENDBRANCH  60  81
ENDBRANCH  34  35
ENDBRANCH  27  29
ENDBRANCH  26  27
ENDBRANCH  25  26
ENDBRANCH   1  25
TORSDOF 17
