REMARK SMILES O=C(CCCC[C@@H]1CCSS1)OCCOC(=O)c1ccc(-c2c3nc(c(-c4ccc(S(=O)(=O)[O-])cc4)c4ccc([nH]4)c(-c4ccc(S(=O)(=O)[O-])cc4)c4nc(c(-c5ccc(S(=O)(=O)[O-])cc5)c5ccc2[nH]5)C=C4)C=C3)cc1
REMARK SMILES IDX 13 1 12 2 2 3 1 4 3 5 4 6 5 7 6 8 7 9 8 10 11 11 9 12 10 13
REMARK SMILES IDX 14 14 15 15 16 16 17 17 18 18 19 19 77 20 20 21 76 22 21 23
REMARK SMILES IDX 22 24 23 25 70 26 24 27 75 28 69 29 71 30 25 31 74 32 68 33
REMARK SMILES IDX 67 34 26 36 56 37 37 38 55 39 38 40 41 41 54 42 72 43 39 44
REMARK SMILES IDX 40 45 53 47 73 48 42 49 27 50 28 51 36 52 29 53 35 54 30 55
REMARK SMILES IDX 31 56 32 57 33 58 34 59 57 60 58 61 66 62 59 63 65 64 60 65
REMARK SMILES IDX 61 66 62 67 63 68 64 69 43 70 44 71 52 72 45 73 51 74 46 75
REMARK SMILES IDX 47 76 48 77 49 78 50 79
REMARK H PARENT 71 35 41 46
REMARK Flexibility Score: inf
ROOT
ATOM      1  C   UNL     1       3.632   1.018   1.178  1.00  0.00     0.274 C 
ENDROOT
BRANCH   1   2
ATOM      2  O   UNL     1       2.431   0.810   0.416  1.00  0.00    -0.462 OA
BRANCH   2   3
ATOM      3  C   UNL     1       2.534   0.426  -0.884  1.00  0.00     0.305 C 
ATOM      4  O   UNL     1       1.915   1.011  -1.766  1.00  0.00    -0.252 OA
BRANCH   3   5
ATOM      5  C   UNL     1       3.301  -0.856  -1.145  1.00  0.00     0.123 C 
BRANCH   5   6
ATOM      6  C   UNL     1       4.259  -0.792  -2.329  1.00  0.00     0.012 C 
BRANCH   6   7
ATOM      7  C   UNL     1       5.546  -0.005  -2.078  1.00  0.00     0.002 C 
BRANCH   7   8
ATOM      8  C   UNL     1       6.458  -0.439  -0.918  1.00  0.00     0.015 C 
BRANCH   8   9
ATOM      9  C   UNL     1       7.131  -1.814  -1.036  1.00  0.00     0.059 C 
ATOM     10  C   UNL     1       6.267  -2.969  -0.502  1.00  0.00     0.027 C 
ATOM     11  S   UNL     1       8.655  -1.781  -0.007  1.00  0.00    -0.091 SA
ATOM     12  C   UNL     1       7.122  -4.187  -0.168  1.00  0.00     0.083 C 
ATOM     13  S   UNL     1       8.412  -3.578   0.934  1.00  0.00    -0.094 SA
ENDBRANCH   8   9
ENDBRANCH   7   8
ENDBRANCH   6   7
ENDBRANCH   5   6
ENDBRANCH   3   5
ENDBRANCH   2   3
ENDBRANCH   1   2
BRANCH   1  14
ATOM     14  C   UNL     1       3.749   0.088   2.391  1.00  0.00     0.275 C 
BRANCH  14  15
ATOM     15  O   UNL     1       3.554  -1.289   2.033  1.00  0.00    -0.458 OA
BRANCH  15  16
ATOM     16  C   UNL     1       2.262  -1.708   2.112  1.00  0.00     0.338 C 
ATOM     17  O   UNL     1       1.327  -1.083   2.571  1.00  0.00    -0.246 OA
BRANCH  16  18
ATOM     18  C   UNL     1       2.105  -2.997   1.396  1.00  0.00     0.060 A 
ATOM     19  C   UNL     1       0.919  -3.197   0.678  1.00  0.00     0.016 A 
ATOM     20  C   UNL     1       3.081  -3.998   1.431  1.00  0.00     0.016 A 
ATOM     21  C   UNL     1       0.683  -4.413   0.037  1.00  0.00     0.010 A 
ATOM     22  C   UNL     1       2.844  -5.218   0.788  1.00  0.00     0.010 A 
ATOM     23  C   UNL     1       1.627  -5.445   0.121  1.00  0.00    -0.014 A 
BRANCH  23  24
ATOM     24  C   UNL     1       1.259  -6.814  -0.316  1.00  0.00     0.031 A 
ATOM     25  C   UNL     1       0.768  -7.790   0.720  1.00  0.00     0.074 A 
ATOM     26  C   UNL     1       1.337  -7.189  -1.606  1.00  0.00     0.049 A 
ATOM     27  N   UNL     1       0.396  -9.035   0.575  1.00  0.00    -0.248 NA
ATOM     28  C   UNL     1       0.687  -7.292   2.103  1.00  0.00     0.031 C 
ATOM     29  C   UNL     1       1.760  -6.336  -2.715  1.00  0.00     0.029 A 
ATOM     30  N   UNL     1       1.061  -8.398  -2.196  1.00  0.00    -0.354 N 
ATOM     31  C   UNL     1       0.039  -9.470   1.846  1.00  0.00     0.074 A 
ATOM     32  C   UNL     1       0.271  -8.367   2.753  1.00  0.00     0.031 C 
ATOM     33  C   UNL     1       1.723  -7.053  -3.853  1.00  0.00     0.029 A 
ATOM     34  C   UNL     1       1.294  -8.418  -3.550  1.00  0.00     0.049 A 
ATOM     35  H   UNL     1       0.727  -9.177  -1.696  1.00  0.00     0.167 HD
ATOM     36  C   UNL     1      -0.447 -10.675   2.228  1.00  0.00     0.031 A 
ATOM     37  C   UNL     1       1.183  -9.424  -4.441  1.00  0.00     0.031 A 
ATOM     38  C   UNL     1      -0.662 -11.782   1.339  1.00  0.00     0.049 A 
ATOM     39  C   UNL     1       0.705 -10.778  -3.985  1.00  0.00     0.074 A 
ATOM     40  C   UNL     1      -1.157 -13.040   1.635  1.00  0.00     0.029 A 
ATOM     41  N   UNL     1      -0.387 -11.768  -0.019  1.00  0.00    -0.354 N 
ATOM     42  N   UNL     1       0.342 -11.163  -2.784  1.00  0.00    -0.248 NA
ATOM     43  C   UNL     1       0.612 -11.832  -5.007  1.00  0.00     0.031 C 
ATOM     44  C   UNL     1      -1.138 -13.803   0.462  1.00  0.00     0.029 A 
ATOM     45  C   UNL     1      -0.680 -13.002  -0.573  1.00  0.00     0.049 A 
ATOM     46  H   UNL     1      -0.035 -10.995  -0.517  1.00  0.00     0.167 HD
ATOM     47  C   UNL     1      -0.051 -12.492  -2.914  1.00  0.00     0.074 A 
ATOM     48  C   UNL     1       0.115 -12.845  -4.309  1.00  0.00     0.031 C 
ATOM     49  C   UNL     1      -0.516 -13.341  -1.964  1.00  0.00     0.031 A 
BRANCH  36  50
ATOM     50  C   UNL     1      -0.742 -10.857   3.691  1.00  0.00    -0.014 A 
ATOM     51  C   UNL     1      -1.851 -10.233   4.290  1.00  0.00     0.010 A 
ATOM     52  C   UNL     1       0.104 -11.659   4.477  1.00  0.00     0.010 A 
ATOM     53  C   UNL     1      -2.079 -10.366   5.662  1.00  0.00     0.020 A 
ATOM     54  C   UNL     1      -0.135 -11.815   5.845  1.00  0.00     0.020 A 
ATOM     55  C   UNL     1      -1.212 -11.148   6.432  1.00  0.00     0.054 A 
BRANCH  55  56
ATOM     56  S   UNL     1      -1.520 -11.296   8.213  1.00  0.00     0.124 S 
ATOM     57  O   UNL     1      -1.048 -10.005   8.707  1.00  0.00    -0.237 OA
ATOM     58  O   UNL     1      -2.965 -11.501   8.276  1.00  0.00    -0.237 OA
ATOM     59  O   UNL     1      -0.714 -12.447   8.609  1.00  0.00    -0.744 OA
ENDBRANCH  55  56
ENDBRANCH  36  50
BRANCH  37  60
ATOM     60  C   UNL     1       1.540  -9.191  -5.867  1.00  0.00    -0.014 A 
ATOM     61  C   UNL     1       0.542  -9.123  -6.854  1.00  0.00     0.010 A 
ATOM     62  C   UNL     1       2.887  -9.035  -6.242  1.00  0.00     0.010 A 
ATOM     63  C   UNL     1       0.884  -8.912  -8.193  1.00  0.00     0.020 A 
ATOM     64  C   UNL     1       3.231  -8.802  -7.576  1.00  0.00     0.020 A 
ATOM     65  C   UNL     1       2.228  -8.751  -8.545  1.00  0.00     0.054 A 
BRANCH  65  66
ATOM     66  S   UNL     1       2.648  -8.419 -10.279  1.00  0.00     0.124 S 
ATOM     67  O   UNL     1       2.492  -9.736 -10.887  1.00  0.00    -0.237 OA
ATOM     68  O   UNL     1       1.650  -7.422 -10.661  1.00  0.00    -0.237 OA
ATOM     69  O   UNL     1       4.019  -7.918 -10.206  1.00  0.00    -0.744 OA
ENDBRANCH  65  66
ENDBRANCH  37  60
BRANCH  49  70
ATOM     70  C   UNL     1      -0.920 -14.726  -2.394  1.00  0.00    -0.014 A 
ATOM     71  C   UNL     1       0.041 -15.706  -2.696  1.00  0.00     0.010 A 
ATOM     72  C   UNL     1      -2.284 -15.073  -2.414  1.00  0.00     0.010 A 
ATOM     73  C   UNL     1      -0.356 -17.005  -3.029  1.00  0.00     0.020 A 
ATOM     74  C   UNL     1      -2.683 -16.375  -2.725  1.00  0.00     0.020 A 
ATOM     75  C   UNL     1      -1.716 -17.332  -3.040  1.00  0.00     0.054 A 
BRANCH  75  76
ATOM     76  S   UNL     1      -2.204 -19.039  -3.412  1.00  0.00     0.124 S 
ATOM     77  O   UNL     1      -2.031 -19.096  -4.860  1.00  0.00    -0.237 OA
ATOM     78  O   UNL     1      -1.250 -19.825  -2.633  1.00  0.00    -0.237 OA
ATOM     79  O   UNL     1      -3.588 -19.112  -2.946  1.00  0.00    -0.744 OA
ENDBRANCH  75  76
ENDBRANCH  49  70
ENDBRANCH  23  24
ENDBRANCH  16  18
ENDBRANCH  15  16
ENDBRANCH  14  15
ENDBRANCH   1  14
TORSDOF 18
