REMARK SMILES Cc1cc(N2CCCC[C@H]2C(=O)OCCOC(=O)c2ccc(-c3c4nc(c(-c5ccc(S(=O)(=O)[O-])cc5)c5ccc([nH]5)c(-c5ccc(S(=O)(=O)[O-])cc5)c5nc(c(-c6ccc(S(=O)(=O)[O-])cc6)c6ccc3[nH]6)C=C5)C=C4)cc2)ncc1[N+](=O)[O-]
REMARK SMILES IDX 15 1 14 2 13 3 11 4 12 5 10 6 5 7 6 8 7 9 9 10 8 11 4 12
REMARK SMILES IDX 1 13 2 14 3 15 81 16 80 17 79 18 82 19 83 20 84 21 16 22
REMARK SMILES IDX 17 23 18 24 19 25 20 26 78 27 21 28 77 29 22 30 23 31 24 32
REMARK SMILES IDX 71 33 25 34 76 35 70 36 72 37 26 38 75 39 69 40 68 41 27 43
REMARK SMILES IDX 57 44 38 45 56 46 39 47 42 48 55 49 73 50 40 51 41 52 54 54
REMARK SMILES IDX 74 55 43 56 28 57 29 58 37 59 30 60 36 61 31 62 32 63 33 64
REMARK SMILES IDX 34 65 35 66 58 67 59 68 67 69 60 70 66 71 61 72 62 73 63 74
REMARK SMILES IDX 64 75 65 76 44 77 45 78 53 79 46 80 52 81 47 82 48 83 49 84
REMARK SMILES IDX 50 85 51 86
REMARK H PARENT 72 42 42 53
REMARK Flexibility Score: inf
ROOT
ATOM      1  C   UNL     1       7.072   3.031  -0.618  1.00  0.00     0.275 C 
ENDROOT
BRANCH   1   2
ATOM      2  C   UNL     1       6.105   2.057   0.057  1.00  0.00     0.274 C 
BRANCH   2   3
ATOM      3  O   UNL     1       4.779   2.105  -0.511  1.00  0.00    -0.461 OA
BRANCH   3   4
ATOM      4  C   UNL     1       3.838   2.764   0.231  1.00  0.00     0.328 C 
ATOM      5  O   UNL     1       4.104   3.483   1.188  1.00  0.00    -0.250 OA
BRANCH   4   6
ATOM      6  C   UNL     1       2.410   2.465  -0.281  1.00  0.00     0.193 C 
ATOM      7  N   UNL     1       1.575   1.861   0.772  1.00  0.00    -0.343 N 
ATOM      8  C   UNL     1       1.177   2.687   1.909  1.00  0.00     0.119 C 
ATOM      9  C   UNL     1       0.484   3.964   1.440  1.00  0.00     0.022 C 
ATOM     10  C   UNL     1       1.679   3.724  -0.782  1.00  0.00     0.037 C 
ATOM     11  C   UNL     1       1.287   4.676   0.356  1.00  0.00     0.005 C 
BRANCH   7  12
ATOM     12  C   UNL     1       0.863   0.737   0.433  1.00  0.00     0.130 A 
ATOM     13  C   UNL     1      -2.748  -0.272  -0.080  1.00  0.00     0.052 C 
ATOM     14  C   UNL     1      -1.260  -0.407   0.052  1.00  0.00     0.032 A 
ATOM     15  C   UNL     1      -0.529   0.758   0.335  1.00  0.00     0.057 A 
ATOM     16  C   UNL     1      -0.529  -1.591  -0.062  1.00  0.00     0.290 A 
ATOM     17  C   UNL     1       0.857  -1.535  -0.010  1.00  0.00     0.199 A 
ATOM     18  N   UNL     1       1.557  -0.394   0.202  1.00  0.00    -0.232 NA
BRANCH  16  19
ATOM     19  N   UNL     1      -1.143  -2.901  -0.187  1.00  0.00     0.064 N 
ATOM     20  O   UNL     1      -0.548  -3.746  -0.870  1.00  0.00    -0.258 OA
ATOM     21  O   UNL     1      -2.199  -3.108   0.425  1.00  0.00    -0.258 OA
ENDBRANCH  16  19
ENDBRANCH   7  12
ENDBRANCH   4   6
ENDBRANCH   3   4
ENDBRANCH   2   3
ENDBRANCH   1   2
BRANCH   1  22
ATOM     22  O   UNL     1       6.734   4.388  -0.284  1.00  0.00    -0.458 OA
BRANCH  22  23
ATOM     23  C   UNL     1       6.331   5.163  -1.313  1.00  0.00     0.338 C 
ATOM     24  O   UNL     1       6.310   4.873  -2.502  1.00  0.00    -0.246 OA
BRANCH  23  25
ATOM     25  C   UNL     1       5.711   6.380  -0.777  1.00  0.00     0.060 A 
ATOM     26  C   UNL     1       4.324   6.370  -0.665  1.00  0.00     0.016 A 
ATOM     27  C   UNL     1       6.434   7.530  -0.468  1.00  0.00     0.016 A 
ATOM     28  C   UNL     1       3.635   7.499  -0.243  1.00  0.00     0.010 A 
ATOM     29  C   UNL     1       5.742   8.674  -0.042  1.00  0.00     0.010 A 
ATOM     30  C   UNL     1       4.337   8.666   0.063  1.00  0.00    -0.014 A 
BRANCH  30  31
ATOM     31  C   UNL     1       3.570   9.893   0.384  1.00  0.00     0.031 A 
ATOM     32  C   UNL     1       3.382  10.938  -0.678  1.00  0.00     0.074 A 
ATOM     33  C   UNL     1       2.967  10.033   1.580  1.00  0.00     0.049 A 
ATOM     34  N   UNL     1       2.809  12.110  -0.591  1.00  0.00    -0.248 NA
ATOM     35  C   UNL     1       3.892  10.612  -2.020  1.00  0.00     0.031 C 
ATOM     36  C   UNL     1       2.971   9.039   2.654  1.00  0.00     0.029 A 
ATOM     37  N   UNL     1       2.223  11.069   2.086  1.00  0.00    -0.354 N 
ATOM     38  C   UNL     1       2.917  12.676  -1.855  1.00  0.00     0.074 A 
ATOM     39  C   UNL     1       3.600  11.715  -2.694  1.00  0.00     0.031 C 
ATOM     40  C   UNL     1       2.263   9.515   3.693  1.00  0.00     0.029 A 
ATOM     41  C   UNL     1       1.806  10.867   3.381  1.00  0.00     0.049 A 
ATOM     42  H   UNL     1       2.007  11.880   1.571  1.00  0.00     0.167 HD
ATOM     43  C   UNL     1       2.496  13.892  -2.273  1.00  0.00     0.031 A 
ATOM     44  C   UNL     1       1.165  11.695   4.231  1.00  0.00     0.031 A 
ATOM     45  C   UNL     1       1.818  14.846  -1.439  1.00  0.00     0.049 A 
ATOM     46  C   UNL     1       0.803  13.084   3.773  1.00  0.00     0.074 A 
ATOM     47  C   UNL     1       1.381  16.118  -1.766  1.00  0.00     0.029 A 
ATOM     48  N   UNL     1       1.482  14.635  -0.111  1.00  0.00    -0.354 N 
ATOM     49  N   UNL     1       0.954  13.627   2.588  1.00  0.00    -0.248 NA
ATOM     50  C   UNL     1       0.200  13.978   4.773  1.00  0.00     0.031 C 
ATOM     51  C   UNL     1       0.821  16.694  -0.621  1.00  0.00     0.029 A 
ATOM     52  C   UNL     1       0.866  15.762   0.404  1.00  0.00     0.049 A 
ATOM     53  H   UNL     1       1.655  13.807   0.391  1.00  0.00     0.167 HD
ATOM     54  C   UNL     1       0.451  14.920   2.698  1.00  0.00     0.074 A 
ATOM     55  C   UNL     1      -0.025  15.071   4.057  1.00  0.00     0.031 C 
ATOM     56  C   UNL     1       0.393  15.895   1.758  1.00  0.00     0.031 A 
BRANCH  43  57
ATOM     57  C   UNL     1       2.828  14.285  -3.684  1.00  0.00    -0.014 A 
ATOM     58  C   UNL     1       2.109  13.775  -4.779  1.00  0.00     0.010 A 
ATOM     59  C   UNL     1       3.870  15.203  -3.911  1.00  0.00     0.010 A 
ATOM     60  C   UNL     1       2.450  14.152  -6.081  1.00  0.00     0.020 A 
ATOM     61  C   UNL     1       4.200  15.597  -5.209  1.00  0.00     0.020 A 
ATOM     62  C   UNL     1       3.498  15.056  -6.288  1.00  0.00     0.054 A 
BRANCH  62  63
ATOM     63  S   UNL     1       3.914  15.541  -7.985  1.00  0.00     0.124 S 
ATOM     64  O   UNL     1       4.615  14.355  -8.472  1.00  0.00    -0.237 OA
ATOM     65  O   UNL     1       2.603  15.785  -8.582  1.00  0.00    -0.237 OA
ATOM     66  O   UNL     1       4.747  16.729  -7.812  1.00  0.00    -0.744 OA
ENDBRANCH  62  63
ENDBRANCH  43  57
BRANCH  44  67
ATOM     67  C   UNL     1       0.891  11.268   5.631  1.00  0.00    -0.014 A 
ATOM     68  C   UNL     1      -0.425  11.074   6.083  1.00  0.00     0.010 A 
ATOM     69  C   UNL     1       1.957  11.086   6.532  1.00  0.00     0.010 A 
ATOM     70  C   UNL     1      -0.672  10.730   7.417  1.00  0.00     0.020 A 
ATOM     71  C   UNL     1       1.717  10.716   7.857  1.00  0.00     0.020 A 
ATOM     72  C   UNL     1       0.402  10.557   8.296  1.00  0.00     0.054 A 
BRANCH  72  73
ATOM     73  S   UNL     1       0.068  10.084  10.015  1.00  0.00     0.124 S 
ATOM     74  O   UNL     1      -0.347  11.353  10.603  1.00  0.00    -0.237 OA
ATOM     75  O   UNL     1      -0.983   9.079   9.871  1.00  0.00    -0.237 OA
ATOM     76  O   UNL     1       1.353   9.566  10.480  1.00  0.00    -0.744 OA
ENDBRANCH  72  73
ENDBRANCH  44  67
BRANCH  56  77
ATOM     77  C   UNL     1      -0.233  17.205   2.155  1.00  0.00    -0.014 A 
ATOM     78  C   UNL     1       0.454  18.120   2.971  1.00  0.00     0.010 A 
ATOM     79  C   UNL     1      -1.500  17.549   1.651  1.00  0.00     0.010 A 
ATOM     80  C   UNL     1      -0.127  19.349   3.297  1.00  0.00     0.020 A 
ATOM     81  C   UNL     1      -2.074  18.786   1.956  1.00  0.00     0.020 A 
ATOM     82  C   UNL     1      -1.388  19.674   2.787  1.00  0.00     0.054 A 
BRANCH  82  83
ATOM     83  S   UNL     1      -2.101  21.296   3.178  1.00  0.00     0.124 S 
ATOM     84  O   UNL     1      -2.567  21.100   4.548  1.00  0.00    -0.237 OA
ATOM     85  O   UNL     1      -0.961  22.196   3.025  1.00  0.00    -0.237 OA
ATOM     86  O   UNL     1      -3.154  21.460   2.178  1.00  0.00    -0.744 OA
ENDBRANCH  82  83
ENDBRANCH  56  77
ENDBRANCH  30  31
ENDBRANCH  23  25
ENDBRANCH  22  23
ENDBRANCH   1  22
TORSDOF 16
