REMARK SMILES CC1(C)[C@@H](C(=O)OCCOC(=O)c2ccc(-c3c4nc(c(-c5ccc(S(=O)(=O)[O-])cc5)c5ccc([nH]5)c(-c5ccc(S(=O)(=O)[O-])cc5)c5nc(c(-c6ccc(S(=O)(=O)[O-])cc6)c6ccc3[nH]6)C=C5)C=C4)cc2)CC[C@@]1(C)C(N)=O
REMARK SMILES IDX 9 1 8 2 7 3 5 4 6 5 4 6 1 7 2 8 3 9 75 10 73 11 74 12 76 13
REMARK SMILES IDX 77 14 78 15 79 16 10 19 11 20 12 21 13 22 14 23 72 24 15 25
REMARK SMILES IDX 71 26 16 27 17 28 18 29 65 30 19 31 70 32 64 33 66 34 20 35
REMARK SMILES IDX 69 36 63 37 62 38 21 40 51 41 32 42 50 43 33 44 36 45 49 46
REMARK SMILES IDX 67 47 34 48 35 49 48 51 68 52 37 53 22 54 23 55 31 56 24 57
REMARK SMILES IDX 30 58 25 59 26 60 27 61 28 62 29 63 52 64 53 65 61 66 54 67
REMARK SMILES IDX 60 68 55 69 56 70 57 71 58 72 59 73 38 74 39 75 47 76 40 77
REMARK SMILES IDX 46 78 41 79 42 80 43 81 44 82 45 83
REMARK H PARENT 78 17 78 18 66 39 36 50
REMARK Flexibility Score: inf
ROOT
ATOM      1  C   UNL     1       5.275  -1.668   0.916  1.00  0.00     0.275 C 
ENDROOT
BRANCH   1   2
ATOM      2  C   UNL     1       4.389  -2.294   1.990  1.00  0.00     0.274 C 
BRANCH   2   3
ATOM      3  O   UNL     1       2.989  -1.942   1.815  1.00  0.00    -0.462 OA
BRANCH   3   4
ATOM      4  C   UNL     1       2.594  -0.870   2.559  1.00  0.00     0.309 C 
ATOM      5  O   UNL     1       3.362  -0.271   3.306  1.00  0.00    -0.252 OA
BRANCH   4   6
ATOM      6  C   UNL     1       1.082  -0.608   2.530  1.00  0.00     0.106 C 
ATOM      7  C   UNL     1       0.570  -0.729  -0.011  1.00  0.00     0.013 C 
ATOM      8  C   UNL     1       0.285  -0.021   1.313  1.00  0.00    -0.008 C 
ATOM      9  C   UNL     1      -1.222  -0.395   1.593  1.00  0.00     0.013 C 
ATOM     10  C   UNL     1       0.528   1.603   1.358  1.00  0.00     0.052 C 
ATOM     11  C   UNL     1       0.758   0.414   3.627  1.00  0.00     0.017 C 
ATOM     12  C   UNL     1       0.651   1.784   2.940  1.00  0.00     0.018 C 
ATOM     13  C   UNL     1      -0.832   2.350   1.024  1.00  0.00     0.022 C 
BRANCH  10  14
ATOM     14  C   UNL     1       1.529   2.206  -0.087  1.00  0.00     0.223 C 
ATOM     15  N   UNL     1       3.180   3.236  -0.095  1.00  0.00    -0.369 N 
ATOM     16  O   UNL     1       0.878   1.817  -1.103  1.00  0.00    -0.275 OA
ATOM     17  H   UNL     1       3.607   3.488   0.755  1.00  0.00     0.159 HD
ATOM     18  H   UNL     1       3.587   3.505  -0.950  1.00  0.00     0.159 HD
ENDBRANCH  10  14
ENDBRANCH   4   6
ENDBRANCH   3   4
ENDBRANCH   2   3
ENDBRANCH   1   2
BRANCH   1  19
ATOM     19  O   UNL     1       4.957  -0.274   0.815  1.00  0.00    -0.458 OA
BRANCH  19  20
ATOM     20  C   UNL     1       4.156  -0.011  -0.234  1.00  0.00     0.338 C 
ATOM     21  O   UNL     1       3.932  -0.742  -1.186  1.00  0.00    -0.246 OA
BRANCH  20  22
ATOM     22  C   UNL     1       3.492   1.280  -0.100  1.00  0.00     0.060 A 
ATOM     23  C   UNL     1       2.996   2.095   1.465  1.00  0.00     0.016 A 
ATOM     24  C   UNL     1       3.061   2.014  -1.702  1.00  0.00     0.016 A 
ATOM     25  C   UNL     1       1.990   3.666   1.387  1.00  0.00     0.010 A 
ATOM     26  C   UNL     1       2.118   3.573  -1.776  1.00  0.00     0.010 A 
ATOM     27  C   UNL     1       1.560   4.393  -0.247  1.00  0.00    -0.014 A 
BRANCH  27  28
ATOM     28  C   UNL     1       0.913   5.732  -0.393  1.00  0.00     0.031 A 
ATOM     29  C   UNL     1      -0.064   6.005  -1.520  1.00  0.00     0.074 A 
ATOM     30  C   UNL     1       1.290   6.745   0.415  1.00  0.00     0.049 A 
ATOM     31  N   UNL     1      -0.517   7.155  -1.960  1.00  0.00    -0.248 NA
ATOM     32  C   UNL     1      -0.547   4.854  -2.300  1.00  0.00     0.031 C 
ATOM     33  C   UNL     1       2.301   6.667   1.469  1.00  0.00     0.029 A 
ATOM     34  N   UNL     1       0.868   8.051   0.480  1.00  0.00    -0.354 N 
ATOM     35  C   UNL     1      -1.253   6.868  -3.110  1.00  0.00     0.074 A 
ATOM     36  C   UNL     1      -1.155   5.443  -3.321  1.00  0.00     0.031 C 
ATOM     37  C   UNL     1       2.327   7.813   2.157  1.00  0.00     0.029 A 
ATOM     38  C   UNL     1       1.456   8.771   1.496  1.00  0.00     0.049 A 
ATOM     39  H   UNL     1       0.208   8.436  -0.141  1.00  0.00     0.167 HD
ATOM     40  C   UNL     1      -1.959   7.711  -3.906  1.00  0.00     0.031 A 
ATOM     41  C   UNL     1       1.363  10.069   1.838  1.00  0.00     0.031 A 
ATOM     42  C   UNL     1      -2.128   9.115  -3.620  1.00  0.00     0.049 A 
ATOM     43  C   UNL     1       0.519  10.969   0.990  1.00  0.00     0.074 A 
ATOM     44  C   UNL     1      -2.897  10.046  -4.297  1.00  0.00     0.029 A 
ATOM     45  N   UNL     1      -1.543   9.782  -2.552  1.00  0.00    -0.354 N 
ATOM     46  N   UNL     1      -0.160  10.673  -0.093  1.00  0.00    -0.248 NA
ATOM     47  C   UNL     1       0.442  12.377   1.393  1.00  0.00     0.031 C 
ATOM     48  C   UNL     1      -2.738  11.285  -3.668  1.00  0.00     0.029 A 
ATOM     49  C   UNL     1      -1.925  11.113  -2.559  1.00  0.00     0.049 A 
ATOM     50  H   UNL     1      -0.945   9.369  -1.888  1.00  0.00     0.167 HD
ATOM     51  C   UNL     1      -0.754  11.859  -0.499  1.00  0.00     0.074 A 
ATOM     52  C   UNL     1      -0.378  12.867   0.474  1.00  0.00     0.031 C 
ATOM     53  C   UNL     1      -1.532  12.096  -1.583  1.00  0.00     0.031 A 
BRANCH  40  54
ATOM     54  C   UNL     1      -2.618   7.159  -5.154  1.00  0.00    -0.014 A 
ATOM     55  C   UNL     1      -3.689   6.250  -5.088  1.00  0.00     0.010 A 
ATOM     56  C   UNL     1      -2.212   7.627  -6.420  1.00  0.00     0.010 A 
ATOM     57  C   UNL     1      -4.315   5.795  -6.255  1.00  0.00     0.020 A 
ATOM     58  C   UNL     1      -2.857   7.203  -7.589  1.00  0.00     0.020 A 
ATOM     59  C   UNL     1      -3.898   6.278  -7.499  1.00  0.00     0.054 A 
BRANCH  59  60
ATOM     60  S   UNL     1      -4.768   5.714  -8.990  1.00  0.00     0.124 S 
ATOM     61  O   UNL     1      -4.334   4.323  -9.088  1.00  0.00    -0.237 OA
ATOM     62  O   UNL     1      -6.171   5.909  -8.634  1.00  0.00    -0.237 OA
ATOM     63  O   UNL     1      -4.268   6.597 -10.041  1.00  0.00    -0.744 OA
ENDBRANCH  59  60
ENDBRANCH  40  54
BRANCH  41  64
ATOM     64  C   UNL     1       2.120  10.581   3.015  1.00  0.00    -0.014 A 
ATOM     65  C   UNL     1       1.443  10.982   4.181  1.00  0.00     0.010 A 
ATOM     66  C   UNL     1       3.528  10.605   3.003  1.00  0.00     0.010 A 
ATOM     67  C   UNL     1       2.159  11.394   5.310  1.00  0.00     0.020 A 
ATOM     68  C   UNL     1       4.247  10.976   4.142  1.00  0.00     0.020 A 
ATOM     69  C   UNL     1       3.557  11.378   5.286  1.00  0.00     0.054 A 
BRANCH  69  70
ATOM     70  S   UNL     1       4.465  11.836   6.788  1.00  0.00     0.124 S 
ATOM     71  O   UNL     1       4.290  13.284   6.819  1.00  0.00    -0.237 OA
ATOM     72  O   UNL     1       3.758  11.088   7.825  1.00  0.00    -0.237 OA
ATOM     73  O   UNL     1       5.825  11.374   6.518  1.00  0.00    -0.744 OA
ENDBRANCH  69  70
ENDBRANCH  41  64
BRANCH  53  74
ATOM     74  C   UNL     1      -2.058  13.495  -1.743  1.00  0.00    -0.014 A 
ATOM     75  C   UNL     1      -1.211  14.553  -2.115  1.00  0.00     0.010 A 
ATOM     76  C   UNL     1      -3.426  13.744  -1.538  1.00  0.00     0.010 A 
ATOM     77  C   UNL     1      -1.718  15.848  -2.237  1.00  0.00     0.020 A 
ATOM     78  C   UNL     1      -3.943  15.031  -1.691  1.00  0.00     0.020 A 
ATOM     79  C   UNL     1      -3.081  16.078  -2.022  1.00  0.00     0.054 A 
BRANCH  79  80
ATOM     80  S   UNL     1      -3.717  17.765  -2.209  1.00  0.00     0.124 S 
ATOM     81  O   UNL     1      -3.179  18.425  -1.024  1.00  0.00    -0.237 OA
ATOM     82  O   UNL     1      -3.137  18.186  -3.482  1.00  0.00    -0.237 OA
ATOM     83  O   UNL     1      -5.168  17.588  -2.220  1.00  0.00    -0.744 OA
ENDBRANCH  79  80
ENDBRANCH  53  74
ENDBRANCH  27  28
ENDBRANCH  20  22
ENDBRANCH  19  20
ENDBRANCH   1  19
TORSDOF 15
