REMARK SMILES C[C@H](Nc1nc(CC(=O)OCCOC(=O)c2ccc(-c3c4nc(c(-c5ccc(S(=O)(=O)[O-])cc5)c5ccc([nH]5)c(-c5ccc(S(=O)(=O)[O-])cc5)c5nc(c(-c6ccc(S(=O)(=O)[O-])cc6)c6ccc3[nH]6)C=C5)C=C4)cc2)cs1)c1ccccc1
REMARK SMILES IDX 11 1 10 2 8 3 9 4 7 5 6 6 4 7 5 8 77 9 76 10 3 11 2 13 1 14
REMARK SMILES IDX 78 15 79 16 83 17 80 18 82 19 81 20 12 21 13 22 14 23 15 24
REMARK SMILES IDX 16 25 17 26 75 27 18 28 74 29 19 30 20 31 21 32 68 33 22 34
REMARK SMILES IDX 73 35 67 36 69 37 23 38 72 39 66 40 65 41 24 43 54 44 35 45
REMARK SMILES IDX 53 46 36 47 39 48 52 49 70 50 37 51 38 52 51 54 71 55 40 56
REMARK SMILES IDX 25 57 26 58 34 59 27 60 33 61 28 62 29 63 30 64 31 65 32 66
REMARK SMILES IDX 55 67 56 68 64 69 57 70 63 71 58 72 59 73 60 74 61 75 62 76
REMARK SMILES IDX 41 77 42 78 50 79 43 80 49 81 44 82 45 83 46 84 47 85 48 86
REMARK H PARENT 3 12 69 42 39 53
REMARK Flexibility Score: inf
ROOT
ATOM      1  C   UNL     1       7.308   0.945   2.552  1.00  0.00     0.274 C 
ENDROOT
BRANCH   1   2
ATOM      2  O   UNL     1       6.186   0.276   1.948  1.00  0.00    -0.462 OA
BRANCH   2   3
ATOM      3  C   UNL     1       6.306  -1.071   1.805  1.00  0.00     0.312 C 
ATOM      4  O   UNL     1       7.307  -1.715   2.105  1.00  0.00    -0.252 OA
BRANCH   3   5
ATOM      5  C   UNL     1       5.104  -1.716   1.168  1.00  0.00     0.179 C 
BRANCH   5   6
ATOM      6  C   UNL     1       3.789  -1.094   1.495  1.00  0.00     0.065 A 
ATOM      7  C   UNL     1       1.750  -0.448   0.902  1.00  0.00     0.183 A 
ATOM      8  N   UNL     1       2.910  -0.854   0.448  1.00  0.00    -0.225 NA
ATOM      9  S   UNL     1       1.698  -0.157   2.598  1.00  0.00    -0.105 S 
ATOM     10  C   UNL     1       3.269  -0.810   2.742  1.00  0.00     0.093 A 
BRANCH   7  11
ATOM     11  N   UNL     1       0.620  -0.299   0.195  1.00  0.00    -0.355 N 
ATOM     12  H   UNL     1      -0.102   0.231   0.603  1.00  0.00     0.163 HD
BRANCH  11  13
ATOM     13  C   UNL     1       0.374  -0.857  -1.125  1.00  0.00     0.108 C 
ATOM     14  C   UNL     1       1.028  -2.230  -1.340  1.00  0.00     0.036 C 
BRANCH  13  15
ATOM     15  C   UNL     1      -1.150  -0.886  -1.274  1.00  0.00    -0.026 A 
ATOM     16  C   UNL     1      -1.839   0.335  -1.409  1.00  0.00     0.006 A 
ATOM     17  C   UNL     1      -1.907  -2.061  -1.137  1.00  0.00     0.006 A 
ATOM     18  C   UNL     1      -3.234   0.378  -1.382  1.00  0.00     0.000 A 
ATOM     19  C   UNL     1      -3.302  -2.018  -1.127  1.00  0.00     0.000 A 
ATOM     20  C   UNL     1      -3.964  -0.798  -1.238  1.00  0.00     0.000 A 
ENDBRANCH  13  15
ENDBRANCH  11  13
ENDBRANCH   7  11
ENDBRANCH   5   6
ENDBRANCH   3   5
ENDBRANCH   2   3
ENDBRANCH   1   2
BRANCH   1  21
ATOM     21  C   UNL     1       7.078   1.146   4.048  1.00  0.00     0.275 C 
BRANCH  21  22
ATOM     22  O   UNL     1       6.961  -0.130   4.702  1.00  0.00    -0.458 OA
BRANCH  22  23
ATOM     23  C   UNL     1       5.824  -0.325   5.404  1.00  0.00     0.338 C 
ATOM     24  O   UNL     1       4.909   0.462   5.574  1.00  0.00    -0.246 OA
BRANCH  23  25
ATOM     25  C   UNL     1       5.816  -1.682   5.968  1.00  0.00     0.060 A 
ATOM     26  C   UNL     1       5.592  -2.790   5.146  1.00  0.00     0.016 A 
ATOM     27  C   UNL     1       5.918  -1.830   7.351  1.00  0.00     0.016 A 
ATOM     28  C   UNL     1       5.433  -4.053   5.716  1.00  0.00     0.010 A 
ATOM     29  C   UNL     1       5.810  -3.102   7.913  1.00  0.00     0.010 A 
ATOM     30  C   UNL     1       5.544  -4.221   7.105  1.00  0.00    -0.014 A 
BRANCH  30  31
ATOM     31  C   UNL     1       5.368  -5.554   7.732  1.00  0.00     0.031 A 
ATOM     32  C   UNL     1       4.180  -5.823   8.614  1.00  0.00     0.074 A 
ATOM     33  C   UNL     1       6.298  -6.510   7.544  1.00  0.00     0.049 A 
ATOM     34  N   UNL     1       3.926  -6.866   9.361  1.00  0.00    -0.248 NA
ATOM     35  C   UNL     1       3.146  -4.777   8.668  1.00  0.00     0.031 C 
ATOM     36  C   UNL     1       7.482  -6.385   6.692  1.00  0.00     0.029 A 
ATOM     37  N   UNL     1       6.397  -7.773   8.072  1.00  0.00    -0.354 N 
ATOM     38  C   UNL     1       2.720  -6.593   9.997  1.00  0.00     0.074 A 
ATOM     39  C   UNL     1       2.299  -5.280   9.555  1.00  0.00     0.031 C 
ATOM     40  C   UNL     1       8.188  -7.525   6.755  1.00  0.00     0.029 A 
ATOM     41  C   UNL     1       7.537  -8.439   7.689  1.00  0.00     0.049 A 
ATOM     42  H   UNL     1       5.718  -8.164   8.668  1.00  0.00     0.167 HD
ATOM     43  C   UNL     1       2.028  -7.365  10.870  1.00  0.00     0.031 A 
ATOM     44  C   UNL     1       8.023  -9.635   8.072  1.00  0.00     0.031 A 
ATOM     45  C   UNL     1       2.446  -8.671  11.304  1.00  0.00     0.049 A 
ATOM     46  C   UNL     1       7.262 -10.454   9.076  1.00  0.00     0.074 A 
ATOM     47  C   UNL     1       1.805  -9.536  12.174  1.00  0.00     0.029 A 
ATOM     48  N   UNL     1       3.612  -9.304  10.900  1.00  0.00    -0.354 N 
ATOM     49  N   UNL     1       6.127 -10.177   9.672  1.00  0.00    -0.248 NA
ATOM     50  C   UNL     1       7.850 -11.744   9.462  1.00  0.00     0.031 C 
ATOM     51  C   UNL     1       2.603 -10.676  12.326  1.00  0.00     0.029 A 
ATOM     52  C   UNL     1       3.719 -10.539  11.516  1.00  0.00     0.049 A 
ATOM     53  H   UNL     1       4.268  -8.929  10.269  1.00  0.00     0.167 HD
ATOM     54  C   UNL     1       5.856 -11.267  10.491  1.00  0.00     0.074 A 
ATOM     55  C   UNL     1       6.938 -12.212  10.304  1.00  0.00     0.031 C 
ATOM     56  C   UNL     1       4.804 -11.466  11.323  1.00  0.00     0.031 A 
BRANCH  43  57
ATOM     57  C   UNL     1       0.758  -6.796  11.441  1.00  0.00    -0.014 A 
ATOM     58  C   UNL     1      -0.413  -6.708  10.668  1.00  0.00     0.010 A 
ATOM     59  C   UNL     1       0.728  -6.371  12.782  1.00  0.00     0.010 A 
ATOM     60  C   UNL     1      -1.582  -6.170  11.214  1.00  0.00     0.020 A 
ATOM     61  C   UNL     1      -0.445  -5.853  13.338  1.00  0.00     0.020 A 
ATOM     62  C   UNL     1      -1.588  -5.739  12.545  1.00  0.00     0.054 A 
BRANCH  62  63
ATOM     63  S   UNL     1      -3.120  -5.055  13.236  1.00  0.00     0.124 S 
ATOM     64  O   UNL     1      -3.143  -3.717  12.650  1.00  0.00    -0.237 OA
ATOM     65  O   UNL     1      -4.139  -5.976  12.738  1.00  0.00    -0.237 OA
ATOM     66  O   UNL     1      -2.899  -5.100  14.679  1.00  0.00    -0.744 OA
ENDBRANCH  62  63
ENDBRANCH  43  57
BRANCH  44  67
ATOM     67  C   UNL     1       9.316 -10.116   7.517  1.00  0.00    -0.014 A 
ATOM     68  C   UNL     1       9.343 -11.159   6.576  1.00  0.00     0.010 A 
ATOM     69  C   UNL     1      10.525  -9.513   7.910  1.00  0.00     0.010 A 
ATOM     70  C   UNL     1      10.559 -11.598   6.044  1.00  0.00     0.020 A 
ATOM     71  C   UNL     1      11.739  -9.933   7.363  1.00  0.00     0.020 A 
ATOM     72  C   UNL     1      11.749 -10.981   6.439  1.00  0.00     0.054 A 
BRANCH  72  73
ATOM     73  S   UNL     1      13.311 -11.519   5.688  1.00  0.00     0.124 S 
ATOM     74  O   UNL     1      13.591 -12.749   6.420  1.00  0.00    -0.237 OA
ATOM     75  O   UNL     1      12.948 -11.687   4.283  1.00  0.00    -0.237 OA
ATOM     76  O   UNL     1      14.219 -10.406   5.958  1.00  0.00    -0.744 OA
ENDBRANCH  72  73
ENDBRANCH  44  67
BRANCH  56  77
ATOM     77  C   UNL     1       4.759 -12.768  12.074  1.00  0.00    -0.014 A 
ATOM     78  C   UNL     1       5.590 -12.995  13.185  1.00  0.00     0.010 A 
ATOM     79  C   UNL     1       3.840 -13.761  11.688  1.00  0.00     0.010 A 
ATOM     80  C   UNL     1       5.522 -14.204  13.882  1.00  0.00     0.020 A 
ATOM     81  C   UNL     1       3.754 -14.963  12.395  1.00  0.00     0.020 A 
ATOM     82  C   UNL     1       4.606 -15.182  13.480  1.00  0.00     0.054 A 
BRANCH  82  83
ATOM     83  S   UNL     1       4.505 -16.729  14.423  1.00  0.00     0.124 S 
ATOM     84  O   UNL     1       5.670 -17.460  13.933  1.00  0.00    -0.237 OA
ATOM     85  O   UNL     1       4.587 -16.271  15.807  1.00  0.00    -0.237 OA
ATOM     86  O   UNL     1       3.211 -17.285  14.034  1.00  0.00    -0.744 OA
ENDBRANCH  82  83
ENDBRANCH  56  77
ENDBRANCH  30  31
ENDBRANCH  23  25
ENDBRANCH  22  23
ENDBRANCH  21  22
ENDBRANCH   1  21
TORSDOF 18
