REMARK SMILES C[C@H]1[C@H](C(=O)OCCOC(=O)c2ccc(-c3c4nc(c(-c5ccc(S(=O)(=O)[O-])cc5)c5ccc([nH]5)c(-c5ccc(S(=O)(=O)[O-])cc5)c5nc(c(-c6ccc(S(=O)(=O)[O-])cc6)c6ccc3[nH]6)C=C5)C=C4)cc2)CC[N@@H+]1CC(=O)N1CCCC1
REMARK SMILES IDX 8 1 7 2 6 3 4 4 5 5 3 6 1 7 2 8 74 9 72 10 73 11 75 13 76 14
REMARK SMILES IDX 77 15 78 16 79 17 82 18 80 19 81 20 9 21 10 22 11 23 12 24
REMARK SMILES IDX 13 25 71 26 14 27 70 28 15 29 16 30 17 31 64 32 18 33 69 34
REMARK SMILES IDX 63 35 65 36 19 37 68 38 62 39 61 40 20 42 50 43 31 44 49 45
REMARK SMILES IDX 32 46 35 47 48 48 66 49 33 50 34 51 47 53 67 54 36 55 21 56
REMARK SMILES IDX 22 57 30 58 23 59 29 60 24 61 25 62 26 63 27 64 28 65 51 66
REMARK SMILES IDX 52 67 60 68 53 69 59 70 54 71 55 72 56 73 57 74 58 75 37 76
REMARK SMILES IDX 38 77 46 78 39 79 45 80 40 81 41 82 42 83 43 84 44 85
REMARK H PARENT 74 12 65 41 35 52
REMARK Flexibility Score: inf
ROOT
ATOM      1  C   UNL     1       0.485   4.227   3.062  1.00  0.00     0.275 C 
ENDROOT
BRANCH   1   2
ATOM      2  C   UNL     1      -0.869   3.720   2.561  1.00  0.00     0.274 C 
BRANCH   2   3
ATOM      3  O   UNL     1      -0.736   2.512   1.779  1.00  0.00    -0.462 OA
BRANCH   3   4
ATOM      4  C   UNL     1      -0.904   2.631   0.437  1.00  0.00     0.315 C 
ATOM      5  O   UNL     1      -1.136   3.689  -0.138  1.00  0.00    -0.252 OA
BRANCH   4   6
ATOM      6  C   UNL     1      -0.856   1.309  -0.307  1.00  0.00     0.162 C 
ATOM      7  C   UNL     1       1.324   0.142  -0.999  1.00  0.00     0.076 C 
ATOM      8  C   UNL     1       0.254   0.324   0.085  1.00  0.00     0.195 C 
ATOM      9  N   UNL     1      -0.392  -0.983   0.247  1.00  0.00    -0.324 N 
ATOM     10  C   UNL     1      -2.157   0.553  -0.084  1.00  0.00     0.083 C 
ATOM     11  C   UNL     1      -1.760  -0.897  -0.245  1.00  0.00     0.264 C 
ATOM     12  H   UNL     1       0.107  -1.653  -0.338  1.00  0.00     0.348 HD
BRANCH   9  13
ATOM     13  C   UNL     1      -0.206  -1.645   1.544  1.00  0.00     0.364 C 
BRANCH  13  14
ATOM     14  C   UNL     1      -0.898  -1.009   2.762  1.00  0.00     0.277 C 
ATOM     15  O   UNL     1      -2.106  -1.183   2.959  1.00  0.00    -0.268 OA
ATOM     16  N   UNL     1      -0.118  -0.333   3.682  1.00  0.00    -0.338 N 
ATOM     17  C   UNL     1       1.191   0.252   3.464  1.00  0.00     0.119 C 
ATOM     18  C   UNL     1      -0.633   0.038   4.987  1.00  0.00     0.119 C 
ATOM     19  C   UNL     1       1.683   0.666   4.836  1.00  0.00     0.023 C 
ATOM     20  C   UNL     1       0.393   1.003   5.572  1.00  0.00     0.023 C 
ENDBRANCH  13  14
ENDBRANCH   9  13
ENDBRANCH   4   6
ENDBRANCH   3   4
ENDBRANCH   2   3
ENDBRANCH   1   2
BRANCH   1  21
ATOM     21  O   UNL     1       1.280   4.701   1.970  1.00  0.00    -0.458 OA
BRANCH  21  22
ATOM     22  C   UNL     1       2.117   3.800   1.410  1.00  0.00     0.338 C 
ATOM     23  O   UNL     1       2.384   2.672   1.780  1.00  0.00    -0.246 OA
BRANCH  22  24
ATOM     24  C   UNL     1       2.549   4.369   0.139  1.00  0.00     0.060 A 
ATOM     25  C   UNL     1       1.978   3.876  -1.037  1.00  0.00     0.016 A 
ATOM     26  C   UNL     1       3.460   5.420   0.126  1.00  0.00     0.016 A 
ATOM     27  C   UNL     1       2.292   4.452  -2.253  1.00  0.00     0.010 A 
ATOM     28  C   UNL     1       3.769   6.006  -1.091  1.00  0.00     0.010 A 
ATOM     29  C   UNL     1       3.176   5.529  -2.275  1.00  0.00    -0.014 A 
BRANCH  29  30
ATOM     30  C   UNL     1       3.530   6.168  -3.546  1.00  0.00     0.031 A 
ATOM     31  C   UNL     1       4.881   5.896  -4.113  1.00  0.00     0.074 A 
ATOM     32  C   UNL     1       2.665   7.037  -4.098  1.00  0.00     0.049 A 
ATOM     33  N   UNL     1       5.517   6.526  -5.059  1.00  0.00    -0.248 NA
ATOM     34  C   UNL     1       5.629   4.776  -3.513  1.00  0.00     0.031 C 
ATOM     35  C   UNL     1       1.305   7.299  -3.617  1.00  0.00     0.029 A 
ATOM     36  N   UNL     1       2.816   7.885  -5.159  1.00  0.00    -0.354 N 
ATOM     37  C   UNL     1       6.757   5.908  -5.143  1.00  0.00     0.074 A 
ATOM     38  C   UNL     1       6.788   4.859  -4.149  1.00  0.00     0.031 C 
ATOM     39  C   UNL     1       0.756   8.268  -4.366  1.00  0.00     0.029 A 
ATOM     40  C   UNL     1       1.746   8.731  -5.332  1.00  0.00     0.049 A 
ATOM     41  H   UNL     1       3.610   7.889  -5.741  1.00  0.00     0.167 HD
ATOM     42  C   UNL     1       7.776   6.215  -5.976  1.00  0.00     0.031 A 
ATOM     43  C   UNL     1       1.614   9.793  -6.148  1.00  0.00     0.031 A 
ATOM     44  C   UNL     1       7.699   7.284  -6.933  1.00  0.00     0.049 A 
ATOM     45  C   UNL     1       2.782  10.148  -7.028  1.00  0.00     0.074 A 
ATOM     46  C   UNL     1       8.654   7.704  -7.838  1.00  0.00     0.029 A 
ATOM     47  N   UNL     1       6.590   8.106  -7.102  1.00  0.00    -0.354 N 
ATOM     48  N   UNL     1       3.958   9.568  -7.104  1.00  0.00    -0.248 NA
ATOM     49  C   UNL     1       2.613  11.293  -7.930  1.00  0.00     0.031 C 
ATOM     50  C   UNL     1       8.140   8.810  -8.521  1.00  0.00     0.029 A 
ATOM     51  C   UNL     1       6.841   9.039  -8.089  1.00  0.00     0.049 A 
ATOM     52  H   UNL     1       5.751   8.033  -6.594  1.00  0.00     0.167 HD
ATOM     53  C   UNL     1       4.657  10.252  -8.089  1.00  0.00     0.074 A 
ATOM     54  C   UNL     1       3.771  11.291  -8.579  1.00  0.00     0.031 C 
ATOM     55  C   UNL     1       5.912  10.040  -8.556  1.00  0.00     0.031 A 
BRANCH  42  56
ATOM     56  C   UNL     1       9.049   5.426  -5.841  1.00  0.00    -0.014 A 
ATOM     57  C   UNL     1       9.110   4.067  -6.201  1.00  0.00     0.010 A 
ATOM     58  C   UNL     1      10.207   6.054  -5.349  1.00  0.00     0.010 A 
ATOM     59  C   UNL     1      10.293   3.342  -6.032  1.00  0.00     0.020 A 
ATOM     60  C   UNL     1      11.400   5.340  -5.205  1.00  0.00     0.020 A 
ATOM     61  C   UNL     1      11.430   3.983  -5.532  1.00  0.00     0.054 A 
BRANCH  61  62
ATOM     62  S   UNL     1      12.956   3.021  -5.339  1.00  0.00     0.124 S 
ATOM     63  O   UNL     1      12.634   2.172  -4.194  1.00  0.00    -0.237 OA
ATOM     64  O   UNL     1      13.063   2.330  -6.622  1.00  0.00    -0.237 OA
ATOM     65  O   UNL     1      13.978   4.036  -5.093  1.00  0.00    -0.744 OA
ENDBRANCH  61  62
ENDBRANCH  42  56
BRANCH  43  66
ATOM     66  C   UNL     1       0.356  10.588  -6.145  1.00  0.00    -0.014 A 
ATOM     67  C   UNL     1      -0.513  10.550  -7.248  1.00  0.00     0.010 A 
ATOM     68  C   UNL     1      -0.003  11.359  -5.022  1.00  0.00     0.010 A 
ATOM     69  C   UNL     1      -1.706  11.279  -7.238  1.00  0.00     0.020 A 
ATOM     70  C   UNL     1      -1.208  12.067  -4.996  1.00  0.00     0.020 A 
ATOM     71  C   UNL     1      -2.048  12.032  -6.110  1.00  0.00     0.054 A 
BRANCH  71  72
ATOM     72  S   UNL     1      -3.625  12.931  -6.104  1.00  0.00     0.124 S 
ATOM     73  O   UNL     1      -3.360  14.014  -7.046  1.00  0.00    -0.237 OA
ATOM     74  O   UNL     1      -4.569  11.914  -6.559  1.00  0.00    -0.237 OA
ATOM     75  O   UNL     1      -3.783  13.338  -4.710  1.00  0.00    -0.744 OA
ENDBRANCH  71  72
ENDBRANCH  43  66
BRANCH  55  76
ATOM     76  C   UNL     1       6.378  10.900  -9.696  1.00  0.00    -0.014 A 
ATOM     77  C   UNL     1       6.781  12.230  -9.489  1.00  0.00     0.010 A 
ATOM     78  C   UNL     1       6.529  10.318 -10.968  1.00  0.00     0.010 A 
ATOM     79  C   UNL     1       7.331  12.964 -10.541  1.00  0.00     0.020 A 
ATOM     80  C   UNL     1       7.103  11.040 -12.013  1.00  0.00     0.020 A 
ATOM     81  C   UNL     1       7.499  12.361 -11.793  1.00  0.00     0.054 A 
BRANCH  81  82
ATOM     82  S   UNL     1       8.313  13.302 -13.111  1.00  0.00     0.124 S 
ATOM     83  O   UNL     1       7.279  14.265 -13.479  1.00  0.00    -0.237 OA
ATOM     84  O   UNL     1       9.479  13.859 -12.430  1.00  0.00    -0.237 OA
ATOM     85  O   UNL     1       8.613  12.292 -14.123  1.00  0.00    -0.744 OA
ENDBRANCH  81  82
ENDBRANCH  55  76
ENDBRANCH  29  30
ENDBRANCH  22  24
ENDBRANCH  21  22
ENDBRANCH   1  21
TORSDOF 16
