REMARK SMILES CCn1nc(C(=O)OCCOC(=O)c2ccc(-c3c4nc(c(-c5ccc(S(=O)(=O)[O-])cc5)c5ccc([nH]5)c(-c5ccc(S(=O)(=O)[O-])cc5)c5nc(c(-c6ccc(S(=O)(=O)[O-])cc6)c6ccc3[nH]6)C=C5)C=C4)cc2)c2c1CC[C@H]([NH2+]Cc1nn(CC)c3ccccc13)C2
REMARK SMILES IDX 9 1 8 2 6 3 7 4 5 5 3 6 4 7 75 8 74 9 76 10 92 11 77 12
REMARK SMILES IDX 78 13 2 14 1 15 79 16 80 19 81 20 82 21 91 22 83 23 86 24
REMARK SMILES IDX 90 25 87 26 89 27 88 28 84 29 85 30 10 31 11 32 12 33 13 34
REMARK SMILES IDX 14 35 15 36 73 37 16 38 72 39 17 40 18 41 19 42 66 43 20 44
REMARK SMILES IDX 71 45 65 46 67 47 21 48 70 49 64 50 63 51 22 53 52 54 33 55
REMARK SMILES IDX 51 56 34 57 37 58 50 59 68 60 35 61 36 62 49 64 69 65 38 66
REMARK SMILES IDX 23 67 24 68 32 69 25 70 31 71 26 72 27 73 28 74 29 75 30 76
REMARK SMILES IDX 53 77 54 78 62 79 55 80 61 81 56 82 57 83 58 84 59 85 60 86
REMARK SMILES IDX 39 87 40 88 48 89 41 90 47 91 42 92 43 93 44 94 45 95 46 96
REMARK H PARENT 79 17 79 18 67 52 37 63
REMARK Flexibility Score: inf
ROOT
ATOM      1  C   UNL     1       1.496   7.469   0.415  1.00  0.00     0.275 C 
ENDROOT
BRANCH   1   2
ATOM      2  O   UNL     1       1.345   6.049   0.282  1.00  0.00    -0.457 OA
BRANCH   2   3
ATOM      3  C   UNL     1       0.518   5.255   1.026  1.00  0.00     0.359 C 
ATOM      4  O   UNL     1      -0.435   5.647   1.683  1.00  0.00    -0.244 OA
BRANCH   3   5
ATOM      5  C   UNL     1       1.070   3.890   1.030  1.00  0.00     0.174 A 
ATOM      6  N   UNL     1       1.428   1.786   1.177  1.00  0.00    -0.269 N 
ATOM      7  N   UNL     1       0.429   2.719   1.179  1.00  0.00    -0.165 NA
ATOM      8  C   UNL     1       2.681   2.344   1.159  1.00  0.00     0.043 A 
ATOM      9  C   UNL     1       2.463   3.676   0.999  1.00  0.00     0.014 A 
ATOM     10  C   UNL     1       4.043   1.779   1.317  1.00  0.00     0.062 C 
ATOM     11  C   UNL     1       3.478   4.726   1.034  1.00  0.00     0.105 C 
ATOM     12  C   UNL     1       4.997   2.870   1.938  1.00  0.00     0.072 C 
ATOM     13  C   UNL     1       4.903   4.310   1.322  1.00  0.00     0.187 C 
BRANCH   6  14
ATOM     14  C   UNL     1       1.055   0.387   1.260  1.00  0.00     0.141 C 
ATOM     15  C   UNL     1       1.163  -0.328  -0.075  1.00  0.00     0.029 C 
ENDBRANCH   6  14
BRANCH  13  16
ATOM     16  N   UNL     1       5.547   5.371   2.170  1.00  0.00    -0.338 N 
ATOM     17  H   UNL     1       6.551   5.194   2.190  1.00  0.00     0.346 HD
ATOM     18  H   UNL     1       5.106   5.308   3.088  1.00  0.00     0.346 HD
BRANCH  16  19
ATOM     19  C   UNL     1       5.331   6.780   1.696  1.00  0.00     0.320 C 
BRANCH  19  20
ATOM     20  C   UNL     1       4.253   7.595   2.448  1.00  0.00     0.124 A 
ATOM     21  N   UNL     1       3.471   7.076   3.421  1.00  0.00    -0.171 NA
ATOM     22  C   UNL     1       3.854   8.951   2.159  1.00  0.00     0.029 A 
ATOM     23  N   UNL     1       2.543   8.045   3.662  1.00  0.00    -0.265 N 
ATOM     24  C   UNL     1       2.867   9.254   3.094  1.00  0.00     0.069 A 
ATOM     25  C   UNL     1       4.149   9.924   1.180  1.00  0.00     0.012 A 
ATOM     26  C   UNL     1       2.296  10.528   3.225  1.00  0.00     0.028 A 
ATOM     27  C   UNL     1       3.474  11.157   1.209  1.00  0.00     0.001 A 
ATOM     28  C   UNL     1       2.593  11.468   2.242  1.00  0.00     0.002 A 
BRANCH  23  29
ATOM     29  C   UNL     1       1.294   7.742   4.358  1.00  0.00     0.141 C 
ATOM     30  C   UNL     1      -0.005   8.261   3.717  1.00  0.00     0.029 C 
ENDBRANCH  23  29
ENDBRANCH  19  20
ENDBRANCH  16  19
ENDBRANCH  13  16
ENDBRANCH   3   5
ENDBRANCH   2   3
ENDBRANCH   1   2
BRANCH   1  31
ATOM     31  C   UNL     1       1.051   8.242  -0.809  1.00  0.00     0.275 C 
BRANCH  31  32
ATOM     32  O   UNL     1      -0.322   7.971  -0.967  1.00  0.00    -0.458 OA
BRANCH  32  33
ATOM     33  C   UNL     1      -0.527   6.712  -1.431  1.00  0.00     0.338 C 
ATOM     34  O   UNL     1       0.268   6.038  -2.071  1.00  0.00    -0.246 OA
BRANCH  33  35
ATOM     35  C   UNL     1      -1.872   6.254  -0.981  1.00  0.00     0.060 A 
ATOM     36  C   UNL     1      -2.253   5.189  -1.787  1.00  0.00     0.016 A 
ATOM     37  C   UNL     1      -2.733   7.329  -0.737  1.00  0.00     0.016 A 
ATOM     38  C   UNL     1      -3.063   5.530  -2.834  1.00  0.00     0.010 A 
ATOM     39  C   UNL     1      -3.509   7.709  -1.796  1.00  0.00     0.010 A 
ATOM     40  C   UNL     1      -3.577   6.836  -2.878  1.00  0.00    -0.014 A 
BRANCH  40  41
ATOM     41  C   UNL     1      -4.399   7.158  -4.008  1.00  0.00     0.031 A 
ATOM     42  C   UNL     1      -5.722   6.537  -3.863  1.00  0.00     0.074 A 
ATOM     43  C   UNL     1      -4.052   7.955  -5.024  1.00  0.00     0.049 A 
ATOM     44  N   UNL     1      -6.131   5.448  -4.417  1.00  0.00    -0.248 NA
ATOM     45  C   UNL     1      -6.567   7.037  -2.769  1.00  0.00     0.031 C 
ATOM     46  C   UNL     1      -2.932   8.884  -5.146  1.00  0.00     0.029 A 
ATOM     47  N   UNL     1      -4.760   8.155  -6.160  1.00  0.00    -0.354 N 
ATOM     48  C   UNL     1      -7.388   5.234  -3.881  1.00  0.00     0.074 A 
ATOM     49  C   UNL     1      -7.486   6.077  -2.716  1.00  0.00     0.031 C 
ATOM     50  C   UNL     1      -3.179   9.717  -6.187  1.00  0.00     0.029 A 
ATOM     51  C   UNL     1      -4.393   9.283  -6.865  1.00  0.00     0.049 A 
ATOM     52  H   UNL     1      -5.476   7.548  -6.457  1.00  0.00     0.167 HD
ATOM     53  C   UNL     1      -8.363   4.611  -4.591  1.00  0.00     0.031 A 
ATOM     54  C   UNL     1      -5.128   9.850  -7.853  1.00  0.00     0.031 A 
ATOM     55  C   UNL     1      -7.835   3.912  -5.735  1.00  0.00     0.049 A 
ATOM     56  C   UNL     1      -6.079   8.815  -8.351  1.00  0.00     0.074 A 
ATOM     57  C   UNL     1      -6.918   2.892  -5.904  1.00  0.00     0.029 A 
ATOM     58  N   UNL     1      -7.940   4.538  -6.957  1.00  0.00    -0.354 N 
ATOM     59  N   UNL     1      -5.704   7.731  -8.975  1.00  0.00    -0.248 NA
ATOM     60  C   UNL     1      -7.412   8.754  -7.765  1.00  0.00     0.031 C 
ATOM     61  C   UNL     1      -6.192   3.234  -7.083  1.00  0.00     0.029 A 
ATOM     62  C   UNL     1      -6.729   4.419  -7.593  1.00  0.00     0.049 A 
ATOM     63  H   UNL     1      -8.740   4.990  -7.312  1.00  0.00     0.167 HD
ATOM     64  C   UNL     1      -6.556   6.731  -8.518  1.00  0.00     0.074 A 
ATOM     65  C   UNL     1      -7.647   7.441  -7.857  1.00  0.00     0.031 C 
ATOM     66  C   UNL     1      -6.162   5.422  -8.476  1.00  0.00     0.031 A 
BRANCH  53  67
ATOM     67  C   UNL     1      -9.806   5.012  -4.466  1.00  0.00    -0.014 A 
ATOM     68  C   UNL     1     -10.780   4.270  -5.154  1.00  0.00     0.010 A 
ATOM     69  C   UNL     1     -10.212   6.245  -3.907  1.00  0.00     0.010 A 
ATOM     70  C   UNL     1     -12.077   4.771  -5.323  1.00  0.00     0.020 A 
ATOM     71  C   UNL     1     -11.510   6.727  -4.021  1.00  0.00     0.020 A 
ATOM     72  C   UNL     1     -12.426   6.004  -4.766  1.00  0.00     0.054 A 
BRANCH  72  73
ATOM     73  S   UNL     1     -14.059   6.703  -5.089  1.00  0.00     0.124 S 
ATOM     74  O   UNL     1     -13.980   6.991  -6.518  1.00  0.00    -0.237 OA
ATOM     75  O   UNL     1     -14.944   5.606  -4.708  1.00  0.00    -0.237 OA
ATOM     76  O   UNL     1     -14.110   7.872  -4.214  1.00  0.00    -0.744 OA
ENDBRANCH  72  73
ENDBRANCH  53  67
BRANCH  54  77
ATOM     77  C   UNL     1      -5.300  11.301  -8.101  1.00  0.00    -0.014 A 
ATOM     78  C   UNL     1      -5.911  11.767  -9.278  1.00  0.00     0.010 A 
ATOM     79  C   UNL     1      -5.097  12.228  -7.056  1.00  0.00     0.010 A 
ATOM     80  C   UNL     1      -6.347  13.099  -9.386  1.00  0.00     0.020 A 
ATOM     81  C   UNL     1      -5.518  13.557  -7.160  1.00  0.00     0.020 A 
ATOM     82  C   UNL     1      -6.162  13.981  -8.318  1.00  0.00     0.054 A 
BRANCH  82  83
ATOM     83  S   UNL     1      -6.870  15.652  -8.401  1.00  0.00     0.124 S 
ATOM     84  O   UNL     1      -6.023  16.298  -9.400  1.00  0.00    -0.237 OA
ATOM     85  O   UNL     1      -8.247  15.393  -8.810  1.00  0.00    -0.237 OA
ATOM     86  O   UNL     1      -6.717  16.159  -7.038  1.00  0.00    -0.744 OA
ENDBRANCH  82  83
ENDBRANCH  54  77
BRANCH  66  87
ATOM     87  C   UNL     1      -4.888   5.032  -9.196  1.00  0.00    -0.014 A 
ATOM     88  C   UNL     1      -3.620   5.548  -8.863  1.00  0.00     0.010 A 
ATOM     89  C   UNL     1      -4.957   3.983 -10.130  1.00  0.00     0.010 A 
ATOM     90  C   UNL     1      -2.457   5.041  -9.463  1.00  0.00     0.020 A 
ATOM     91  C   UNL     1      -3.801   3.462 -10.719  1.00  0.00     0.020 A 
ATOM     92  C   UNL     1      -2.556   3.997 -10.387  1.00  0.00     0.054 A 
BRANCH  92  93
ATOM     93  S   UNL     1      -1.044   3.299 -11.112  1.00  0.00     0.124 S 
ATOM     94  O   UNL     1      -0.584   4.375 -11.985  1.00  0.00    -0.237 OA
ATOM     95  O   UNL     1      -0.210   3.039  -9.941  1.00  0.00    -0.237 OA
ATOM     96  O   UNL     1      -1.512   2.099 -11.805  1.00  0.00    -0.744 OA
ENDBRANCH  92  93
ENDBRANCH  66  87
ENDBRANCH  40  41
ENDBRANCH  33  35
ENDBRANCH  32  33
ENDBRANCH  31  32
ENDBRANCH   1  31
TORSDOF 19
