REMARK SMILES COc1cc(C)cc2c1[C@@H](C)[C@@H](CC(=O)N[C@@H](Cc1c[nH]c3ccccc13)C(=O)OCCOC(=O)c1ccc(-c3c4nc(c(-c5ccc(S(=O)(=O)[O-])cc5)c5ccc([nH]5)c(-c5ccc(S(=O)(=O)[O-])cc5)c5nc(c(-c6ccc(S(=O)(=O)[O-])cc6)c6ccc3[nH]6)C=C5)C=C4)cc1)C(=O)O2
REMARK SMILES IDX 31 1 30 2 28 3 29 4 17 5 16 6 14 7 15 8 13 10 12 11 3 12
REMARK SMILES IDX 4 13 9 14 5 15 8 16 10 17 6 18 7 19 98 20 11 21 96 22 97 23
REMARK SMILES IDX 2 24 1 25 18 26 19 27 20 28 27 29 21 30 22 31 26 32 23 34
REMARK SMILES IDX 25 35 24 36 32 37 33 38 34 39 35 40 36 41 37 42 95 43 38 44
REMARK SMILES IDX 94 45 39 46 40 47 41 48 88 49 42 50 93 51 87 52 89 53 43 54
REMARK SMILES IDX 92 55 86 56 85 57 44 59 74 60 55 61 73 62 56 63 59 64 72 65
REMARK SMILES IDX 90 66 57 67 58 68 71 70 91 71 60 72 45 73 46 74 54 75 47 76
REMARK SMILES IDX 53 77 48 78 49 79 50 80 51 81 52 82 75 83 76 84 84 85 77 86
REMARK SMILES IDX 83 87 78 88 79 89 80 90 81 91 82 92 61 93 62 94 70 95 63 96
REMARK SMILES IDX 69 97 64 98 65 99 66 100 67 101 68 102
REMARK H PARENT 16 9 21 33 89 58 59 69
REMARK Flexibility Score: inf
ROOT
ATOM      1  C   UNL     1      -0.569   9.708  -2.790  1.00  0.00     0.274 C 
ENDROOT
BRANCH   1   2
ATOM      2  O   UNL     1      -1.521   8.635  -2.638  1.00  0.00    -0.461 OA
BRANCH   2   3
ATOM      3  C   UNL     1      -1.341   7.589  -3.478  1.00  0.00     0.329 C 
ATOM      4  O   UNL     1      -0.497   7.553  -4.371  1.00  0.00    -0.250 OA
BRANCH   3   5
ATOM      5  C   UNL     1      -2.348   6.456  -3.293  1.00  0.00     0.196 C 
BRANCH   5   6
ATOM      6  N   UNL     1      -3.043   6.242  -2.034  1.00  0.00    -0.342 N 
ATOM      7  C   UNL     1      -3.538   5.053  -1.552  1.00  0.00     0.221 C 
ATOM      8  O   UNL     1      -4.551   5.051  -0.854  1.00  0.00    -0.275 OA
ATOM      9  H   UNL     1      -3.174   7.035  -1.465  1.00  0.00     0.164 HD
BRANCH   7  10
ATOM     10  C   UNL     1      -2.705   3.789  -1.720  1.00  0.00     0.116 C 
BRANCH  10  11
ATOM     11  C   UNL     1      -3.213   2.659  -2.645  1.00  0.00     0.116 C 
ATOM     12  C   UNL     1       0.344   1.628  -2.754  1.00  0.00     0.126 A 
ATOM     13  C   UNL     1       1.435   2.462  -3.048  1.00  0.00     0.050 A 
ATOM     14  C   UNL     1      -0.923   1.964  -3.242  1.00  0.00     0.041 A 
ATOM     15  C   UNL     1       1.272   3.620  -3.833  1.00  0.00    -0.044 A 
ATOM     16  C   UNL     1      -1.005   2.995  -4.189  1.00  0.00     0.138 A 
ATOM     17  C   UNL     1      -2.251   1.433  -2.722  1.00  0.00     0.038 C 
ATOM     18  C   UNL     1       2.336   4.668  -3.956  1.00  0.00     0.044 C 
ATOM     19  C   UNL     1       0.069   3.816  -4.497  1.00  0.00     0.051 A 
ATOM     20  O   UNL     1      -2.235   3.340  -4.777  1.00  0.00    -0.426 OA
ATOM     21  C   UNL     1      -2.249   0.702  -1.377  1.00  0.00     0.014 C 
ATOM     22  C   UNL     1      -3.404   3.071  -4.080  1.00  0.00     0.315 C 
ATOM     23  O   UNL     1      -4.505   3.182  -4.608  1.00  0.00    -0.251 OA
BRANCH  12  24
ATOM     24  O   UNL     1       0.453   0.454  -2.067  1.00  0.00    -0.496 OA
ATOM     25  C   UNL     1       1.297   0.439  -0.921  1.00  0.00     0.278 C 
ENDBRANCH  12  24
ENDBRANCH  10  11
ENDBRANCH   7  10
ENDBRANCH   5   6
BRANCH   5  26
ATOM     26  C   UNL     1      -3.274   6.460  -4.507  1.00  0.00     0.074 C 
BRANCH  26  27
ATOM     27  C   UNL     1      -4.534   7.271  -4.685  1.00  0.00    -0.020 A 
ATOM     28  C   UNL     1      -4.945   7.573  -5.978  1.00  0.00     0.087 A 
ATOM     29  C   UNL     1      -5.664   7.581  -3.837  1.00  0.00     0.003 A 
ATOM     30  N   UNL     1      -6.307   7.611  -5.976  1.00  0.00    -0.361 N 
ATOM     31  C   UNL     1      -6.774   7.663  -4.690  1.00  0.00     0.046 A 
ATOM     32  C   UNL     1      -5.936   7.706  -2.456  1.00  0.00     0.010 A 
ATOM     33  H   UNL     1      -6.872   7.602  -6.782  1.00  0.00     0.166 HD
ATOM     34  C   UNL     1      -8.100   7.734  -4.240  1.00  0.00     0.026 A 
ATOM     35  C   UNL     1      -7.252   7.855  -1.989  1.00  0.00     0.001 A 
ATOM     36  C   UNL     1      -8.322   7.836  -2.869  1.00  0.00     0.002 A 
ENDBRANCH  26  27
ENDBRANCH   5  26
ENDBRANCH   3   5
ENDBRANCH   2   3
ENDBRANCH   1   2
BRANCH   1  37
ATOM     37  C   UNL     1       0.211   9.924  -1.494  1.00  0.00     0.275 C 
BRANCH  37  38
ATOM     38  O   UNL     1       1.088   8.815  -1.210  1.00  0.00    -0.458 OA
BRANCH  38  39
ATOM     39  C   UNL     1       0.526   7.819  -0.476  1.00  0.00     0.338 C 
ATOM     40  O   UNL     1      -0.610   7.788  -0.053  1.00  0.00    -0.246 OA
BRANCH  39  41
ATOM     41  C   UNL     1       1.464   6.676  -0.357  1.00  0.00     0.060 A 
ATOM     42  C   UNL     1       2.848   6.821  -0.195  1.00  0.00     0.016 A 
ATOM     43  C   UNL     1       0.904   5.401  -0.374  1.00  0.00     0.016 A 
ATOM     44  C   UNL     1       3.671   5.686  -0.063  1.00  0.00     0.010 A 
ATOM     45  C   UNL     1       1.728   4.281  -0.266  1.00  0.00     0.010 A 
ATOM     46  C   UNL     1       3.122   4.397  -0.118  1.00  0.00    -0.014 A 
BRANCH  46  47
ATOM     47  C   UNL     1       3.941   3.159   0.056  1.00  0.00     0.031 A 
ATOM     48  C   UNL     1       4.842   2.617  -1.029  1.00  0.00     0.074 A 
ATOM     49  C   UNL     1       3.760   2.427   1.173  1.00  0.00     0.049 A 
ATOM     50  N   UNL     1       5.465   1.464  -1.090  1.00  0.00    -0.248 NA
ATOM     51  C   UNL     1       5.010   3.438  -2.231  1.00  0.00     0.031 C 
ATOM     52  C   UNL     1       2.896   2.806   2.291  1.00  0.00     0.029 A 
ATOM     53  N   UNL     1       4.275   1.210   1.542  1.00  0.00    -0.354 N 
ATOM     54  C   UNL     1       6.038   1.399  -2.360  1.00  0.00     0.074 A 
ATOM     55  C   UNL     1       5.640   2.606  -3.051  1.00  0.00     0.031 C 
ATOM     56  C   UNL     1       2.933   1.839   3.219  1.00  0.00     0.029 A 
ATOM     57  C   UNL     1       3.842   0.785   2.775  1.00  0.00     0.049 A 
ATOM     58  H   UNL     1       4.894   0.691   0.979  1.00  0.00     0.167 HD
ATOM     59  C   UNL     1       6.847   0.443  -2.889  1.00  0.00     0.031 A 
ATOM     60  C   UNL     1       4.169  -0.303   3.500  1.00  0.00     0.031 A 
ATOM     61  C   UNL     1       7.331  -0.696  -2.146  1.00  0.00     0.049 A 
ATOM     62  C   UNL     1       5.209  -1.252   2.985  1.00  0.00     0.074 A 
ATOM     63  C   UNL     1       8.242  -1.660  -2.547  1.00  0.00     0.029 A 
ATOM     64  N   UNL     1       6.979  -1.003  -0.841  1.00  0.00    -0.354 N 
ATOM     65  N   UNL     1       5.800  -1.258   1.815  1.00  0.00    -0.248 NA
ATOM     66  C   UNL     1       5.667  -2.307   3.899  1.00  0.00     0.031 C 
ATOM     67  C   UNL     1       8.411  -2.570  -1.500  1.00  0.00     0.029 A 
ATOM     68  C   UNL     1       7.653  -2.138  -0.424  1.00  0.00     0.049 A 
ATOM     69  H   UNL     1       6.343  -0.490  -0.292  1.00  0.00     0.167 HD
ATOM     70  C   UNL     1       6.719  -2.299   1.862  1.00  0.00     0.074 A 
ATOM     71  C   UNL     1       6.616  -2.893   3.178  1.00  0.00     0.031 C 
ATOM     72  C   UNL     1       7.569  -2.717   0.894  1.00  0.00     0.031 A 
BRANCH  59  73
ATOM     73  C   UNL     1       7.313   0.586  -4.324  1.00  0.00    -0.014 A 
ATOM     74  C   UNL     1       6.991  -0.411  -5.269  1.00  0.00     0.010 A 
ATOM     75  C   UNL     1       8.158   1.637  -4.723  1.00  0.00     0.010 A 
ATOM     76  C   UNL     1       7.502  -0.360  -6.572  1.00  0.00     0.020 A 
ATOM     77  C   UNL     1       8.636   1.715  -6.036  1.00  0.00     0.020 A 
ATOM     78  C   UNL     1       8.320   0.706  -6.948  1.00  0.00     0.054 A 
BRANCH  78  79
ATOM     79  S   UNL     1       8.943   0.790  -8.651  1.00  0.00     0.124 S 
ATOM     80  O   UNL     1      10.072  -0.134  -8.614  1.00  0.00    -0.237 OA
ATOM     81  O   UNL     1       7.793   0.352  -9.439  1.00  0.00    -0.237 OA
ATOM     82  O   UNL     1       9.293   2.200  -8.813  1.00  0.00    -0.744 OA
ENDBRANCH  78  79
ENDBRANCH  59  73
BRANCH  60  83
ATOM     83  C   UNL     1       3.608  -0.421   4.869  1.00  0.00    -0.014 A 
ATOM     84  C   UNL     1       2.266  -0.786   5.074  1.00  0.00     0.010 A 
ATOM     85  C   UNL     1       4.386  -0.001   5.963  1.00  0.00     0.010 A 
ATOM     86  C   UNL     1       1.695  -0.676   6.346  1.00  0.00     0.020 A 
ATOM     87  C   UNL     1       3.824   0.091   7.237  1.00  0.00     0.020 A 
ATOM     88  C   UNL     1       2.474  -0.217   7.413  1.00  0.00     0.054 A 
BRANCH  88  89
ATOM     89  S   UNL     1       1.694   0.010   9.035  1.00  0.00     0.124 S 
ATOM     90  O   UNL     1       0.945   1.248   8.833  1.00  0.00    -0.237 OA
ATOM     91  O   UNL     1       0.889  -1.200   9.174  1.00  0.00    -0.237 OA
ATOM     92  O   UNL     1       2.830   0.108   9.948  1.00  0.00    -0.744 OA
ENDBRANCH  88  89
ENDBRANCH  60  83
BRANCH  72  93
ATOM     93  C   UNL     1       8.486  -3.875   1.187  1.00  0.00    -0.014 A 
ATOM     94  C   UNL     1       9.875  -3.660   1.256  1.00  0.00     0.010 A 
ATOM     95  C   UNL     1       7.993  -5.191   1.220  1.00  0.00     0.010 A 
ATOM     96  C   UNL     1      10.759  -4.740   1.306  1.00  0.00     0.020 A 
ATOM     97  C   UNL     1       8.874  -6.275   1.292  1.00  0.00     0.020 A 
ATOM     98  C   UNL     1      10.252  -6.042   1.303  1.00  0.00     0.054 A 
BRANCH  98  99
ATOM     99  S   UNL     1      11.414  -7.436   1.287  1.00  0.00     0.124 S 
ATOM    100  O   UNL     1      11.844  -7.459  -0.108  1.00  0.00    -0.237 OA
ATOM    101  O   UNL     1      12.429  -7.021   2.253  1.00  0.00    -0.237 OA
ATOM    102  O   UNL     1      10.593  -8.570   1.707  1.00  0.00    -0.744 OA
ENDBRANCH  98  99
ENDBRANCH  72  93
ENDBRANCH  46  47
ENDBRANCH  39  41
ENDBRANCH  38  39
ENDBRANCH  37  38
ENDBRANCH   1  37
TORSDOF 20
