REMARK SMILES Cc1ccc2oc(C(=O)N[C@@H]3C=C[C@H](C(=O)OCCOC(=O)c4ccc(-c5c6nc(c(-c7ccc(S(=O)(=O)[O-])cc7)c7ccc([nH]7)c(-c7ccc(S(=O)(=O)[O-])cc7)c7nc(c(-c8ccc(S(=O)(=O)[O-])cc8)c8ccc5[nH]8)C=C7)C=C6)cc4)C3)cc2c1
REMARK SMILES IDX 19 1 18 2 17 3 15 4 16 5 14 6 11 7 12 8 83 9 13 10 10 11
REMARK SMILES IDX 8 12 9 13 7 15 1 16 2 17 3 18 86 19 4 20 85 21 5 22 84 23
REMARK SMILES IDX 6 24 20 25 21 26 22 27 23 28 24 29 82 30 25 31 81 32 26 33
REMARK SMILES IDX 27 34 28 35 75 36 29 37 80 38 74 39 76 40 30 41 79 42 73 43
REMARK SMILES IDX 72 44 31 46 61 47 42 48 60 49 43 50 46 51 59 52 77 53 44 54
REMARK SMILES IDX 45 55 58 57 78 58 47 59 32 60 33 61 41 62 34 63 40 64 35 65
REMARK SMILES IDX 36 66 37 67 38 68 39 69 62 70 63 71 71 72 64 73 70 74 65 75
REMARK SMILES IDX 66 76 67 77 68 78 69 79 48 80 49 81 57 82 50 83 56 84 51 85
REMARK SMILES IDX 52 86 53 87 54 88 55 89
REMARK H PARENT 10 14 76 45 46 56
REMARK Flexibility Score: inf
ROOT
ATOM      1  C   UNL     1      -1.118  -5.406   2.760  1.00  0.00     0.275 C 
ENDROOT
BRANCH   1   2
ATOM      2  C   UNL     1       0.013  -6.235   2.138  1.00  0.00     0.274 C 
BRANCH   2   3
ATOM      3  O   UNL     1       1.336  -5.772   2.519  1.00  0.00    -0.462 OA
BRANCH   3   4
ATOM      4  C   UNL     1       1.864  -4.863   1.653  1.00  0.00     0.312 C 
ATOM      5  O   UNL     1       1.262  -4.482   0.655  1.00  0.00    -0.252 OA
BRANCH   4   6
ATOM      6  C   UNL     1       3.300  -4.409   1.990  1.00  0.00     0.124 C 
ATOM      7  C   UNL     1       4.217  -3.530  -0.136  1.00  0.00     0.106 C 
ATOM      8  C   UNL     1       4.877  -4.802   0.251  1.00  0.00    -0.006 C 
ATOM      9  C   UNL     1       3.601  -3.113   1.214  1.00  0.00     0.048 C 
ATOM     10  C   UNL     1       4.429  -5.255   1.440  1.00  0.00    -0.014 C 
BRANCH   7  11
ATOM     11  N   UNL     1       3.323  -3.534  -1.311  1.00  0.00    -0.343 N 
ATOM     12  C   UNL     1       2.555  -4.362  -2.120  1.00  0.00     0.287 C 
ATOM     13  O   UNL     1       1.999  -3.784  -3.062  1.00  0.00    -0.266 OA
ATOM     14  H   UNL     1       3.240  -2.611  -1.644  1.00  0.00     0.164 HD
BRANCH  12  15
ATOM     15  C   UNL     1       2.415  -5.792  -1.911  1.00  0.00     0.192 A 
ATOM     16  C   UNL     1       2.244 -11.431   0.086  1.00  0.00     0.044 C 
ATOM     17  C   UNL     1       2.043 -10.230  -0.785  1.00  0.00    -0.050 A 
ATOM     18  C   UNL     1       1.489 -10.265  -2.077  1.00  0.00     0.007 A 
ATOM     19  C   UNL     1       2.468  -9.017  -0.264  1.00  0.00     0.015 A 
ATOM     20  C   UNL     1       1.360  -9.102  -2.882  1.00  0.00     0.048 A 
ATOM     21  C   UNL     1       2.358  -7.883  -1.059  1.00  0.00     0.021 A 
ATOM     22  C   UNL     1       1.827  -7.912  -2.329  1.00  0.00     0.135 A 
ATOM     23  C   UNL     1       2.682  -6.566  -0.824  1.00  0.00     0.065 A 
ATOM     24  O   UNL     1       1.851  -6.639  -2.870  1.00  0.00    -0.451 OA
ENDBRANCH  12  15
ENDBRANCH   7  11
ENDBRANCH   4   6
ENDBRANCH   3   4
ENDBRANCH   2   3
ENDBRANCH   1   2
BRANCH   1  25
ATOM     25  O   UNL     1      -1.049  -4.021   2.368  1.00  0.00    -0.458 OA
BRANCH  25  26
ATOM     26  C   UNL     1      -0.568  -3.183   3.316  1.00  0.00     0.338 C 
ATOM     27  O   UNL     1      -0.247  -3.482   4.455  1.00  0.00    -0.246 OA
BRANCH  26  28
ATOM     28  C   UNL     1      -0.362  -1.818   2.790  1.00  0.00     0.060 A 
ATOM     29  C   UNL     1       0.399  -1.637   1.646  1.00  0.00     0.016 A 
ATOM     30  C   UNL     1      -0.688  -0.712   3.571  1.00  0.00     0.016 A 
ATOM     31  C   UNL     1       1.028  -0.417   1.414  1.00  0.00     0.010 A 
ATOM     32  C   UNL     1      -0.206   0.558   3.219  1.00  0.00     0.010 A 
ATOM     33  C   UNL     1       0.725   0.714   2.177  1.00  0.00    -0.014 A 
BRANCH  33  34
ATOM     34  C   UNL     1       1.407   2.020   1.910  1.00  0.00     0.031 A 
ATOM     35  C   UNL     1       2.020   2.808   3.047  1.00  0.00     0.074 A 
ATOM     36  C   UNL     1       1.513   2.504   0.652  1.00  0.00     0.049 A 
ATOM     37  N   UNL     1       2.418   4.055   3.069  1.00  0.00    -0.248 NA
ATOM     38  C   UNL     1       2.190   2.110   4.334  1.00  0.00     0.031 C 
ATOM     39  C   UNL     1       1.045   1.837  -0.569  1.00  0.00     0.029 A 
ATOM     40  N   UNL     1       2.064   3.674   0.184  1.00  0.00    -0.354 N 
ATOM     41  C   UNL     1       2.794   4.316   4.384  1.00  0.00     0.074 A 
ATOM     42  C   UNL     1       2.590   3.093   5.129  1.00  0.00     0.031 C 
ATOM     43  C   UNL     1       1.391   2.565  -1.638  1.00  0.00     0.029 A 
ATOM     44  C   UNL     1       1.963   3.822  -1.182  1.00  0.00     0.049 A 
ATOM     45  H   UNL     1       2.489   4.342   0.769  1.00  0.00     0.167 HD
ATOM     46  C   UNL     1       3.254   5.473   4.921  1.00  0.00     0.031 A 
ATOM     47  C   UNL     1       2.222   4.872  -1.984  1.00  0.00     0.031 A 
ATOM     48  C   UNL     1       3.512   6.665   4.156  1.00  0.00     0.049 A 
ATOM     49  C   UNL     1       2.680   6.159  -1.365  1.00  0.00     0.074 A 
ATOM     50  C   UNL     1       3.982   7.890   4.600  1.00  0.00     0.029 A 
ATOM     51  N   UNL     1       3.345   6.777   2.784  1.00  0.00    -0.354 N 
ATOM     52  N   UNL     1       2.931   6.420  -0.105  1.00  0.00    -0.248 NA
ATOM     53  C   UNL     1       2.860   7.300  -2.271  1.00  0.00     0.031 C 
ATOM     54  C   UNL     1       4.056   8.754   3.502  1.00  0.00     0.029 A 
ATOM     55  C   UNL     1       3.689   8.052   2.366  1.00  0.00     0.049 A 
ATOM     56  H   UNL     1       3.029   6.056   2.193  1.00  0.00     0.167 HD
ATOM     57  C   UNL     1       3.311   7.755  -0.068  1.00  0.00     0.074 A 
ATOM     58  C   UNL     1       3.278   8.239  -1.434  1.00  0.00     0.031 C 
ATOM     59  C   UNL     1       3.651   8.514   1.002  1.00  0.00     0.031 A 
BRANCH  46  60
ATOM     60  C   UNL     1       3.452   5.529   6.416  1.00  0.00    -0.014 A 
ATOM     61  C   UNL     1       4.504   4.851   7.056  1.00  0.00     0.010 A 
ATOM     62  C   UNL     1       2.579   6.317   7.193  1.00  0.00     0.010 A 
ATOM     63  C   UNL     1       4.652   4.924   8.446  1.00  0.00     0.020 A 
ATOM     64  C   UNL     1       2.741   6.417   8.578  1.00  0.00     0.020 A 
ATOM     65  C   UNL     1       3.767   5.703   9.198  1.00  0.00     0.054 A 
BRANCH  65  66
ATOM     66  S   UNL     1       3.990   5.792  10.997  1.00  0.00     0.124 S 
ATOM     67  O   UNL     1       3.527   4.473  11.423  1.00  0.00    -0.237 OA
ATOM     68  O   UNL     1       5.426   6.025  11.132  1.00  0.00    -0.237 OA
ATOM     69  O   UNL     1       3.140   6.910  11.399  1.00  0.00    -0.744 OA
ENDBRANCH  65  66
ENDBRANCH  46  60
BRANCH  47  70
ATOM     70  C   UNL     1       1.964   4.768  -3.449  1.00  0.00    -0.014 A 
ATOM     71  C   UNL     1       3.028   4.788  -4.367  1.00  0.00     0.010 A 
ATOM     72  C   UNL     1       0.650   4.615  -3.931  1.00  0.00     0.010 A 
ATOM     73  C   UNL     1       2.781   4.664  -5.738  1.00  0.00     0.020 A 
ATOM     74  C   UNL     1       0.402   4.454  -5.296  1.00  0.00     0.020 A 
ATOM     75  C   UNL     1       1.470   4.492  -6.193  1.00  0.00     0.054 A 
BRANCH  75  76
ATOM     76  S   UNL     1       1.178   4.275  -7.971  1.00  0.00     0.124 S 
ATOM     77  O   UNL     1       1.357   5.633  -8.474  1.00  0.00    -0.237 OA
ATOM     78  O   UNL     1       2.216   3.319  -8.348  1.00  0.00    -0.237 OA
ATOM     79  O   UNL     1      -0.187   3.758  -8.032  1.00  0.00    -0.744 OA
ENDBRANCH  75  76
ENDBRANCH  47  70
BRANCH  59  80
ATOM     80  C   UNL     1       4.058   9.935   0.729  1.00  0.00    -0.014 A 
ATOM     81  C   UNL     1       3.109  10.911   0.379  1.00  0.00     0.010 A 
ATOM     82  C   UNL     1       5.409  10.303   0.861  1.00  0.00     0.010 A 
ATOM     83  C   UNL     1       3.511  12.226   0.133  1.00  0.00     0.020 A 
ATOM     84  C   UNL     1       5.810  11.622   0.642  1.00  0.00     0.020 A 
ATOM     85  C   UNL     1       4.859  12.573   0.265  1.00  0.00     0.054 A 
BRANCH  85  86
ATOM     86  S   UNL     1       5.351  14.295  -0.020  1.00  0.00     0.124 S 
ATOM     87  O   UNL     1       5.274  14.395  -1.475  1.00  0.00    -0.237 OA
ATOM     88  O   UNL     1       4.336  15.045   0.716  1.00  0.00    -0.237 OA
ATOM     89  O   UNL     1       6.698  14.367   0.540  1.00  0.00    -0.744 OA
ENDBRANCH  85  86
ENDBRANCH  59  80
ENDBRANCH  33  34
ENDBRANCH  26  28
ENDBRANCH  25  26
ENDBRANCH   1  25
TORSDOF 16
