REMARK SMILES CCN(C(=O)N1C[C@@H](C)[C@H](C(=O)OC)C1)C(C)(C)C(=O)OCCOC(=O)c1ccc(-c2c3nc(c(-c4ccc(S(=O)(=O)[O-])cc4)c4ccc([nH]4)c(-c4ccc(S(=O)(=O)[O-])cc4)c4nc(c(-c5ccc(S(=O)(=O)[O-])cc5)c5ccc2[nH]5)C=C4)C=C3)cc1
REMARK SMILES IDX 22 1 21 2 19 3 20 4 16 5 17 6 18 7 3 8 2 9 1 10 4 11 5 12
REMARK SMILES IDX 6 13 7 14 15 15 8 16 10 17 9 18 11 19 12 20 13 21 14 22
REMARK SMILES IDX 23 23 24 24 25 25 26 26 27 27 28 28 86 29 29 30 85 31 30 32
REMARK SMILES IDX 31 33 32 34 79 35 33 36 84 37 78 38 80 39 34 40 83 41 77 42
REMARK SMILES IDX 76 43 35 45 65 46 46 47 64 48 47 49 50 50 63 51 81 52 48 53
REMARK SMILES IDX 49 54 62 56 82 57 51 58 36 59 37 60 45 61 38 62 44 63 39 64
REMARK SMILES IDX 40 65 41 66 42 67 43 68 66 69 67 70 75 71 68 72 74 73 69 74
REMARK SMILES IDX 70 75 71 76 72 77 73 78 52 79 53 80 61 81 54 82 60 83 55 84
REMARK SMILES IDX 56 85 57 86 58 87 59 88
REMARK H PARENT 80 44 50 55
REMARK Flexibility Score: inf
ROOT
ATOM      1  C   UNL     1       3.700   2.389   5.402  1.00  0.00     0.274 C 
ENDROOT
BRANCH   1   2
ATOM      2  O   UNL     1       3.446   1.672   4.175  1.00  0.00    -0.460 OA
BRANCH   2   3
ATOM      3  C   UNL     1       2.271   0.964   4.042  1.00  0.00     0.331 C 
ATOM      4  O   UNL     1       1.372   1.040   4.867  1.00  0.00    -0.249 OA
BRANCH   3   5
ATOM      5  C   UNL     1       2.330   0.001   2.765  1.00  0.00     0.136 C 
ATOM      6  C   UNL     1       3.128  -1.258   3.146  1.00  0.00     0.047 C 
ATOM      7  C   UNL     1       3.175   0.789   1.728  1.00  0.00     0.047 C 
BRANCH   5   8
ATOM      8  N   UNL     1       0.969  -0.396   2.184  1.00  0.00    -0.309 N 
BRANCH   8   9
ATOM      9  C   UNL     1       0.832  -0.930   0.807  1.00  0.00     0.119 C 
ATOM     10  C   UNL     1       1.418  -0.227  -0.400  1.00  0.00     0.027 C 
ENDBRANCH   8   9
BRANCH   8  11
ATOM     11  C   UNL     1       0.005  -0.979   3.069  1.00  0.00     0.320 C 
ATOM     12  O   UNL     1       0.252  -1.402   4.191  1.00  0.00    -0.248 OA
BRANCH  11  13
ATOM     13  N   UNL     1      -1.274  -0.961   2.545  1.00  0.00    -0.323 N 
ATOM     14  C   UNL     1      -2.084  -2.068   2.082  1.00  0.00     0.125 C 
ATOM     15  C   UNL     1      -2.152   0.122   2.851  1.00  0.00     0.137 C 
ATOM     16  C   UNL     1      -3.225  -1.365   1.299  1.00  0.00     0.021 C 
ATOM     17  C   UNL     1      -3.119   0.131   1.679  1.00  0.00     0.123 C 
ATOM     18  C   UNL     1      -4.614  -1.891   1.640  1.00  0.00     0.010 C 
BRANCH  17  19
ATOM     19  C   UNL     1      -2.730   0.960   0.462  1.00  0.00     0.310 C 
ATOM     20  O   UNL     1      -3.530   1.260  -0.416  1.00  0.00    -0.252 OA
BRANCH  19  21
ATOM     21  O   UNL     1      -1.427   1.350   0.449  1.00  0.00    -0.469 OA
ATOM     22  C   UNL     1      -1.108   2.313  -0.565  1.00  0.00     0.282 C 
ENDBRANCH  19  21
ENDBRANCH  17  19
ENDBRANCH  11  13
ENDBRANCH   8  11
ENDBRANCH   5   8
ENDBRANCH   3   5
ENDBRANCH   2   3
ENDBRANCH   1   2
BRANCH   1  23
ATOM     23  C   UNL     1       3.377   3.885   5.326  1.00  0.00     0.275 C 
BRANCH  23  24
ATOM     24  O   UNL     1       1.958   4.121   5.287  1.00  0.00    -0.458 OA
BRANCH  24  25
ATOM     25  C   UNL     1       1.474   4.469   4.071  1.00  0.00     0.338 C 
ATOM     26  O   UNL     1       2.129   4.694   3.067  1.00  0.00    -0.246 OA
BRANCH  25  27
ATOM     27  C   UNL     1       0.002   4.335   4.043  1.00  0.00     0.060 A 
ATOM     28  C   UNL     1      -0.493   3.532   3.031  1.00  0.00     0.016 A 
ATOM     29  C   UNL     1      -0.895   4.984   4.904  1.00  0.00     0.016 A 
ATOM     30  C   UNL     1      -1.867   3.363   2.911  1.00  0.00     0.010 A 
ATOM     31  C   UNL     1      -2.293   4.754   4.791  1.00  0.00     0.010 A 
ATOM     32  C   UNL     1      -2.793   3.894   3.808  1.00  0.00    -0.014 A 
BRANCH  32  33
ATOM     33  C   UNL     1      -4.223   3.497   3.583  1.00  0.00     0.031 A 
ATOM     34  C   UNL     1      -4.940   3.985   2.344  1.00  0.00     0.074 A 
ATOM     35  C   UNL     1      -4.799   2.480   4.266  1.00  0.00     0.049 A 
ATOM     36  N   UNL     1      -6.125   3.658   1.889  1.00  0.00    -0.248 NA
ATOM     37  C   UNL     1      -4.199   4.918   1.481  1.00  0.00     0.031 C 
ATOM     38  C   UNL     1      -4.162   1.695   5.322  1.00  0.00     0.029 A 
ATOM     39  N   UNL     1      -6.031   1.870   4.107  1.00  0.00    -0.354 N 
ATOM     40  C   UNL     1      -6.275   4.352   0.694  1.00  0.00     0.074 A 
ATOM     41  C   UNL     1      -5.043   5.080   0.474  1.00  0.00     0.031 C 
ATOM     42  C   UNL     1      -4.984   0.690   5.682  1.00  0.00     0.029 A 
ATOM     43  C   UNL     1      -6.243   0.791   4.941  1.00  0.00     0.049 A 
ATOM     44  H   UNL     1      -6.700   2.180   3.455  1.00  0.00     0.167 HD
ATOM     45  C   UNL     1      -7.350   4.429  -0.127  1.00  0.00     0.031 A 
ATOM     46  C   UNL     1      -7.324  -0.009   5.111  1.00  0.00     0.031 A 
ATOM     47  C   UNL     1      -8.613   3.777   0.091  1.00  0.00     0.049 A 
ATOM     48  C   UNL     1      -8.591   0.254   4.321  1.00  0.00     0.074 A 
ATOM     49  C   UNL     1      -9.794   3.939  -0.616  1.00  0.00     0.029 A 
ATOM     50  N   UNL     1      -8.870   2.852   1.086  1.00  0.00    -0.354 N 
ATOM     51  N   UNL     1      -8.771   1.024   3.275  1.00  0.00    -0.248 NA
ATOM     52  C   UNL     1      -9.815  -0.440   4.763  1.00  0.00     0.031 C 
ATOM     53  C   UNL     1     -10.786   3.172   0.002  1.00  0.00     0.029 A 
ATOM     54  C   UNL     1     -10.202   2.471   1.044  1.00  0.00     0.049 A 
ATOM     55  H   UNL     1      -8.205   2.514   1.729  1.00  0.00     0.167 HD
ATOM     56  C   UNL     1     -10.119   0.899   2.936  1.00  0.00     0.074 A 
ATOM     57  C   UNL     1     -10.702  -0.046   3.859  1.00  0.00     0.031 C 
ATOM     58  C   UNL     1     -10.808   1.531   1.952  1.00  0.00     0.031 A 
BRANCH  45  59
ATOM     59  C   UNL     1      -7.254   5.403  -1.266  1.00  0.00    -0.014 A 
ATOM     60  C   UNL     1      -6.550   5.108  -2.444  1.00  0.00     0.010 A 
ATOM     61  C   UNL     1      -7.896   6.649  -1.133  1.00  0.00     0.010 A 
ATOM     62  C   UNL     1      -6.460   6.065  -3.460  1.00  0.00     0.020 A 
ATOM     63  C   UNL     1      -7.827   7.595  -2.154  1.00  0.00     0.020 A 
ATOM     64  C   UNL     1      -7.093   7.304  -3.304  1.00  0.00     0.054 A 
BRANCH  64  65
ATOM     65  S   UNL     1      -6.950   8.534  -4.628  1.00  0.00     0.124 S 
ATOM     66  O   UNL     1      -5.550   8.935  -4.516  1.00  0.00    -0.237 OA
ATOM     67  O   UNL     1      -7.290   7.762  -5.820  1.00  0.00    -0.237 OA
ATOM     68  O   UNL     1      -7.921   9.560  -4.255  1.00  0.00    -0.744 OA
ENDBRANCH  64  65
ENDBRANCH  45  59
BRANCH  46  69
ATOM     69  C   UNL     1      -7.338  -1.097   6.144  1.00  0.00    -0.014 A 
ATOM     70  C   UNL     1      -7.610  -2.434   5.792  1.00  0.00     0.010 A 
ATOM     71  C   UNL     1      -7.192  -0.782   7.508  1.00  0.00     0.010 A 
ATOM     72  C   UNL     1      -7.766  -3.419   6.778  1.00  0.00     0.020 A 
ATOM     73  C   UNL     1      -7.308  -1.768   8.494  1.00  0.00     0.020 A 
ATOM     74  C   UNL     1      -7.614  -3.078   8.124  1.00  0.00     0.054 A 
BRANCH  74  75
ATOM     75  S   UNL     1      -7.804  -4.364   9.392  1.00  0.00     0.124 S 
ATOM     76  O   UNL     1      -9.251  -4.553   9.419  1.00  0.00    -0.237 OA
ATOM     77  O   UNL     1      -7.031  -5.473   8.838  1.00  0.00    -0.237 OA
ATOM     78  O   UNL     1      -7.230  -3.751  10.588  1.00  0.00    -0.744 OA
ENDBRANCH  74  75
ENDBRANCH  46  69
BRANCH  58  79
ATOM     79  C   UNL     1     -12.282   1.235   1.791  1.00  0.00    -0.014 A 
ATOM     80  C   UNL     1     -13.224   1.672   2.741  1.00  0.00     0.010 A 
ATOM     81  C   UNL     1     -12.746   0.591   0.628  1.00  0.00     0.010 A 
ATOM     82  C   UNL     1     -14.592   1.452   2.542  1.00  0.00     0.020 A 
ATOM     83  C   UNL     1     -14.115   0.393   0.411  1.00  0.00     0.020 A 
ATOM     84  C   UNL     1     -15.030   0.817   1.376  1.00  0.00     0.054 A 
BRANCH  84  85
ATOM     85  S   UNL     1     -16.814   0.598   1.115  1.00  0.00     0.124 S 
ATOM     86  O   UNL     1     -17.139  -0.447   2.083  1.00  0.00    -0.237 OA
ATOM     87  O   UNL     1     -17.348   1.923   1.419  1.00  0.00    -0.237 OA
ATOM     88  O   UNL     1     -16.915   0.199  -0.287  1.00  0.00    -0.744 OA
ENDBRANCH  84  85
ENDBRANCH  58  79
ENDBRANCH  32  33
ENDBRANCH  25  27
ENDBRANCH  24  25
ENDBRANCH  23  24
ENDBRANCH   1  23
TORSDOF 20
