REMARK SMILES O=C(OCCOC(=O)[C@H]1[C@@H]2C[C@H]3C[C@@H](C2)C[C@]1(n1ncc(N2CCN(c4ccc(F)cc4)CC2)c(Cl)c1=O)C3)c1ccc(-c2c3nc(c(-c4ccc(S(=O)(=O)[O-])cc4)c4ccc([nH]4)c(-c4ccc(S(=O)(=O)[O-])cc4)c4nc(c(-c5ccc(S(=O)(=O)[O-])cc5)c5ccc2[nH]5)C=C4)C=C3)cc1
REMARK SMILES IDX 4 1 3 2 2 3 1 4 40 5 41 6 99 7 42 8 98 9 43 10 44 11 45 12
REMARK SMILES IDX 92 13 46 14 97 15 91 16 93 17 47 18 96 19 90 20 89 21 48 23
REMARK SMILES IDX 78 24 59 25 77 26 60 27 63 28 76 29 94 30 61 31 62 32 75 34
REMARK SMILES IDX 95 35 64 36 49 37 50 38 58 39 51 40 57 41 52 42 53 43 54 44
REMARK SMILES IDX 55 45 56 46 79 47 80 48 88 49 81 50 87 51 82 52 83 53 84 54
REMARK SMILES IDX 85 55 86 56 65 57 66 58 74 59 67 60 73 61 68 62 69 63 70 64
REMARK SMILES IDX 71 65 72 66 5 67 6 68 7 69 8 70 9 71 10 72 17 73 15 74 11 75
REMARK SMILES IDX 39 76 16 77 14 78 12 79 13 80 18 81 19 82 37 83 20 84 35 85
REMARK SMILES IDX 38 86 21 87 36 88 22 89 23 90 34 91 24 92 33 93 25 94 26 95
REMARK SMILES IDX 27 96 32 97 28 98 31 99 29 100 30 101
REMARK H PARENT 93 22 63 33
REMARK Flexibility Score: inf
ROOT
ATOM      1  C   UNL     1       4.004  -0.733   2.019  1.00  0.00     0.275 C 
ENDROOT
BRANCH   1   2
ATOM      2  O   UNL     1       2.842   0.134   1.883  1.00  0.00    -0.458 OA
BRANCH   2   3
ATOM      3  C   UNL     1       2.793   1.367   1.297  1.00  0.00     0.338 C 
ATOM      4  O   UNL     1       2.121   2.274   1.776  1.00  0.00    -0.246 OA
BRANCH   3   5
ATOM      5  C   UNL     1       3.229   1.469  -0.128  1.00  0.00     0.060 A 
ATOM      6  C   UNL     1       2.028   1.820  -1.178  1.00  0.00     0.016 A 
ATOM      7  C   UNL     1       4.642   0.822  -0.581  1.00  0.00     0.016 A 
ATOM      8  C   UNL     1       2.149   1.451  -2.840  1.00  0.00     0.010 A 
ATOM      9  C   UNL     1       4.925   0.278  -2.172  1.00  0.00     0.010 A 
ATOM     10  C   UNL     1       3.808   0.840  -3.661  1.00  0.00    -0.014 A 
BRANCH  10  11
ATOM     11  C   UNL     1       4.521   1.905  -5.273  1.00  0.00     0.031 A 
ATOM     12  C   UNL     1       4.009   1.657  -7.081  1.00  0.00     0.074 A 
ATOM     13  C   UNL     1       5.204   3.148  -5.445  1.00  0.00     0.049 A 
ATOM     14  N   UNL     1       4.749   1.796  -8.198  1.00  0.00    -0.248 NA
ATOM     15  C   UNL     1       2.746   0.890  -7.521  1.00  0.00     0.031 C 
ATOM     16  C   UNL     1       5.472   4.161  -4.374  1.00  0.00     0.029 A 
ATOM     17  N   UNL     1       5.707   3.824  -6.566  1.00  0.00    -0.354 N 
ATOM     18  C   UNL     1       4.149   0.973  -9.222  1.00  0.00     0.074 A 
ATOM     19  C   UNL     1       2.922   0.490  -8.749  1.00  0.00     0.031 C 
ATOM     20  C   UNL     1       6.016   5.268  -4.884  1.00  0.00     0.029 A 
ATOM     21  C   UNL     1       6.235   5.087  -6.308  1.00  0.00     0.049 A 
ATOM     22  H   UNL     1       5.688   3.434  -7.470  1.00  0.00     0.167 HD
ATOM     23  C   UNL     1       4.581   0.504 -10.424  1.00  0.00     0.031 A 
ATOM     24  C   UNL     1       6.834   6.039  -7.068  1.00  0.00     0.031 A 
ATOM     25  C   UNL     1       5.597   1.186 -11.135  1.00  0.00     0.049 A 
ATOM     26  C   UNL     1       7.051   5.839  -8.546  1.00  0.00     0.074 A 
ATOM     27  C   UNL     1       6.158   0.919 -12.367  1.00  0.00     0.029 A 
ATOM     28  N   UNL     1       6.056   2.407 -10.709  1.00  0.00    -0.354 N 
ATOM     29  N   UNL     1       6.781   4.792  -9.283  1.00  0.00    -0.248 NA
ATOM     30  C   UNL     1       7.647   6.957  -9.301  1.00  0.00     0.031 C 
ATOM     31  C   UNL     1       6.918   2.039 -12.719  1.00  0.00     0.029 A 
ATOM     32  C   UNL     1       6.766   2.988 -11.719  1.00  0.00     0.049 A 
ATOM     33  H   UNL     1       5.899   2.800  -9.819  1.00  0.00     0.167 HD
ATOM     34  C   UNL     1       7.168   5.130 -10.579  1.00  0.00     0.074 A 
ATOM     35  C   UNL     1       7.652   6.487 -10.543  1.00  0.00     0.031 C 
ATOM     36  C   UNL     1       7.158   4.362 -11.691  1.00  0.00     0.031 A 
BRANCH  23  37
ATOM     37  C   UNL     1       4.024  -0.809 -11.006  1.00  0.00    -0.014 A 
ATOM     38  C   UNL     1       4.921  -1.895 -11.108  1.00  0.00     0.010 A 
ATOM     39  C   UNL     1       2.691  -1.040 -11.407  1.00  0.00     0.010 A 
ATOM     40  C   UNL     1       4.509  -3.160 -11.550  1.00  0.00     0.020 A 
ATOM     41  C   UNL     1       2.252  -2.325 -11.786  1.00  0.00     0.020 A 
ATOM     42  C   UNL     1       3.169  -3.375 -11.867  1.00  0.00     0.054 A 
BRANCH  42  43
ATOM     43  S   UNL     1       2.616  -5.048 -12.319  1.00  0.00     0.124 S 
ATOM     44  O   UNL     1       2.831  -5.067 -13.762  1.00  0.00    -0.237 OA
ATOM     45  O   UNL     1       3.498  -5.912 -11.536  1.00  0.00    -0.237 OA
ATOM     46  O   UNL     1       1.220  -5.066 -11.887  1.00  0.00    -0.744 OA
ENDBRANCH  42  43
ENDBRANCH  23  37
BRANCH  24  47
ATOM     47  C   UNL     1       7.262   7.332  -6.420  1.00  0.00    -0.014 A 
ATOM     48  C   UNL     1       8.296   7.353  -5.461  1.00  0.00     0.010 A 
ATOM     49  C   UNL     1       6.587   8.537  -6.699  1.00  0.00     0.010 A 
ATOM     50  C   UNL     1       8.595   8.523  -4.751  1.00  0.00     0.020 A 
ATOM     51  C   UNL     1       6.914   9.721  -6.022  1.00  0.00     0.020 A 
ATOM     52  C   UNL     1       7.891   9.697  -5.026  1.00  0.00     0.054 A 
BRANCH  52  53
ATOM     53  S   UNL     1       8.261  11.192  -4.060  1.00  0.00     0.124 S 
ATOM     54  O   UNL     1       7.551  10.924  -2.812  1.00  0.00    -0.237 OA
ATOM     55  O   UNL     1       9.718  11.167  -3.971  1.00  0.00    -0.237 OA
ATOM     56  O   UNL     1       7.708  12.270  -4.876  1.00  0.00    -0.744 OA
ENDBRANCH  52  53
ENDBRANCH  24  47
BRANCH  36  57
ATOM     57  C   UNL     1       7.606   4.905 -13.006  1.00  0.00    -0.014 A 
ATOM     58  C   UNL     1       6.649   5.071 -14.025  1.00  0.00     0.010 A 
ATOM     59  C   UNL     1       8.973   4.879 -13.313  1.00  0.00     0.010 A 
ATOM     60  C   UNL     1       7.057   5.117 -15.356  1.00  0.00     0.020 A 
ATOM     61  C   UNL     1       9.382   4.937 -14.643  1.00  0.00     0.020 A 
ATOM     62  C   UNL     1       8.420   5.014 -15.655  1.00  0.00     0.054 A 
BRANCH  62  63
ATOM     63  S   UNL     1       8.918   4.888 -17.391  1.00  0.00     0.124 S 
ATOM     64  O   UNL     1       8.484   3.538 -17.736  1.00  0.00    -0.237 OA
ATOM     65  O   UNL     1       8.166   5.973 -18.016  1.00  0.00    -0.237 OA
ATOM     66  O   UNL     1      10.365   5.086 -17.346  1.00  0.00    -0.744 OA
ENDBRANCH  62  63
ENDBRANCH  36  57
ENDBRANCH  10  11
ENDBRANCH   3   5
ENDBRANCH   2   3
ENDBRANCH   1   2
BRANCH   1  67
ATOM     67  C   UNL     1       4.036  -1.964   1.082  1.00  0.00     0.274 C 
BRANCH  67  68
ATOM     68  O   UNL     1       4.143  -1.579  -0.293  1.00  0.00    -0.462 OA
BRANCH  68  69
ATOM     69  C   UNL     1       2.969  -1.103  -0.774  1.00  0.00     0.311 C 
ATOM     70  O   UNL     1       1.879  -1.385  -0.268  1.00  0.00    -0.252 OA
BRANCH  69  71
ATOM     71  C   UNL     1       3.059  -0.024  -2.002  1.00  0.00     0.130 C 
ATOM     72  C   UNL     1       3.994   1.985  -2.400  1.00  0.00     0.006 C 
ATOM     73  C   UNL     1       3.037  -1.221  -3.432  1.00  0.00     0.081 C 
ATOM     74  C   UNL     1       5.755   1.541  -3.385  1.00  0.00     0.008 C 
ATOM     75  C   UNL     1       2.980   2.709  -4.029  1.00  0.00     0.008 C 
ATOM     76  C   UNL     1       1.901  -0.300  -4.486  1.00  0.00     0.035 C 
ATOM     77  C   UNL     1       4.710  -1.490  -3.805  1.00  0.00     0.035 C 
ATOM     78  C   UNL     1       5.480  -0.138  -4.447  1.00  0.00    -0.008 C 
ATOM     79  C   UNL     1       2.537   1.054  -5.127  1.00  0.00    -0.008 C 
ATOM     80  C   UNL     1       4.061  -0.151  -5.603  1.00  0.00     0.007 C 
BRANCH  73  81
ATOM     81  N   UNL     1       2.407  -2.583  -3.620  1.00  0.00    -0.222 N 
ATOM     82  N   UNL     1       2.234  -2.738  -4.981  1.00  0.00    -0.175 NA
ATOM     83  C   UNL     1       2.365  -3.718  -2.835  1.00  0.00     0.288 A 
ATOM     84  C   UNL     1       1.695  -3.768  -5.497  1.00  0.00     0.161 A 
ATOM     85  C   UNL     1       1.607  -4.890  -3.466  1.00  0.00     0.132 A 
ATOM     86  O   UNL     1       2.882  -3.811  -1.726  1.00  0.00    -0.266 OA
ATOM     87  C   UNL     1       1.239  -4.936  -4.764  1.00  0.00     0.082 A 
ATOM     88  Cl  UNL     1       1.312  -6.238  -2.413  1.00  0.00    -0.076 Cl
BRANCH  87  89
ATOM     89  N   UNL     1       0.533  -5.858  -5.526  1.00  0.00    -0.365 N 
ATOM     90  C   UNL     1       0.875  -6.209  -6.942  1.00  0.00     0.138 C 
ATOM     91  C   UNL     1      -0.763  -6.416  -5.116  1.00  0.00     0.138 C 
ATOM     92  C   UNL     1       0.920  -7.746  -7.116  1.00  0.00     0.138 C 
ATOM     93  C   UNL     1      -0.693  -7.944  -5.202  1.00  0.00     0.138 C 
ATOM     94  N   UNL     1      -0.304  -8.345  -6.561  1.00  0.00    -0.368 N 
BRANCH  94  95
ATOM     95  C   UNL     1      -0.965  -9.370  -7.185  1.00  0.00     0.037 A 
ATOM     96  C   UNL     1      -2.350  -9.277  -7.387  1.00  0.00     0.029 A 
ATOM     97  C   UNL     1      -0.303 -10.524  -7.614  1.00  0.00     0.029 A 
ATOM     98  C   UNL     1      -3.065 -10.320  -7.969  1.00  0.00     0.041 A 
ATOM     99  C   UNL     1      -1.016 -11.582  -8.180  1.00  0.00     0.041 A 
ATOM    100  C   UNL     1      -2.391 -11.472  -8.346  1.00  0.00     0.123 A 
ATOM    101  F   UNL     1      -3.079 -12.493  -8.872  1.00  0.00    -0.207 F 
ENDBRANCH  94  95
ENDBRANCH  87  89
ENDBRANCH  73  81
ENDBRANCH  69  71
ENDBRANCH  68  69
ENDBRANCH  67  68
ENDBRANCH   1  67
TORSDOF 17
