REMARK SMILES Cc1ccc(-c2nn(-c3ccccc3)cc2[C@@H]2[NH2+][C@H](C(=O)OCCOC(=O)c3ccc(-c4c5nc(c(-c6ccc(S(=O)(=O)[O-])cc6)c6ccc([nH]6)c(-c6ccc(S(=O)(=O)[O-])cc6)c6nc(c(-c7ccc(S(=O)(=O)[O-])cc7)c7ccc4[nH]7)C=C6)C=C5)cc3)CS2)cc1
REMARK SMILES IDX 24 1 23 2 22 3 20 4 21 5 19 6 17 7 18 8 89 9 88 12 16 13
REMARK SMILES IDX 6 14 7 15 8 16 15 17 5 18 1 19 2 20 3 21 91 22 4 23 90 24
REMARK SMILES IDX 9 25 10 26 14 27 11 28 13 29 12 30 25 31 26 32 27 33 28 34
REMARK SMILES IDX 29 35 87 36 30 37 86 38 31 39 32 40 33 41 80 42 34 43 85 44
REMARK SMILES IDX 79 45 81 46 35 47 84 48 78 49 77 50 36 52 66 53 47 54 65 55
REMARK SMILES IDX 48 56 51 57 64 58 82 59 49 60 50 61 63 63 83 64 52 65 37 66
REMARK SMILES IDX 38 67 46 68 39 69 45 70 40 71 41 72 42 73 43 74 44 75 67 76
REMARK SMILES IDX 68 77 76 78 69 79 75 80 70 81 71 82 72 83 73 84 74 85 53 86
REMARK SMILES IDX 54 87 62 88 55 89 61 90 56 91 57 92 58 93 59 94 60 95
REMARK H PARENT 18 10 18 11 81 51 51 62
REMARK Flexibility Score: inf
ROOT
ATOM      1  C   UNL     1      -6.138  -4.120  -2.162  1.00  0.00     0.275 C 
ENDROOT
BRANCH   1   2
ATOM      2  C   UNL     1      -7.456  -3.458  -1.738  1.00  0.00     0.274 C 
BRANCH   2   3
ATOM      3  O   UNL     1      -7.162  -2.451  -0.755  1.00  0.00    -0.458 OA
BRANCH   3   4
ATOM      4  C   UNL     1      -6.909  -2.906   0.616  1.00  0.00     0.365 C 
ATOM      5  O   UNL     1      -7.711  -3.886   0.741  1.00  0.00    -0.245 OA
BRANCH   4   6
ATOM      6  C   UNL     1      -5.548  -1.948   2.026  1.00  0.00     0.304 C 
ATOM      7  C   UNL     1      -3.585  -0.131   2.007  1.00  0.00     0.278 C 
ATOM      8  N   UNL     1      -3.888  -1.550   1.768  1.00  0.00    -0.319 N 
ATOM      9  S   UNL     1      -4.521   0.456   3.397  1.00  0.00    -0.087 SA
ATOM     10  H   UNL     1      -3.318  -2.113   2.400  1.00  0.00     0.348 HD
ATOM     11  H   UNL     1      -3.681  -1.742   0.788  1.00  0.00     0.348 HD
ATOM     12  C   UNL     1      -5.748  -0.877   3.361  1.00  0.00     0.153 C 
BRANCH   7  13
ATOM     13  C   UNL     1      -3.759   0.631   0.731  1.00  0.00     0.067 A 
ATOM     14  C   UNL     1      -2.936   0.541  -0.426  1.00  0.00     0.103 A 
ATOM     15  N   UNL     1      -3.563   1.014  -1.516  1.00  0.00    -0.167 NA
ATOM     16  N   UNL     1      -4.718   1.526  -1.024  1.00  0.00    -0.240 N 
ATOM     17  C   UNL     1      -4.635   1.635   0.350  1.00  0.00     0.126 A 
BRANCH  14  18
ATOM     18  C   UNL     1      -1.514   0.255  -0.414  1.00  0.00     0.003 A 
ATOM     19  C   UNL     1       2.735  -0.212   0.035  1.00  0.00     0.044 C 
ATOM     20  C   UNL     1       1.252  -0.054  -0.113  1.00  0.00    -0.051 A 
ATOM     21  C   UNL     1       0.409  -1.177  -0.172  1.00  0.00     0.004 A 
ATOM     22  C   UNL     1       0.698   1.224  -0.202  1.00  0.00     0.004 A 
ATOM     23  C   UNL     1      -0.978  -1.027  -0.315  1.00  0.00     0.011 A 
ATOM     24  C   UNL     1      -0.673   1.375  -0.353  1.00  0.00     0.011 A 
ENDBRANCH  14  18
BRANCH  16  25
ATOM     25  C   UNL     1      -5.885   1.729  -1.819  1.00  0.00     0.065 A 
ATOM     26  C   UNL     1      -5.986   1.104  -3.070  1.00  0.00     0.028 A 
ATOM     27  C   UNL     1      -7.001   2.404  -1.297  1.00  0.00     0.028 A 
ATOM     28  C   UNL     1      -7.201   1.127  -3.765  1.00  0.00     0.002 A 
ATOM     29  C   UNL     1      -8.209   2.422  -1.997  1.00  0.00     0.002 A 
ATOM     30  C   UNL     1      -8.310   1.780  -3.227  1.00  0.00     0.000 A 
ENDBRANCH  16  25
ENDBRANCH   7  13
ENDBRANCH   4   6
ENDBRANCH   3   4
ENDBRANCH   2   3
ENDBRANCH   1   2
BRANCH   1  31
ATOM     31  O   UNL     1      -5.538  -4.952  -1.135  1.00  0.00    -0.458 OA
BRANCH  31  32
ATOM     32  C   UNL     1      -4.489  -4.478  -0.412  1.00  0.00     0.338 C 
ATOM     33  O   UNL     1      -3.311  -4.717  -0.610  1.00  0.00    -0.246 OA
BRANCH  32  34
ATOM     34  C   UNL     1      -4.955  -3.526   0.612  1.00  0.00     0.060 A 
ATOM     35  C   UNL     1      -5.924  -4.091   2.015  1.00  0.00     0.016 A 
ATOM     36  C   UNL     1      -5.217  -1.891  -0.076  1.00  0.00     0.016 A 
ATOM     37  C   UNL     1      -7.244  -3.022   2.683  1.00  0.00     0.010 A 
ATOM     38  C   UNL     1      -6.535  -0.850   0.572  1.00  0.00     0.010 A 
ATOM     39  C   UNL     1      -7.612  -1.458   1.867  1.00  0.00    -0.014 A 
BRANCH  39  40
ATOM     40  C   UNL     1      -8.892  -0.761   1.837  1.00  0.00     0.031 A 
ATOM     41  C   UNL     1      -8.932   0.647   2.276  1.00  0.00     0.074 A 
ATOM     42  C   UNL     1      -9.901  -1.347   1.159  1.00  0.00     0.049 A 
ATOM     43  N   UNL     1      -9.895   1.229   2.898  1.00  0.00    -0.248 NA
ATOM     44  C   UNL     1      -7.769   1.516   2.153  1.00  0.00     0.031 C 
ATOM     45  C   UNL     1     -11.146  -0.744   0.704  1.00  0.00     0.029 A 
ATOM     46  N   UNL     1     -10.075  -2.696   0.860  1.00  0.00    -0.354 N 
ATOM     47  C   UNL     1      -9.589   2.583   2.900  1.00  0.00     0.074 A 
ATOM     48  C   UNL     1      -8.182   2.666   2.672  1.00  0.00     0.031 C 
ATOM     49  C   UNL     1     -12.050  -1.727   0.527  1.00  0.00     0.029 A 
ATOM     50  C   UNL     1     -11.434  -2.976   0.963  1.00  0.00     0.049 A 
ATOM     51  H   UNL     1      -9.365  -3.334   0.620  1.00  0.00     0.167 HD
ATOM     52  C   UNL     1     -10.581   3.509   2.801  1.00  0.00     0.031 A 
ATOM     53  C   UNL     1     -11.905  -3.803   1.943  1.00  0.00     0.031 A 
ATOM     54  C   UNL     1     -11.868   2.825   2.751  1.00  0.00     0.049 A 
ATOM     55  C   UNL     1     -12.684  -2.998   2.969  1.00  0.00     0.074 A 
ATOM     56  C   UNL     1     -12.679   2.469   1.687  1.00  0.00     0.029 A 
ATOM     57  N   UNL     1     -12.244   2.028   3.823  1.00  0.00    -0.354 N 
ATOM     58  N   UNL     1     -12.580  -1.700   3.103  1.00  0.00    -0.248 NA
ATOM     59  C   UNL     1     -13.667  -3.567   3.886  1.00  0.00     0.031 C 
ATOM     60  C   UNL     1     -13.455   1.349   2.098  1.00  0.00     0.029 A 
ATOM     61  C   UNL     1     -13.135   1.053   3.413  1.00  0.00     0.049 A 
ATOM     62  H   UNL     1     -11.921   2.140   4.746  1.00  0.00     0.167 HD
ATOM     63  C   UNL     1     -13.461  -1.255   4.048  1.00  0.00     0.074 A 
ATOM     64  C   UNL     1     -14.112  -2.466   4.520  1.00  0.00     0.031 C 
ATOM     65  C   UNL     1     -13.607   0.064   4.373  1.00  0.00     0.031 A 
BRANCH  52  66
ATOM     66  C   UNL     1     -10.373   4.956   2.397  1.00  0.00    -0.014 A 
ATOM     67  C   UNL     1     -11.476   5.688   1.916  1.00  0.00     0.010 A 
ATOM     68  C   UNL     1      -9.147   5.653   2.438  1.00  0.00     0.010 A 
ATOM     69  C   UNL     1     -11.359   7.012   1.467  1.00  0.00     0.020 A 
ATOM     70  C   UNL     1      -9.005   6.968   1.966  1.00  0.00     0.020 A 
ATOM     71  C   UNL     1     -10.119   7.644   1.489  1.00  0.00     0.054 A 
BRANCH  71  72
ATOM     72  S   UNL     1      -9.998   9.365   0.940  1.00  0.00     0.124 S 
ATOM     73  O   UNL     1     -10.475   9.289  -0.438  1.00  0.00    -0.237 OA
ATOM     74  O   UNL     1     -10.880  10.053   1.878  1.00  0.00    -0.237 OA
ATOM     75  O   UNL     1      -8.577   9.676   1.084  1.00  0.00    -0.744 OA
ENDBRANCH  71  72
ENDBRANCH  52  66
BRANCH  53  76
ATOM     76  C   UNL     1     -11.063  -5.024   2.181  1.00  0.00    -0.014 A 
ATOM     77  C   UNL     1     -10.944  -5.928   1.097  1.00  0.00     0.010 A 
ATOM     78  C   UNL     1     -10.133  -5.138   3.228  1.00  0.00     0.010 A 
ATOM     79  C   UNL     1      -9.858  -6.806   0.985  1.00  0.00     0.020 A 
ATOM     80  C   UNL     1      -9.042  -6.035   3.126  1.00  0.00     0.020 A 
ATOM     81  C   UNL     1      -8.889  -6.829   1.984  1.00  0.00     0.054 A 
BRANCH  81  82
ATOM     82  S   UNL     1      -7.365  -7.785   1.677  1.00  0.00     0.124 S 
ATOM     83  O   UNL     1      -7.828  -9.162   1.822  1.00  0.00    -0.237 OA
ATOM     84  O   UNL     1      -7.001  -7.390   0.319  1.00  0.00    -0.237 OA
ATOM     85  O   UNL     1      -6.450  -7.327   2.721  1.00  0.00    -0.744 OA
ENDBRANCH  81  82
ENDBRANCH  53  76
BRANCH  65  86
ATOM     86  C   UNL     1     -14.279   0.560   5.627  1.00  0.00    -0.014 A 
ATOM     87  C   UNL     1     -14.416  -0.220   6.784  1.00  0.00     0.010 A 
ATOM     88  C   UNL     1     -14.659   1.922   5.717  1.00  0.00     0.010 A 
ATOM     89  C   UNL     1     -15.008   0.301   7.938  1.00  0.00     0.020 A 
ATOM     90  C   UNL     1     -15.182   2.471   6.886  1.00  0.00     0.020 A 
ATOM     91  C   UNL     1     -15.399   1.639   7.976  1.00  0.00     0.054 A 
BRANCH  91  92
ATOM     92  S   UNL     1     -16.189   2.285   9.465  1.00  0.00     0.124 S 
ATOM     93  O   UNL     1     -17.563   1.820   9.293  1.00  0.00    -0.237 OA
ATOM     94  O   UNL     1     -15.437   1.639  10.538  1.00  0.00    -0.237 OA
ATOM     95  O   UNL     1     -15.998   3.729   9.359  1.00  0.00    -0.744 OA
ENDBRANCH  91  92
ENDBRANCH  65  86
ENDBRANCH  39  40
ENDBRANCH  32  34
ENDBRANCH  31  32
ENDBRANCH   1  31
TORSDOF 17
