REMARK SMILES O=C(OCCOC(=O)c1ccc(-c2c3nc(c(-c4ccc(S(=O)(=O)[O-])cc4)c4ccc([nH]4)c(-c4ccc(S(=O)(=O)[O-])cc4)c4nc(c(-c5ccc(S(=O)(=O)[O-])cc5)c5ccc2[nH]5)C=C4)C=C3)cc1)c1ccc(NS(=O)(=O)C2=Cc3ccccc3CC2)cc1
REMARK SMILES IDX 4 1 3 2 2 3 1 4 69 5 70 6 88 7 71 8 87 9 72 10 73 11 74 13
REMARK SMILES IDX 75 14 76 15 77 16 78 17 86 18 79 19 85 20 80 21 84 22 81 23
REMARK SMILES IDX 83 24 82 25 5 26 6 27 7 28 8 29 9 30 10 31 68 32 11 33 67 34
REMARK SMILES IDX 12 35 13 36 14 37 61 38 15 39 66 40 60 41 62 42 16 43 65 44
REMARK SMILES IDX 59 45 58 46 17 48 47 49 28 50 46 51 29 52 32 53 45 54 63 55
REMARK SMILES IDX 30 56 31 57 44 59 64 60 33 61 18 62 19 63 27 64 20 65 26 66
REMARK SMILES IDX 21 67 22 68 23 69 24 70 25 71 48 72 49 73 57 74 50 75 56 76
REMARK SMILES IDX 51 77 52 78 53 79 54 80 55 81 34 82 35 83 43 84 36 85 42 86
REMARK SMILES IDX 37 87 38 88 39 89 40 90 41 91
REMARK H PARENT 73 12 62 47 32 58
REMARK Flexibility Score: inf
ROOT
ATOM      1  C   UNL     1       4.167   0.109   1.301  1.00  0.00     0.275 C 
ENDROOT
BRANCH   1   2
ATOM      2  O   UNL     1       3.036   0.880   0.843  1.00  0.00    -0.458 OA
BRANCH   2   3
ATOM      3  C   UNL     1       2.803   1.468  -0.358  1.00  0.00     0.338 C 
ATOM      4  O   UNL     1       1.864   2.251  -0.478  1.00  0.00    -0.246 OA
BRANCH   3   5
ATOM      5  C   UNL     1       3.533   1.058  -1.587  1.00  0.00     0.060 A 
ATOM      6  C   UNL     1       4.895   0.796  -1.664  1.00  0.00     0.018 A 
ATOM      7  C   UNL     1       2.789   0.944  -2.763  1.00  0.00     0.018 A 
ATOM      8  C   UNL     1       5.418   0.134  -2.780  1.00  0.00     0.027 A 
ATOM      9  C   UNL     1       3.341   0.314  -3.879  1.00  0.00     0.027 A 
ATOM     10  C   UNL     1       4.608  -0.246  -3.830  1.00  0.00     0.049 A 
BRANCH  10  11
ATOM     11  N   UNL     1       4.844  -1.382  -4.656  1.00  0.00    -0.280 N 
ATOM     12  H   UNL     1       4.072  -1.730  -5.158  1.00  0.00     0.180 HD
BRANCH  11  13
ATOM     13  S   UNL     1       6.298  -2.191  -4.863  1.00  0.00     0.258 S 
ATOM     14  O   UNL     1       5.955  -3.264  -5.776  1.00  0.00    -0.202 OA
ATOM     15  O   UNL     1       7.254  -1.179  -5.262  1.00  0.00    -0.202 OA
BRANCH  13  16
ATOM     16  C   UNL     1       6.812  -2.914  -3.291  1.00  0.00     0.066 C 
ATOM     17  C   UNL     1       6.950  -4.265  -3.305  1.00  0.00     0.026 C 
ATOM     18  C   UNL     1       8.004  -2.236  -2.631  1.00  0.00     0.055 C 
ATOM     19  C   UNL     1       8.272  -4.750  -3.826  1.00  0.00    -0.021 A 
ATOM     20  C   UNL     1       9.274  -2.445  -3.456  1.00  0.00     0.041 C 
ATOM     21  C   UNL     1       8.445  -6.091  -4.171  1.00  0.00     0.008 A 
ATOM     22  C   UNL     1       9.354  -3.855  -3.982  1.00  0.00    -0.040 A 
ATOM     23  C   UNL     1       9.641  -6.512  -4.761  1.00  0.00     0.001 A 
ATOM     24  C   UNL     1      10.519  -4.269  -4.634  1.00  0.00     0.004 A 
ATOM     25  C   UNL     1      10.657  -5.594  -5.029  1.00  0.00     0.000 A 
ENDBRANCH  13  16
ENDBRANCH  11  13
ENDBRANCH  10  11
ENDBRANCH   3   5
ENDBRANCH   2   3
ENDBRANCH   1   2
BRANCH   1  26
ATOM     26  C   UNL     1       4.024  -1.407   1.163  1.00  0.00     0.275 C 
BRANCH  26  27
ATOM     27  O   UNL     1       3.650  -1.820  -0.157  1.00  0.00    -0.458 OA
BRANCH  27  28
ATOM     28  C   UNL     1       2.328  -2.118  -0.297  1.00  0.00     0.338 C 
ATOM     29  O   UNL     1       1.479  -2.063   0.565  1.00  0.00    -0.246 OA
BRANCH  28  30
ATOM     30  C   UNL     1       2.028  -2.439  -1.712  1.00  0.00     0.060 A 
ATOM     31  C   UNL     1       0.848  -1.926  -2.265  1.00  0.00     0.016 A 
ATOM     32  C   UNL     1       2.870  -3.243  -2.482  1.00  0.00     0.016 A 
ATOM     33  C   UNL     1       0.514  -2.202  -3.596  1.00  0.00     0.010 A 
ATOM     34  C   UNL     1       2.535  -3.512  -3.815  1.00  0.00     0.010 A 
ATOM     35  C   UNL     1       1.354  -2.997  -4.386  1.00  0.00    -0.014 A 
BRANCH  35  36
ATOM     36  C   UNL     1       0.997  -3.364  -5.785  1.00  0.00     0.031 A 
ATOM     37  C   UNL     1       0.598  -4.775  -6.098  1.00  0.00     0.074 A 
ATOM     38  C   UNL     1       1.086  -2.478  -6.797  1.00  0.00     0.049 A 
ATOM     39  N   UNL     1       0.310  -5.306  -7.257  1.00  0.00    -0.248 NA
ATOM     40  C   UNL     1       0.479  -5.698  -4.959  1.00  0.00     0.031 C 
ATOM     41  C   UNL     1       1.349  -1.056  -6.646  1.00  0.00     0.029 A 
ATOM     42  N   UNL     1       1.009  -2.645  -8.158  1.00  0.00    -0.354 N 
ATOM     43  C   UNL     1      -0.046  -6.618  -6.989  1.00  0.00     0.074 A 
ATOM     44  C   UNL     1       0.121  -6.821  -5.564  1.00  0.00     0.031 C 
ATOM     45  C   UNL     1       1.567  -0.502  -7.849  1.00  0.00     0.029 A 
ATOM     46  C   UNL     1       1.372  -1.524  -8.871  1.00  0.00     0.049 A 
ATOM     47  H   UNL     1       0.721  -3.485  -8.583  1.00  0.00     0.167 HD
ATOM     48  C   UNL     1      -0.504  -7.560  -7.846  1.00  0.00     0.031 A 
ATOM     49  C   UNL     1       1.514  -1.325 -10.196  1.00  0.00     0.031 A 
ATOM     50  C   UNL     1      -0.649  -7.368  -9.262  1.00  0.00     0.049 A 
ATOM     51  C   UNL     1       1.114  -2.419 -11.143  1.00  0.00     0.074 A 
ATOM     52  C   UNL     1      -1.156  -8.250 -10.200  1.00  0.00     0.029 A 
ATOM     53  N   UNL     1      -0.263  -6.229  -9.952  1.00  0.00    -0.354 N 
ATOM     54  N   UNL     1       0.671  -3.621 -10.863  1.00  0.00    -0.248 NA
ATOM     55  C   UNL     1       1.175  -2.117 -12.580  1.00  0.00     0.031 C 
ATOM     56  C   UNL     1      -1.020  -7.668 -11.464  1.00  0.00     0.029 A 
ATOM     57  C   UNL     1      -0.481  -6.401 -11.309  1.00  0.00     0.049 A 
ATOM     58  H   UNL     1       0.112  -5.418  -9.538  1.00  0.00     0.167 HD
ATOM     59  C   UNL     1       0.351  -4.200 -12.085  1.00  0.00     0.074 A 
ATOM     60  C   UNL     1       0.662  -3.222 -13.107  1.00  0.00     0.031 C 
ATOM     61  C   UNL     1      -0.174  -5.426 -12.326  1.00  0.00     0.031 A 
BRANCH  48  62
ATOM     62  C   UNL     1      -0.859  -8.894  -7.254  1.00  0.00    -0.014 A 
ATOM     63  C   UNL     1      -1.997  -9.042  -6.439  1.00  0.00     0.010 A 
ATOM     64  C   UNL     1      -0.041 -10.008  -7.506  1.00  0.00     0.010 A 
ATOM     65  C   UNL     1      -2.275 -10.270  -5.837  1.00  0.00     0.020 A 
ATOM     66  C   UNL     1      -0.332 -11.244  -6.926  1.00  0.00     0.020 A 
ATOM     67  C   UNL     1      -1.433 -11.360  -6.075  1.00  0.00     0.054 A 
BRANCH  67  68
ATOM     68  S   UNL     1      -1.801 -12.938  -5.261  1.00  0.00     0.124 S 
ATOM     69  O   UNL     1      -1.376 -12.672  -3.889  1.00  0.00    -0.237 OA
ATOM     70  O   UNL     1      -3.243 -13.072  -5.456  1.00  0.00    -0.237 OA
ATOM     71  O   UNL     1      -0.984 -13.903  -5.991  1.00  0.00    -0.744 OA
ENDBRANCH  67  68
ENDBRANCH  48  62
BRANCH  49  72
ATOM     72  C   UNL     1       2.017  -0.018 -10.700  1.00  0.00    -0.014 A 
ATOM     73  C   UNL     1       1.144   0.915 -11.284  1.00  0.00     0.010 A 
ATOM     74  C   UNL     1       3.382   0.304 -10.578  1.00  0.00     0.010 A 
ATOM     75  C   UNL     1       1.629   2.140 -11.753  1.00  0.00     0.020 A 
ATOM     76  C   UNL     1       3.867   1.535 -11.030  1.00  0.00     0.020 A 
ATOM     77  C   UNL     1       2.987   2.443 -11.623  1.00  0.00     0.054 A 
BRANCH  77  78
ATOM     78  S   UNL     1       3.580   4.060 -12.197  1.00  0.00     0.124 S 
ATOM     79  O   UNL     1       3.518   3.910 -13.648  1.00  0.00    -0.237 OA
ATOM     80  O   UNL     1       2.604   4.977 -11.614  1.00  0.00    -0.237 OA
ATOM     81  O   UNL     1       4.925   4.153 -11.633  1.00  0.00    -0.744 OA
ENDBRANCH  77  78
ENDBRANCH  49  72
BRANCH  61  82
ATOM     82  C   UNL     1      -0.487  -5.788 -13.753  1.00  0.00    -0.014 A 
ATOM     83  C   UNL     1       0.532  -6.110 -14.664  1.00  0.00     0.010 A 
ATOM     84  C   UNL     1      -1.831  -5.905 -14.156  1.00  0.00     0.010 A 
ATOM     85  C   UNL     1       0.214  -6.541 -15.955  1.00  0.00     0.020 A 
ATOM     86  C   UNL     1      -2.154  -6.359 -15.437  1.00  0.00     0.020 A 
ATOM     87  C   UNL     1      -1.128  -6.671 -16.331  1.00  0.00     0.054 A 
BRANCH  87  88
ATOM     88  S   UNL     1      -1.515  -7.322 -17.979  1.00  0.00     0.124 S 
ATOM     89  O   UNL     1      -1.197  -6.186 -18.839  1.00  0.00    -0.237 OA
ATOM     90  O   UNL     1      -0.615  -8.467 -18.092  1.00  0.00    -0.237 OA
ATOM     91  O   UNL     1      -2.934  -7.661 -17.894  1.00  0.00    -0.744 OA
ENDBRANCH  87  88
ENDBRANCH  61  82
ENDBRANCH  35  36
ENDBRANCH  28  30
ENDBRANCH  27  28
ENDBRANCH  26  27
ENDBRANCH   1  26
TORSDOF 17
