REMARK SMILES [NH3+][C@@H](CC(=O)OCCOC(=O)c1ccc(-c2c3nc(c(-c4ccc(S(=O)(=O)[O-])cc4)c4ccc([nH]4)c(-c4ccc(S(=O)(=O)[O-])cc4)c4nc(c(-c5ccc(S(=O)(=O)[O-])cc5)c5ccc2[nH]5)C=C4)C=C3)cc1)Cc1ccc(F)cc1
REMARK SMILES IDX 7 1 6 2 4 3 5 4 3 5 2 6 1 7 72 11 73 12 74 13 79 14 75 15
REMARK SMILES IDX 78 16 76 17 77 18 8 19 9 20 10 21 11 22 12 23 13 24 71 25
REMARK SMILES IDX 14 26 70 27 15 28 16 29 17 30 64 31 18 32 69 33 63 34 65 35
REMARK SMILES IDX 19 36 68 37 62 38 61 39 20 41 50 42 31 43 49 44 32 45 35 46
REMARK SMILES IDX 48 47 66 48 33 49 34 50 47 52 67 53 36 54 21 55 22 56 30 57
REMARK SMILES IDX 23 58 29 59 24 60 25 61 26 62 27 63 28 64 51 65 52 66 60 67
REMARK SMILES IDX 53 68 59 69 54 70 55 71 56 72 57 73 58 74 37 75 38 76 46 77
REMARK SMILES IDX 39 78 45 79 40 80 41 81 42 82 43 83 44 84
REMARK H PARENT 1 8 1 9 1 10 65 40 35 51
REMARK Flexibility Score: inf
ROOT
ATOM      1  C   UNL     1       0.602   3.774   0.308  1.00  0.00     0.274 C 
ENDROOT
BRANCH   1   2
ATOM      2  O   UNL     1       0.873   2.368   0.483  1.00  0.00    -0.462 OA
BRANCH   2   3
ATOM      3  C   UNL     1       1.342   2.009   1.706  1.00  0.00     0.311 C 
ATOM      4  O   UNL     1       1.536   2.788   2.633  1.00  0.00    -0.252 OA
BRANCH   3   5
ATOM      5  C   UNL     1       1.712   0.548   1.812  1.00  0.00     0.187 C 
BRANCH   5   6
ATOM      6  C   UNL     1       1.058  -0.466   0.862  1.00  0.00     0.196 C 
BRANCH   6   7
ATOM      7  N   UNL     1       1.415  -0.229  -0.544  1.00  0.00    -0.354 N 
ATOM      8  H   UNL     1       2.429  -0.165  -0.631  1.00  0.00     0.344 HD
ATOM      9  H   UNL     1       0.991   0.643  -0.860  1.00  0.00     0.344 HD
ATOM     10  H   UNL     1       1.072  -1.000  -1.117  1.00  0.00     0.344 HD
ENDBRANCH   6   7
BRANCH   6  11
ATOM     11  C   UNL     1      -0.473  -0.575   1.074  1.00  0.00     0.101 C 
BRANCH  11  12
ATOM     12  C   UNL     1      -1.121  -1.728   0.333  1.00  0.00    -0.042 A 
ATOM     13  C   UNL     1      -2.141  -1.484  -0.600  1.00  0.00     0.007 A 
ATOM     14  C   UNL     1      -0.727  -3.055   0.576  1.00  0.00     0.007 A 
ATOM     15  C   UNL     1      -2.725  -2.540  -1.303  1.00  0.00     0.039 A 
ATOM     16  C   UNL     1      -1.309  -4.109  -0.131  1.00  0.00     0.039 A 
ATOM     17  C   UNL     1      -2.298  -3.841  -1.068  1.00  0.00     0.123 A 
ATOM     18  F   UNL     1      -2.845  -4.851  -1.757  1.00  0.00    -0.207 F 
ENDBRANCH  11  12
ENDBRANCH   6  11
ENDBRANCH   5   6
ENDBRANCH   3   5
ENDBRANCH   2   3
ENDBRANCH   1   2
BRANCH   1  19
ATOM     19  C   UNL     1      -0.873   4.086   0.540  1.00  0.00     0.275 C 
BRANCH  19  20
ATOM     20  O   UNL     1      -1.247   3.725   1.879  1.00  0.00    -0.458 OA
BRANCH  20  21
ATOM     21  C   UNL     1      -2.272   2.851   1.988  1.00  0.00     0.338 C 
ATOM     22  O   UNL     1      -2.939   2.373   1.087  1.00  0.00    -0.246 OA
BRANCH  21  23
ATOM     23  C   UNL     1      -2.499   2.545   3.408  1.00  0.00     0.060 A 
ATOM     24  C   UNL     1      -1.557   1.807   4.129  1.00  0.00     0.016 A 
ATOM     25  C   UNL     1      -3.708   2.921   3.994  1.00  0.00     0.016 A 
ATOM     26  C   UNL     1      -1.841   1.410   5.436  1.00  0.00     0.010 A 
ATOM     27  C   UNL     1      -3.970   2.562   5.317  1.00  0.00     0.010 A 
ATOM     28  C   UNL     1      -3.050   1.782   6.040  1.00  0.00    -0.014 A 
BRANCH  28  29
ATOM     29  C   UNL     1      -3.381   1.341   7.419  1.00  0.00     0.031 A 
ATOM     30  C   UNL     1      -4.495   0.356   7.647  1.00  0.00     0.074 A 
ATOM     31  C   UNL     1      -2.707   1.851   8.467  1.00  0.00     0.049 A 
ATOM     32  N   UNL     1      -5.021  -0.049   8.774  1.00  0.00    -0.248 NA
ATOM     33  C   UNL     1      -5.103  -0.246   6.449  1.00  0.00     0.031 C 
ATOM     34  C   UNL     1      -1.597   2.802   8.380  1.00  0.00     0.029 A 
ATOM     35  N   UNL     1      -2.871   1.652   9.815  1.00  0.00    -0.354 N 
ATOM     36  C   UNL     1      -6.043  -0.923   8.424  1.00  0.00     0.074 A 
ATOM     37  C   UNL     1      -6.066  -0.987   6.978  1.00  0.00     0.031 C 
ATOM     38  C   UNL     1      -1.181   3.104   9.621  1.00  0.00     0.029 A 
ATOM     39  C   UNL     1      -2.024   2.408  10.589  1.00  0.00     0.049 A 
ATOM     40  H   UNL     1      -3.532   1.027  10.191  1.00  0.00     0.167 HD
ATOM     41  C   UNL     1      -6.888  -1.606   9.233  1.00  0.00     0.031 A 
ATOM     42  C   UNL     1      -1.953   2.553  11.926  1.00  0.00     0.031 A 
ATOM     43  C   UNL     1      -6.854  -1.553  10.671  1.00  0.00     0.049 A 
ATOM     44  C   UNL     1      -2.909   1.794  12.802  1.00  0.00     0.074 A 
ATOM     45  C   UNL     1      -7.655  -2.229  11.576  1.00  0.00     0.029 A 
ATOM     46  N   UNL     1      -5.973  -0.784  11.414  1.00  0.00    -0.354 N 
ATOM     47  N   UNL     1      -3.869   0.972  12.453  1.00  0.00    -0.248 NA
ATOM     48  C   UNL     1      -2.769   1.981  14.253  1.00  0.00     0.031 C 
ATOM     49  C   UNL     1      -7.278  -1.842  12.868  1.00  0.00     0.029 A 
ATOM     50  C   UNL     1      -6.217  -0.958  12.766  1.00  0.00     0.049 A 
ATOM     51  H   UNL     1      -5.276  -0.201  11.036  1.00  0.00     0.167 HD
ATOM     52  C   UNL     1      -4.441   0.534  13.641  1.00  0.00     0.074 A 
ATOM     53  C   UNL     1      -3.708   1.168  14.719  1.00  0.00     0.031 C 
ATOM     54  C   UNL     1      -5.481  -0.316  13.824  1.00  0.00     0.031 A 
BRANCH  41  55
ATOM     55  C   UNL     1      -7.948  -2.449   8.578  1.00  0.00    -0.014 A 
ATOM     56  C   UNL     1      -7.634  -3.684   7.985  1.00  0.00     0.010 A 
ATOM     57  C   UNL     1      -9.286  -2.015   8.595  1.00  0.00     0.010 A 
ATOM     58  C   UNL     1      -8.637  -4.458   7.393  1.00  0.00     0.020 A 
ATOM     59  C   UNL     1     -10.294  -2.795   8.021  1.00  0.00     0.020 A 
ATOM     60  C   UNL     1      -9.960  -4.005   7.410  1.00  0.00     0.054 A 
BRANCH  60  61
ATOM     61  S   UNL     1     -11.251  -5.037   6.659  1.00  0.00     0.124 S 
ATOM     62  O   UNL     1     -11.050  -4.780   5.235  1.00  0.00    -0.237 OA
ATOM     63  O   UNL     1     -10.895  -6.380   7.111  1.00  0.00    -0.237 OA
ATOM     64  O   UNL     1     -12.490  -4.503   7.220  1.00  0.00    -0.744 OA
ENDBRANCH  60  61
ENDBRANCH  41  55
BRANCH  42  65
ATOM     65  C   UNL     1      -0.952   3.481  12.513  1.00  0.00    -0.014 A 
ATOM     66  C   UNL     1       0.186   2.983  13.170  1.00  0.00     0.010 A 
ATOM     67  C   UNL     1      -1.123   4.872  12.393  1.00  0.00     0.010 A 
ATOM     68  C   UNL     1       1.133   3.862  13.706  1.00  0.00     0.020 A 
ATOM     69  C   UNL     1      -0.167   5.753  12.907  1.00  0.00     0.020 A 
ATOM     70  C   UNL     1       0.951   5.241  13.569  1.00  0.00     0.054 A 
BRANCH  70  71
ATOM     71  S   UNL     1       2.224   6.367  14.206  1.00  0.00     0.124 S 
ATOM     72  O   UNL     1       1.902   6.413  15.629  1.00  0.00    -0.237 OA
ATOM     73  O   UNL     1       3.464   5.677  13.860  1.00  0.00    -0.237 OA
ATOM     74  O   UNL     1       1.982   7.604  13.466  1.00  0.00    -0.744 OA
ENDBRANCH  70  71
ENDBRANCH  42  65
BRANCH  54  75
ATOM     75  C   UNL     1      -5.867  -0.629  15.243  1.00  0.00    -0.014 A 
ATOM     76  C   UNL     1      -6.578   0.300  16.023  1.00  0.00     0.010 A 
ATOM     77  C   UNL     1      -5.537  -1.881  15.793  1.00  0.00     0.010 A 
ATOM     78  C   UNL     1      -6.921  -0.004  17.343  1.00  0.00     0.020 A 
ATOM     79  C   UNL     1      -5.896  -2.196  17.105  1.00  0.00     0.020 A 
ATOM     80  C   UNL     1      -6.571  -1.248  17.878  1.00  0.00     0.054 A 
BRANCH  80  81
ATOM     81  S   UNL     1      -7.045  -1.636  19.586  1.00  0.00     0.124 S 
ATOM     82  O   UNL     1      -6.019  -0.934  20.351  1.00  0.00    -0.237 OA
ATOM     83  O   UNL     1      -8.393  -1.080  19.684  1.00  0.00    -0.237 OA
ATOM     84  O   UNL     1      -6.976  -3.094  19.639  1.00  0.00    -0.744 OA
ENDBRANCH  80  81
ENDBRANCH  54  75
ENDBRANCH  28  29
ENDBRANCH  21  23
ENDBRANCH  20  21
ENDBRANCH  19  20
ENDBRANCH   1  19
TORSDOF 18
