REMARK SMILES Cc1ccc(-c2cc(C[C@H]3CCCC3=O)ccc2[C@@H](C)C(=O)OCCOC(=O)c2ccc(-c3c4nc(c(-c5ccc(S(=O)(=O)[O-])cc5)c5ccc([nH]5)c(-c5ccc(S(=O)(=O)[O-])cc5)c5nc(c(-c6ccc(S(=O)(=O)[O-])cc6)c6ccc3[nH]6)C=C5)C=C4)cc2)cc1
REMARK SMILES IDX 24 1 23 2 21 3 22 4 19 5 20 6 18 7 6 8 7 9 8 10 17 11 16 12
REMARK SMILES IDX 5 13 1 14 2 15 3 16 90 17 4 18 89 19 9 20 10 21 11 22 14 23
REMARK SMILES IDX 12 24 13 25 15 26 25 27 26 28 27 29 28 30 29 31 30 32 88 33
REMARK SMILES IDX 31 34 87 35 32 36 33 37 34 38 81 39 35 40 86 41 80 42 82 43
REMARK SMILES IDX 36 44 85 45 79 46 78 47 37 49 67 50 48 51 66 52 49 53 52 54
REMARK SMILES IDX 65 55 83 56 50 57 51 58 64 60 84 61 53 62 38 63 39 64 47 65
REMARK SMILES IDX 40 66 46 67 41 68 42 69 43 70 44 71 45 72 68 73 69 74 77 75
REMARK SMILES IDX 70 76 76 77 71 78 72 79 73 80 74 81 75 82 54 83 55 84 63 85
REMARK SMILES IDX 56 86 62 87 57 88 58 89 59 90 60 91 61 92
REMARK H PARENT 82 48 52 59
REMARK Flexibility Score: inf
ROOT
ATOM      1  C   UNL     1      -6.123  -3.477   0.671  1.00  0.00     0.274 C 
ENDROOT
BRANCH   1   2
ATOM      2  O   UNL     1      -5.219  -2.364   0.753  1.00  0.00    -0.462 OA
BRANCH   2   3
ATOM      3  C   UNL     1      -5.420  -1.527   1.814  1.00  0.00     0.313 C 
ATOM      4  O   UNL     1      -6.362  -1.638   2.589  1.00  0.00    -0.252 OA
BRANCH   3   5
ATOM      5  C   UNL     1      -4.413  -0.359   1.806  1.00  0.00     0.127 C 
ATOM      6  C   UNL     1      -4.398   0.417   3.122  1.00  0.00     0.025 C 
BRANCH   5   7
ATOM      7  C   UNL     1      -4.760   0.527   0.622  1.00  0.00    -0.026 A 
ATOM      8  C   UNL     1      -3.856   0.747  -0.437  1.00  0.00    -0.014 A 
ATOM      9  C   UNL     1      -4.392   1.131  -1.678  1.00  0.00     0.012 A 
ATOM     10  C   UNL     1      -5.766   1.367  -1.843  1.00  0.00    -0.047 A 
ATOM     11  C   UNL     1      -6.102   0.931   0.498  1.00  0.00     0.005 A 
ATOM     12  C   UNL     1      -6.598   1.352  -0.723  1.00  0.00     0.004 A 
BRANCH   8  13
ATOM     13  C   UNL     1      -2.395   0.612  -0.298  1.00  0.00    -0.018 A 
ATOM     14  C   UNL     1       1.926   0.337  -0.030  1.00  0.00     0.044 C 
ATOM     15  C   UNL     1       0.433   0.452  -0.132  1.00  0.00    -0.051 A 
ATOM     16  C   UNL     1      -0.313  -0.596  -0.679  1.00  0.00     0.004 A 
ATOM     17  C   UNL     1      -0.244   1.566   0.369  1.00  0.00     0.004 A 
ATOM     18  C   UNL     1      -1.707  -0.506  -0.780  1.00  0.00     0.009 A 
ATOM     19  C   UNL     1      -1.641   1.642   0.289  1.00  0.00     0.009 A 
ENDBRANCH   8  13
BRANCH  10  20
ATOM     20  C   UNL     1      -6.362   1.599  -3.206  1.00  0.00     0.047 C 
BRANCH  20  21
ATOM     21  C   UNL     1      -7.087   0.397  -3.830  1.00  0.00     0.060 C 
ATOM     22  C   UNL     1      -6.224  -0.832  -4.128  1.00  0.00     0.012 C 
ATOM     23  C   UNL     1      -8.187  -0.182  -2.966  1.00  0.00     0.136 C 
ATOM     24  C   UNL     1      -6.507  -1.844  -3.028  1.00  0.00     0.009 C 
ATOM     25  C   UNL     1      -7.947  -1.621  -2.597  1.00  0.00     0.076 C 
ATOM     26  O   UNL     1      -9.195   0.438  -2.644  1.00  0.00    -0.299 OA
ENDBRANCH  20  21
ENDBRANCH  10  20
ENDBRANCH   5   7
ENDBRANCH   3   5
ENDBRANCH   2   3
ENDBRANCH   1   2
BRANCH   1  27
ATOM     27  C   UNL     1      -5.746  -4.406  -0.499  1.00  0.00     0.275 C 
BRANCH  27  28
ATOM     28  O   UNL     1      -4.499  -5.123  -0.392  1.00  0.00    -0.458 OA
BRANCH  28  29
ATOM     29  C   UNL     1      -3.397  -4.373  -0.116  1.00  0.00     0.338 C 
ATOM     30  O   UNL     1      -2.909  -3.577  -0.916  1.00  0.00    -0.246 OA
BRANCH  29  31
ATOM     31  C   UNL     1      -3.158  -4.452   1.351  1.00  0.00     0.060 A 
ATOM     32  C   UNL     1      -2.555  -3.388   2.039  1.00  0.00     0.016 A 
ATOM     33  C   UNL     1      -3.875  -5.421   2.054  1.00  0.00     0.016 A 
ATOM     34  C   UNL     1      -2.806  -3.211   3.409  1.00  0.00     0.010 A 
ATOM     35  C   UNL     1      -4.212  -5.185   3.365  1.00  0.00     0.010 A 
ATOM     36  C   UNL     1      -3.685  -4.083   4.058  1.00  0.00    -0.014 A 
BRANCH  36  37
ATOM     37  C   UNL     1      -3.930  -4.134   5.501  1.00  0.00     0.031 A 
ATOM     38  C   UNL     1      -4.748  -3.178   6.283  1.00  0.00     0.074 A 
ATOM     39  C   UNL     1      -3.424  -5.247   6.078  1.00  0.00     0.049 A 
ATOM     40  N   UNL     1      -4.716  -3.084   7.572  1.00  0.00    -0.248 NA
ATOM     41  C   UNL     1      -5.662  -2.216   5.690  1.00  0.00     0.031 C 
ATOM     42  C   UNL     1      -3.675  -5.811   7.391  1.00  0.00     0.029 A 
ATOM     43  N   UNL     1      -2.366  -6.014   5.574  1.00  0.00    -0.354 N 
ATOM     44  C   UNL     1      -5.767  -2.281   7.977  1.00  0.00     0.074 A 
ATOM     45  C   UNL     1      -6.266  -1.690   6.763  1.00  0.00     0.031 C 
ATOM     46  C   UNL     1      -2.620  -6.579   7.719  1.00  0.00     0.029 A 
ATOM     47  C   UNL     1      -1.613  -6.394   6.678  1.00  0.00     0.049 A 
ATOM     48  H   UNL     1      -2.192  -6.238   4.631  1.00  0.00     0.167 HD
ATOM     49  C   UNL     1      -6.173  -2.315   9.281  1.00  0.00     0.031 A 
ATOM     50  C   UNL     1      -0.343  -5.928   6.858  1.00  0.00     0.031 A 
ATOM     51  C   UNL     1      -5.250  -3.116  10.081  1.00  0.00     0.049 A 
ATOM     52  C   UNL     1      -0.241  -5.163   8.152  1.00  0.00     0.074 A 
ATOM     53  C   UNL     1      -5.287  -4.431  10.511  1.00  0.00     0.029 A 
ATOM     54  N   UNL     1      -3.945  -2.671  10.256  1.00  0.00    -0.354 N 
ATOM     55  N   UNL     1      -1.240  -4.533   8.710  1.00  0.00    -0.248 NA
ATOM     56  C   UNL     1       0.986  -5.090   8.934  1.00  0.00     0.031 C 
ATOM     57  C   UNL     1      -3.954  -4.817  10.815  1.00  0.00     0.029 A 
ATOM     58  C   UNL     1      -3.127  -3.723  10.618  1.00  0.00     0.049 A 
ATOM     59  H   UNL     1      -3.647  -1.740  10.138  1.00  0.00     0.167 HD
ATOM     60  C   UNL     1      -0.848  -4.081   9.940  1.00  0.00     0.074 A 
ATOM     61  C   UNL     1       0.564  -4.419  10.018  1.00  0.00     0.031 C 
ATOM     62  C   UNL     1      -1.705  -3.512  10.835  1.00  0.00     0.031 A 
BRANCH  49  63
ATOM     63  C   UNL     1      -7.527  -1.860   9.803  1.00  0.00    -0.014 A 
ATOM     64  C   UNL     1      -8.005  -2.387  11.026  1.00  0.00     0.010 A 
ATOM     65  C   UNL     1      -8.410  -0.997   9.127  1.00  0.00     0.010 A 
ATOM     66  C   UNL     1      -9.307  -2.144  11.497  1.00  0.00     0.020 A 
ATOM     67  C   UNL     1      -9.721  -0.752   9.580  1.00  0.00     0.020 A 
ATOM     68  C   UNL     1     -10.171  -1.347  10.754  1.00  0.00     0.054 A 
BRANCH  68  69
ATOM     69  S   UNL     1     -11.876  -1.114  11.327  1.00  0.00     0.124 S 
ATOM     70  O   UNL     1     -12.408  -2.474  11.291  1.00  0.00    -0.237 OA
ATOM     71  O   UNL     1     -11.691  -0.546  12.659  1.00  0.00    -0.237 OA
ATOM     72  O   UNL     1     -12.453  -0.201  10.341  1.00  0.00    -0.744 OA
ENDBRANCH  68  69
ENDBRANCH  49  63
BRANCH  50  73
ATOM     73  C   UNL     1       0.405  -5.606   5.600  1.00  0.00    -0.014 A 
ATOM     74  C   UNL     1       0.668  -6.669   4.705  1.00  0.00     0.010 A 
ATOM     75  C   UNL     1       0.518  -4.288   5.119  1.00  0.00     0.010 A 
ATOM     76  C   UNL     1       0.916  -6.430   3.349  1.00  0.00     0.020 A 
ATOM     77  C   UNL     1       0.783  -4.045   3.758  1.00  0.00     0.020 A 
ATOM     78  C   UNL     1       0.938  -5.119   2.877  1.00  0.00     0.054 A 
BRANCH  78  79
ATOM     79  S   UNL     1       0.995  -4.863   1.075  1.00  0.00     0.124 S 
ATOM     80  O   UNL     1       2.331  -5.344   0.736  1.00  0.00    -0.237 OA
ATOM     81  O   UNL     1      -0.112  -5.698   0.614  1.00  0.00    -0.237 OA
ATOM     82  O   UNL     1       0.792  -3.425   0.928  1.00  0.00    -0.744 OA
ENDBRANCH  78  79
ENDBRANCH  50  73
BRANCH  62  83
ATOM     83  C   UNL     1      -1.275  -2.803  12.089  1.00  0.00    -0.014 A 
ATOM     84  C   UNL     1      -0.032  -2.166  12.221  1.00  0.00     0.010 A 
ATOM     85  C   UNL     1      -2.204  -2.638  13.142  1.00  0.00     0.010 A 
ATOM     86  C   UNL     1       0.305  -1.471  13.386  1.00  0.00     0.020 A 
ATOM     87  C   UNL     1      -1.897  -1.905  14.289  1.00  0.00     0.020 A 
ATOM     88  C   UNL     1      -0.628  -1.352  14.416  1.00  0.00     0.054 A 
BRANCH  88  89
ATOM     89  S   UNL     1      -0.206  -0.408  15.900  1.00  0.00     0.124 S 
ATOM     90  O   UNL     1       0.351  -1.446  16.765  1.00  0.00    -0.237 OA
ATOM     91  O   UNL     1       0.755   0.575  15.405  1.00  0.00    -0.237 OA
ATOM     92  O   UNL     1      -1.489   0.145  16.326  1.00  0.00    -0.744 OA
ENDBRANCH  88  89
ENDBRANCH  62  83
ENDBRANCH  36  37
ENDBRANCH  29  31
ENDBRANCH  28  29
ENDBRANCH  27  28
ENDBRANCH   1  27
TORSDOF 18
