REMARK SMILES CCCCCCNC(=O)Nc1cccc(-c2ccc([C@@H](C)C(=O)OCCOC(=O)c3ccc(-c4c5nc(c(-c6ccc(S(=O)(=O)[O-])cc6)c6ccc([nH]6)c(-c6ccc(S(=O)(=O)[O-])cc6)c6nc(c(-c7ccc(S(=O)(=O)[O-])cc7)c7ccc4[nH]7)C=C6)C=C5)cc3)cc2F)c1
REMARK SMILES IDX 22 1 23 2 20 3 21 4 19 5 16 6 17 7 91 8 18 9 90 10 92 11
REMARK SMILES IDX 15 12 11 13 12 14 93 15 13 16 14 17 10 18 7 19 8 20 9 22
REMARK SMILES IDX 6 24 5 25 4 26 3 27 2 28 1 29 24 30 25 31 26 32 27 33 28 34
REMARK SMILES IDX 29 35 30 36 31 37 89 38 32 39 88 40 33 41 34 42 35 43 82 44
REMARK SMILES IDX 36 45 87 46 81 47 83 48 37 49 86 50 80 51 79 52 38 54 68 55
REMARK SMILES IDX 49 56 67 57 50 58 53 59 66 60 84 61 51 62 52 63 65 65 85 66
REMARK SMILES IDX 54 67 39 68 40 69 48 70 41 71 47 72 42 73 43 74 44 75 45 76
REMARK SMILES IDX 46 77 69 78 70 79 78 80 71 81 77 82 72 83 73 84 74 85 75 86
REMARK SMILES IDX 76 87 55 88 56 89 64 90 57 91 63 92 58 93 59 94 60 95 61 96
REMARK SMILES IDX 62 97
REMARK H PARENT 7 21 10 23 83 53 53 64
REMARK Flexibility Score: inf
ROOT
ATOM      1  C   UNL     1      -0.352  -4.995   3.756  1.00  0.00     0.313 C 
ATOM      2  O   UNL     1       0.260  -5.915   4.291  1.00  0.00    -0.252 OA
ENDROOT
BRANCH   1   3
ATOM      3  C   UNL     1      -1.854  -4.821   3.941  1.00  0.00     0.126 C 
ATOM      4  C   UNL     1      -2.596  -5.826   3.058  1.00  0.00     0.025 C 
BRANCH   3   5
ATOM      5  C   UNL     1      -2.412  -3.413   3.796  1.00  0.00    -0.031 A 
ATOM      6  C   UNL     1      -3.616  -0.844   3.564  1.00  0.00     0.018 A 
ATOM      7  C   UNL     1      -3.108  -1.514   2.439  1.00  0.00     0.012 A 
ATOM      8  C   UNL     1      -3.478  -1.471   4.805  1.00  0.00     0.131 A 
ATOM      9  C   UNL     1      -2.513  -2.777   2.552  1.00  0.00     0.005 A 
ATOM     10  C   UNL     1      -2.896  -2.733   4.925  1.00  0.00     0.044 A 
ATOM     11  F   UNL     1      -3.938  -0.877   5.917  1.00  0.00    -0.206 F 
BRANCH   6  12
ATOM     12  C   UNL     1      -4.249   0.474   3.422  1.00  0.00    -0.013 A 
ATOM     13  C   UNL     1      -4.191   2.885   3.777  1.00  0.00     0.043 A 
ATOM     14  C   UNL     1      -5.352   3.036   3.020  1.00  0.00     0.026 A 
ATOM     15  C   UNL     1      -3.699   1.604   4.045  1.00  0.00     0.035 A 
ATOM     16  C   UNL     1      -5.934   1.921   2.418  1.00  0.00     0.003 A 
ATOM     17  C   UNL     1      -5.371   0.655   2.598  1.00  0.00     0.009 A 
BRANCH  13  18
ATOM     18  N   UNL     1      -3.517   4.043   4.188  1.00  0.00    -0.308 N 
ATOM     19  N   UNL     1      -1.245   3.591   3.678  1.00  0.00    -0.338 N 
ATOM     20  C   UNL     1      -2.192   4.279   4.363  1.00  0.00     0.319 C 
ATOM     21  H   UNL     1      -0.326   3.709   4.009  1.00  0.00     0.165 HD
ATOM     22  O   UNL     1      -1.832   5.220   5.072  1.00  0.00    -0.249 OA
ATOM     23  H   UNL     1      -4.100   4.812   4.381  1.00  0.00     0.171 HD
BRANCH  19  24
ATOM     24  C   UNL     1      -1.375   2.706   2.534  1.00  0.00     0.117 C 
BRANCH  24  25
ATOM     25  C   UNL     1      -0.356   2.962   1.430  1.00  0.00     0.021 C 
BRANCH  25  26
ATOM     26  C   UNL     1       1.079   2.537   1.741  1.00  0.00     0.002 C 
BRANCH  26  27
ATOM     27  C   UNL     1       1.274   1.089   2.210  1.00  0.00    -0.000 C 
BRANCH  27  28
ATOM     28  C   UNL     1       0.619   0.002   1.353  1.00  0.00    -0.003 C 
ATOM     29  C   UNL     1       1.105  -0.026  -0.085  1.00  0.00     0.004 C 
ENDBRANCH  27  28
ENDBRANCH  26  27
ENDBRANCH  25  26
ENDBRANCH  24  25
ENDBRANCH  19  24
ENDBRANCH  13  18
ENDBRANCH   6  12
ENDBRANCH   3   5
ENDBRANCH   1   3
BRANCH   1  30
ATOM     30  O   UNL     1       0.215  -4.096   2.908  1.00  0.00    -0.462 OA
BRANCH  30  31
ATOM     31  C   UNL     1       1.634  -4.239   2.692  1.00  0.00     0.274 C 
BRANCH  31  32
ATOM     32  C   UNL     1       2.450  -3.238   3.515  1.00  0.00     0.275 C 
BRANCH  32  33
ATOM     33  O   UNL     1       2.311  -3.463   4.927  1.00  0.00    -0.458 OA
BRANCH  33  34
ATOM     34  C   UNL     1       1.344  -2.726   5.523  1.00  0.00     0.338 C 
ATOM     35  O   UNL     1       0.620  -1.897   5.001  1.00  0.00    -0.246 OA
BRANCH  34  36
ATOM     36  C   UNL     1       1.193  -3.157   6.920  1.00  0.00     0.060 A 
ATOM     37  C   UNL     1       0.020  -3.824   7.276  1.00  0.00     0.016 A 
ATOM     38  C   UNL     1       2.145  -2.830   7.885  1.00  0.00     0.016 A 
ATOM     39  C   UNL     1      -0.226  -4.145   8.606  1.00  0.00     0.010 A 
ATOM     40  C   UNL     1       1.905  -3.166   9.222  1.00  0.00     0.010 A 
ATOM     41  C   UNL     1       0.709  -3.807   9.592  1.00  0.00    -0.014 A 
BRANCH  41  42
ATOM     42  C   UNL     1       0.397  -4.080  11.016  1.00  0.00     0.031 A 
ATOM     43  C   UNL     1       0.018  -2.948  11.929  1.00  0.00     0.074 A 
ATOM     44  C   UNL     1       0.415  -5.345  11.475  1.00  0.00     0.049 A 
ATOM     45  N   UNL     1      -0.255  -2.976  13.208  1.00  0.00    -0.248 NA
ATOM     46  C   UNL     1      -0.064  -1.609  11.323  1.00  0.00     0.031 C 
ATOM     47  C   UNL     1       0.721  -6.532  10.673  1.00  0.00     0.029 A 
ATOM     48  N   UNL     1       0.162  -5.844  12.727  1.00  0.00    -0.354 N 
ATOM     49  C   UNL     1      -0.520  -1.660  13.566  1.00  0.00     0.074 A 
ATOM     50  C   UNL     1      -0.361  -0.856  12.373  1.00  0.00     0.031 C 
ATOM     51  C   UNL     1       0.623  -7.622  11.452  1.00  0.00     0.029 A 
ATOM     52  C   UNL     1       0.292  -7.209  12.813  1.00  0.00     0.049 A 
ATOM     53  H   UNL     1      -0.090  -5.277  13.492  1.00  0.00     0.167 HD
ATOM     54  C   UNL     1      -0.866  -1.166  14.780  1.00  0.00     0.031 A 
ATOM     55  C   UNL     1       0.175  -8.033  13.872  1.00  0.00     0.031 A 
ATOM     56  C   UNL     1      -1.026  -1.968  15.964  1.00  0.00     0.049 A 
ATOM     57  C   UNL     1      -0.163  -7.455  15.218  1.00  0.00     0.074 A 
ATOM     58  C   UNL     1      -1.375  -1.561  17.240  1.00  0.00     0.029 A 
ATOM     59  N   UNL     1      -0.850  -3.343  16.017  1.00  0.00    -0.354 N 
ATOM     60  N   UNL     1      -0.398  -6.206  15.542  1.00  0.00    -0.248 NA
ATOM     61  C   UNL     1      -0.251  -8.399  16.341  1.00  0.00     0.031 C 
ATOM     62  C   UNL     1      -1.372  -2.686  18.074  1.00  0.00     0.029 A 
ATOM     63  C   UNL     1      -1.066  -3.799  17.307  1.00  0.00     0.049 A 
ATOM     64  H   UNL     1      -0.607  -3.911  15.251  1.00  0.00     0.167 HD
ATOM     65  C   UNL     1      -0.679  -6.216  16.904  1.00  0.00     0.074 A 
ATOM     66  C   UNL     1      -0.600  -7.596  17.338  1.00  0.00     0.031 C 
ATOM     67  C   UNL     1      -0.977  -5.176  17.721  1.00  0.00     0.031 A 
BRANCH  54  68
ATOM     68  C   UNL     1      -1.052   0.323  14.891  1.00  0.00    -0.014 A 
ATOM     69  C   UNL     1      -2.187   0.959  14.357  1.00  0.00     0.010 A 
ATOM     70  C   UNL     1      -0.084   1.095  15.558  1.00  0.00     0.010 A 
ATOM     71  C   UNL     1      -2.331   2.347  14.455  1.00  0.00     0.020 A 
ATOM     72  C   UNL     1      -0.235   2.479  15.677  1.00  0.00     0.020 A 
ATOM     73  C   UNL     1      -1.349   3.099  15.108  1.00  0.00     0.054 A 
BRANCH  73  74
ATOM     74  S   UNL     1      -1.561   4.896  15.235  1.00  0.00     0.124 S 
ATOM     75  O   UNL     1      -1.197   5.337  13.891  1.00  0.00    -0.237 OA
ATOM     76  O   UNL     1      -2.973   5.033  15.580  1.00  0.00    -0.237 OA
ATOM     77  O   UNL     1      -0.627   5.280  16.291  1.00  0.00    -0.744 OA
ENDBRANCH  73  74
ENDBRANCH  54  68
BRANCH  55  78
ATOM     78  C   UNL     1       0.399  -9.493  13.701  1.00  0.00    -0.014 A 
ATOM     79  C   UNL     1      -0.677 -10.395  13.765  1.00  0.00     0.010 A 
ATOM     80  C   UNL     1       1.694  -9.987  13.458  1.00  0.00     0.010 A 
ATOM     81  C   UNL     1      -0.462 -11.766  13.599  1.00  0.00     0.020 A 
ATOM     82  C   UNL     1       1.910 -11.354  13.268  1.00  0.00     0.020 A 
ATOM     83  C   UNL     1       0.831 -12.237  13.350  1.00  0.00     0.054 A 
BRANCH  83  84
ATOM     84  S   UNL     1       1.083 -14.013  13.076  1.00  0.00     0.124 S 
ATOM     85  O   UNL     1       1.037 -14.539  14.436  1.00  0.00    -0.237 OA
ATOM     86  O   UNL     1      -0.047 -14.368  12.221  1.00  0.00    -0.237 OA
ATOM     87  O   UNL     1       2.389 -14.074  12.423  1.00  0.00    -0.744 OA
ENDBRANCH  83  84
ENDBRANCH  55  78
BRANCH  67  88
ATOM     88  C   UNL     1      -1.264  -5.497  19.162  1.00  0.00    -0.014 A 
ATOM     89  C   UNL     1      -0.228  -5.831  20.052  1.00  0.00     0.010 A 
ATOM     90  C   UNL     1      -2.585  -5.428  19.639  1.00  0.00     0.010 A 
ATOM     91  C   UNL     1      -0.513  -6.126  21.388  1.00  0.00     0.020 A 
ATOM     92  C   UNL     1      -2.871  -5.700  20.979  1.00  0.00     0.020 A 
ATOM     93  C   UNL     1      -1.834  -6.064  21.842  1.00  0.00     0.054 A 
BRANCH  93  94
ATOM     94  S   UNL     1      -2.181  -6.420  23.587  1.00  0.00     0.124 S 
ATOM     95  O   UNL     1      -2.125  -7.879  23.615  1.00  0.00    -0.237 OA
ATOM     96  O   UNL     1      -1.091  -5.736  24.280  1.00  0.00    -0.237 OA
ATOM     97  O   UNL     1      -3.506  -5.842  23.800  1.00  0.00    -0.744 OA
ENDBRANCH  93  94
ENDBRANCH  67  88
ENDBRANCH  41  42
ENDBRANCH  34  36
ENDBRANCH  33  34
ENDBRANCH  32  33
ENDBRANCH  31  32
ENDBRANCH  30  31
ENDBRANCH   1  30
TORSDOF 22
