REMARK SMILES Cc1ccc(C2=NN(C(=O)CCC(=O)OCCOC(=O)c3ccc(-c4c5nc(c(-c6ccc(S(=O)(=O)[O-])cc6)c6ccc([nH]6)c(-c6ccc(S(=O)(=O)[O-])cc6)c6nc(c(-c7ccc(S(=O)(=O)[O-])cc7)c7ccc4[nH]7)C=C6)C=C5)cc3)[C@H](C[C@@H]3C=c4cccc(C)c4=NC3=O)C2)cc1
REMARK SMILES IDX 16 1 15 2 13 3 14 4 12 5 11 6 9 7 10 8 8 9 6 10 7 11 95 12
REMARK SMILES IDX 81 13 5 14 1 15 2 16 3 17 97 18 4 19 96 20 82 21 83 22 84 23
REMARK SMILES IDX 93 24 85 25 92 26 94 27 86 28 91 29 87 30 89 31 88 32 90 33
REMARK SMILES IDX 17 34 18 35 19 36 20 37 21 38 22 39 80 40 23 41 79 42 24 43
REMARK SMILES IDX 25 44 26 45 73 46 27 47 78 48 72 49 74 50 28 51 77 52 71 53
REMARK SMILES IDX 70 54 29 56 59 57 40 58 58 59 41 60 44 61 57 62 75 63 42 64
REMARK SMILES IDX 43 65 56 67 76 68 45 69 30 70 31 71 39 72 32 73 38 74 33 75
REMARK SMILES IDX 34 76 35 77 36 78 37 79 60 80 61 81 69 82 62 83 68 84 63 85
REMARK SMILES IDX 64 86 65 87 66 88 67 89 46 90 47 91 55 92 48 93 54 94 49 95
REMARK SMILES IDX 50 96 51 97 52 98 53 99
REMARK H PARENT 74 55 44 66
REMARK Flexibility Score: inf
ROOT
ATOM      1  C   UNL     1      -4.865   2.046  -1.510  1.00  0.00     0.274 C 
ENDROOT
BRANCH   1   2
ATOM      2  O   UNL     1      -5.240   1.830  -0.122  1.00  0.00    -0.462 OA
BRANCH   2   3
ATOM      3  C   UNL     1      -6.289   1.061   0.222  1.00  0.00     0.306 C 
ATOM      4  O   UNL     1      -7.005   0.491  -0.564  1.00  0.00    -0.252 OA
BRANCH   3   5
ATOM      5  C   UNL     1      -6.419   0.767   1.676  1.00  0.00     0.132 C 
BRANCH   5   6
ATOM      6  C   UNL     1      -6.725  -0.712   1.783  1.00  0.00     0.114 C 
BRANCH   6   7
ATOM      7  C   UNL     1      -5.432  -1.495   1.787  1.00  0.00     0.243 C 
ATOM      8  O   UNL     1      -5.129  -2.072   2.841  1.00  0.00    -0.273 OA
BRANCH   7   9
ATOM      9  N   UNL     1      -4.589  -1.512   0.674  1.00  0.00    -0.230 N 
ATOM     10  C   UNL     1      -2.613  -1.003  -0.021  1.00  0.00     0.070 C 
ATOM     11  N   UNL     1      -3.287  -1.255   1.045  1.00  0.00    -0.174 NA
ATOM     12  C   UNL     1      -3.297  -1.229  -1.318  1.00  0.00     0.086 C 
ATOM     13  C   UNL     1      -4.736  -1.351  -0.821  1.00  0.00     0.118 C 
BRANCH  10  14
ATOM     14  C   UNL     1      -1.216  -0.633   0.012  1.00  0.00    -0.002 A 
ATOM     15  C   UNL     1       2.952   0.226   0.009  1.00  0.00     0.044 C 
ATOM     16  C   UNL     1       1.481  -0.053   0.029  1.00  0.00    -0.051 A 
ATOM     17  C   UNL     1       1.048  -1.387   0.050  1.00  0.00     0.004 A 
ATOM     18  C   UNL     1       0.541   0.991   0.027  1.00  0.00     0.004 A 
ATOM     19  C   UNL     1      -0.304  -1.680   0.046  1.00  0.00     0.010 A 
ATOM     20  C   UNL     1      -0.822   0.704   0.019  1.00  0.00     0.010 A 
ENDBRANCH  10  14
BRANCH  13  21
ATOM     21  C   UNL     1      -5.519  -2.324  -1.741  1.00  0.00     0.045 C 
BRANCH  21  22
ATOM     22  C   UNL     1      -6.998  -2.546  -1.419  1.00  0.00     0.106 C 
ATOM     23  C   UNL     1      -7.069  -3.280  -0.134  1.00  0.00    -0.003 C 
ATOM     24  C   UNL     1      -7.786  -3.275  -2.525  1.00  0.00     0.253 C 
ATOM     25  C   UNL     1      -8.062  -4.081   0.206  1.00  0.00    -0.003 A 
ATOM     26  N   UNL     1      -8.763  -4.189  -2.160  1.00  0.00    -0.212 NA
ATOM     27  O   UNL     1      -7.520  -3.075  -3.709  1.00  0.00    -0.272 OA
ATOM     28  C   UNL     1      -8.258  -4.507   1.562  1.00  0.00     0.010 A 
ATOM     29  C   UNL     1      -8.876  -4.569  -0.926  1.00  0.00     0.077 A 
ATOM     30  C   UNL     1      -9.162  -5.451   1.827  1.00  0.00     0.001 A 
ATOM     31  C   UNL     1      -9.764  -5.720  -0.544  1.00  0.00    -0.025 A 
ATOM     32  C   UNL     1      -9.860  -6.106   0.744  1.00  0.00     0.005 A 
ATOM     33  C   UNL     1     -10.349  -6.494  -1.677  1.00  0.00     0.047 C 
ENDBRANCH  21  22
ENDBRANCH  13  21
ENDBRANCH   7   9
ENDBRANCH   6   7
ENDBRANCH   5   6
ENDBRANCH   3   5
ENDBRANCH   2   3
ENDBRANCH   1   2
BRANCH   1  34
ATOM     34  C   UNL     1      -5.475   1.393  -2.809  1.00  0.00     0.275 C 
BRANCH  34  35
ATOM     35  O   UNL     1      -6.851   1.016  -3.189  1.00  0.00    -0.458 OA
BRANCH  35  36
ATOM     36  C   UNL     1      -8.123   1.173  -2.697  1.00  0.00     0.338 C 
ATOM     37  O   UNL     1      -8.947   0.276  -2.802  1.00  0.00    -0.246 OA
BRANCH  36  38
ATOM     38  C   UNL     1      -8.335   2.390  -1.888  1.00  0.00     0.060 A 
ATOM     39  C   UNL     1      -9.065   2.405  -0.673  1.00  0.00     0.016 A 
ATOM     40  C   UNL     1      -7.458   3.390  -2.188  1.00  0.00     0.016 A 
ATOM     41  C   UNL     1      -8.760   3.354   0.318  1.00  0.00     0.010 A 
ATOM     42  C   UNL     1      -6.946   4.036  -1.113  1.00  0.00     0.010 A 
ATOM     43  C   UNL     1      -7.637   4.143   0.107  1.00  0.00    -0.014 A 
BRANCH  43  44
ATOM     44  C   UNL     1      -7.113   5.287   0.859  1.00  0.00     0.031 A 
ATOM     45  C   UNL     1      -6.454   5.199   2.179  1.00  0.00     0.074 A 
ATOM     46  C   UNL     1      -6.953   6.352   0.025  1.00  0.00     0.049 A 
ATOM     47  N   UNL     1      -6.236   6.204   2.951  1.00  0.00    -0.248 NA
ATOM     48  C   UNL     1      -5.938   3.970   2.768  1.00  0.00     0.031 C 
ATOM     49  C   UNL     1      -6.079   7.502   0.068  1.00  0.00     0.029 A 
ATOM     50  N   UNL     1      -7.588   6.533  -1.220  1.00  0.00    -0.354 N 
ATOM     51  C   UNL     1      -5.279   5.822   3.881  1.00  0.00     0.074 A 
ATOM     52  C   UNL     1      -5.257   4.388   3.843  1.00  0.00     0.031 C 
ATOM     53  C   UNL     1      -6.514   8.399  -0.848  1.00  0.00     0.029 A 
ATOM     54  C   UNL     1      -7.755   7.880  -1.427  1.00  0.00     0.049 A 
ATOM     55  H   UNL     1      -7.864   5.816  -1.835  1.00  0.00     0.167 HD
ATOM     56  C   UNL     1      -4.456   6.767   4.417  1.00  0.00     0.031 A 
ATOM     57  C   UNL     1      -9.032   8.354  -1.290  1.00  0.00     0.031 A 
ATOM     58  C   UNL     1      -4.737   8.050   3.782  1.00  0.00     0.049 A 
ATOM     59  C   UNL     1      -9.072   9.177  -0.026  1.00  0.00     0.074 A 
ATOM     60  C   UNL     1      -4.108   8.734   2.757  1.00  0.00     0.029 A 
ATOM     61  N   UNL     1      -6.001   8.599   3.918  1.00  0.00    -0.354 N 
ATOM     62  N   UNL     1      -8.318   8.952   1.018  1.00  0.00    -0.248 NA
ATOM     63  C   UNL     1      -9.843  10.405   0.087  1.00  0.00     0.031 C 
ATOM     64  C   UNL     1      -5.051   9.654   2.219  1.00  0.00     0.029 A 
ATOM     65  C   UNL     1      -6.244   9.513   2.914  1.00  0.00     0.049 A 
ATOM     66  H   UNL     1      -6.638   8.368   4.633  1.00  0.00     0.167 HD
ATOM     67  C   UNL     1      -8.349  10.046   1.835  1.00  0.00     0.074 A 
ATOM     68  C   UNL     1      -9.363  10.903   1.239  1.00  0.00     0.031 C 
ATOM     69  C   UNL     1      -7.511  10.225   2.899  1.00  0.00     0.031 A 
BRANCH  56  70
ATOM     70  C   UNL     1      -3.234   6.564   5.291  1.00  0.00    -0.014 A 
ATOM     71  C   UNL     1      -2.310   7.631   5.396  1.00  0.00     0.010 A 
ATOM     72  C   UNL     1      -2.948   5.423   6.065  1.00  0.00     0.010 A 
ATOM     73  C   UNL     1      -1.166   7.570   6.199  1.00  0.00     0.020 A 
ATOM     74  C   UNL     1      -1.791   5.345   6.875  1.00  0.00     0.020 A 
ATOM     75  C   UNL     1      -0.911   6.425   6.940  1.00  0.00     0.054 A 
BRANCH  75  76
ATOM     76  S   UNL     1       0.557   6.407   8.005  1.00  0.00     0.124 S 
ATOM     77  O   UNL     1       1.643   6.595   7.045  1.00  0.00    -0.237 OA
ATOM     78  O   UNL     1       0.311   7.535   8.900  1.00  0.00    -0.237 OA
ATOM     79  O   UNL     1       0.514   5.091   8.638  1.00  0.00    -0.744 OA
ENDBRANCH  75  76
ENDBRANCH  56  70
BRANCH  57  80
ATOM     80  C   UNL     1     -10.092   7.387  -1.793  1.00  0.00    -0.014 A 
ATOM     81  C   UNL     1     -10.094   7.111  -3.185  1.00  0.00     0.010 A 
ATOM     82  C   UNL     1     -10.729   6.448  -0.950  1.00  0.00     0.010 A 
ATOM     83  C   UNL     1     -10.593   5.904  -3.700  1.00  0.00     0.020 A 
ATOM     84  C   UNL     1     -11.246   5.237  -1.469  1.00  0.00     0.020 A 
ATOM     85  C   UNL     1     -11.142   4.959  -2.836  1.00  0.00     0.054 A 
BRANCH  85  86
ATOM     86  S   UNL     1     -11.513   3.302  -3.513  1.00  0.00     0.124 S 
ATOM     87  O   UNL     1     -12.686   3.564  -4.341  1.00  0.00    -0.237 OA
ATOM     88  O   UNL     1     -10.282   3.006  -4.243  1.00  0.00    -0.237 OA
ATOM     89  O   UNL     1     -11.755   2.498  -2.319  1.00  0.00    -0.744 OA
ENDBRANCH  85  86
ENDBRANCH  57  80
BRANCH  69  90
ATOM     90  C   UNL     1      -7.789  11.145   4.056  1.00  0.00    -0.014 A 
ATOM     91  C   UNL     1      -9.048  11.698   4.306  1.00  0.00     0.010 A 
ATOM     92  C   UNL     1      -6.794  11.324   5.053  1.00  0.00     0.010 A 
ATOM     93  C   UNL     1      -9.285  12.462   5.448  1.00  0.00     0.020 A 
ATOM     94  C   UNL     1      -7.044  12.012   6.235  1.00  0.00     0.020 A 
ATOM     95  C   UNL     1      -8.282  12.612   6.404  1.00  0.00     0.054 A 
BRANCH  95  96
ATOM     96  S   UNL     1      -8.632  13.574   7.886  1.00  0.00     0.124 S 
ATOM     97  O   UNL     1      -8.479  14.939   7.390  1.00  0.00    -0.237 OA
ATOM     98  O   UNL     1      -9.999  13.173   8.212  1.00  0.00    -0.237 OA
ATOM     99  O   UNL     1      -7.615  13.131   8.835  1.00  0.00    -0.744 OA
ENDBRANCH  95  96
ENDBRANCH  69  90
ENDBRANCH  43  44
ENDBRANCH  36  38
ENDBRANCH  35  36
ENDBRANCH  34  35
ENDBRANCH   1  34
TORSDOF 20
