REMARK SMILES CS(=O)(=O)c1ccc(C2=NN(c3ccc(C(=O)OCCOC(=O)c4ccc(-c5c6nc(c(-c7ccc(S(=O)(=O)[O-])cc7)c7ccc([nH]7)c(-c7ccc(S(=O)(=O)[O-])cc7)c7nc(c(-c8ccc(S(=O)(=O)[O-])cc8)c8ccc5[nH]8)C=C7)C=C6)cc4)cc3)[C@H](c3ccccc3)C2)cc1
REMARK SMILES IDX 19 1 18 2 16 3 17 4 15 5 12 6 13 7 85 8 14 9 84 10 11 11
REMARK SMILES IDX 9 12 10 13 93 14 86 15 8 16 5 17 6 18 95 19 7 20 94 21 2 22
REMARK SMILES IDX 1 23 3 24 4 25 87 26 88 27 92 28 89 29 91 30 90 31 20 32
REMARK SMILES IDX 21 33 22 34 23 35 24 36 25 37 83 38 26 39 82 40 27 41 28 42
REMARK SMILES IDX 29 43 76 44 30 45 81 46 75 47 77 48 31 49 80 50 74 51 73 52
REMARK SMILES IDX 32 54 62 55 43 56 61 57 44 58 47 59 60 60 78 61 45 62 46 63
REMARK SMILES IDX 59 65 79 66 48 67 33 68 34 69 42 70 35 71 41 72 36 73 37 74
REMARK SMILES IDX 38 75 39 76 40 77 63 78 64 79 72 80 65 81 71 82 66 83 67 84
REMARK SMILES IDX 68 85 69 86 70 87 49 88 50 89 58 90 51 91 57 92 52 93 53 94
REMARK SMILES IDX 54 95 55 96 56 97
REMARK H PARENT 77 53 47 64
REMARK Flexibility Score: inf
ROOT
ATOM      1  C   UNL     1       9.148   0.416  13.008  1.00  0.00     0.275 C 
ENDROOT
BRANCH   1   2
ATOM      2  O   UNL     1       7.941   0.493  12.226  1.00  0.00    -0.458 OA
BRANCH   2   3
ATOM      3  C   UNL     1       7.693   1.691  11.643  1.00  0.00     0.338 C 
ATOM      4  O   UNL     1       8.357   2.708  11.772  1.00  0.00    -0.246 OA
BRANCH   3   5
ATOM      5  C   UNL     1       6.513   1.615  10.746  1.00  0.00     0.060 A 
ATOM      6  C   UNL     1       4.254   1.646   9.074  1.00  0.00     0.060 A 
ATOM      7  C   UNL     1       5.283   2.574   8.886  1.00  0.00     0.029 A 
ATOM      8  C   UNL     1       4.395   0.670  10.069  1.00  0.00     0.029 A 
ATOM      9  C   UNL     1       6.387   2.579   9.736  1.00  0.00     0.018 A 
ATOM     10  C   UNL     1       5.520   0.645  10.900  1.00  0.00     0.018 A 
BRANCH   6  11
ATOM     11  N   UNL     1       3.042   1.766   8.385  1.00  0.00    -0.257 N 
ATOM     12  C   UNL     1       2.110   2.251   6.526  1.00  0.00     0.071 C 
ATOM     13  N   UNL     1       3.026   1.500   7.052  1.00  0.00    -0.176 NA
ATOM     14  C   UNL     1       1.423   3.205   7.463  1.00  0.00     0.091 C 
ATOM     15  C   UNL     1       2.153   2.875   8.771  1.00  0.00     0.144 C 
BRANCH  12  16
ATOM     16  C   UNL     1       1.725   2.150   5.106  1.00  0.00    -0.002 A 
ATOM     17  C   UNL     1       0.915   1.831   2.458  1.00  0.00     0.067 A 
ATOM     18  C   UNL     1       1.294   0.711   3.201  1.00  0.00     0.021 A 
ATOM     19  C   UNL     1       0.963   3.112   3.025  1.00  0.00     0.021 A 
ATOM     20  C   UNL     1       1.712   0.877   4.522  1.00  0.00     0.011 A 
ATOM     21  C   UNL     1       1.357   3.272   4.358  1.00  0.00     0.011 A 
BRANCH  17  22
ATOM     22  S   UNL     1       0.350   1.665   0.780  1.00  0.00     0.175 S 
ATOM     23  C   UNL     1       1.161   0.241   0.106  1.00  0.00     0.163 C 
ATOM     24  O   UNL     1       0.835   2.825   0.056  1.00  0.00    -0.224 OA
ATOM     25  O   UNL     1      -1.071   1.379   0.862  1.00  0.00    -0.224 OA
ENDBRANCH  17  22
ENDBRANCH  12  16
BRANCH  15  26
ATOM     26  C   UNL     1       1.332   2.466   9.986  1.00  0.00    -0.023 A 
ATOM     27  C   UNL     1       0.092   1.818   9.902  1.00  0.00     0.006 A 
ATOM     28  C   UNL     1       1.902   2.638  11.264  1.00  0.00     0.006 A 
ATOM     29  C   UNL     1      -0.554   1.363  11.056  1.00  0.00     0.000 A 
ATOM     30  C   UNL     1       1.271   2.157  12.412  1.00  0.00     0.000 A 
ATOM     31  C   UNL     1       0.039   1.522  12.307  1.00  0.00     0.000 A 
ENDBRANCH  15  26
ENDBRANCH   6  11
ENDBRANCH   3   5
ENDBRANCH   2   3
ENDBRANCH   1   2
BRANCH   1  32
ATOM     32  C   UNL     1      10.262  -0.276  12.224  1.00  0.00     0.275 C 
BRANCH  32  33
ATOM     33  O   UNL     1      10.697   0.543  11.124  1.00  0.00    -0.458 OA
BRANCH  33  34
ATOM     34  C   UNL     1      10.245   0.166   9.906  1.00  0.00     0.338 C 
ATOM     35  O   UNL     1       9.550  -0.798   9.636  1.00  0.00    -0.246 OA
BRANCH  34  36
ATOM     36  C   UNL     1      10.700   1.135   8.900  1.00  0.00     0.060 A 
ATOM     37  C   UNL     1       9.963   2.302   8.704  1.00  0.00     0.016 A 
ATOM     38  C   UNL     1      11.782   0.839   8.075  1.00  0.00     0.016 A 
ATOM     39  C   UNL     1      10.262   3.154   7.644  1.00  0.00     0.010 A 
ATOM     40  C   UNL     1      12.126   1.731   7.055  1.00  0.00     0.010 A 
ATOM     41  C   UNL     1      11.355   2.885   6.811  1.00  0.00    -0.014 A 
BRANCH  41  42
ATOM     42  C   UNL     1      11.688   3.773   5.665  1.00  0.00     0.031 A 
ATOM     43  C   UNL     1      11.686   3.212   4.267  1.00  0.00     0.074 A 
ATOM     44  C   UNL     1      12.029   5.062   5.869  1.00  0.00     0.049 A 
ATOM     45  N   UNL     1      12.190   3.720   3.172  1.00  0.00    -0.248 NA
ATOM     46  C   UNL     1      11.045   1.899   4.080  1.00  0.00     0.031 C 
ATOM     47  C   UNL     1      12.007   5.757   7.159  1.00  0.00     0.029 A 
ATOM     48  N   UNL     1      12.479   6.017   4.989  1.00  0.00    -0.354 N 
ATOM     49  C   UNL     1      11.992   2.760   2.184  1.00  0.00     0.074 A 
ATOM     50  C   UNL     1      11.307   1.648   2.804  1.00  0.00     0.031 C 
ATOM     51  C   UNL     1      12.416   7.024   6.985  1.00  0.00     0.029 A 
ATOM     52  C   UNL     1      12.814   7.207   5.594  1.00  0.00     0.049 A 
ATOM     53  H   UNL     1      12.554   5.865   4.019  1.00  0.00     0.167 HD
ATOM     54  C   UNL     1      12.365   2.803   0.883  1.00  0.00     0.031 A 
ATOM     55  C   UNL     1      13.428   8.302   5.102  1.00  0.00     0.031 A 
ATOM     56  C   UNL     1      13.000   3.937   0.266  1.00  0.00     0.049 A 
ATOM     57  C   UNL     1      13.874   8.306   3.665  1.00  0.00     0.074 A 
ATOM     58  C   UNL     1      13.388   4.091  -1.054  1.00  0.00     0.029 A 
ATOM     59  N   UNL     1      13.326   5.114   0.920  1.00  0.00    -0.354 N 
ATOM     60  N   UNL     1      13.716   7.378   2.752  1.00  0.00    -0.248 NA
ATOM     61  C   UNL     1      14.597   9.497   3.196  1.00  0.00     0.031 C 
ATOM     62  C   UNL     1      13.990   5.345  -1.187  1.00  0.00     0.029 A 
ATOM     63  C   UNL     1      13.928   5.992   0.037  1.00  0.00     0.049 A 
ATOM     64  H   UNL     1      13.155   5.298   1.872  1.00  0.00     0.167 HD
ATOM     65  C   UNL     1      14.294   7.886   1.594  1.00  0.00     0.074 A 
ATOM     66  C   UNL     1      14.800   9.203   1.918  1.00  0.00     0.031 C 
ATOM     67  C   UNL     1      14.398   7.311   0.372  1.00  0.00     0.031 A 
BRANCH  54  68
ATOM     68  C   UNL     1      12.146   1.576   0.040  1.00  0.00    -0.014 A 
ATOM     69  C   UNL     1      10.871   1.217  -0.427  1.00  0.00     0.010 A 
ATOM     70  C   UNL     1      13.261   0.814  -0.360  1.00  0.00     0.010 A 
ATOM     71  C   UNL     1      10.712   0.106  -1.262  1.00  0.00     0.020 A 
ATOM     72  C   UNL     1      13.110  -0.282  -1.213  1.00  0.00     0.020 A 
ATOM     73  C   UNL     1      11.832  -0.636  -1.650  1.00  0.00     0.054 A 
BRANCH  73  74
ATOM     74  S   UNL     1      11.604  -2.042  -2.775  1.00  0.00     0.124 S 
ATOM     75  O   UNL     1      11.004  -3.039  -1.892  1.00  0.00    -0.237 OA
ATOM     76  O   UNL     1      10.715  -1.494  -3.797  1.00  0.00    -0.237 OA
ATOM     77  O   UNL     1      12.958  -2.347  -3.230  1.00  0.00    -0.744 OA
ENDBRANCH  73  74
ENDBRANCH  54  68
BRANCH  55  78
ATOM     78  C   UNL     1      13.722   9.461   5.990  1.00  0.00    -0.014 A 
ATOM     79  C   UNL     1      13.069  10.691   5.800  1.00  0.00     0.010 A 
ATOM     80  C   UNL     1      14.670   9.344   7.023  1.00  0.00     0.010 A 
ATOM     81  C   UNL     1      13.377  11.789   6.609  1.00  0.00     0.020 A 
ATOM     82  C   UNL     1      14.958  10.430   7.854  1.00  0.00     0.020 A 
ATOM     83  C   UNL     1      14.322  11.652   7.630  1.00  0.00     0.054 A 
BRANCH  83  84
ATOM     84  S   UNL     1      14.689  13.079   8.688  1.00  0.00     0.124 S 
ATOM     85  O   UNL     1      15.546  13.884   7.824  1.00  0.00    -0.237 OA
ATOM     86  O   UNL     1      13.361  13.629   8.953  1.00  0.00    -0.237 OA
ATOM     87  O   UNL     1      15.349  12.483   9.847  1.00  0.00    -0.744 OA
ENDBRANCH  83  84
ENDBRANCH  55  78
BRANCH  67  88
ATOM     88  C   UNL     1      15.021   8.121  -0.731  1.00  0.00    -0.014 A 
ATOM     89  C   UNL     1      16.413   8.294  -0.810  1.00  0.00     0.010 A 
ATOM     90  C   UNL     1      14.202   8.634  -1.753  1.00  0.00     0.010 A 
ATOM     91  C   UNL     1      16.976   8.975  -1.893  1.00  0.00     0.020 A 
ATOM     92  C   UNL     1      14.762   9.296  -2.847  1.00  0.00     0.020 A 
ATOM     93  C   UNL     1      16.147   9.467  -2.907  1.00  0.00     0.054 A 
BRANCH  93  94
ATOM     94  S   UNL     1      16.906  10.274  -4.343  1.00  0.00     0.124 S 
ATOM     95  O   UNL     1      17.282  11.575  -3.798  1.00  0.00    -0.237 OA
ATOM     96  O   UNL     1      18.017   9.382  -4.664  1.00  0.00    -0.237 OA
ATOM     97  O   UNL     1      15.831  10.301  -5.333  1.00  0.00    -0.744 OA
ENDBRANCH  93  94
ENDBRANCH  67  88
ENDBRANCH  41  42
ENDBRANCH  34  36
ENDBRANCH  33  34
ENDBRANCH  32  33
ENDBRANCH   1  32
TORSDOF 18
