REMARK SMILES C[NH2+][C@@]1(C(=O)OCCOC(=O)c2ccc(-c3c4nc(c(-c5ccc(S(=O)(=O)[O-])cc5)c5ccc([nH]5)c(-c5ccc(S(=O)(=O)[O-])cc5)c5nc(c(-c6ccc(S(=O)(=O)[O-])cc6)c6ccc3[nH]6)C=C5)C=C4)cc2)CC[C@@H](OC2CCC2)C1
REMARK SMILES IDX 8 1 7 2 6 3 4 4 5 5 3 6 72 7 80 8 73 9 74 10 2 11 1 12 75 15
REMARK SMILES IDX 76 16 77 17 79 18 78 19 9 20 10 21 11 22 12 23 13 24 71 25
REMARK SMILES IDX 14 26 70 27 15 28 16 29 17 30 64 31 18 32 69 33 63 34 65 35
REMARK SMILES IDX 19 36 68 37 62 38 61 39 20 41 50 42 31 43 49 44 32 45 35 46
REMARK SMILES IDX 48 47 66 48 33 49 34 50 47 52 67 53 36 54 21 55 22 56 30 57
REMARK SMILES IDX 23 58 29 59 24 60 25 61 26 62 27 63 28 64 51 65 52 66 60 67
REMARK SMILES IDX 53 68 59 69 54 70 55 71 56 72 57 73 58 74 37 75 38 76 46 77
REMARK SMILES IDX 39 78 45 79 40 80 41 81 42 82 43 83 44 84
REMARK H PARENT 2 13 2 14 65 40 35 51
REMARK Flexibility Score: inf
ROOT
ATOM      1  C   UNL     1      -2.282  -2.607   3.986  1.00  0.00     0.275 C 
ENDROOT
BRANCH   1   2
ATOM      2  C   UNL     1      -2.901  -1.374   3.330  1.00  0.00     0.274 C 
BRANCH   2   3
ATOM      3  O   UNL     1      -2.654  -1.386   1.909  1.00  0.00    -0.457 OA
BRANCH   3   4
ATOM      4  C   UNL     1      -1.628  -0.596   1.473  1.00  0.00     0.368 C 
ATOM      5  O   UNL     1      -1.040   0.198   2.199  1.00  0.00    -0.245 OA
BRANCH   4   6
ATOM      6  C   UNL     1      -1.358  -0.764  -0.062  1.00  0.00     0.196 C 
ATOM      7  C   UNL     1      -2.172   0.294  -0.820  1.00  0.00     0.084 C 
ATOM      8  C   UNL     1      -1.860  -2.124  -0.607  1.00  0.00     0.113 C 
ATOM      9  C   UNL     1      -3.505  -0.369  -1.130  1.00  0.00     0.039 C 
ATOM     10  C   UNL     1      -3.176  -1.843  -1.325  1.00  0.00     0.125 C 
BRANCH   6  11
ATOM     11  N   UNL     1       0.102  -0.695  -0.340  1.00  0.00    -0.334 N 
ATOM     12  C   UNL     1       0.722   0.620  -0.243  1.00  0.00     0.331 C 
ATOM     13  H   UNL     1       0.573  -1.309   0.324  1.00  0.00     0.347 HD
ATOM     14  H   UNL     1       0.203  -0.968  -1.318  1.00  0.00     0.347 HD
ENDBRANCH   6  11
BRANCH  10  15
ATOM     15  O   UNL     1      -3.294  -2.341  -2.651  1.00  0.00    -0.375 OA
BRANCH  15  16
ATOM     16  C   UNL     1      -2.528  -2.002  -3.829  1.00  0.00     0.118 C 
ATOM     17  C   UNL     1      -2.248  -0.556  -4.263  1.00  0.00     0.032 C 
ATOM     18  C   UNL     1      -1.027  -2.314  -3.949  1.00  0.00     0.032 C 
ATOM     19  C   UNL     1      -0.740  -0.821  -4.149  1.00  0.00     0.005 C 
ENDBRANCH  15  16
ENDBRANCH  10  15
ENDBRANCH   4   6
ENDBRANCH   3   4
ENDBRANCH   2   3
ENDBRANCH   1   2
BRANCH   1  20
ATOM     20  O   UNL     1      -0.853  -2.563   3.841  1.00  0.00    -0.458 OA
BRANCH  20  21
ATOM     21  C   UNL     1      -0.274  -3.661   3.306  1.00  0.00     0.338 C 
ATOM     22  O   UNL     1      -0.815  -4.711   2.996  1.00  0.00    -0.246 OA
BRANCH  21  23
ATOM     23  C   UNL     1       1.161  -3.403   3.123  1.00  0.00     0.060 A 
ATOM     24  C   UNL     1       1.565  -2.512   2.131  1.00  0.00     0.016 A 
ATOM     25  C   UNL     1       2.110  -4.106   3.862  1.00  0.00     0.016 A 
ATOM     26  C   UNL     1       2.916  -2.342   1.840  1.00  0.00     0.010 A 
ATOM     27  C   UNL     1       3.470  -3.895   3.609  1.00  0.00     0.010 A 
ATOM     28  C   UNL     1       3.886  -3.029   2.579  1.00  0.00    -0.014 A 
BRANCH  28  29
ATOM     29  C   UNL     1       5.327  -2.896   2.238  1.00  0.00     0.031 A 
ATOM     30  C   UNL     1       6.083  -4.087   1.714  1.00  0.00     0.074 A 
ATOM     31  C   UNL     1       5.960  -1.714   2.377  1.00  0.00     0.049 A 
ATOM     32  N   UNL     1       7.369  -4.229   1.514  1.00  0.00    -0.248 NA
ATOM     33  C   UNL     1       5.287  -5.278   1.375  1.00  0.00     0.031 C 
ATOM     34  C   UNL     1       5.338  -0.461   2.808  1.00  0.00     0.029 A 
ATOM     35  N   UNL     1       7.275  -1.376   2.166  1.00  0.00    -0.354 N 
ATOM     36  C   UNL     1       7.542  -5.536   1.076  1.00  0.00     0.074 A 
ATOM     37  C   UNL     1       6.229  -6.145   1.034  1.00  0.00     0.031 C 
ATOM     38  C   UNL     1       6.264   0.511   2.810  1.00  0.00     0.029 A 
ATOM     39  C   UNL     1       7.558  -0.061   2.450  1.00  0.00     0.049 A 
ATOM     40  H   UNL     1       7.951  -2.015   1.843  1.00  0.00     0.167 HD
ATOM     41  C   UNL     1       8.690  -6.174   0.745  1.00  0.00     0.031 A 
ATOM     42  C   UNL     1       8.731   0.602   2.459  1.00  0.00     0.031 A 
ATOM     43  C   UNL     1       9.991  -5.562   0.761  1.00  0.00     0.049 A 
ATOM     44  C   UNL     1       9.999  -0.136   2.131  1.00  0.00     0.074 A 
ATOM     45  C   UNL     1      11.216  -6.131   0.457  1.00  0.00     0.029 A 
ATOM     46  N   UNL     1      10.236  -4.236   1.086  1.00  0.00    -0.354 N 
ATOM     47  N   UNL     1      10.154  -1.391   1.783  1.00  0.00    -0.248 NA
ATOM     48  C   UNL     1      11.252   0.628   2.213  1.00  0.00     0.031 C 
ATOM     49  C   UNL     1      12.206  -5.155   0.627  1.00  0.00     0.029 A 
ATOM     50  C   UNL     1      11.591  -3.970   0.998  1.00  0.00     0.049 A 
ATOM     51  H   UNL     1       9.547  -3.581   1.341  1.00  0.00     0.167 HD
ATOM     52  C   UNL     1      11.521  -1.566   1.600  1.00  0.00     0.074 A 
ATOM     53  C   UNL     1      12.146  -0.284   1.854  1.00  0.00     0.031 C 
ATOM     54  C   UNL     1      12.197  -2.690   1.257  1.00  0.00     0.031 A 
BRANCH  41  55
ATOM     55  C   UNL     1       8.589  -7.631   0.386  1.00  0.00    -0.014 A 
ATOM     56  C   UNL     1       8.089  -8.047  -0.860  1.00  0.00     0.010 A 
ATOM     57  C   UNL     1       9.019  -8.600   1.312  1.00  0.00     0.010 A 
ATOM     58  C   UNL     1       7.983  -9.408  -1.159  1.00  0.00     0.020 A 
ATOM     59  C   UNL     1       8.934  -9.961   1.009  1.00  0.00     0.020 A 
ATOM     60  C   UNL     1       8.397 -10.357  -0.218  1.00  0.00     0.054 A 
BRANCH  60  61
ATOM     61  S   UNL     1       8.255 -12.119  -0.627  1.00  0.00     0.124 S 
ATOM     62  O   UNL     1       6.830 -12.361  -0.420  1.00  0.00    -0.237 OA
ATOM     63  O   UNL     1       8.704 -12.167  -2.017  1.00  0.00    -0.237 OA
ATOM     64  O   UNL     1       9.144 -12.770   0.333  1.00  0.00    -0.744 OA
ENDBRANCH  60  61
ENDBRANCH  41  55
BRANCH  42  65
ATOM     65  C   UNL     1       8.765   2.040   2.842  1.00  0.00    -0.014 A 
ATOM     66  C   UNL     1       9.014   3.031   1.878  1.00  0.00     0.010 A 
ATOM     67  C   UNL     1       8.531   2.424   4.175  1.00  0.00     0.010 A 
ATOM     68  C   UNL     1       9.033   4.381   2.241  1.00  0.00     0.020 A 
ATOM     69  C   UNL     1       8.525   3.773   4.537  1.00  0.00     0.020 A 
ATOM     70  C   UNL     1       8.786   4.744   3.568  1.00  0.00     0.054 A 
BRANCH  70  71
ATOM     71  S   UNL     1       8.744   6.504   4.010  1.00  0.00     0.124 S 
ATOM     72  O   UNL     1      10.164   6.822   4.120  1.00  0.00    -0.237 OA
ATOM     73  O   UNL     1       8.048   7.103   2.874  1.00  0.00    -0.237 OA
ATOM     74  O   UNL     1       7.997   6.520   5.266  1.00  0.00    -0.744 OA
ENDBRANCH  70  71
ENDBRANCH  42  65
BRANCH  54  75
ATOM     75  C   UNL     1      13.690  -2.578   1.116  1.00  0.00    -0.014 A 
ATOM     76  C   UNL     1      14.521  -2.528   2.248  1.00  0.00     0.010 A 
ATOM     77  C   UNL     1      14.269  -2.571  -0.165  1.00  0.00     0.010 A 
ATOM     78  C   UNL     1      15.908  -2.448   2.101  1.00  0.00     0.020 A 
ATOM     79  C   UNL     1      15.657  -2.510  -0.316  1.00  0.00     0.020 A 
ATOM     80  C   UNL     1      16.467  -2.435   0.819  1.00  0.00     0.054 A 
BRANCH  80  81
ATOM     81  S   UNL     1      18.273  -2.374   0.649  1.00  0.00     0.124 S 
ATOM     82  O   UNL     1      18.552  -0.961   0.888  1.00  0.00    -0.237 OA
ATOM     83  O   UNL     1      18.729  -3.290   1.692  1.00  0.00    -0.237 OA
ATOM     84  O   UNL     1      18.505  -2.834  -0.719  1.00  0.00    -0.744 OA
ENDBRANCH  80  81
ENDBRANCH  54  75
ENDBRANCH  28  29
ENDBRANCH  21  23
ENDBRANCH  20  21
ENDBRANCH   1  20
TORSDOF 17
