REMARK SMILES O=C(OCCOC(=O)[C@@H]1Cc2ccccc2CN1C(=O)COc1ccccc1)c1ccc(-c2c3nc(c(-c4ccc(S(=O)(=O)[O-])cc4)c4ccc([nH]4)c(-c4ccc(S(=O)(=O)[O-])cc4)c4nc(c(-c5ccc(S(=O)(=O)[O-])cc5)c5ccc2[nH]5)C=C4)C=C3)cc1
REMARK SMILES IDX 5 1 4 2 3 3 2 4 1 5 29 6 30 7 88 8 31 9 87 10 32 11 33 12
REMARK SMILES IDX 34 13 81 14 35 15 86 16 80 17 82 18 36 19 85 20 79 21 78 22
REMARK SMILES IDX 37 24 67 25 48 26 66 27 49 28 52 29 65 30 83 31 50 32 51 33
REMARK SMILES IDX 64 35 84 36 53 37 38 38 39 39 47 40 40 41 46 42 41 43 42 44
REMARK SMILES IDX 43 45 44 46 45 47 68 48 69 49 77 50 70 51 76 52 71 53 72 54
REMARK SMILES IDX 73 55 74 56 75 57 54 58 55 59 63 60 56 61 62 62 57 63 58 64
REMARK SMILES IDX 59 65 60 66 61 67 6 68 7 69 8 70 9 71 10 72 18 73 11 74
REMARK SMILES IDX 17 75 12 76 16 77 13 78 15 79 14 80 19 81 20 82 21 83 22 84
REMARK SMILES IDX 23 85 24 86 28 87 25 88 27 89 26 90
REMARK H PARENT 82 23 52 34
REMARK Flexibility Score: inf
ROOT
ATOM      1  C   UNL     1       1.889   4.186  -3.796  1.00  0.00     0.274 C 
ENDROOT
BRANCH   1   2
ATOM      2  C   UNL     1       1.694   5.686  -4.030  1.00  0.00     0.275 C 
BRANCH   2   3
ATOM      3  O   UNL     1       2.484   6.527  -3.177  1.00  0.00    -0.458 OA
BRANCH   3   4
ATOM      4  C   UNL     1       1.951   7.104  -2.066  1.00  0.00     0.338 C 
ATOM      5  O   UNL     1       2.298   8.213  -1.680  1.00  0.00    -0.246 OA
BRANCH   4   6
ATOM      6  C   UNL     1       1.124   6.237  -1.197  1.00  0.00     0.060 A 
ATOM      7  C   UNL     1      -0.190   5.869  -1.502  1.00  0.00     0.016 A 
ATOM      8  C   UNL     1       1.701   5.814  -0.001  1.00  0.00     0.016 A 
ATOM      9  C   UNL     1      -0.907   5.044  -0.628  1.00  0.00     0.010 A 
ATOM     10  C   UNL     1       1.002   4.955   0.845  1.00  0.00     0.010 A 
ATOM     11  C   UNL     1      -0.322   4.600   0.564  1.00  0.00    -0.014 A 
BRANCH  11  12
ATOM     12  C   UNL     1      -1.145   3.978   1.628  1.00  0.00     0.031 A 
ATOM     13  C   UNL     1      -1.465   4.809   2.846  1.00  0.00     0.074 A 
ATOM     14  C   UNL     1      -1.594   2.712   1.531  1.00  0.00     0.049 A 
ATOM     15  N   UNL     1      -2.292   4.554   3.826  1.00  0.00    -0.248 NA
ATOM     16  C   UNL     1      -0.757   6.096   2.984  1.00  0.00     0.031 C 
ATOM     17  C   UNL     1      -1.314   1.784   0.435  1.00  0.00     0.029 A 
ATOM     18  N   UNL     1      -2.385   1.984   2.385  1.00  0.00    -0.354 N 
ATOM     19  C   UNL     1      -2.225   5.662   4.663  1.00  0.00     0.074 A 
ATOM     20  C   UNL     1      -1.187   6.524   4.157  1.00  0.00     0.031 C 
ATOM     21  C   UNL     1      -1.896   0.600   0.698  1.00  0.00     0.029 A 
ATOM     22  C   UNL     1      -2.638   0.703   1.952  1.00  0.00     0.049 A 
ATOM     23  H   UNL     1      -2.739   2.345   3.229  1.00  0.00     0.167 HD
ATOM     24  C   UNL     1      -3.015   5.981   5.715  1.00  0.00     0.031 A 
ATOM     25  C   UNL     1      -3.422  -0.256   2.481  1.00  0.00     0.031 A 
ATOM     26  C   UNL     1      -4.044   5.119   6.211  1.00  0.00     0.049 A 
ATOM     27  C   UNL     1      -4.280   0.090   3.670  1.00  0.00     0.074 A 
ATOM     28  C   UNL     1      -4.961   5.349   7.218  1.00  0.00     0.029 A 
ATOM     29  N   UNL     1      -4.281   3.840   5.728  1.00  0.00    -0.354 N 
ATOM     30  N   UNL     1      -4.327   1.210   4.354  1.00  0.00    -0.248 NA
ATOM     31  C   UNL     1      -5.240  -0.929   4.115  1.00  0.00     0.031 C 
ATOM     32  C   UNL     1      -5.734   4.191   7.365  1.00  0.00     0.029 A 
ATOM     33  C   UNL     1      -5.323   3.259   6.422  1.00  0.00     0.049 A 
ATOM     34  H   UNL     1      -3.780   3.410   4.997  1.00  0.00     0.167 HD
ATOM     35  C   UNL     1      -5.365   1.055   5.266  1.00  0.00     0.074 A 
ATOM     36  C   UNL     1      -5.906  -0.274   5.057  1.00  0.00     0.031 C 
ATOM     37  C   UNL     1      -5.846   1.938   6.177  1.00  0.00     0.031 A 
BRANCH  24  38
ATOM     38  C   UNL     1      -2.789   7.334   6.336  1.00  0.00    -0.014 A 
ATOM     39  C   UNL     1      -3.072   8.508   5.607  1.00  0.00     0.010 A 
ATOM     40  C   UNL     1      -2.221   7.445   7.615  1.00  0.00     0.010 A 
ATOM     41  C   UNL     1      -2.707   9.760   6.106  1.00  0.00     0.020 A 
ATOM     42  C   UNL     1      -1.884   8.701   8.133  1.00  0.00     0.020 A 
ATOM     43  C   UNL     1      -2.098   9.846   7.360  1.00  0.00     0.054 A 
BRANCH  43  44
ATOM     44  S   UNL     1      -1.584  11.477   7.966  1.00  0.00     0.124 S 
ATOM     45  O   UNL     1      -0.366  11.713   7.194  1.00  0.00    -0.237 OA
ATOM     46  O   UNL     1      -2.721  12.325   7.618  1.00  0.00    -0.237 OA
ATOM     47  O   UNL     1      -1.383  11.265   9.397  1.00  0.00    -0.744 OA
ENDBRANCH  43  44
ENDBRANCH  24  38
BRANCH  25  48
ATOM     48  C   UNL     1      -3.531  -1.581   1.810  1.00  0.00    -0.014 A 
ATOM     49  C   UNL     1      -4.657  -1.893   1.026  1.00  0.00     0.010 A 
ATOM     50  C   UNL     1      -2.499  -2.530   1.928  1.00  0.00     0.010 A 
ATOM     51  C   UNL     1      -4.755  -3.130   0.383  1.00  0.00     0.020 A 
ATOM     52  C   UNL     1      -2.587  -3.764   1.273  1.00  0.00     0.020 A 
ATOM     53  C   UNL     1      -3.718  -4.058   0.508  1.00  0.00     0.054 A 
BRANCH  53  54
ATOM     54  S   UNL     1      -3.847  -5.634  -0.386  1.00  0.00     0.124 S 
ATOM     55  O   UNL     1      -4.902  -6.319   0.355  1.00  0.00    -0.237 OA
ATOM     56  O   UNL     1      -4.200  -5.201  -1.735  1.00  0.00    -0.237 OA
ATOM     57  O   UNL     1      -2.512  -6.213  -0.254  1.00  0.00    -0.744 OA
ENDBRANCH  53  54
ENDBRANCH  25  48
BRANCH  37  58
ATOM     58  C   UNL     1      -7.046   1.523   6.979  1.00  0.00    -0.014 A 
ATOM     59  C   UNL     1      -6.934   0.601   8.032  1.00  0.00     0.010 A 
ATOM     60  C   UNL     1      -8.285   2.142   6.729  1.00  0.00     0.010 A 
ATOM     61  C   UNL     1      -8.050   0.289   8.812  1.00  0.00     0.020 A 
ATOM     62  C   UNL     1      -9.395   1.852   7.523  1.00  0.00     0.020 A 
ATOM     63  C   UNL     1      -9.272   0.919   8.554  1.00  0.00     0.054 A 
BRANCH  63  64
ATOM     64  S   UNL     1     -10.687   0.553   9.627  1.00  0.00     0.124 S 
ATOM     65  O   UNL     1     -11.106  -0.758   9.140  1.00  0.00    -0.237 OA
ATOM     66  O   UNL     1     -10.092   0.568  10.961  1.00  0.00    -0.237 OA
ATOM     67  O   UNL     1     -11.618   1.647   9.356  1.00  0.00    -0.744 OA
ENDBRANCH  63  64
ENDBRANCH  37  58
ENDBRANCH  11  12
ENDBRANCH   4   6
ENDBRANCH   3   4
ENDBRANCH   2   3
ENDBRANCH   1   2
BRANCH   1  68
ATOM     68  O   UNL     1       2.391   3.896  -2.484  1.00  0.00    -0.461 OA
BRANCH  68  69
ATOM     69  C   UNL     1       2.717   2.589  -2.284  1.00  0.00     0.329 C 
ATOM     70  O   UNL     1       2.417   1.694  -3.068  1.00  0.00    -0.250 OA
BRANCH  69  71
ATOM     71  C   UNL     1       3.449   2.338  -0.944  1.00  0.00     0.200 C 
ATOM     72  C   UNL     1       2.389   1.574  -0.126  1.00  0.00     0.073 C 
ATOM     73  N   UNL     1       3.980   3.532  -0.229  1.00  0.00    -0.321 N 
ATOM     74  C   UNL     1       2.739   1.374   1.315  1.00  0.00    -0.040 A 
ATOM     75  C   UNL     1       4.090   3.507   1.234  1.00  0.00     0.156 C 
ATOM     76  C   UNL     1       2.193   0.308   2.044  1.00  0.00     0.004 A 
ATOM     77  C   UNL     1       3.527   2.324   1.962  1.00  0.00    -0.025 A 
ATOM     78  C   UNL     1       2.454   0.178   3.408  1.00  0.00     0.000 A 
ATOM     79  C   UNL     1       3.776   2.190   3.338  1.00  0.00     0.006 A 
ATOM     80  C   UNL     1       3.247   1.119   4.056  1.00  0.00     0.000 A 
BRANCH  73  81
ATOM     81  C   UNL     1       4.791   4.514  -0.806  1.00  0.00     0.261 C 
ATOM     82  O   UNL     1       5.106   5.526  -0.168  1.00  0.00    -0.271 OA
BRANCH  81  83
ATOM     83  C   UNL     1       5.379   4.312  -2.205  1.00  0.00     0.329 C 
BRANCH  83  84
ATOM     84  O   UNL     1       5.962   3.034  -2.439  1.00  0.00    -0.484 OA
BRANCH  84  85
ATOM     85  C   UNL     1       7.242   2.944  -1.962  1.00  0.00     0.120 A 
ATOM     86  C   UNL     1       8.226   2.551  -2.864  1.00  0.00     0.046 A 
ATOM     87  C   UNL     1       7.580   3.172  -0.627  1.00  0.00     0.046 A 
ATOM     88  C   UNL     1       9.552   2.444  -2.441  1.00  0.00     0.004 A 
ATOM     89  C   UNL     1       8.902   3.068  -0.204  1.00  0.00     0.004 A 
ATOM     90  C   UNL     1       9.891   2.711  -1.114  1.00  0.00     0.000 A 
ENDBRANCH  84  85
ENDBRANCH  83  84
ENDBRANCH  81  83
ENDBRANCH  73  81
ENDBRANCH  69  71
ENDBRANCH  68  69
ENDBRANCH   1  68
TORSDOF 18
