REMARK SMILES C/C=C(\C)[C@H]1C(C)=C[C@H]2CC[C@@H](OS(=O)(=O)[O-])[C@@H](C)[C@H]2[C@H]1/C=C/C=C/C(=O)OCCOC(=O)c1ccc(-c2c3nc(c(-c4ccc(S(=O)(=O)[O-])cc4)c4ccc([nH]4)c(-c4ccc(S(=O)(=O)[O-])cc4)c4nc(c(-c5ccc(S(=O)(=O)[O-])cc5)c5ccc2[nH]5)C=C4)C=C3)cc1
REMARK SMILES IDX 29 1 28 2 26 3 27 4 25 5 24 6 23 7 22 8 21 9 5 10 6 11 7 12
REMARK SMILES IDX 8 13 20 14 9 15 18 16 10 17 12 18 19 19 11 20 3 21 1 22 2 23
REMARK SMILES IDX 4 24 13 25 14 26 15 27 16 28 17 29 30 30 31 31 32 32 33 33
REMARK SMILES IDX 34 34 35 35 93 36 36 37 92 38 37 39 38 40 39 41 86 42 40 43
REMARK SMILES IDX 91 44 85 45 87 46 41 47 90 48 84 49 83 50 42 52 72 53 53 54
REMARK SMILES IDX 71 55 54 56 57 57 70 58 88 59 55 60 56 61 69 63 89 64 58 65
REMARK SMILES IDX 43 66 44 67 52 68 45 69 51 70 46 71 47 72 48 73 49 74 50 75
REMARK SMILES IDX 73 76 74 77 82 78 75 79 81 80 76 81 77 82 78 83 79 84 80 85
REMARK SMILES IDX 59 86 60 87 68 88 61 89 67 90 62 91 63 92 64 93 65 94 66 95
REMARK H PARENT 87 51 57 62
REMARK Flexibility Score: inf
ROOT
ATOM      1  C   UNL     1       3.754  -5.025  -1.473  1.00  0.00     0.275 C 
ENDROOT
BRANCH   1   2
ATOM      2  O   UNL     1       3.170  -4.175  -0.472  1.00  0.00    -0.459 OA
BRANCH   2   3
ATOM      3  C   UNL     1       1.912  -4.513  -0.117  1.00  0.00     0.330 C 
ATOM      4  O   UNL     1       1.188  -5.317  -0.688  1.00  0.00    -0.247 OA
BRANCH   3   5
ATOM      5  C   UNL     1       1.486  -3.876   1.135  1.00  0.00     0.093 C 
ATOM      6  C   UNL     1       2.155  -2.993   1.896  1.00  0.00     0.007 C 
BRANCH   6   7
ATOM      7  C   UNL     1       1.472  -2.485   3.067  1.00  0.00    -0.004 C 
ATOM      8  C   UNL     1       1.205  -1.177   3.187  1.00  0.00    -0.022 C 
BRANCH   8   9
ATOM      9  C   UNL     1      -0.038  -0.575   3.833  1.00  0.00     0.027 C 
ATOM     10  C   UNL     1      -0.684   0.666   3.033  1.00  0.00     0.047 C 
ATOM     11  C   UNL     1      -2.180   0.881   3.359  1.00  0.00    -0.069 C 
ATOM     12  C   UNL     1      -2.995   1.840   2.534  1.00  0.00     0.040 C 
ATOM     13  C   UNL     1      -2.790   0.251   4.385  1.00  0.00    -0.024 C 
ATOM     14  C   UNL     1      -1.108  -1.588   4.387  1.00  0.00     0.009 C 
ATOM     15  C   UNL     1      -2.128  -0.797   5.232  1.00  0.00     0.016 C 
ATOM     16  C   UNL     1      -1.809  -2.600   3.404  1.00  0.00     0.021 C 
ATOM     17  C   UNL     1      -3.120  -1.738   5.936  1.00  0.00     0.011 C 
ATOM     18  C   UNL     1      -2.768  -3.531   4.195  1.00  0.00     0.141 C 
ATOM     19  C   UNL     1      -2.528  -2.035   2.176  1.00  0.00     0.011 C 
ATOM     20  C   UNL     1      -3.798  -2.738   5.005  1.00  0.00     0.034 C 
BRANCH  10  21
ATOM     21  C   UNL     1      -0.290   0.902   1.533  1.00  0.00    -0.070 C 
ATOM     22  C   UNL     1       0.711   0.086  -0.690  1.00  0.00     0.035 C 
ATOM     23  C   UNL     1       0.115  -0.061   0.675  1.00  0.00    -0.031 C 
ATOM     24  C   UNL     1      -0.234   2.350   1.094  1.00  0.00     0.040 C 
ENDBRANCH  10  21
BRANCH  18  25
ATOM     25  O   UNL     1      -3.265  -4.542   3.321  1.00  0.00    -0.276 OA
BRANCH  25  26
ATOM     26  S   UNL     1      -4.829  -4.709   2.931  1.00  0.00     0.217 S 
ATOM     27  O   UNL     1      -5.525  -5.327   4.038  1.00  0.00    -0.213 OA
ATOM     28  O   UNL     1      -5.316  -3.492   2.328  1.00  0.00    -0.213 OA
ATOM     29  O   UNL     1      -4.779  -5.809   1.759  1.00  0.00    -0.726 OA
ENDBRANCH  25  26
ENDBRANCH  18  25
ENDBRANCH   8   9
ENDBRANCH   6   7
ENDBRANCH   3   5
ENDBRANCH   2   3
ENDBRANCH   1   2
BRANCH   1  30
ATOM     30  C   UNL     1       4.618  -6.102  -0.812  1.00  0.00     0.275 C 
BRANCH  30  31
ATOM     31  O   UNL     1       3.824  -7.082  -0.111  1.00  0.00    -0.458 OA
BRANCH  31  32
ATOM     32  C   UNL     1       3.624  -6.836   1.206  1.00  0.00     0.338 C 
ATOM     33  O   UNL     1       4.048  -5.893   1.852  1.00  0.00    -0.246 OA
BRANCH  32  34
ATOM     34  C   UNL     1       2.728  -7.853   1.779  1.00  0.00     0.060 A 
ATOM     35  C   UNL     1       1.456  -7.468   2.211  1.00  0.00     0.016 A 
ATOM     36  C   UNL     1       3.183  -9.155   1.993  1.00  0.00     0.016 A 
ATOM     37  C   UNL     1       0.640  -8.379   2.880  1.00  0.00     0.010 A 
ATOM     38  C   UNL     1       2.353 -10.074   2.645  1.00  0.00     0.010 A 
ATOM     39  C   UNL     1       1.082  -9.689   3.109  1.00  0.00    -0.014 A 
BRANCH  39  40
ATOM     40  C   UNL     1       0.221 -10.649   3.848  1.00  0.00     0.031 A 
ATOM     41  C   UNL     1       0.618 -11.121   5.221  1.00  0.00     0.074 A 
ATOM     42  C   UNL     1      -0.918 -11.095   3.284  1.00  0.00     0.049 A 
ATOM     43  N   UNL     1       0.034 -12.004   5.991  1.00  0.00    -0.248 NA
ATOM     44  C   UNL     1       1.832 -10.528   5.804  1.00  0.00     0.031 C 
ATOM     45  C   UNL     1      -1.425 -10.689   1.971  1.00  0.00     0.029 A 
ATOM     46  N   UNL     1      -1.853 -11.992   3.738  1.00  0.00    -0.354 N 
ATOM     47  C   UNL     1       0.817 -12.090   7.136  1.00  0.00     0.074 A 
ATOM     48  C   UNL     1       1.931 -11.185   6.952  1.00  0.00     0.031 C 
ATOM     49  C   UNL     1      -2.580 -11.330   1.730  1.00  0.00     0.029 A 
ATOM     50  C   UNL     1      -2.867 -12.233   2.840  1.00  0.00     0.049 A 
ATOM     51  H   UNL     1      -1.802 -12.423   4.622  1.00  0.00     0.167 HD
ATOM     52  C   UNL     1       0.623 -12.852   8.240  1.00  0.00     0.031 A 
ATOM     53  C   UNL     1      -3.894 -13.103   2.889  1.00  0.00     0.031 A 
ATOM     54  C   UNL     1      -0.490 -13.751   8.415  1.00  0.00     0.049 A 
ATOM     55  C   UNL     1      -4.052 -13.983   4.100  1.00  0.00     0.074 A 
ATOM     56  C   UNL     1      -0.789 -14.544   9.509  1.00  0.00     0.029 A 
ATOM     57  N   UNL     1      -1.481 -13.982   7.473  1.00  0.00    -0.354 N 
ATOM     58  N   UNL     1      -3.317 -14.030   5.186  1.00  0.00    -0.248 NA
ATOM     59  C   UNL     1      -5.181 -14.923   4.096  1.00  0.00     0.031 C 
ATOM     60  C   UNL     1      -1.920 -15.306   9.202  1.00  0.00     0.029 A 
ATOM     61  C   UNL     1      -2.373 -14.930   7.947  1.00  0.00     0.049 A 
ATOM     62  H   UNL     1      -1.542 -13.539   6.596  1.00  0.00     0.167 HD
ATOM     63  C   UNL     1      -3.914 -14.981   6.007  1.00  0.00     0.074 A 
ATOM     64  C   UNL     1      -5.079 -15.471   5.300  1.00  0.00     0.031 C 
ATOM     65  C   UNL     1      -3.532 -15.408   7.236  1.00  0.00     0.031 A 
BRANCH  52  66
ATOM     66  C   UNL     1       1.653 -12.782   9.339  1.00  0.00    -0.014 A 
ATOM     67  C   UNL     1       1.785 -11.642  10.152  1.00  0.00     0.010 A 
ATOM     68  C   UNL     1       2.455 -13.908   9.609  1.00  0.00     0.010 A 
ATOM     69  C   UNL     1       2.717 -11.619  11.194  1.00  0.00     0.020 A 
ATOM     70  C   UNL     1       3.367 -13.900  10.669  1.00  0.00     0.020 A 
ATOM     71  C   UNL     1       3.500 -12.750  11.448  1.00  0.00     0.054 A 
BRANCH  71  72
ATOM     72  S   UNL     1       4.669 -12.705  12.834  1.00  0.00     0.124 S 
ATOM     73  O   UNL     1       5.680 -11.770  12.347  1.00  0.00    -0.237 OA
ATOM     74  O   UNL     1       3.841 -12.217  13.934  1.00  0.00    -0.237 OA
ATOM     75  O   UNL     1       5.114 -14.091  12.960  1.00  0.00    -0.744 OA
ENDBRANCH  71  72
ENDBRANCH  52  66
BRANCH  53  76
ATOM     76  C   UNL     1      -4.836 -13.211   1.739  1.00  0.00    -0.014 A 
ATOM     77  C   UNL     1      -6.184 -12.835   1.872  1.00  0.00     0.010 A 
ATOM     78  C   UNL     1      -4.385 -13.704   0.500  1.00  0.00     0.010 A 
ATOM     79  C   UNL     1      -7.067 -12.974   0.797  1.00  0.00     0.020 A 
ATOM     80  C   UNL     1      -5.256 -13.811  -0.587  1.00  0.00     0.020 A 
ATOM     81  C   UNL     1      -6.597 -13.460  -0.427  1.00  0.00     0.054 A 
BRANCH  81  82
ATOM     82  S   UNL     1      -7.754 -13.598  -1.816  1.00  0.00     0.124 S 
ATOM     83  O   UNL     1      -8.589 -14.722  -1.406  1.00  0.00    -0.237 OA
ATOM     84  O   UNL     1      -8.405 -12.290  -1.812  1.00  0.00    -0.237 OA
ATOM     85  O   UNL     1      -6.884 -13.849  -2.963  1.00  0.00    -0.744 OA
ENDBRANCH  81  82
ENDBRANCH  53  76
BRANCH  65  86
ATOM     86  C   UNL     1      -4.407 -16.426   7.922  1.00  0.00    -0.014 A 
ATOM     87  C   UNL     1      -4.482 -17.756   7.471  1.00  0.00     0.010 A 
ATOM     88  C   UNL     1      -5.126 -16.053   9.073  1.00  0.00     0.010 A 
ATOM     89  C   UNL     1      -5.286 -18.684   8.139  1.00  0.00     0.020 A 
ATOM     90  C   UNL     1      -5.903 -16.986   9.763  1.00  0.00     0.020 A 
ATOM     91  C   UNL     1      -5.990 -18.293   9.282  1.00  0.00     0.054 A 
BRANCH  91  92
ATOM     92  S   UNL     1      -6.990 -19.529  10.156  1.00  0.00     0.124 S 
ATOM     93  O   UNL     1      -8.105 -19.725   9.234  1.00  0.00    -0.237 OA
ATOM     94  O   UNL     1      -6.069 -20.657  10.278  1.00  0.00    -0.237 OA
ATOM     95  O   UNL     1      -7.332 -18.872  11.415  1.00  0.00    -0.744 OA
ENDBRANCH  91  92
ENDBRANCH  65  86
ENDBRANCH  39  40
ENDBRANCH  32  34
ENDBRANCH  31  32
ENDBRANCH  30  31
ENDBRANCH   1  30
TORSDOF 19
