REMARK SMILES O=C(OCCOC(=O)c1cc(/C=C/c2cc(O)cc(O)c2)ccc1O)c1ccc(-c2c3nc(c(-c4ccc(S(=O)(=O)[O-])cc4)c4ccc([nH]4)c(-c4ccc(S(=O)(=O)[O-])cc4)c4nc(c(-c5ccc(S(=O)(=O)[O-])cc5)c5ccc2[nH]5)C=C4)C=C3)cc1
REMARK SMILES IDX 4 1 3 2 2 3 1 4 26 5 27 6 85 7 28 8 84 9 29 10 30 11 31 12
REMARK SMILES IDX 78 13 32 14 83 15 77 16 79 17 33 18 82 19 76 20 75 21 34 23
REMARK SMILES IDX 64 24 45 25 63 26 46 27 49 28 62 29 80 30 47 31 48 32 61 34
REMARK SMILES IDX 81 35 50 36 35 37 36 38 44 39 37 40 43 41 38 42 39 43 40 44
REMARK SMILES IDX 41 45 42 46 65 47 66 48 74 49 67 50 73 51 68 52 69 53 70 54
REMARK SMILES IDX 71 55 72 56 51 57 52 58 60 59 53 60 59 61 54 62 55 63 56 64
REMARK SMILES IDX 57 65 58 66 5 67 6 68 7 69 8 70 9 71 10 72 24 73 11 74 23 75
REMARK SMILES IDX 22 76 25 77 12 79 13 80 14 81 15 82 21 83 16 84 19 85 18 86
REMARK SMILES IDX 17 87 20 89
REMARK H PARENT 79 22 49 33 25 78 17 88 20 90
REMARK Flexibility Score: inf
ROOT
ATOM      1  C   UNL     1       3.902   1.607  -0.489  1.00  0.00     0.275 C 
ENDROOT
BRANCH   1   2
ATOM      2  O   UNL     1       2.828   0.769  -0.956  1.00  0.00    -0.458 OA
BRANCH   2   3
ATOM      3  C   UNL     1       2.639  -0.568  -0.862  1.00  0.00     0.338 C 
ATOM      4  O   UNL     1       1.658  -1.057  -1.424  1.00  0.00    -0.246 OA
BRANCH   3   5
ATOM      5  C   UNL     1       3.487  -1.492  -0.039  1.00  0.00     0.060 A 
ATOM      6  C   UNL     1       4.812  -1.275   0.339  1.00  0.00     0.016 A 
ATOM      7  C   UNL     1       2.878  -2.693   0.380  1.00  0.00     0.016 A 
ATOM      8  C   UNL     1       5.483  -2.178   1.166  1.00  0.00     0.010 A 
ATOM      9  C   UNL     1       3.539  -3.598   1.218  1.00  0.00     0.010 A 
ATOM     10  C   UNL     1       4.851  -3.337   1.618  1.00  0.00    -0.014 A 
BRANCH  10  11
ATOM     11  C   UNL     1       5.624  -4.294   2.437  1.00  0.00     0.031 A 
ATOM     12  C   UNL     1       6.217  -5.499   1.775  1.00  0.00     0.074 A 
ATOM     13  C   UNL     1       5.881  -4.018   3.729  1.00  0.00     0.049 A 
ATOM     14  N   UNL     1       7.047  -6.377   2.269  1.00  0.00    -0.248 NA
ATOM     15  C   UNL     1       5.867  -5.722   0.362  1.00  0.00     0.031 C 
ATOM     16  C   UNL     1       5.422  -2.822   4.436  1.00  0.00     0.029 A 
ATOM     17  N   UNL     1       6.599  -4.701   4.675  1.00  0.00    -0.354 N 
ATOM     18  C   UNL     1       7.363  -7.224   1.216  1.00  0.00     0.074 A 
ATOM     19  C   UNL     1       6.584  -6.798   0.074  1.00  0.00     0.031 C 
ATOM     20  C   UNL     1       5.832  -2.874   5.714  1.00  0.00     0.029 A 
ATOM     21  C   UNL     1       6.600  -4.098   5.911  1.00  0.00     0.049 A 
ATOM     22  H   UNL     1       7.071  -5.545   4.487  1.00  0.00     0.167 HD
ATOM     23  C   UNL     1       8.251  -8.243   1.197  1.00  0.00     0.031 A 
ATOM     24  C   UNL     1       7.166  -4.486   7.069  1.00  0.00     0.031 A 
ATOM     25  C   UNL     1       8.977  -8.688   2.354  1.00  0.00     0.049 A 
ATOM     26  C   UNL     1       8.037  -5.712   7.056  1.00  0.00     0.074 A 
ATOM     27  C   UNL     1       9.863  -9.744   2.465  1.00  0.00     0.029 A 
ATOM     28  N   UNL     1       8.888  -8.104   3.611  1.00  0.00    -0.354 N 
ATOM     29  N   UNL     1       8.346  -6.485   6.041  1.00  0.00    -0.248 NA
ATOM     30  C   UNL     1       8.664  -6.096   8.325  1.00  0.00     0.031 C 
ATOM     31  C   UNL     1      10.270  -9.830   3.801  1.00  0.00     0.029 A 
ATOM     32  C   UNL     1       9.682  -8.793   4.510  1.00  0.00     0.049 A 
ATOM     33  H   UNL     1       8.340  -7.316   3.829  1.00  0.00     0.167 HD
ATOM     34  C   UNL     1       9.231  -7.430   6.543  1.00  0.00     0.074 A 
ATOM     35  C   UNL     1       9.420  -7.117   7.946  1.00  0.00     0.031 C 
ATOM     36  C   UNL     1       9.838  -8.461   5.904  1.00  0.00     0.031 A 
BRANCH  23  37
ATOM     37  C   UNL     1       8.460  -8.942  -0.117  1.00  0.00    -0.014 A 
ATOM     38  C   UNL     1       9.170  -8.315  -1.158  1.00  0.00     0.010 A 
ATOM     39  C   UNL     1       7.950 -10.236  -0.316  1.00  0.00     0.010 A 
ATOM     40  C   UNL     1       9.339  -8.957  -2.386  1.00  0.00     0.020 A 
ATOM     41  C   UNL     1       8.135 -10.891  -1.538  1.00  0.00     0.020 A 
ATOM     42  C   UNL     1       8.817 -10.241  -2.569  1.00  0.00     0.054 A 
BRANCH  42  43
ATOM     43  S   UNL     1       9.066 -11.059  -4.169  1.00  0.00     0.124 S 
ATOM     44  O   UNL     1       8.170 -10.300  -5.038  1.00  0.00    -0.237 OA
ATOM     45  O   UNL     1      10.492 -10.860  -4.410  1.00  0.00    -0.237 OA
ATOM     46  O   UNL     1       8.666 -12.441  -3.918  1.00  0.00    -0.744 OA
ENDBRANCH  42  43
ENDBRANCH  23  37
BRANCH  24  47
ATOM     47  C   UNL     1       6.922  -3.722   8.325  1.00  0.00    -0.014 A 
ATOM     48  C   UNL     1       7.955  -3.021   8.972  1.00  0.00     0.010 A 
ATOM     49  C   UNL     1       5.637  -3.723   8.900  1.00  0.00     0.010 A 
ATOM     50  C   UNL     1       7.717  -2.372  10.189  1.00  0.00     0.020 A 
ATOM     51  C   UNL     1       5.389  -3.053  10.102  1.00  0.00     0.020 A 
ATOM     52  C   UNL     1       6.437  -2.398  10.749  1.00  0.00     0.054 A 
BRANCH  52  53
ATOM     53  S   UNL     1       6.147  -1.547  12.326  1.00  0.00     0.124 S 
ATOM     54  O   UNL     1       6.812  -2.434  13.275  1.00  0.00    -0.237 OA
ATOM     55  O   UNL     1       6.789  -0.254  12.107  1.00  0.00    -0.237 OA
ATOM     56  O   UNL     1       4.690  -1.502  12.424  1.00  0.00    -0.744 OA
ENDBRANCH  52  53
ENDBRANCH  24  47
BRANCH  36  57
ATOM     57  C   UNL     1      10.774  -9.306   6.722  1.00  0.00    -0.014 A 
ATOM     58  C   UNL     1      10.286 -10.185   7.705  1.00  0.00     0.010 A 
ATOM     59  C   UNL     1      12.159  -9.238   6.484  1.00  0.00     0.010 A 
ATOM     60  C   UNL     1      11.171 -10.949   8.467  1.00  0.00     0.020 A 
ATOM     61  C   UNL     1      13.044 -10.024   7.223  1.00  0.00     0.020 A 
ATOM     62  C   UNL     1      12.545 -10.860   8.223  1.00  0.00     0.054 A 
BRANCH  62  63
ATOM     63  S   UNL     1      13.673 -11.880   9.209  1.00  0.00     0.124 S 
ATOM     64  O   UNL     1      13.688 -11.168  10.484  1.00  0.00    -0.237 OA
ATOM     65  O   UNL     1      13.003 -13.179   9.223  1.00  0.00    -0.237 OA
ATOM     66  O   UNL     1      14.924 -11.839   8.456  1.00  0.00    -0.744 OA
ENDBRANCH  62  63
ENDBRANCH  36  57
ENDBRANCH  10  11
ENDBRANCH   3   5
ENDBRANCH   2   3
ENDBRANCH   1   2
BRANCH   1  67
ATOM     67  C   UNL     1       3.802   2.031   0.977  1.00  0.00     0.275 C 
BRANCH  67  68
ATOM     68  O   UNL     1       3.402   0.967   1.847  1.00  0.00    -0.458 OA
BRANCH  68  69
ATOM     69  C   UNL     1       2.086   0.953   2.182  1.00  0.00     0.342 C 
ATOM     70  O   UNL     1       1.226   1.727   1.791  1.00  0.00    -0.246 OA
BRANCH  69  71
ATOM     71  C   UNL     1       1.784  -0.265   2.955  1.00  0.00     0.102 A 
ATOM     72  C   UNL     1       0.781  -1.113   2.457  1.00  0.00     0.027 A 
ATOM     73  C   UNL     1       2.450  -0.587   4.137  1.00  0.00     0.130 A 
ATOM     74  C   UNL     1       0.491  -2.326   3.095  1.00  0.00    -0.025 A 
ATOM     75  C   UNL     1       2.144  -1.772   4.801  1.00  0.00     0.048 A 
ATOM     76  C   UNL     1       1.184  -2.642   4.272  1.00  0.00     0.012 A 
BRANCH  73  77
ATOM     77  O   UNL     1       3.393   0.256   4.653  1.00  0.00    -0.507 OA
ATOM     78  H   UNL     1       3.602   1.054   4.208  1.00  0.00     0.293 HD
ENDBRANCH  73  77
BRANCH  74  79
ATOM     79  C   UNL     1      -0.545  -3.260   2.622  1.00  0.00     0.009 C 
ATOM     80  C   UNL     1      -1.074  -3.296   1.386  1.00  0.00     0.009 C 
BRANCH  80  81
ATOM     81  C   UNL     1      -2.164  -4.210   1.005  1.00  0.00    -0.018 A 
ATOM     82  C   UNL     1      -3.238  -4.466   1.872  1.00  0.00     0.054 A 
ATOM     83  C   UNL     1      -2.179  -4.769  -0.281  1.00  0.00     0.054 A 
ATOM     84  C   UNL     1      -4.291  -5.280   1.459  1.00  0.00     0.119 A 
ATOM     85  C   UNL     1      -3.244  -5.582  -0.673  1.00  0.00     0.119 A 
ATOM     86  C   UNL     1      -4.302  -5.840   0.190  1.00  0.00     0.092 A 
BRANCH  84  87
ATOM     87  O   UNL     1      -5.347  -5.539   2.284  1.00  0.00    -0.508 OA
ATOM     88  H   UNL     1      -5.368  -5.175   3.147  1.00  0.00     0.293 HD
ENDBRANCH  84  87
BRANCH  85  89
ATOM     89  O   UNL     1      -3.289  -6.142  -1.917  1.00  0.00    -0.508 OA
ATOM     90  H   UNL     1      -4.013  -6.684  -2.160  1.00  0.00     0.293 HD
ENDBRANCH  85  89
ENDBRANCH  80  81
ENDBRANCH  74  79
ENDBRANCH  69  71
ENDBRANCH  68  69
ENDBRANCH  67  68
ENDBRANCH   1  67
TORSDOF 19
