REMARK SMILES CC[C@@]1(C(=O)OCCOC(=O)c2ccc(-c3c4nc(c(-c5ccc(S(=O)(=O)[O-])cc5)c5ccc([nH]5)c(-c5ccc(S(=O)(=O)[O-])cc5)c5nc(c(-c6ccc(S(=O)(=O)[O-])cc6)c6ccc3[nH]6)C=C5)C=C4)cc2)CCC[N@@H+](Cc2ccc(C3CC3)cc2)C1
REMARK SMILES IDX 7 1 6 2 4 3 5 4 3 5 72 6 86 7 73 8 75 9 74 10 2 12 1 13
REMARK SMILES IDX 76 14 77 15 78 16 85 17 79 18 84 19 80 20 81 21 82 22 83 23
REMARK SMILES IDX 8 24 9 25 10 26 11 27 12 28 13 29 71 30 14 31 70 32 15 33
REMARK SMILES IDX 16 34 17 35 64 36 18 37 69 38 63 39 65 40 19 41 68 42 62 43
REMARK SMILES IDX 61 44 20 46 50 47 31 48 49 49 32 50 35 51 48 52 66 53 33 54
REMARK SMILES IDX 34 55 47 57 67 58 36 59 21 60 22 61 30 62 23 63 29 64 24 65
REMARK SMILES IDX 25 66 26 67 27 68 28 69 51 70 52 71 60 72 53 73 59 74 54 75
REMARK SMILES IDX 55 76 56 77 57 78 58 79 37 80 38 81 46 82 39 83 45 84 40 85
REMARK SMILES IDX 41 86 42 87 43 88 44 89
REMARK H PARENT 75 11 65 45 35 56
REMARK Flexibility Score: inf
ROOT
ATOM      1  C   UNL     1      -1.584   0.442   1.543  1.00  0.00     0.274 C 
ENDROOT
BRANCH   1   2
ATOM      2  O   UNL     1      -1.052   1.450   0.660  1.00  0.00    -0.461 OA
BRANCH   2   3
ATOM      3  C   UNL     1       0.267   1.729   0.852  1.00  0.00     0.317 C 
ATOM      4  O   UNL     1       0.973   1.126   1.655  1.00  0.00    -0.251 OA
BRANCH   3   5
ATOM      5  C   UNL     1       0.796   2.837  -0.068  1.00  0.00     0.117 C 
ATOM      6  C   UNL     1       2.176   3.285   0.488  1.00  0.00     0.030 C 
ATOM      7  C   UNL     1      -0.136   4.065  -0.115  1.00  0.00     0.281 C 
ATOM      8  C   UNL     1       2.028   4.041   1.808  1.00  0.00     0.063 C 
ATOM      9  N   UNL     1      -0.213   4.873   1.113  1.00  0.00    -0.330 N 
ATOM     10  C   UNL     1       1.112   5.245   1.629  1.00  0.00     0.262 C 
ATOM     11  H   UNL     1      -0.640   4.282   1.825  1.00  0.00     0.348 HD
BRANCH   5  12
ATOM     12  C   UNL     1       1.020   2.284  -1.506  1.00  0.00     0.021 C 
ATOM     13  C   UNL     1      -0.228   2.045  -2.351  1.00  0.00     0.005 C 
ENDBRANCH   5  12
BRANCH   9  14
ATOM     14  C   UNL     1      -1.093   6.057   0.934  1.00  0.00     0.299 C 
BRANCH  14  15
ATOM     15  C   UNL     1      -0.559   7.138   0.009  1.00  0.00     0.006 A 
ATOM     16  C   UNL     1       0.216   8.185   0.518  1.00  0.00     0.010 A 
ATOM     17  C   UNL     1      -0.718   7.047  -1.378  1.00  0.00     0.010 A 
ATOM     18  C   UNL     1       0.906   9.043  -0.345  1.00  0.00     0.004 A 
ATOM     19  C   UNL     1      -0.017   7.905  -2.233  1.00  0.00     0.004 A 
ATOM     20  C   UNL     1       0.844   8.901  -1.742  1.00  0.00    -0.045 A 
BRANCH  20  21
ATOM     21  C   UNL     1       1.723   9.766  -2.625  1.00  0.00     0.019 C 
ATOM     22  C   UNL     1       2.549   9.116  -3.713  1.00  0.00     0.009 C 
ATOM     23  C   UNL     1       1.418  10.035  -4.077  1.00  0.00     0.009 C 
ENDBRANCH  20  21
ENDBRANCH  14  15
ENDBRANCH   9  14
ENDBRANCH   3   5
ENDBRANCH   2   3
ENDBRANCH   1   2
BRANCH   1  24
ATOM     24  C   UNL     1      -1.498  -0.955   0.930  1.00  0.00     0.275 C 
BRANCH  24  25
ATOM     25  O   UNL     1      -0.130  -1.322   0.674  1.00  0.00    -0.458 OA
BRANCH  25  26
ATOM     26  C   UNL     1       0.138  -1.708  -0.594  1.00  0.00     0.338 C 
ATOM     27  O   UNL     1      -0.659  -1.816  -1.511  1.00  0.00    -0.246 OA
BRANCH  26  28
ATOM     28  C   UNL     1       1.570  -2.016  -0.764  1.00  0.00     0.060 A 
ATOM     29  C   UNL     1       2.539  -1.035  -0.559  1.00  0.00     0.016 A 
ATOM     30  C   UNL     1       1.927  -3.244  -1.323  1.00  0.00     0.016 A 
ATOM     31  C   UNL     1       3.835  -1.225  -1.043  1.00  0.00     0.010 A 
ATOM     32  C   UNL     1       3.248  -3.469  -1.718  1.00  0.00     0.010 A 
ATOM     33  C   UNL     1       4.201  -2.438  -1.644  1.00  0.00    -0.014 A 
BRANCH  33  34
ATOM     34  C   UNL     1       5.540  -2.608  -2.273  1.00  0.00     0.031 A 
ATOM     35  C   UNL     1       5.646  -2.883  -3.754  1.00  0.00     0.074 A 
ATOM     36  C   UNL     1       6.665  -2.503  -1.539  1.00  0.00     0.049 A 
ATOM     37  N   UNL     1       6.697  -3.218  -4.460  1.00  0.00    -0.248 NA
ATOM     38  C   UNL     1       4.406  -2.778  -4.540  1.00  0.00     0.031 C 
ATOM     39  C   UNL     1       6.723  -2.196  -0.108  1.00  0.00     0.029 A 
ATOM     40  N   UNL     1       7.982  -2.636  -1.903  1.00  0.00    -0.354 N 
ATOM     41  C   UNL     1       6.235  -3.422  -5.756  1.00  0.00     0.074 A 
ATOM     42  C   UNL     1       4.810  -3.168  -5.741  1.00  0.00     0.031 C 
ATOM     43  C   UNL     1       8.008  -2.131   0.275  1.00  0.00     0.029 A 
ATOM     44  C   UNL     1       8.861  -2.456  -0.863  1.00  0.00     0.049 A 
ATOM     45  H   UNL     1       8.268  -2.842  -2.823  1.00  0.00     0.167 HD
ATOM     46  C   UNL     1       6.929  -3.794  -6.860  1.00  0.00     0.031 A 
ATOM     47  C   UNL     1      10.202  -2.566  -0.819  1.00  0.00     0.031 A 
ATOM     48  C   UNL     1       8.351  -4.005  -6.893  1.00  0.00     0.049 A 
ATOM     49  C   UNL     1      10.954  -2.965  -2.055  1.00  0.00     0.074 A 
ATOM     50  C   UNL     1       9.143  -4.400  -7.958  1.00  0.00     0.029 A 
ATOM     51  N   UNL     1       9.200  -3.811  -5.815  1.00  0.00    -0.354 N 
ATOM     52  N   UNL     1      10.488  -3.235  -3.251  1.00  0.00    -0.248 NA
ATOM     53  C   UNL     1      12.413  -3.087  -1.931  1.00  0.00     0.031 C 
ATOM     54  C   UNL     1      10.472  -4.457  -7.518  1.00  0.00     0.029 A 
ATOM     55  C   UNL     1      10.508  -4.071  -6.189  1.00  0.00     0.049 A 
ATOM     56  H   UNL     1       8.916  -3.530  -4.915  1.00  0.00     0.167 HD
ATOM     57  C   UNL     1      11.597  -3.561  -4.022  1.00  0.00     0.074 A 
ATOM     58  C   UNL     1      12.758  -3.430  -3.165  1.00  0.00     0.031 C 
ATOM     59  C   UNL     1      11.648  -3.943  -5.321  1.00  0.00     0.031 A 
BRANCH  46  60
ATOM     60  C   UNL     1       6.140  -4.035  -8.117  1.00  0.00    -0.014 A 
ATOM     61  C   UNL     1       5.672  -2.967  -8.903  1.00  0.00     0.010 A 
ATOM     62  C   UNL     1       5.870  -5.355  -8.522  1.00  0.00     0.010 A 
ATOM     63  C   UNL     1       4.912  -3.215 -10.050  1.00  0.00     0.020 A 
ATOM     64  C   UNL     1       5.126  -5.607  -9.677  1.00  0.00     0.020 A 
ATOM     65  C   UNL     1       4.633  -4.534 -10.423  1.00  0.00     0.054 A 
BRANCH  65  66
ATOM     66  S   UNL     1       3.646  -4.840 -11.915  1.00  0.00     0.124 S 
ATOM     67  O   UNL     1       2.286  -4.655 -11.416  1.00  0.00    -0.237 OA
ATOM     68  O   UNL     1       4.120  -3.812 -12.838  1.00  0.00    -0.237 OA
ATOM     69  O   UNL     1       3.996  -6.210 -12.283  1.00  0.00    -0.744 OA
ENDBRANCH  65  66
ENDBRANCH  46  60
BRANCH  47  70
ATOM     70  C   UNL     1      10.916  -2.322   0.461  1.00  0.00    -0.014 A 
ATOM     71  C   UNL     1      11.638  -1.133   0.657  1.00  0.00     0.010 A 
ATOM     72  C   UNL     1      10.848  -3.267   1.501  1.00  0.00     0.010 A 
ATOM     73  C   UNL     1      12.282  -0.891   1.874  1.00  0.00     0.020 A 
ATOM     74  C   UNL     1      11.473  -3.019   2.725  1.00  0.00     0.020 A 
ATOM     75  C   UNL     1      12.194  -1.835   2.901  1.00  0.00     0.054 A 
BRANCH  75  76
ATOM     76  S   UNL     1      12.963  -1.477   4.505  1.00  0.00     0.124 S 
ATOM     77  O   UNL     1      14.339  -1.909   4.284  1.00  0.00    -0.237 OA
ATOM     78  O   UNL     1      12.767  -0.035   4.644  1.00  0.00    -0.237 OA
ATOM     79  O   UNL     1      12.189  -2.293   5.438  1.00  0.00    -0.744 OA
ENDBRANCH  75  76
ENDBRANCH  47  70
BRANCH  59  80
ATOM     80  C   UNL     1      13.009  -4.230  -5.888  1.00  0.00    -0.014 A 
ATOM     81  C   UNL     1      13.662  -5.444  -5.612  1.00  0.00     0.010 A 
ATOM     82  C   UNL     1      13.637  -3.279  -6.711  1.00  0.00     0.010 A 
ATOM     83  C   UNL     1      14.941  -5.687  -6.117  1.00  0.00     0.020 A 
ATOM     84  C   UNL     1      14.910  -3.525  -7.231  1.00  0.00     0.020 A 
ATOM     85  C   UNL     1      15.562  -4.720  -6.915  1.00  0.00     0.054 A 
BRANCH  85  86
ATOM     86  S   UNL     1      17.220  -5.050  -7.574  1.00  0.00     0.124 S 
ATOM     87  O   UNL     1      18.073  -4.656  -6.457  1.00  0.00    -0.237 OA
ATOM     88  O   UNL     1      17.181  -6.482  -7.861  1.00  0.00    -0.237 OA
ATOM     89  O   UNL     1      17.294  -4.189  -8.753  1.00  0.00    -0.744 OA
ENDBRANCH  85  86
ENDBRANCH  59  80
ENDBRANCH  33  34
ENDBRANCH  26  28
ENDBRANCH  25  26
ENDBRANCH  24  25
ENDBRANCH   1  24
TORSDOF 18
