REMARK SMILES Cc1c(CC(=O)N[C@@H](CCO)C(=O)OCCOC(=O)c2ccc(-c3c4nc(c(-c5ccc(S(=O)(=O)[O-])cc5)c5ccc([nH]5)c(-c5ccc(S(=O)(=O)[O-])cc5)c5nc(c(-c6ccc(S(=O)(=O)[O-])cc6)c6ccc3[nH]6)C=C5)C=C4)cc2)cc(-c2ccc(S(C)(=O)=O)cc2)n1-c1ccc(F)cc1
REMARK SMILES IDX 15 1 14 2 12 3 13 4 8 5 7 6 5 7 6 8 4 10 3 11 1 12 2 13
REMARK SMILES IDX 92 14 80 15 81 16 93 17 94 18 99 19 95 20 98 21 96 22 97 23
REMARK SMILES IDX 82 24 83 25 91 26 84 27 90 28 85 29 86 30 87 31 88 32 89 33
REMARK SMILES IDX 9 34 10 35 11 36 16 38 17 39 18 40 19 41 20 42 21 43 79 44
REMARK SMILES IDX 22 45 78 46 23 47 24 48 25 49 72 50 26 51 77 52 71 53 73 54
REMARK SMILES IDX 27 55 76 56 70 57 69 58 28 60 58 61 39 62 57 63 40 64 43 65
REMARK SMILES IDX 56 66 74 67 41 68 42 69 55 71 75 72 44 73 29 74 30 75 38 76
REMARK SMILES IDX 31 77 37 78 32 79 33 80 34 81 35 82 36 83 59 84 60 85 68 86
REMARK SMILES IDX 61 87 67 88 62 89 63 90 64 91 65 92 66 93 45 94 46 95 54 96
REMARK SMILES IDX 47 97 53 98 48 99 49 100 50 101 51 102 52 103
REMARK H PARENT 7 9 11 37 73 59 43 70
REMARK Flexibility Score: inf
ROOT
ATOM      1  C   UNL     1       0.105  -7.116  -3.998  1.00  0.00     0.274 C 
ENDROOT
BRANCH   1   2
ATOM      2  O   UNL     1       0.045  -5.761  -3.466  1.00  0.00    -0.461 OA
BRANCH   2   3
ATOM      3  C   UNL     1      -0.822  -5.530  -2.437  1.00  0.00     0.328 C 
ATOM      4  O   UNL     1      -1.545  -6.382  -1.934  1.00  0.00    -0.250 OA
BRANCH   3   5
ATOM      5  C   UNL     1      -0.718  -4.086  -1.892  1.00  0.00     0.194 C 
BRANCH   5   6
ATOM      6  N   UNL     1       0.096  -3.140  -2.661  1.00  0.00    -0.342 N 
ATOM      7  C   UNL     1       1.223  -2.467  -2.275  1.00  0.00     0.225 C 
ATOM      8  O   UNL     1       1.654  -1.601  -3.039  1.00  0.00    -0.275 OA
ATOM      9  H   UNL     1      -0.209  -2.965  -3.580  1.00  0.00     0.164 HD
BRANCH   7  10
ATOM     10  C   UNL     1       1.911  -2.793  -0.954  1.00  0.00     0.137 C 
BRANCH  10  11
ATOM     11  C   UNL     1       1.087  -2.424   0.249  1.00  0.00    -0.017 A 
ATOM     12  C   UNL     1       0.949   0.138  -0.035  1.00  0.00     0.065 C 
ATOM     13  C   UNL     1       0.612  -1.169   0.607  1.00  0.00     0.024 A 
ATOM     14  N   UNL     1      -0.186  -1.309   1.738  1.00  0.00    -0.314 N 
ATOM     15  C   UNL     1       0.655  -3.325   1.259  1.00  0.00     0.033 A 
ATOM     16  C   UNL     1      -0.187  -2.653   2.125  1.00  0.00     0.053 A 
BRANCH  14  17
ATOM     17  C   UNL     1      -0.919  -0.278   2.389  1.00  0.00     0.046 A 
ATOM     18  C   UNL     1      -0.858  -0.164   3.786  1.00  0.00     0.029 A 
ATOM     19  C   UNL     1      -1.774   0.545   1.645  1.00  0.00     0.029 A 
ATOM     20  C   UNL     1      -1.674   0.754   4.442  1.00  0.00     0.041 A 
ATOM     21  C   UNL     1      -2.596   1.455   2.311  1.00  0.00     0.041 A 
ATOM     22  C   UNL     1      -2.543   1.546   3.700  1.00  0.00     0.123 A 
ATOM     23  F   UNL     1      -3.353   2.403   4.336  1.00  0.00    -0.207 F 
ENDBRANCH  14  17
BRANCH  16  24
ATOM     24  C   UNL     1      -1.000  -3.231   3.206  1.00  0.00    -0.001 A 
ATOM     25  C   UNL     1      -2.390  -3.034   3.258  1.00  0.00     0.011 A 
ATOM     26  C   UNL     1      -0.382  -3.976   4.218  1.00  0.00     0.011 A 
ATOM     27  C   UNL     1      -3.138  -3.504   4.340  1.00  0.00     0.021 A 
ATOM     28  C   UNL     1      -1.123  -4.455   5.301  1.00  0.00     0.021 A 
ATOM     29  C   UNL     1      -2.493  -4.193   5.370  1.00  0.00     0.067 A 
BRANCH  29  30
ATOM     30  S   UNL     1      -3.444  -4.752   6.762  1.00  0.00     0.175 S 
ATOM     31  C   UNL     1      -3.942  -3.255   7.574  1.00  0.00     0.163 C 
ATOM     32  O   UNL     1      -4.621  -5.405   6.251  1.00  0.00    -0.224 OA
ATOM     33  O   UNL     1      -2.534  -5.445   7.672  1.00  0.00    -0.224 OA
ENDBRANCH  29  30
ENDBRANCH  16  24
ENDBRANCH  10  11
ENDBRANCH   7  10
ENDBRANCH   5   6
BRANCH   5  34
ATOM     34  C   UNL     1      -2.071  -3.449  -1.518  1.00  0.00     0.065 C 
BRANCH  34  35
ATOM     35  C   UNL     1      -2.935  -2.989  -2.687  1.00  0.00     0.159 C 
BRANCH  35  36
ATOM     36  O   UNL     1      -3.363  -4.082  -3.479  1.00  0.00    -0.396 OA
ATOM     37  H   UNL     1      -2.590  -4.538  -3.847  1.00  0.00     0.210 HD
ENDBRANCH  35  36
ENDBRANCH  34  35
ENDBRANCH   5  34
ENDBRANCH   3   5
ENDBRANCH   2   3
ENDBRANCH   1   2
BRANCH   1  38
ATOM     38  C   UNL     1       1.547  -7.485  -4.463  1.00  0.00     0.275 C 
BRANCH  38  39
ATOM     39  O   UNL     1       2.312  -8.528  -3.738  1.00  0.00    -0.458 OA
BRANCH  39  40
ATOM     40  C   UNL     1       3.380  -8.131  -2.961  1.00  0.00     0.338 C 
ATOM     41  O   UNL     1       3.459  -6.997  -2.507  1.00  0.00    -0.246 OA
BRANCH  40  42
ATOM     42  C   UNL     1       4.419  -9.239  -2.616  1.00  0.00     0.060 A 
ATOM     43  C   UNL     1       4.551  -9.666  -1.300  1.00  0.00     0.016 A 
ATOM     44  C   UNL     1       5.441  -9.728  -3.464  1.00  0.00     0.016 A 
ATOM     45  C   UNL     1       5.592 -10.596  -0.890  1.00  0.00     0.010 A 
ATOM     46  C   UNL     1       6.556 -10.626  -3.016  1.00  0.00     0.010 A 
ATOM     47  C   UNL     1       6.679 -11.123  -1.700  1.00  0.00    -0.014 A 
BRANCH  47  48
ATOM     48  C   UNL     1       8.025 -11.750  -0.876  1.00  0.00     0.031 A 
ATOM     49  C   UNL     1       8.136 -10.758   0.229  1.00  0.00     0.074 A 
ATOM     50  C   UNL     1       9.124 -12.653  -0.876  1.00  0.00     0.049 A 
ATOM     51  N   UNL     1       8.257  -9.505  -0.104  1.00  0.00    -0.248 NA
ATOM     52  C   UNL     1       7.721 -10.981   1.612  1.00  0.00     0.031 C 
ATOM     53  C   UNL     1       9.584 -13.551  -1.957  1.00  0.00     0.029 A 
ATOM     54  N   UNL     1      10.149 -12.996   0.111  1.00  0.00    -0.354 N 
ATOM     55  C   UNL     1       8.264  -8.786   1.057  1.00  0.00     0.074 A 
ATOM     56  C   UNL     1       7.693  -9.709   2.037  1.00  0.00     0.031 C 
ATOM     57  C   UNL     1      10.582 -14.406  -1.557  1.00  0.00     0.029 A 
ATOM     58  C   UNL     1      10.991 -14.170  -0.168  1.00  0.00     0.049 A 
ATOM     59  H   UNL     1      10.271 -12.461   0.929  1.00  0.00     0.167 HD
ATOM     60  C   UNL     1       9.329  -7.942   1.192  1.00  0.00     0.031 A 
ATOM     61  C   UNL     1      11.996 -14.826   0.584  1.00  0.00     0.031 A 
ATOM     62  C   UNL     1      10.351  -8.521   2.027  1.00  0.00     0.049 A 
ATOM     63  C   UNL     1      12.641 -13.744   1.339  1.00  0.00     0.074 A 
ATOM     64  C   UNL     1      10.310  -9.249   3.201  1.00  0.00     0.029 A 
ATOM     65  N   UNL     1      11.559  -8.804   1.424  1.00  0.00    -0.354 N 
ATOM     66  N   UNL     1      13.433 -12.887   0.771  1.00  0.00    -0.248 NA
ATOM     67  C   UNL     1      12.541 -13.656   2.791  1.00  0.00     0.031 C 
ATOM     68  C   UNL     1      11.214 -10.310   2.990  1.00  0.00     0.029 A 
ATOM     69  C   UNL     1      12.069  -9.973   1.949  1.00  0.00     0.049 A 
ATOM     70  H   UNL     1      11.990  -8.257   0.728  1.00  0.00     0.167 HD
ATOM     71  C   UNL     1      13.484 -11.875   1.684  1.00  0.00     0.074 A 
ATOM     72  C   UNL     1      13.162 -12.489   2.962  1.00  0.00     0.031 C 
ATOM     73  C   UNL     1      13.130 -10.645   1.237  1.00  0.00     0.031 A 
BRANCH  60  74
ATOM     74  C   UNL     1       9.656  -7.122  -0.043  1.00  0.00    -0.014 A 
ATOM     75  C   UNL     1       9.573  -5.726   0.011  1.00  0.00     0.010 A 
ATOM     76  C   UNL     1      10.001  -7.721  -1.280  1.00  0.00     0.010 A 
ATOM     77  C   UNL     1       9.768  -4.961  -1.149  1.00  0.00     0.020 A 
ATOM     78  C   UNL     1      10.159  -6.970  -2.445  1.00  0.00     0.020 A 
ATOM     79  C   UNL     1      10.037  -5.589  -2.373  1.00  0.00     0.054 A 
BRANCH  79  80
ATOM     80  S   UNL     1      10.164  -4.575  -3.870  1.00  0.00     0.124 S 
ATOM     81  O   UNL     1       8.959  -3.749  -3.792  1.00  0.00    -0.237 OA
ATOM     82  O   UNL     1      11.416  -3.858  -3.652  1.00  0.00    -0.237 OA
ATOM     83  O   UNL     1      10.158  -5.547  -4.960  1.00  0.00    -0.744 OA
ENDBRANCH  79  80
ENDBRANCH  60  74
BRANCH  61  84
ATOM     84  C   UNL     1      12.915 -16.133   0.814  1.00  0.00    -0.014 A 
ATOM     85  C   UNL     1      14.246 -16.012   1.379  1.00  0.00     0.010 A 
ATOM     86  C   UNL     1      12.392 -17.435   0.947  1.00  0.00     0.010 A 
ATOM     87  C   UNL     1      14.916 -17.028   2.130  1.00  0.00     0.020 A 
ATOM     88  C   UNL     1      13.075 -18.480   1.676  1.00  0.00     0.020 A 
ATOM     89  C   UNL     1      14.306 -18.259   2.308  1.00  0.00     0.054 A 
BRANCH  89  90
ATOM     90  S   UNL     1      15.040 -19.483   3.480  1.00  0.00     0.124 S 
ATOM     91  O   UNL     1      16.279 -19.880   2.818  1.00  0.00    -0.237 OA
ATOM     92  O   UNL     1      15.211 -18.700   4.704  1.00  0.00    -0.237 OA
ATOM     93  O   UNL     1      14.023 -20.529   3.568  1.00  0.00    -0.744 OA
ENDBRANCH  89  90
ENDBRANCH  61  84
BRANCH  73  94
ATOM     94  C   UNL     1      13.722 -10.164  -0.071  1.00  0.00    -0.014 A 
ATOM     95  C   UNL     1      13.762 -10.893  -1.280  1.00  0.00     0.010 A 
ATOM     96  C   UNL     1      14.312  -8.888  -0.062  1.00  0.00     0.010 A 
ATOM     97  C   UNL     1      14.413 -10.384  -2.416  1.00  0.00     0.020 A 
ATOM     98  C   UNL     1      14.926  -8.357  -1.199  1.00  0.00     0.020 A 
ATOM     99  C   UNL     1      15.000  -9.120  -2.363  1.00  0.00     0.054 A 
BRANCH  99 100
ATOM    100  S   UNL     1      15.903  -8.498  -3.808  1.00  0.00     0.124 S 
ATOM    101  O   UNL     1      17.045  -9.410  -3.873  1.00  0.00    -0.237 OA
ATOM    102  O   UNL     1      14.931  -8.645  -4.886  1.00  0.00    -0.237 OA
ATOM    103  O   UNL     1      16.243  -7.126  -3.439  1.00  0.00    -0.744 OA
ENDBRANCH  99 100
ENDBRANCH  73  94
ENDBRANCH  47  48
ENDBRANCH  40  42
ENDBRANCH  39  40
ENDBRANCH  38  39
ENDBRANCH   1  38
TORSDOF 23
