REMARK SMILES O=C(/C=C/N[C@@H](Cc1c[nH]c2ccccc12)C(=O)OCCOC(=O)c1ccc(-c2c3nc(c(-c4ccc(S(=O)(=O)[O-])cc4)c4ccc([nH]4)c(-c4ccc(S(=O)(=O)[O-])cc4)c4nc(c(-c5ccc(S(=O)(=O)[O-])cc5)c5ccc2[nH]5)C=C4)C=C3)cc1)c1ccccc1
REMARK SMILES IDX 20 1 19 2 17 3 18 4 6 5 5 6 4 8 3 9 2 10 1 11 85 12 86 13
REMARK SMILES IDX 90 14 87 15 89 16 88 17 7 18 8 19 9 20 16 21 10 22 11 23
REMARK SMILES IDX 15 24 12 26 14 27 13 28 21 29 22 30 23 31 24 32 25 33 26 34
REMARK SMILES IDX 84 35 27 36 83 37 28 38 29 39 30 40 77 41 31 42 82 43 76 44
REMARK SMILES IDX 78 45 32 46 81 47 75 48 74 49 33 51 63 52 44 53 62 54 45 55
REMARK SMILES IDX 48 56 61 57 79 58 46 59 47 60 60 62 80 63 49 64 34 65 35 66
REMARK SMILES IDX 43 67 36 68 42 69 37 70 38 71 39 72 40 73 41 74 64 75 65 76
REMARK SMILES IDX 73 77 66 78 72 79 67 80 68 81 69 82 70 83 71 84 50 85 51 86
REMARK SMILES IDX 59 87 52 88 58 89 53 90 54 91 55 92 56 93 57 94
REMARK H PARENT 5 7 10 25 78 50 48 61
REMARK Flexibility Score: inf
ROOT
ATOM      1  C   UNL     1       7.261   4.389   3.664  1.00  0.00     0.274 C 
ENDROOT
BRANCH   1   2
ATOM      2  O   UNL     1       6.606   3.997   2.444  1.00  0.00    -0.461 OA
BRANCH   2   3
ATOM      3  C   UNL     1       7.403   3.508   1.447  1.00  0.00     0.329 C 
ATOM      4  O   UNL     1       8.626   3.435   1.498  1.00  0.00    -0.250 OA
BRANCH   3   5
ATOM      5  C   UNL     1       6.580   3.035   0.238  1.00  0.00     0.194 C 
BRANCH   5   6
ATOM      6  N   UNL     1       5.195   2.698   0.612  1.00  0.00    -0.378 N 
ATOM      7  H   UNL     1       4.766   3.277   1.282  1.00  0.00     0.160 HD
BRANCH   6   8
ATOM      8  C   UNL     1       4.439   1.663   0.124  1.00  0.00     0.082 C 
ATOM      9  C   UNL     1       3.213   1.321   0.539  1.00  0.00     0.070 C 
BRANCH   9  10
ATOM     10  C   UNL     1       2.449   0.170  -0.010  1.00  0.00     0.187 C 
ATOM     11  O   UNL     1       1.236   0.276  -0.173  1.00  0.00    -0.289 OA
BRANCH  10  12
ATOM     12  C   UNL     1       3.151  -1.096  -0.348  1.00  0.00     0.022 A 
ATOM     13  C   UNL     1       4.261  -1.540   0.381  1.00  0.00     0.012 A 
ATOM     14  C   UNL     1       2.660  -1.875  -1.402  1.00  0.00     0.012 A 
ATOM     15  C   UNL     1       4.906  -2.722   0.017  1.00  0.00     0.001 A 
ATOM     16  C   UNL     1       3.303  -3.065  -1.753  1.00  0.00     0.001 A 
ATOM     17  C   UNL     1       4.431  -3.482  -1.049  1.00  0.00     0.000 A 
ENDBRANCH  10  12
ENDBRANCH   9  10
ENDBRANCH   6   8
ENDBRANCH   5   6
BRANCH   5  18
ATOM     18  C   UNL     1       6.651   4.043  -0.911  1.00  0.00     0.074 C 
BRANCH  18  19
ATOM     19  C   UNL     1       6.354   5.467  -0.544  1.00  0.00    -0.020 A 
ATOM     20  C   UNL     1       5.200   5.951   0.040  1.00  0.00     0.087 A 
ATOM     21  C   UNL     1       7.215   6.594  -0.752  1.00  0.00     0.003 A 
ATOM     22  N   UNL     1       5.341   7.298   0.225  1.00  0.00    -0.361 N 
ATOM     23  C   UNL     1       6.554   7.721  -0.263  1.00  0.00     0.046 A 
ATOM     24  C   UNL     1       8.496   6.760  -1.317  1.00  0.00     0.010 A 
ATOM     25  H   UNL     1       4.670   7.881   0.646  1.00  0.00     0.166 HD
ATOM     26  C   UNL     1       7.110   9.005  -0.311  1.00  0.00     0.026 A 
ATOM     27  C   UNL     1       9.063   8.038  -1.382  1.00  0.00     0.001 A 
ATOM     28  C   UNL     1       8.377   9.143  -0.885  1.00  0.00     0.002 A 
ENDBRANCH  18  19
ENDBRANCH   5  18
ENDBRANCH   3   5
ENDBRANCH   2   3
ENDBRANCH   1   2
BRANCH   1  29
ATOM     29  C   UNL     1       6.866   3.447   4.803  1.00  0.00     0.275 C 
BRANCH  29  30
ATOM     30  O   UNL     1       7.324   2.109   4.541  1.00  0.00    -0.458 OA
BRANCH  30  31
ATOM     31  C   UNL     1       6.408   1.287   3.974  1.00  0.00     0.338 C 
ATOM     32  O   UNL     1       5.241   1.531   3.727  1.00  0.00    -0.246 OA
BRANCH  31  33
ATOM     33  C   UNL     1       7.082   0.044   3.574  1.00  0.00     0.060 A 
ATOM     34  C   UNL     1       7.346  -0.157   2.219  1.00  0.00     0.016 A 
ATOM     35  C   UNL     1       7.401  -0.937   4.512  1.00  0.00     0.016 A 
ATOM     36  C   UNL     1       7.929  -1.344   1.789  1.00  0.00     0.010 A 
ATOM     37  C   UNL     1       7.995  -2.127   4.080  1.00  0.00     0.010 A 
ATOM     38  C   UNL     1       8.252  -2.344   2.715  1.00  0.00    -0.014 A 
BRANCH  38  39
ATOM     39  C   UNL     1       8.833  -3.625   2.244  1.00  0.00     0.031 A 
ATOM     40  C   UNL     1       8.006  -4.880   2.260  1.00  0.00     0.074 A 
ATOM     41  C   UNL     1      10.096  -3.652   1.777  1.00  0.00     0.049 A 
ATOM     42  N   UNL     1       8.342  -6.092   1.901  1.00  0.00    -0.248 NA
ATOM     43  C   UNL     1       6.614  -4.754   2.724  1.00  0.00     0.031 C 
ATOM     44  C   UNL     1      10.982  -2.490   1.669  1.00  0.00     0.029 A 
ATOM     45  N   UNL     1      10.855  -4.695   1.312  1.00  0.00    -0.354 N 
ATOM     46  C   UNL     1       7.209  -6.873   2.094  1.00  0.00     0.074 A 
ATOM     47  C   UNL     1       6.177  -6.001   2.612  1.00  0.00     0.031 C 
ATOM     48  C   UNL     1      12.164  -2.886   1.170  1.00  0.00     0.029 A 
ATOM     49  C   UNL     1      12.137  -4.332   0.972  1.00  0.00     0.049 A 
ATOM     50  H   UNL     1      10.515  -5.615   1.229  1.00  0.00     0.167 HD
ATOM     51  C   UNL     1       7.045  -8.198   1.866  1.00  0.00     0.031 A 
ATOM     52  C   UNL     1      13.184  -5.084   0.579  1.00  0.00     0.031 A 
ATOM     53  C   UNL     1       8.087  -9.073   1.397  1.00  0.00     0.049 A 
ATOM     54  C   UNL     1      13.009  -6.571   0.445  1.00  0.00     0.074 A 
ATOM     55  C   UNL     1       8.022 -10.432   1.146  1.00  0.00     0.029 A 
ATOM     56  N   UNL     1       9.389  -8.679   1.128  1.00  0.00    -0.354 N 
ATOM     57  N   UNL     1      11.925  -7.290   0.617  1.00  0.00    -0.248 NA
ATOM     58  C   UNL     1      14.198  -7.348   0.070  1.00  0.00     0.031 C 
ATOM     59  C   UNL     1       9.300 -10.870   0.782  1.00  0.00     0.029 A 
ATOM     60  C   UNL     1      10.148  -9.774   0.751  1.00  0.00     0.049 A 
ATOM     61  H   UNL     1       9.725  -7.756   1.196  1.00  0.00     0.167 HD
ATOM     62  C   UNL     1      12.300  -8.604   0.360  1.00  0.00     0.074 A 
ATOM     63  C   UNL     1      13.704  -8.577   0.003  1.00  0.00     0.031 C 
ATOM     64  C   UNL     1      11.548  -9.732   0.415  1.00  0.00     0.031 A 
BRANCH  51  65
ATOM     65  C   UNL     1       5.698  -8.791   2.178  1.00  0.00    -0.014 A 
ATOM     66  C   UNL     1       4.590  -8.563   1.342  1.00  0.00     0.010 A 
ATOM     67  C   UNL     1       5.545  -9.609   3.312  1.00  0.00     0.010 A 
ATOM     68  C   UNL     1       3.345  -9.116   1.654  1.00  0.00     0.020 A 
ATOM     69  C   UNL     1       4.306 -10.180   3.616  1.00  0.00     0.020 A 
ATOM     70  C   UNL     1       3.210  -9.916   2.793  1.00  0.00     0.054 A 
BRANCH  70  71
ATOM     71  S   UNL     1       1.586 -10.633   3.169  1.00  0.00     0.124 S 
ATOM     72  O   UNL     1       0.850  -9.469   3.657  1.00  0.00    -0.237 OA
ATOM     73  O   UNL     1       1.155 -11.151   1.873  1.00  0.00    -0.237 OA
ATOM     74  O   UNL     1       1.881 -11.650   4.176  1.00  0.00    -0.744 OA
ENDBRANCH  70  71
ENDBRANCH  51  65
BRANCH  52  75
ATOM     75  C   UNL     1      14.504  -4.442   0.334  1.00  0.00    -0.014 A 
ATOM     76  C   UNL     1      15.025  -4.339  -0.966  1.00  0.00     0.010 A 
ATOM     77  C   UNL     1      15.241  -3.914   1.411  1.00  0.00     0.010 A 
ATOM     78  C   UNL     1      16.263  -3.725  -1.185  1.00  0.00     0.020 A 
ATOM     79  C   UNL     1      16.465  -3.278   1.194  1.00  0.00     0.020 A 
ATOM     80  C   UNL     1      16.974  -3.196  -0.103  1.00  0.00     0.054 A 
BRANCH  80  81
ATOM     81  S   UNL     1      18.547  -2.347  -0.415  1.00  0.00     0.124 S 
ATOM     82  O   UNL     1      19.454  -3.466  -0.645  1.00  0.00    -0.237 OA
ATOM     83  O   UNL     1      18.239  -1.529  -1.586  1.00  0.00    -0.237 OA
ATOM     84  O   UNL     1      18.777  -1.594   0.816  1.00  0.00    -0.744 OA
ENDBRANCH  80  81
ENDBRANCH  52  75
BRANCH  64  85
ATOM     85  C   UNL     1      12.227 -11.028   0.069  1.00  0.00    -0.014 A 
ATOM     86  C   UNL     1      13.129 -11.634   0.961  1.00  0.00     0.010 A 
ATOM     87  C   UNL     1      11.924 -11.671  -1.145  1.00  0.00     0.010 A 
ATOM     88  C   UNL     1      13.738 -12.848   0.632  1.00  0.00     0.020 A 
ATOM     89  C   UNL     1      12.512 -12.897  -1.466  1.00  0.00     0.020 A 
ATOM     90  C   UNL     1      13.427 -13.471  -0.581  1.00  0.00     0.054 A 
BRANCH  90  91
ATOM     91  S   UNL     1      14.197 -15.066  -0.969  1.00  0.00     0.124 S 
ATOM     92  O   UNL     1      15.548 -14.665  -1.354  1.00  0.00    -0.237 OA
ATOM     93  O   UNL     1      14.093 -15.791   0.295  1.00  0.00    -0.237 OA
ATOM     94  O   UNL     1      13.371 -15.595  -2.052  1.00  0.00    -0.744 OA
ENDBRANCH  90  91
ENDBRANCH  64  85
ENDBRANCH  38  39
ENDBRANCH  31  33
ENDBRANCH  30  31
ENDBRANCH  29  30
ENDBRANCH   1  29
TORSDOF 20
