REMARK SMILES O=C(OCCOC(=O)[C@H]1Cc2ccc(Cl)cc2C[N@@H+]1Cc1ccc(Cl)cc1)c1ccc(-c2c3nc(c(-c4ccc(S(=O)(=O)[O-])cc4)c4ccc([nH]4)c(-c4ccc(S(=O)(=O)[O-])cc4)c4nc(c(-c5ccc(S(=O)(=O)[O-])cc5)c5ccc2[nH]5)C=C4)C=C3)cc1
REMARK SMILES IDX 4 1 3 2 2 3 1 4 28 5 29 6 87 7 30 8 86 9 31 10 32 11 33 12
REMARK SMILES IDX 80 13 34 14 85 15 79 16 81 17 35 18 84 19 78 20 77 21 36 23
REMARK SMILES IDX 66 24 47 25 65 26 48 27 51 28 64 29 82 30 49 31 50 32 63 34
REMARK SMILES IDX 83 35 52 36 37 37 38 38 46 39 39 40 45 41 40 42 41 43 42 44
REMARK SMILES IDX 43 45 44 46 67 47 68 48 76 49 69 50 75 51 70 52 71 53 72 54
REMARK SMILES IDX 73 55 74 56 53 57 54 58 62 59 55 60 61 61 56 62 57 63 58 64
REMARK SMILES IDX 59 65 60 66 5 67 6 68 7 69 8 70 9 71 10 72 19 73 11 74 18 75
REMARK SMILES IDX 12 77 17 78 13 79 16 80 14 81 15 82 20 83 21 84 22 85 27 86
REMARK SMILES IDX 23 87 26 88 24 89 25 90
REMARK H PARENT 81 22 51 33 19 76
REMARK Flexibility Score: inf
ROOT
ATOM      1  C   UNL     1       4.481  -1.250  -0.506  1.00  0.00     0.275 C 
ENDROOT
BRANCH   1   2
ATOM      2  O   UNL     1       3.766  -1.101   0.730  1.00  0.00    -0.458 OA
BRANCH   2   3
ATOM      3  C   UNL     1       3.583  -0.002   1.498  1.00  0.00     0.338 C 
ATOM      4  O   UNL     1       2.821  -0.095   2.461  1.00  0.00    -0.246 OA
BRANCH   3   5
ATOM      5  C   UNL     1       4.183   1.342   1.206  1.00  0.00     0.060 A 
ATOM      6  C   UNL     1       3.474   2.439   1.705  1.00  0.00     0.016 A 
ATOM      7  C   UNL     1       5.378   1.607   0.529  1.00  0.00     0.016 A 
ATOM      8  C   UNL     1       3.881   3.747   1.433  1.00  0.00     0.010 A 
ATOM      9  C   UNL     1       5.803   2.928   0.275  1.00  0.00     0.010 A 
ATOM     10  C   UNL     1       5.048   4.021   0.703  1.00  0.00    -0.014 A 
BRANCH  10  11
ATOM     11  C   UNL     1       5.519   5.432   0.600  1.00  0.00     0.031 A 
ATOM     12  C   UNL     1       5.632   6.198  -0.690  1.00  0.00     0.074 A 
ATOM     13  C   UNL     1       5.806   6.072   1.748  1.00  0.00     0.049 A 
ATOM     14  N   UNL     1       5.574   7.493  -0.882  1.00  0.00    -0.248 NA
ATOM     15  C   UNL     1       5.789   5.439  -1.931  1.00  0.00     0.031 C 
ATOM     16  C   UNL     1       5.763   5.465   3.081  1.00  0.00     0.029 A 
ATOM     17  N   UNL     1       6.186   7.366   1.979  1.00  0.00    -0.354 N 
ATOM     18  C   UNL     1       5.520   7.679  -2.260  1.00  0.00     0.074 A 
ATOM     19  C   UNL     1       5.612   6.372  -2.864  1.00  0.00     0.031 C 
ATOM     20  C   UNL     1       6.086   6.390   3.991  1.00  0.00     0.029 A 
ATOM     21  C   UNL     1       6.431   7.628   3.302  1.00  0.00     0.049 A 
ATOM     22  H   UNL     1       6.275   8.040   1.267  1.00  0.00     0.167 HD
ATOM     23  C   UNL     1       5.444   8.839  -2.953  1.00  0.00     0.031 A 
ATOM     24  C   UNL     1       6.926   8.728   3.899  1.00  0.00     0.031 A 
ATOM     25  C   UNL     1       5.766  10.116  -2.369  1.00  0.00     0.049 A 
ATOM     26  C   UNL     1       7.184   9.940   3.062  1.00  0.00     0.074 A 
ATOM     27  C   UNL     1       5.871  11.345  -2.995  1.00  0.00     0.029 A 
ATOM     28  N   UNL     1       6.177  10.298  -1.056  1.00  0.00    -0.354 N 
ATOM     29  N   UNL     1       6.896  10.134   1.797  1.00  0.00    -0.248 NA
ATOM     30  C   UNL     1       7.834  11.077   3.720  1.00  0.00     0.031 C 
ATOM     31  C   UNL     1       6.493  12.226  -2.104  1.00  0.00     0.029 A 
ATOM     32  C   UNL     1       6.663  11.582  -0.887  1.00  0.00     0.049 A 
ATOM     33  H   UNL     1       6.129   9.614  -0.349  1.00  0.00     0.167 HD
ATOM     34  C   UNL     1       7.321  11.423   1.504  1.00  0.00     0.074 A 
ATOM     35  C   UNL     1       7.874  11.964   2.732  1.00  0.00     0.031 C 
ATOM     36  C   UNL     1       7.253  12.093   0.328  1.00  0.00     0.031 A 
BRANCH  23  37
ATOM     37  C   UNL     1       5.100   8.805  -4.423  1.00  0.00    -0.014 A 
ATOM     38  C   UNL     1       6.073   9.083  -5.400  1.00  0.00     0.010 A 
ATOM     39  C   UNL     1       3.755   8.683  -4.822  1.00  0.00     0.010 A 
ATOM     40  C   UNL     1       5.706   9.276  -6.738  1.00  0.00     0.020 A 
ATOM     41  C   UNL     1       3.384   8.864  -6.161  1.00  0.00     0.020 A 
ATOM     42  C   UNL     1       4.361   9.181  -7.108  1.00  0.00     0.054 A 
BRANCH  42  43
ATOM     43  S   UNL     1       3.903   9.509  -8.836  1.00  0.00     0.124 S 
ATOM     44  O   UNL     1       4.186  10.935  -8.967  1.00  0.00    -0.237 OA
ATOM     45  O   UNL     1       4.797   8.617  -9.571  1.00  0.00    -0.237 OA
ATOM     46  O   UNL     1       2.489   9.145  -8.890  1.00  0.00    -0.744 OA
ENDBRANCH  42  43
ENDBRANCH  23  37
BRANCH  24  47
ATOM     47  C   UNL     1       7.229   8.648   5.351  1.00  0.00    -0.014 A 
ATOM     48  C   UNL     1       8.201   7.729   5.803  1.00  0.00     0.010 A 
ATOM     49  C   UNL     1       6.441   9.328   6.291  1.00  0.00     0.010 A 
ATOM     50  C   UNL     1       8.307   7.415   7.157  1.00  0.00     0.020 A 
ATOM     51  C   UNL     1       6.573   9.043   7.655  1.00  0.00     0.020 A 
ATOM     52  C   UNL     1       7.474   8.058   8.072  1.00  0.00     0.054 A 
BRANCH  52  53
ATOM     53  S   UNL     1       7.554   7.556   9.813  1.00  0.00     0.124 S 
ATOM     54  O   UNL     1       6.839   6.282   9.789  1.00  0.00    -0.237 OA
ATOM     55  O   UNL     1       8.992   7.465  10.053  1.00  0.00    -0.237 OA
ATOM     56  O   UNL     1       6.875   8.642  10.513  1.00  0.00    -0.744 OA
ENDBRANCH  52  53
ENDBRANCH  24  47
BRANCH  36  57
ATOM     57  C   UNL     1       7.834  13.480   0.276  1.00  0.00    -0.014 A 
ATOM     58  C   UNL     1       6.990  14.583   0.051  1.00  0.00     0.010 A 
ATOM     59  C   UNL     1       9.226  13.677   0.321  1.00  0.00     0.010 A 
ATOM     60  C   UNL     1       7.527  15.850  -0.176  1.00  0.00     0.020 A 
ATOM     61  C   UNL     1       9.765  14.951   0.131  1.00  0.00     0.020 A 
ATOM     62  C   UNL     1       8.914  16.023  -0.146  1.00  0.00     0.054 A 
BRANCH  62  63
ATOM     63  S   UNL     1       9.595  17.669  -0.483  1.00  0.00     0.124 S 
ATOM     64  O   UNL     1       9.460  17.765  -1.933  1.00  0.00    -0.237 OA
ATOM     65  O   UNL     1       8.719  18.544   0.291  1.00  0.00    -0.237 OA
ATOM     66  O   UNL     1      10.967  17.579   0.012  1.00  0.00    -0.744 OA
ENDBRANCH  62  63
ENDBRANCH  36  57
ENDBRANCH  10  11
ENDBRANCH   3   5
ENDBRANCH   2   3
ENDBRANCH   1   2
BRANCH   1  67
ATOM     67  C   UNL     1       3.755  -0.686  -1.723  1.00  0.00     0.274 C 
BRANCH  67  68
ATOM     68  O   UNL     1       3.257   0.641  -1.501  1.00  0.00    -0.458 OA
BRANCH  68  69
ATOM     69  C   UNL     1       1.939   0.866  -1.777  1.00  0.00     0.365 C 
ATOM     70  O   UNL     1       1.145  -0.019  -2.072  1.00  0.00    -0.245 OA
BRANCH  69  71
ATOM     71  C   UNL     1       1.525   2.348  -1.680  1.00  0.00     0.300 C 
ATOM     72  C   UNL     1       0.744   2.522  -0.348  1.00  0.00     0.113 C 
ATOM     73  N   UNL     1       2.651   3.310  -1.836  1.00  0.00    -0.315 N 
ATOM     74  C   UNL     1       0.732   3.921   0.230  1.00  0.00    -0.033 A 
ATOM     75  C   UNL     1       2.137   4.686  -1.711  1.00  0.00     0.300 C 
ATOM     76  H   UNL     1       3.311   3.103  -1.086  1.00  0.00     0.349 HD
ATOM     77  C   UNL     1       0.074   4.193   1.438  1.00  0.00     0.006 A 
ATOM     78  C   UNL     1       1.445   4.948  -0.403  1.00  0.00     0.011 A 
ATOM     79  C   UNL     1       0.113   5.476   1.995  1.00  0.00     0.021 A 
ATOM     80  C   UNL     1       1.470   6.239   0.152  1.00  0.00     0.030 A 
ATOM     81  C   UNL     1       0.807   6.495   1.348  1.00  0.00     0.041 A 
ATOM     82  Cl  UNL     1       0.845   8.074   2.029  1.00  0.00    -0.084 Cl
BRANCH  73  83
ATOM     83  C   UNL     1       3.443   3.149  -3.071  1.00  0.00     0.300 C 
BRANCH  83  84
ATOM     84  C   UNL     1       2.715   3.292  -4.382  1.00  0.00     0.006 A 
ATOM     85  C   UNL     1       2.350   4.562  -4.860  1.00  0.00     0.011 A 
ATOM     86  C   UNL     1       2.385   2.159  -5.133  1.00  0.00     0.011 A 
ATOM     87  C   UNL     1       1.555   4.691  -5.994  1.00  0.00     0.021 A 
ATOM     88  C   UNL     1       1.619   2.291  -6.290  1.00  0.00     0.021 A 
ATOM     89  C   UNL     1       1.176   3.550  -6.694  1.00  0.00     0.041 A 
ATOM     90  Cl  UNL     1       0.135   3.686  -8.054  1.00  0.00    -0.084 Cl
ENDBRANCH  83  84
ENDBRANCH  73  83
ENDBRANCH  69  71
ENDBRANCH  68  69
ENDBRANCH  67  68
ENDBRANCH   1  67
TORSDOF 16
