REMARK SMILES O=C(CSc1ccnc(C(=O)OCCOC(=O)c2ccc(-c3c4nc(c(-c5ccc(S(=O)(=O)[O-])cc5)c5ccc([nH]5)c(-c5ccc(S(=O)(=O)[O-])cc5)c5nc(c(-c6ccc(S(=O)(=O)[O-])cc6)c6ccc3[nH]6)C=C5)C=C4)cc2)c1)NCC(F)(F)F
REMARK SMILES IDX 13 1 12 2 10 3 11 4 9 5 5 6 6 7 78 8 7 9 8 10 4 11 3 12 2 13
REMARK SMILES IDX 1 14 79 15 80 17 81 18 82 19 83 20 84 21 14 22 15 23 16 24
REMARK SMILES IDX 17 25 18 26 19 27 77 28 20 29 76 30 21 31 22 32 23 33 70 34
REMARK SMILES IDX 24 35 75 36 69 37 71 38 25 39 74 40 68 41 67 42 26 44 56 45
REMARK SMILES IDX 37 46 55 47 38 48 41 49 54 50 72 51 39 52 40 53 53 55 73 56
REMARK SMILES IDX 42 57 27 58 28 59 36 60 29 61 35 62 30 63 31 64 32 65 33 66
REMARK SMILES IDX 34 67 57 68 58 69 66 70 59 71 65 72 60 73 61 74 62 75 63 76
REMARK SMILES IDX 64 77 43 78 44 79 52 80 45 81 51 82 46 83 47 84 48 85 49 86
REMARK SMILES IDX 50 87
REMARK H PARENT 79 16 71 43 41 54
REMARK Flexibility Score: inf
ROOT
ATOM      1  C   UNL     1       4.098  -6.665   2.764  1.00  0.00     0.275 C 
ENDROOT
BRANCH   1   2
ATOM      2  O   UNL     1       3.897  -5.239   2.689  1.00  0.00    -0.457 OA
BRANCH   2   3
ATOM      3  C   UNL     1       2.604  -4.826   2.794  1.00  0.00     0.357 C 
ATOM      4  O   UNL     1       1.631  -5.563   2.841  1.00  0.00    -0.244 OA
BRANCH   3   5
ATOM      5  C   UNL     1       2.528  -3.337   2.921  1.00  0.00     0.149 A 
ATOM      6  C   UNL     1       3.312  -1.120   2.542  1.00  0.00     0.012 A 
ATOM      7  C   UNL     1       2.252  -0.640   3.310  1.00  0.00     0.035 A 
ATOM      8  C   UNL     1       3.486  -2.495   2.379  1.00  0.00     0.051 A 
ATOM      9  C   UNL     1       1.342  -1.549   3.803  1.00  0.00     0.113 A 
ATOM     10  N   UNL     1       1.438  -2.873   3.588  1.00  0.00    -0.249 NA
BRANCH   6  11
ATOM     11  S   UNL     1       4.413   0.007   1.701  1.00  0.00    -0.116 SA
BRANCH  11  12
ATOM     12  C   UNL     1       3.185   0.965   0.733  1.00  0.00     0.174 C 
BRANCH  12  13
ATOM     13  C   UNL     1       2.329   0.084  -0.168  1.00  0.00     0.230 C 
ATOM     14  O   UNL     1       1.132   0.299  -0.336  1.00  0.00    -0.274 OA
ATOM     15  N   UNL     1       3.001  -0.910  -0.842  1.00  0.00    -0.346 N 
ATOM     16  H   UNL     1       3.967  -1.022  -0.684  1.00  0.00     0.163 HD
BRANCH  15  17
ATOM     17  C   UNL     1       2.331  -1.806  -1.785  1.00  0.00     0.231 C 
BRANCH  17  18
ATOM     18  C   UNL     1       2.610  -1.493  -3.254  1.00  0.00     0.405 C 
ATOM     19  F   UNL     1       3.940  -1.574  -3.509  1.00  0.00    -0.169 F 
ATOM     20  F   UNL     1       1.993  -2.379  -4.067  1.00  0.00    -0.169 F 
ATOM     21  F   UNL     1       2.205  -0.255  -3.604  1.00  0.00    -0.169 F 
ENDBRANCH  17  18
ENDBRANCH  15  17
ENDBRANCH  12  13
ENDBRANCH  11  12
ENDBRANCH   6  11
ENDBRANCH   3   5
ENDBRANCH   2   3
ENDBRANCH   1   2
BRANCH   1  22
ATOM     22  C   UNL     1       4.560  -7.107   4.158  1.00  0.00     0.275 C 
BRANCH  22  23
ATOM     23  O   UNL     1       3.522  -6.980   5.148  1.00  0.00    -0.458 OA
BRANCH  23  24
ATOM     24  C   UNL     1       3.517  -5.805   5.822  1.00  0.00     0.338 C 
ATOM     25  O   UNL     1       4.300  -4.879   5.681  1.00  0.00    -0.246 OA
BRANCH  24  26
ATOM     26  C   UNL     1       2.331  -5.722   6.692  1.00  0.00     0.060 A 
ATOM     27  C   UNL     1       1.391  -4.738   6.394  1.00  0.00     0.016 A 
ATOM     28  C   UNL     1       2.179  -6.511   7.831  1.00  0.00     0.016 A 
ATOM     29  C   UNL     1       0.307  -4.512   7.233  1.00  0.00     0.010 A 
ATOM     30  C   UNL     1       1.076  -6.297   8.672  1.00  0.00     0.010 A 
ATOM     31  C   UNL     1       0.140  -5.285   8.386  1.00  0.00    -0.014 A 
BRANCH  31  32
ATOM     32  C   UNL     1      -0.995  -4.985   9.295  1.00  0.00     0.031 A 
ATOM     33  C   UNL     1      -0.741  -4.358  10.638  1.00  0.00     0.074 A 
ATOM     34  C   UNL     1      -2.258  -5.219   8.890  1.00  0.00     0.049 A 
ATOM     35  N   UNL     1      -1.595  -4.054  11.582  1.00  0.00    -0.248 NA
ATOM     36  C   UNL     1       0.656  -4.030  10.962  1.00  0.00     0.031 C 
ATOM     37  C   UNL     1      -2.639  -5.769   7.588  1.00  0.00     0.029 A 
ATOM     38  N   UNL     1      -3.456  -5.011   9.528  1.00  0.00    -0.354 N 
ATOM     39  C   UNL     1      -0.840  -3.530  12.624  1.00  0.00     0.074 A 
ATOM     40  C   UNL     1       0.544  -3.566  12.199  1.00  0.00     0.031 C 
ATOM     41  C   UNL     1      -3.978  -5.839   7.517  1.00  0.00     0.029 A 
ATOM     42  C   UNL     1      -4.548  -5.392   8.784  1.00  0.00     0.049 A 
ATOM     43  H   UNL     1      -3.526  -4.627  10.431  1.00  0.00     0.167 HD
ATOM     44  C   UNL     1      -1.260  -3.063  13.824  1.00  0.00     0.031 A 
ATOM     45  C   UNL     1      -5.859  -5.405   9.094  1.00  0.00     0.031 A 
ATOM     46  C   UNL     1      -2.638  -3.019  14.239  1.00  0.00     0.049 A 
ATOM     47  C   UNL     1      -6.297  -4.927  10.450  1.00  0.00     0.074 A 
ATOM     48  C   UNL     1      -3.164  -2.555  15.432  1.00  0.00     0.029 A 
ATOM     49  N   UNL     1      -3.709  -3.455  13.474  1.00  0.00    -0.354 N 
ATOM     50  N   UNL     1      -5.567  -4.448  11.429  1.00  0.00    -0.248 NA
ATOM     51  C   UNL     1      -7.735  -4.994  10.745  1.00  0.00     0.031 C 
ATOM     52  C   UNL     1      -4.549  -2.754  15.407  1.00  0.00     0.029 A 
ATOM     53  C   UNL     1      -4.892  -3.293  14.177  1.00  0.00     0.049 A 
ATOM     54  H   UNL     1      -3.640  -3.826  12.564  1.00  0.00     0.167 HD
ATOM     55  C   UNL     1      -6.458  -4.145  12.452  1.00  0.00     0.074 A 
ATOM     56  C   UNL     1      -7.782  -4.477  11.966  1.00  0.00     0.031 C 
ATOM     57  C   UNL     1      -6.201  -3.639  13.684  1.00  0.00     0.031 A 
BRANCH  44  58
ATOM     58  C   UNL     1      -0.203  -2.610  14.797  1.00  0.00    -0.014 A 
ATOM     59  C   UNL     1       0.504  -1.410  14.609  1.00  0.00     0.010 A 
ATOM     60  C   UNL     1       0.076  -3.399  15.929  1.00  0.00     0.010 A 
ATOM     61  C   UNL     1       1.505  -1.031  15.509  1.00  0.00     0.020 A 
ATOM     62  C   UNL     1       1.058  -3.011  16.844  1.00  0.00     0.020 A 
ATOM     63  C   UNL     1       1.782  -1.839  16.616  1.00  0.00     0.054 A 
BRANCH  63  64
ATOM     64  S   UNL     1       3.089  -1.330  17.767  1.00  0.00     0.124 S 
ATOM     65  O   UNL     1       4.297  -1.654  17.012  1.00  0.00    -0.237 OA
ATOM     66  O   UNL     1       2.825   0.095  17.946  1.00  0.00    -0.237 OA
ATOM     67  O   UNL     1       2.852  -2.157  18.948  1.00  0.00    -0.744 OA
ENDBRANCH  63  64
ENDBRANCH  44  58
BRANCH  45  68
ATOM     68  C   UNL     1      -6.843  -5.922   8.105  1.00  0.00    -0.014 A 
ATOM     69  C   UNL     1      -7.730  -5.052   7.449  1.00  0.00     0.010 A 
ATOM     70  C   UNL     1      -6.870  -7.294   7.790  1.00  0.00     0.010 A 
ATOM     71  C   UNL     1      -8.628  -5.545   6.497  1.00  0.00     0.020 A 
ATOM     72  C   UNL     1      -7.748  -7.785   6.821  1.00  0.00     0.020 A 
ATOM     73  C   UNL     1      -8.628  -6.908   6.185  1.00  0.00     0.054 A 
BRANCH  73  74
ATOM     74  S   UNL     1      -9.749  -7.516   4.894  1.00  0.00     0.124 S 
ATOM     75  O   UNL     1     -11.033  -7.527   5.588  1.00  0.00    -0.237 OA
ATOM     76  O   UNL     1      -9.605  -6.507   3.847  1.00  0.00    -0.237 OA
ATOM     77  O   UNL     1      -9.205  -8.830   4.560  1.00  0.00    -0.744 OA
ENDBRANCH  73  74
ENDBRANCH  45  68
BRANCH  57  78
ATOM     78  C   UNL     1      -7.380  -3.394  14.586  1.00  0.00    -0.014 A 
ATOM     79  C   UNL     1      -8.051  -4.460  15.210  1.00  0.00     0.010 A 
ATOM     80  C   UNL     1      -7.793  -2.075  14.850  1.00  0.00     0.010 A 
ATOM     81  C   UNL     1      -9.134  -4.213  16.058  1.00  0.00     0.020 A 
ATOM     82  C   UNL     1      -8.860  -1.823  15.716  1.00  0.00     0.020 A 
ATOM     83  C   UNL     1      -9.533  -2.895  16.304  1.00  0.00     0.054 A 
BRANCH  83  84
ATOM     84  S   UNL     1     -10.916  -2.596  17.439  1.00  0.00     0.124 S 
ATOM     85  O   UNL     1     -12.068  -2.947  16.613  1.00  0.00    -0.237 OA
ATOM     86  O   UNL     1     -10.632  -3.509  18.543  1.00  0.00    -0.237 OA
ATOM     87  O   UNL     1     -10.794  -1.177  17.766  1.00  0.00    -0.744 OA
ENDBRANCH  83  84
ENDBRANCH  57  78
ENDBRANCH  31  32
ENDBRANCH  24  26
ENDBRANCH  23  24
ENDBRANCH  22  23
ENDBRANCH   1  22
TORSDOF 19
