REMARK SMILES C=CCOC(=O)N[C@@H](Cc1ccccc1)C(=O)OCCOC(=O)c1ccc(-c2c3nc(c(-c4ccc(S(=O)(=O)[O-])cc4)c4ccc([nH]4)c(-c4ccc(S(=O)(=O)[O-])cc4)c4nc(c(-c5ccc(S(=O)(=O)[O-])cc5)c5ccc2[nH]5)C=C4)C=C3)cc1
REMARK SMILES IDX 19 1 18 2 16 3 17 4 8 5 7 6 5 7 6 8 4 10 3 11 2 12 1 13 9 14
REMARK SMILES IDX 10 15 11 16 15 17 12 18 14 19 13 20 20 21 21 22 22 23 23 24
REMARK SMILES IDX 24 25 25 26 83 27 26 28 82 29 27 30 28 31 29 32 76 33 30 34
REMARK SMILES IDX 81 35 75 36 77 37 31 38 80 39 74 40 73 41 32 43 62 44 43 45
REMARK SMILES IDX 61 46 44 47 47 48 60 49 78 50 45 51 46 52 59 54 79 55 48 56
REMARK SMILES IDX 33 57 34 58 42 59 35 60 41 61 36 62 37 63 38 64 39 65 40 66
REMARK SMILES IDX 63 67 64 68 72 69 65 70 71 71 66 72 67 73 68 74 69 75 70 76
REMARK SMILES IDX 49 77 50 78 58 79 51 80 57 81 52 82 53 83 54 84 55 85 56 86
REMARK H PARENT 7 9 77 42 47 53
REMARK Flexibility Score: inf
ROOT
ATOM      1  C   UNL     1      -0.999  -2.437   7.479  1.00  0.00     0.274 C 
ENDROOT
BRANCH   1   2
ATOM      2  O   UNL     1      -1.509  -2.472   6.133  1.00  0.00    -0.461 OA
BRANCH   2   3
ATOM      3  C   UNL     1      -2.619  -1.720   5.891  1.00  0.00     0.329 C 
ATOM      4  O   UNL     1      -3.223  -1.073   6.740  1.00  0.00    -0.250 OA
BRANCH   3   5
ATOM      5  C   UNL     1      -3.107  -1.835   4.439  1.00  0.00     0.199 C 
BRANCH   5   6
ATOM      6  N   UNL     1      -2.136  -2.432   3.521  1.00  0.00    -0.308 N 
ATOM      7  C   UNL     1      -1.561  -1.846   2.432  1.00  0.00     0.408 C 
ATOM      8  O   UNL     1      -0.903  -2.503   1.638  1.00  0.00    -0.225 OA
ATOM      9  H   UNL     1      -1.868  -3.360   3.710  1.00  0.00     0.168 HD
BRANCH   7  10
ATOM     10  O   UNL     1      -1.843  -0.526   2.333  1.00  0.00    -0.445 OA
BRANCH  10  11
ATOM     11  C   UNL     1      -1.393   0.137   1.142  1.00  0.00     0.262 C 
BRANCH  11  12
ATOM     12  C   UNL     1       0.079   0.416   1.177  1.00  0.00     0.006 C 
ATOM     13  C   UNL     1       0.918   0.086   0.185  1.00  0.00     0.007 C 
ENDBRANCH  11  12
ENDBRANCH  10  11
ENDBRANCH   7  10
ENDBRANCH   5   6
BRANCH   5  14
ATOM     14  C   UNL     1      -4.453  -2.580   4.403  1.00  0.00     0.072 C 
BRANCH  14  15
ATOM     15  C   UNL     1      -4.368  -3.987   4.946  1.00  0.00    -0.045 A 
ATOM     16  C   UNL     1      -3.989  -5.048   4.114  1.00  0.00     0.004 A 
ATOM     17  C   UNL     1      -4.591  -4.232   6.309  1.00  0.00     0.004 A 
ATOM     18  C   UNL     1      -3.809  -6.325   4.642  1.00  0.00     0.000 A 
ATOM     19  C   UNL     1      -4.409  -5.509   6.834  1.00  0.00     0.000 A 
ATOM     20  C   UNL     1      -4.013  -6.554   6.002  1.00  0.00     0.000 A 
ENDBRANCH  14  15
ENDBRANCH   5  14
ENDBRANCH   3   5
ENDBRANCH   2   3
ENDBRANCH   1   2
BRANCH   1  21
ATOM     21  C   UNL     1       0.295  -1.627   7.550  1.00  0.00     0.275 C 
BRANCH  21  22
ATOM     22  O   UNL     1       0.072  -0.263   7.153  1.00  0.00    -0.458 OA
BRANCH  22  23
ATOM     23  C   UNL     1       0.339  -0.000   5.852  1.00  0.00     0.338 C 
ATOM     24  O   UNL     1       0.788  -0.763   5.015  1.00  0.00    -0.246 OA
BRANCH  23  25
ATOM     25  C   UNL     1      -0.115   1.358   5.535  1.00  0.00     0.060 A 
ATOM     26  C   UNL     1      -1.357   1.510   4.921  1.00  0.00     0.016 A 
ATOM     27  C   UNL     1       0.706   2.460   5.754  1.00  0.00     0.016 A 
ATOM     28  C   UNL     1      -1.787   2.760   4.498  1.00  0.00     0.010 A 
ATOM     29  C   UNL     1       0.261   3.726   5.361  1.00  0.00     0.010 A 
ATOM     30  C   UNL     1      -0.985   3.881   4.724  1.00  0.00    -0.014 A 
BRANCH  30  31
ATOM     31  C   UNL     1      -1.448   5.215   4.279  1.00  0.00     0.031 A 
ATOM     32  C   UNL     1      -0.746   5.912   3.150  1.00  0.00     0.074 A 
ATOM     33  C   UNL     1      -2.504   5.788   4.887  1.00  0.00     0.049 A 
ATOM     34  N   UNL     1      -0.909   7.131   2.708  1.00  0.00    -0.248 NA
ATOM     35  C   UNL     1       0.275   5.137   2.426  1.00  0.00     0.031 C 
ATOM     36  C   UNL     1      -3.304   5.175   5.950  1.00  0.00     0.029 A 
ATOM     37  N   UNL     1      -3.083   7.017   4.701  1.00  0.00    -0.354 N 
ATOM     38  C   UNL     1       0.011   7.285   1.678  1.00  0.00     0.074 A 
ATOM     39  C   UNL     1       0.733   6.035   1.565  1.00  0.00     0.031 C 
ATOM     40  C   UNL     1      -4.272   6.029   6.318  1.00  0.00     0.029 A 
ATOM     41  C   UNL     1      -4.118   7.271   5.569  1.00  0.00     0.049 A 
ATOM     42  H   UNL     1      -2.787   7.655   4.013  1.00  0.00     0.167 HD
ATOM     43  C   UNL     1       0.235   8.375   0.906  1.00  0.00     0.031 A 
ATOM     44  C   UNL     1      -4.832   8.394   5.773  1.00  0.00     0.031 A 
ATOM     45  C   UNL     1      -0.495   9.610   1.029  1.00  0.00     0.049 A 
ATOM     46  C   UNL     1      -4.513   9.614   4.956  1.00  0.00     0.074 A 
ATOM     47  C   UNL     1      -0.352  10.772   0.292  1.00  0.00     0.029 A 
ATOM     48  N   UNL     1      -1.505   9.843   1.952  1.00  0.00    -0.354 N 
ATOM     49  N   UNL     1      -3.623   9.755   4.003  1.00  0.00    -0.248 NA
ATOM     50  C   UNL     1      -5.284  10.829   5.250  1.00  0.00     0.031 C 
ATOM     51  C   UNL     1      -1.240  11.725   0.804  1.00  0.00     0.029 A 
ATOM     52  C   UNL     1      -1.975  11.139   1.822  1.00  0.00     0.049 A 
ATOM     53  H   UNL     1      -1.838   9.184   2.603  1.00  0.00     0.167 HD
ATOM     54  C   UNL     1      -3.734  11.072   3.574  1.00  0.00     0.074 A 
ATOM     55  C   UNL     1      -4.793  11.678   4.358  1.00  0.00     0.031 C 
ATOM     56  C   UNL     1      -3.022  11.724   2.621  1.00  0.00     0.031 A 
BRANCH  43  57
ATOM     57  C   UNL     1       1.347   8.295  -0.106  1.00  0.00    -0.014 A 
ATOM     58  C   UNL     1       1.222   7.524  -1.276  1.00  0.00     0.010 A 
ATOM     59  C   UNL     1       2.527   9.031   0.106  1.00  0.00     0.010 A 
ATOM     60  C   UNL     1       2.273   7.463  -2.196  1.00  0.00     0.020 A 
ATOM     61  C   UNL     1       3.570   8.992  -0.824  1.00  0.00     0.020 A 
ATOM     62  C   UNL     1       3.442   8.194  -1.962  1.00  0.00     0.054 A 
BRANCH  62  63
ATOM     63  S   UNL     1       4.783   8.111  -3.182  1.00  0.00     0.124 S 
ATOM     64  O   UNL     1       5.322   6.774  -2.944  1.00  0.00    -0.237 OA
ATOM     65  O   UNL     1       4.077   8.287  -4.448  1.00  0.00    -0.237 OA
ATOM     66  O   UNL     1       5.664   9.213  -2.805  1.00  0.00    -0.744 OA
ENDBRANCH  62  63
ENDBRANCH  43  57
BRANCH  44  67
ATOM     67  C   UNL     1      -5.878   8.426   6.831  1.00  0.00    -0.014 A 
ATOM     68  C   UNL     1      -7.239   8.503   6.493  1.00  0.00     0.010 A 
ATOM     69  C   UNL     1      -5.514   8.355   8.189  1.00  0.00     0.010 A 
ATOM     70  C   UNL     1      -8.217   8.518   7.492  1.00  0.00     0.020 A 
ATOM     71  C   UNL     1      -6.489   8.340   9.190  1.00  0.00     0.020 A 
ATOM     72  C   UNL     1      -7.835   8.432   8.835  1.00  0.00     0.054 A 
BRANCH  72  73
ATOM     73  S   UNL     1      -9.123   8.390  10.113  1.00  0.00     0.124 S 
ATOM     74  O   UNL     1      -9.559   9.782  10.150  1.00  0.00    -0.237 OA
ATOM     75  O   UNL     1     -10.085   7.439   9.561  1.00  0.00    -0.237 OA
ATOM     76  O   UNL     1      -8.410   7.923  11.300  1.00  0.00    -0.744 OA
ENDBRANCH  72  73
ENDBRANCH  44  67
BRANCH  56  77
ATOM     77  C   UNL     1      -3.381  13.162   2.363  1.00  0.00    -0.014 A 
ATOM     78  C   UNL     1      -3.028  14.172   3.275  1.00  0.00     0.010 A 
ATOM     79  C   UNL     1      -4.044  13.510   1.172  1.00  0.00     0.010 A 
ATOM     80  C   UNL     1      -3.358  15.504   3.014  1.00  0.00     0.020 A 
ATOM     81  C   UNL     1      -4.352  14.844   0.895  1.00  0.00     0.020 A 
ATOM     82  C   UNL     1      -4.019  15.831   1.826  1.00  0.00     0.054 A 
BRANCH  82  83
ATOM     83  S   UNL     1      -4.401  17.572   1.490  1.00  0.00     0.124 S 
ATOM     84  O   UNL     1      -5.526  17.815   2.389  1.00  0.00    -0.237 OA
ATOM     85  O   UNL     1      -3.156  18.249   1.844  1.00  0.00    -0.237 OA
ATOM     86  O   UNL     1      -4.727  17.586   0.066  1.00  0.00    -0.744 OA
ENDBRANCH  82  83
ENDBRANCH  56  77
ENDBRANCH  30  31
ENDBRANCH  23  25
ENDBRANCH  22  23
ENDBRANCH  21  22
ENDBRANCH   1  21
TORSDOF 20
