REMARK SMILES O=C(OCCOC(=O)[C@@H]1CCCC[C@@H]1C(=O)Nc1nc(-c2ccc(Cl)c(Cl)c2)cs1)c1ccc(-c2c3nc(c(-c4ccc(S(=O)(=O)[O-])cc4)c4ccc([nH]4)c(-c4ccc(S(=O)(=O)[O-])cc4)c4nc(c(-c5ccc(S(=O)(=O)[O-])cc5)c5ccc2[nH]5)C=C4)C=C3)cc1
REMARK SMILES IDX 4 1 3 2 2 3 1 4 31 5 32 6 90 7 33 8 89 9 34 10 35 11 36 12
REMARK SMILES IDX 83 13 37 14 88 15 82 16 84 17 38 18 87 19 81 20 80 21 39 23
REMARK SMILES IDX 69 24 50 25 68 26 51 27 54 28 67 29 85 30 52 31 53 32 66 34
REMARK SMILES IDX 86 35 55 36 40 37 41 38 49 39 42 40 48 41 43 42 44 43 45 44
REMARK SMILES IDX 46 45 47 46 70 47 71 48 79 49 72 50 78 51 73 52 74 53 75 54
REMARK SMILES IDX 76 55 77 56 56 57 57 58 65 59 58 60 64 61 59 62 60 63 61 64
REMARK SMILES IDX 62 65 63 66 5 67 6 68 7 69 8 70 9 71 10 72 14 73 11 74 13 75
REMARK SMILES IDX 12 76 15 77 16 78 17 79 18 81 19 82 30 83 20 84 29 85 21 86
REMARK SMILES IDX 22 87 28 88 23 89 26 90 24 91 27 92 25 93
REMARK H PARENT 84 22 54 33 17 80
REMARK Flexibility Score: inf
ROOT
ATOM      1  C   UNL     1       4.383  -1.496   0.427  1.00  0.00     0.275 C 
ENDROOT
BRANCH   1   2
ATOM      2  O   UNL     1       3.514  -0.595   1.122  1.00  0.00    -0.458 OA
BRANCH   2   3
ATOM      3  C   UNL     1       3.587   0.756   1.197  1.00  0.00     0.338 C 
ATOM      4  O   UNL     1       2.959   1.324   2.090  1.00  0.00    -0.246 OA
BRANCH   3   5
ATOM      5  C   UNL     1       4.276   1.601   0.164  1.00  0.00     0.060 A 
ATOM      6  C   UNL     1       5.379   1.247  -0.629  1.00  0.00     0.016 A 
ATOM      7  C   UNL     1       3.704   2.861  -0.054  1.00  0.00     0.016 A 
ATOM      8  C   UNL     1       5.811   2.046  -1.702  1.00  0.00     0.010 A 
ATOM      9  C   UNL     1       4.114   3.650  -1.134  1.00  0.00     0.010 A 
ATOM     10  C   UNL     1       5.154   3.236  -1.994  1.00  0.00    -0.014 A 
BRANCH  10  11
ATOM     11  C   UNL     1       5.596   4.160  -3.074  1.00  0.00     0.031 A 
ATOM     12  C   UNL     1       6.062   5.508  -2.610  1.00  0.00     0.074 A 
ATOM     13  C   UNL     1       5.475   3.901  -4.395  1.00  0.00     0.049 A 
ATOM     14  N   UNL     1       6.250   6.605  -3.288  1.00  0.00    -0.248 NA
ATOM     15  C   UNL     1       6.278   5.644  -1.156  1.00  0.00     0.031 C 
ATOM     16  C   UNL     1       5.066   2.636  -5.004  1.00  0.00     0.029 A 
ATOM     17  N   UNL     1       5.628   4.737  -5.481  1.00  0.00    -0.354 N 
ATOM     18  C   UNL     1       6.573   7.557  -2.333  1.00  0.00     0.074 A 
ATOM     19  C   UNL     1       6.394   6.952  -1.036  1.00  0.00     0.031 C 
ATOM     20  C   UNL     1       4.893   2.805  -6.328  1.00  0.00     0.029 A 
ATOM     21  C   UNL     1       5.227   4.180  -6.679  1.00  0.00     0.049 A 
ATOM     22  H   UNL     1       5.989   5.650  -5.409  1.00  0.00     0.167 HD
ATOM     23  C   UNL     1       7.069   8.800  -2.511  1.00  0.00     0.031 A 
ATOM     24  C   UNL     1       5.148   4.716  -7.916  1.00  0.00     0.031 A 
ATOM     25  C   UNL     1       7.291   9.371  -3.803  1.00  0.00     0.049 A 
ATOM     26  C   UNL     1       5.651   6.124  -8.116  1.00  0.00     0.074 A 
ATOM     27  C   UNL     1       7.860  10.586  -4.125  1.00  0.00     0.029 A 
ATOM     28  N   UNL     1       6.951   8.746  -4.995  1.00  0.00    -0.354 N 
ATOM     29  N   UNL     1       6.064   6.983  -7.213  1.00  0.00    -0.248 NA
ATOM     30  C   UNL     1       5.740   6.616  -9.499  1.00  0.00     0.031 C 
ATOM     31  C   UNL     1       7.826  10.714  -5.516  1.00  0.00     0.029 A 
ATOM     32  C   UNL     1       7.290   9.553  -6.060  1.00  0.00     0.049 A 
ATOM     33  H   UNL     1       6.530   7.859  -5.068  1.00  0.00     0.167 HD
ATOM     34  C   UNL     1       6.531   8.085  -7.921  1.00  0.00     0.074 A 
ATOM     35  C   UNL     1       6.322   7.798  -9.326  1.00  0.00     0.031 C 
ATOM     36  C   UNL     1       7.105   9.219  -7.451  1.00  0.00     0.031 A 
BRANCH  23  37
ATOM     37  C   UNL     1       7.413   9.559  -1.260  1.00  0.00    -0.014 A 
ATOM     38  C   UNL     1       8.418   9.089  -0.389  1.00  0.00     0.010 A 
ATOM     39  C   UNL     1       6.646  10.673  -0.885  1.00  0.00     0.010 A 
ATOM     40  C   UNL     1       8.566   9.641   0.882  1.00  0.00     0.020 A 
ATOM     41  C   UNL     1       6.825  11.260   0.370  1.00  0.00     0.020 A 
ATOM     42  C   UNL     1       7.754  10.713   1.260  1.00  0.00     0.054 A 
BRANCH  42  43
ATOM     43  S   UNL     1       7.920  11.371   2.940  1.00  0.00     0.124 S 
ATOM     44  O   UNL     1       7.251  10.342   3.732  1.00  0.00    -0.237 OA
ATOM     45  O   UNL     1       9.368  11.452   3.112  1.00  0.00    -0.237 OA
ATOM     46  O   UNL     1       7.229  12.657   2.876  1.00  0.00    -0.744 OA
ENDBRANCH  42  43
ENDBRANCH  23  37
BRANCH  24  47
ATOM     47  C   UNL     1       4.655   3.906  -9.071  1.00  0.00    -0.014 A 
ATOM     48  C   UNL     1       5.558   3.385 -10.017  1.00  0.00     0.010 A 
ATOM     49  C   UNL     1       3.281   3.647  -9.238  1.00  0.00     0.010 A 
ATOM     50  C   UNL     1       5.101   2.637 -11.108  1.00  0.00     0.020 A 
ATOM     51  C   UNL     1       2.820   2.883 -10.320  1.00  0.00     0.020 A 
ATOM     52  C   UNL     1       3.734   2.385 -11.252  1.00  0.00     0.054 A 
BRANCH  52  53
ATOM     53  S   UNL     1       3.178   1.362 -12.647  1.00  0.00     0.124 S 
ATOM     54  O   UNL     1       3.460   2.222 -13.792  1.00  0.00    -0.237 OA
ATOM     55  O   UNL     1       4.025   0.178 -12.521  1.00  0.00    -0.237 OA
ATOM     56  O   UNL     1       1.761   1.139 -12.366  1.00  0.00    -0.744 OA
ENDBRANCH  52  53
ENDBRANCH  24  47
BRANCH  36  57
ATOM     57  C   UNL     1       7.640  10.213  -8.443  1.00  0.00    -0.014 A 
ATOM     58  C   UNL     1       6.786  11.083  -9.137  1.00  0.00     0.010 A 
ATOM     59  C   UNL     1       9.034  10.390  -8.531  1.00  0.00     0.010 A 
ATOM     60  C   UNL     1       7.320  12.133  -9.889  1.00  0.00     0.020 A 
ATOM     61  C   UNL     1       9.569  11.453  -9.258  1.00  0.00     0.020 A 
ATOM     62  C   UNL     1       8.707  12.321  -9.928  1.00  0.00     0.054 A 
BRANCH  62  63
ATOM     63  S   UNL     1       9.364  13.775 -10.789  1.00  0.00     0.124 S 
ATOM     64  O   UNL     1       9.159  13.418 -12.190  1.00  0.00    -0.237 OA
ATOM     65  O   UNL     1       8.519  14.854 -10.284  1.00  0.00    -0.237 OA
ATOM     66  O   UNL     1      10.760  13.833 -10.359  1.00  0.00    -0.744 OA
ENDBRANCH  62  63
ENDBRANCH  36  57
ENDBRANCH  10  11
ENDBRANCH   3   5
ENDBRANCH   2   3
ENDBRANCH   1   2
BRANCH   1  67
ATOM     67  C   UNL     1       3.927  -1.846  -0.991  1.00  0.00     0.274 C 
BRANCH  67  68
ATOM     68  O   UNL     1       3.423  -0.734  -1.753  1.00  0.00    -0.462 OA
BRANCH  68  69
ATOM     69  C   UNL     1       2.069  -0.709  -1.947  1.00  0.00     0.309 C 
ATOM     70  O   UNL     1       1.303  -1.532  -1.471  1.00  0.00    -0.252 OA
BRANCH  69  71
ATOM     71  C   UNL     1       1.637   0.365  -2.958  1.00  0.00     0.111 C 
ATOM     72  C   UNL     1       2.422   1.651  -2.873  1.00  0.00     0.016 C 
ATOM     73  C   UNL     1       0.139   0.652  -2.827  1.00  0.00     0.093 C 
ATOM     74  C   UNL     1       1.942   2.779  -3.780  1.00  0.00     0.001 C 
ATOM     75  C   UNL     1      -0.340   1.794  -3.746  1.00  0.00     0.014 C 
ATOM     76  C   UNL     1       0.469   3.071  -3.571  1.00  0.00     0.001 C 
BRANCH  73  77
ATOM     77  C   UNL     1      -0.316   0.955  -1.376  1.00  0.00     0.230 C 
ATOM     78  O   UNL     1       0.381   1.616  -0.602  1.00  0.00    -0.274 OA
ATOM     79  N   UNL     1      -1.602   0.672  -1.005  1.00  0.00    -0.302 N 
ATOM     80  H   UNL     1      -1.990   1.151  -0.238  1.00  0.00     0.172 HD
BRANCH  79  81
ATOM     81  C   UNL     1      -2.363  -0.245  -1.655  1.00  0.00     0.189 A 
ATOM     82  N   UNL     1      -1.924  -1.262  -2.340  1.00  0.00    -0.220 NA
ATOM     83  S   UNL     1      -4.044  -0.006  -1.663  1.00  0.00    -0.105 S 
ATOM     84  C   UNL     1      -2.913  -1.734  -3.156  1.00  0.00     0.084 A 
ATOM     85  C   UNL     1      -4.154  -1.163  -2.948  1.00  0.00     0.097 A 
BRANCH  84  86
ATOM     86  C   UNL     1      -2.582  -2.736  -4.147  1.00  0.00     0.003 A 
ATOM     87  C   UNL     1      -1.842  -3.860  -3.756  1.00  0.00     0.012 A 
ATOM     88  C   UNL     1      -2.902  -2.557  -5.496  1.00  0.00     0.032 A 
ATOM     89  C   UNL     1      -1.488  -4.834  -4.691  1.00  0.00     0.023 A 
ATOM     90  C   UNL     1      -2.540  -3.529  -6.436  1.00  0.00     0.060 A 
ATOM     91  C   UNL     1      -1.850  -4.678  -6.031  1.00  0.00     0.059 A 
ATOM     92  Cl  UNL     1      -2.983  -3.250  -8.083  1.00  0.00    -0.083 Cl
ATOM     93  Cl  UNL     1      -1.426  -5.943  -7.128  1.00  0.00    -0.083 Cl
ENDBRANCH  84  86
ENDBRANCH  79  81
ENDBRANCH  73  77
ENDBRANCH  69  71
ENDBRANCH  68  69
ENDBRANCH  67  68
ENDBRANCH   1  67
TORSDOF 17
