REMARK SMILES O=C(OCCOC(=O)[C@@H]1[C@H](C(=O)Nc2ccc(Cn3cncn3)cc2)[C@@H]2C=C[C@H]1CC2)c1ccc(-c2c3nc(c(-c4ccc(S(=O)(=O)[O-])cc4)c4ccc([nH]4)c(-c4ccc(S(=O)(=O)[O-])cc4)c4nc(c(-c5ccc(S(=O)(=O)[O-])cc5)c5ccc2[nH]5)C=C4)C=C3)cc1
REMARK SMILES IDX 5 1 4 2 3 3 2 4 1 5 32 6 33 7 91 8 34 9 90 10 35 11 36 12
REMARK SMILES IDX 37 13 84 14 38 15 89 16 83 17 85 18 39 19 88 20 82 21 81 22
REMARK SMILES IDX 40 24 70 25 51 26 69 27 52 28 55 29 68 30 86 31 53 32 54 33
REMARK SMILES IDX 67 35 87 36 56 37 41 38 42 39 50 40 43 41 49 42 44 43 45 44
REMARK SMILES IDX 46 45 47 46 48 47 71 48 72 49 80 50 73 51 79 52 74 53 75 54
REMARK SMILES IDX 76 55 77 56 78 57 57 58 58 59 66 60 59 61 65 62 60 63 61 64
REMARK SMILES IDX 62 65 63 66 64 67 6 68 7 69 8 70 9 71 10 72 29 73 26 74
REMARK SMILES IDX 28 75 30 76 27 77 31 78 11 79 12 80 13 81 14 83 15 84 25 85
REMARK SMILES IDX 16 86 24 87 17 88 18 89 19 90 20 91 23 92 21 93 22 94
REMARK H PARENT 85 23 55 34 13 82
REMARK Flexibility Score: inf
ROOT
ATOM      1  C   UNL     1       3.798  -0.873  -1.662  1.00  0.00     0.274 C 
ENDROOT
BRANCH   1   2
ATOM      2  C   UNL     1       3.264  -1.588  -0.415  1.00  0.00     0.275 C 
BRANCH   2   3
ATOM      3  O   UNL     1       2.796  -0.680   0.582  1.00  0.00    -0.458 OA
BRANCH   3   4
ATOM      4  C   UNL     1       1.507  -0.271   0.563  1.00  0.00     0.338 C 
ATOM      5  O   UNL     1       0.593  -0.725  -0.115  1.00  0.00    -0.246 OA
BRANCH   4   6
ATOM      6  C   UNL     1       1.402   0.860   1.509  1.00  0.00     0.060 A 
ATOM      7  C   UNL     1       2.533   1.639   1.698  1.00  0.00     0.016 A 
ATOM      8  C   UNL     1       0.237   1.208   2.182  1.00  0.00     0.016 A 
ATOM      9  C   UNL     1       2.588   2.634   2.651  1.00  0.00     0.010 A 
ATOM     10  C   UNL     1       0.268   2.259   3.113  1.00  0.00     0.010 A 
ATOM     11  C   UNL     1       1.466   2.929   3.401  1.00  0.00    -0.014 A 
BRANCH  11  12
ATOM     12  C   UNL     1       1.636   3.993   4.399  1.00  0.00     0.031 A 
ATOM     13  C   UNL     1       2.264   5.266   3.902  1.00  0.00     0.074 A 
ATOM     14  C   UNL     1       1.214   3.833   5.668  1.00  0.00     0.049 A 
ATOM     15  N   UNL     1       3.401   5.799   4.238  1.00  0.00    -0.248 NA
ATOM     16  C   UNL     1       1.628   5.920   2.743  1.00  0.00     0.031 C 
ATOM     17  C   UNL     1       0.458   2.701   6.205  1.00  0.00     0.029 A 
ATOM     18  N   UNL     1       1.230   4.704   6.714  1.00  0.00    -0.354 N 
ATOM     19  C   UNL     1       3.492   6.979   3.492  1.00  0.00     0.074 A 
ATOM     20  C   UNL     1       2.532   6.848   2.431  1.00  0.00     0.031 C 
ATOM     21  C   UNL     1      -0.190   3.097   7.320  1.00  0.00     0.029 A 
ATOM     22  C   UNL     1       0.219   4.453   7.639  1.00  0.00     0.049 A 
ATOM     23  H   UNL     1       1.886   5.432   6.806  1.00  0.00     0.167 HD
ATOM     24  C   UNL     1       4.081   8.114   3.974  1.00  0.00     0.031 A 
ATOM     25  C   UNL     1      -0.331   5.332   8.518  1.00  0.00     0.031 A 
ATOM     26  C   UNL     1       4.961   7.836   5.076  1.00  0.00     0.049 A 
ATOM     27  C   UNL     1       0.621   6.459   8.669  1.00  0.00     0.074 A 
ATOM     28  C   UNL     1       6.087   7.061   5.275  1.00  0.00     0.029 A 
ATOM     29  N   UNL     1       4.497   8.151   6.329  1.00  0.00    -0.354 N 
ATOM     30  N   UNL     1       1.798   6.323   9.214  1.00  0.00    -0.248 NA
ATOM     31  C   UNL     1       0.474   7.602   7.781  1.00  0.00     0.031 C 
ATOM     32  C   UNL     1       5.947   6.549   6.599  1.00  0.00     0.029 A 
ATOM     33  C   UNL     1       4.792   7.102   7.152  1.00  0.00     0.049 A 
ATOM     34  H   UNL     1       4.035   8.982   6.587  1.00  0.00     0.167 HD
ATOM     35  C   UNL     1       2.647   7.065   8.407  1.00  0.00     0.074 A 
ATOM     36  C   UNL     1       1.763   7.899   7.591  1.00  0.00     0.031 C 
ATOM     37  C   UNL     1       3.964   6.725   8.272  1.00  0.00     0.031 A 
BRANCH  24  38
ATOM     38  C   UNL     1       3.457   9.495   3.783  1.00  0.00    -0.014 A 
ATOM     39  C   UNL     1       4.039  10.610   4.425  1.00  0.00     0.010 A 
ATOM     40  C   UNL     1       2.161   9.687   3.260  1.00  0.00     0.010 A 
ATOM     41  C   UNL     1       3.316  11.797   4.632  1.00  0.00     0.020 A 
ATOM     42  C   UNL     1       1.449  10.875   3.418  1.00  0.00     0.020 A 
ATOM     43  C   UNL     1       2.016  11.911   4.139  1.00  0.00     0.054 A 
BRANCH  43  44
ATOM     44  S   UNL     1       1.041  13.392   4.488  1.00  0.00     0.124 S 
ATOM     45  O   UNL     1       0.881  13.309   5.936  1.00  0.00    -0.237 OA
ATOM     46  O   UNL     1       1.918  14.454   4.003  1.00  0.00    -0.237 OA
ATOM     47  O   UNL     1      -0.177  13.190   3.707  1.00  0.00    -0.744 OA
ENDBRANCH  43  44
ENDBRANCH  24  38
BRANCH  25  48
ATOM     48  C   UNL     1      -1.769   5.424   8.894  1.00  0.00    -0.014 A 
ATOM     49  C   UNL     1      -2.205   6.247   9.950  1.00  0.00     0.010 A 
ATOM     50  C   UNL     1      -2.758   4.892   8.039  1.00  0.00     0.010 A 
ATOM     51  C   UNL     1      -3.568   6.564  10.108  1.00  0.00     0.020 A 
ATOM     52  C   UNL     1      -4.115   5.191   8.196  1.00  0.00     0.020 A 
ATOM     53  C   UNL     1      -4.513   6.047   9.217  1.00  0.00     0.054 A 
BRANCH  53  54
ATOM     54  S   UNL     1      -6.245   6.593   9.312  1.00  0.00     0.124 S 
ATOM     55  O   UNL     1      -6.706   5.957  10.542  1.00  0.00    -0.237 OA
ATOM     56  O   UNL     1      -6.119   8.046   9.359  1.00  0.00    -0.237 OA
ATOM     57  O   UNL     1      -6.839   6.067   8.083  1.00  0.00    -0.744 OA
ENDBRANCH  53  54
ENDBRANCH  25  48
BRANCH  37  58
ATOM     58  C   UNL     1       4.559   5.734   9.237  1.00  0.00    -0.014 A 
ATOM     59  C   UNL     1       4.123   4.402   9.382  1.00  0.00     0.010 A 
ATOM     60  C   UNL     1       5.705   6.149   9.936  1.00  0.00     0.010 A 
ATOM     61  C   UNL     1       4.799   3.522  10.242  1.00  0.00     0.020 A 
ATOM     62  C   UNL     1       6.391   5.275  10.777  1.00  0.00     0.020 A 
ATOM     63  C   UNL     1       5.926   3.971  10.940  1.00  0.00     0.054 A 
BRANCH  63  64
ATOM     64  S   UNL     1       6.798   2.843  12.060  1.00  0.00     0.124 S 
ATOM     65  O   UNL     1       5.813   2.620  13.114  1.00  0.00    -0.237 OA
ATOM     66  O   UNL     1       7.082   1.695  11.204  1.00  0.00    -0.237 OA
ATOM     67  O   UNL     1       7.979   3.605  12.469  1.00  0.00    -0.744 OA
ENDBRANCH  63  64
ENDBRANCH  37  58
ENDBRANCH  11  12
ENDBRANCH   4   6
ENDBRANCH   3   4
ENDBRANCH   2   3
ENDBRANCH   1   2
BRANCH   1  68
ATOM     68  O   UNL     1       3.763   0.562  -1.562  1.00  0.00    -0.462 OA
BRANCH  68  69
ATOM     69  C   UNL     1       2.728   1.159  -2.181  1.00  0.00     0.310 C 
ATOM     70  O   UNL     1       1.809   0.554  -2.724  1.00  0.00    -0.252 OA
BRANCH  69  71
ATOM     71  C   UNL     1       2.805   2.663  -2.205  1.00  0.00     0.119 C 
ATOM     72  C   UNL     1       4.160   3.407  -2.274  1.00  0.00     0.100 C 
ATOM     73  C   UNL     1       1.809   3.405  -1.265  1.00  0.00     0.026 C 
ATOM     74  C   UNL     1       3.935   4.853  -1.758  1.00  0.00     0.025 C 
ATOM     75  C   UNL     1       2.494   4.041  -0.080  1.00  0.00    -0.027 C 
ATOM     76  C   UNL     1       1.344   4.660  -2.021  1.00  0.00     0.009 C 
ATOM     77  C   UNL     1       3.610   4.747  -0.305  1.00  0.00    -0.027 C 
ATOM     78  C   UNL     1       2.622   5.475  -2.409  1.00  0.00     0.009 C 
BRANCH  72  79
ATOM     79  C   UNL     1       5.534   2.711  -1.987  1.00  0.00     0.228 C 
ATOM     80  O   UNL     1       6.141   2.257  -2.974  1.00  0.00    -0.274 OA
ATOM     81  N   UNL     1       6.270   2.755  -0.830  1.00  0.00    -0.326 N 
ATOM     82  H   UNL     1       7.133   3.215  -0.943  1.00  0.00     0.169 HD
BRANCH  81  83
ATOM     83  C   UNL     1       6.065   2.287   0.494  1.00  0.00     0.041 A 
ATOM     84  C   UNL     1       6.519   3.082   1.546  1.00  0.00     0.026 A 
ATOM     85  C   UNL     1       5.696   0.982   0.822  1.00  0.00     0.026 A 
ATOM     86  C   UNL     1       6.307   2.709   2.888  1.00  0.00     0.008 A 
ATOM     87  C   UNL     1       5.470   0.593   2.170  1.00  0.00     0.008 A 
ATOM     88  C   UNL     1       5.665   1.505   3.213  1.00  0.00    -0.026 A 
BRANCH  88  89
ATOM     89  C   UNL     1       4.951   1.389   4.555  1.00  0.00     0.181 C 
BRANCH  89  90
ATOM     90  N   UNL     1       5.186   0.187   5.327  1.00  0.00    -0.249 N 
ATOM     91  C   UNL     1       6.251  -0.073   6.130  1.00  0.00     0.220 A 
ATOM     92  N   UNL     1       4.172  -0.676   5.577  1.00  0.00    -0.160 NA
ATOM     93  N   UNL     1       5.990  -1.120   6.879  1.00  0.00    -0.224 NA
ATOM     94  C   UNL     1       4.695  -1.410   6.563  1.00  0.00     0.246 A 
ENDBRANCH  89  90
ENDBRANCH  88  89
ENDBRANCH  81  83
ENDBRANCH  72  79
ENDBRANCH  69  71
ENDBRANCH  68  69
ENDBRANCH   1  68
TORSDOF 18
