REMARK SMILES CS(=O)(=O)[C@@H]1CCC[C@@H](Sc2ccc(C(=O)OCCOC(=O)c3ccc(-c4c5nc(c(-c6ccc(S(=O)(=O)[O-])cc6)c6ccc([nH]6)c(-c6ccc(S(=O)(=O)[O-])cc6)c6nc(c(-c7ccc(S(=O)(=O)[O-])cc7)c7ccc4[nH]7)C=C6)C=C5)cc3)cn2)C1
REMARK SMILES IDX 18 1 17 2 15 3 16 4 14 5 11 6 12 7 84 8 13 9 83 10 10 11
REMARK SMILES IDX 9 12 5 13 6 14 85 15 7 16 8 17 2 18 1 19 3 20 4 21 19 22
REMARK SMILES IDX 20 23 21 24 22 25 23 26 24 27 82 28 25 29 81 30 26 31 27 32
REMARK SMILES IDX 28 33 75 34 29 35 80 36 74 37 76 38 30 39 79 40 73 41 72 42
REMARK SMILES IDX 31 44 61 45 42 46 60 47 43 48 46 49 59 50 77 51 44 52 45 53
REMARK SMILES IDX 58 55 78 56 47 57 32 58 33 59 41 60 34 61 40 62 35 63 36 64
REMARK SMILES IDX 37 65 38 66 39 67 62 68 63 69 71 70 64 71 70 72 65 73 66 74
REMARK SMILES IDX 67 75 68 76 69 77 48 78 49 79 57 80 50 81 56 82 51 83 52 84
REMARK SMILES IDX 53 85 54 86 55 87
REMARK H PARENT 76 43 46 54
REMARK Flexibility Score: inf
ROOT
ATOM      1  C   UNL     1       4.843  -2.345  -3.919  1.00  0.00     0.275 C 
ENDROOT
BRANCH   1   2
ATOM      2  O   UNL     1       4.423  -2.623  -2.570  1.00  0.00    -0.458 OA
BRANCH   2   3
ATOM      3  C   UNL     1       5.117  -3.567  -1.877  1.00  0.00     0.339 C 
ATOM      4  O   UNL     1       6.078  -4.200  -2.262  1.00  0.00    -0.246 OA
BRANCH   3   5
ATOM      5  C   UNL     1       4.539  -3.679  -0.523  1.00  0.00     0.078 A 
ATOM      6  C   UNL     1       3.446  -3.803   2.041  1.00  0.00     0.096 A 
ATOM      7  C   UNL     1       2.668  -3.600   0.926  1.00  0.00     0.036 A 
ATOM      8  N   UNL     1       4.766  -4.023   1.879  1.00  0.00    -0.249 NA
ATOM      9  C   UNL     1       3.189  -3.492  -0.350  1.00  0.00     0.020 A 
ATOM     10  C   UNL     1       5.276  -3.997   0.611  1.00  0.00     0.128 A 
BRANCH   6  11
ATOM     11  S   UNL     1       2.848  -3.756   3.713  1.00  0.00    -0.103 SA
BRANCH  11  12
ATOM     12  C   UNL     1       0.981  -3.599   3.790  1.00  0.00     0.054 C 
ATOM     13  C   UNL     1       0.202  -1.859   2.119  1.00  0.00     0.109 C 
ATOM     14  C   UNL     1      -0.685  -2.904   1.411  1.00  0.00     0.020 C 
ATOM     15  C   UNL     1       0.384  -2.195   3.588  1.00  0.00     0.034 C 
ATOM     16  C   UNL     1      -0.412  -4.387   1.723  1.00  0.00     0.002 C 
ATOM     17  C   UNL     1       0.168  -4.701   3.102  1.00  0.00     0.015 C 
BRANCH  13  18
ATOM     18  S   UNL     1      -0.353  -0.181   1.792  1.00  0.00     0.150 S 
ATOM     19  C   UNL     1       0.517   0.203   0.280  1.00  0.00     0.158 C 
ATOM     20  O   UNL     1       0.169   0.696   2.820  1.00  0.00    -0.229 OA
ATOM     21  O   UNL     1      -1.771  -0.202   1.489  1.00  0.00    -0.229 OA
ENDBRANCH  13  18
ENDBRANCH  11  12
ENDBRANCH   6  11
ENDBRANCH   3   5
ENDBRANCH   2   3
ENDBRANCH   1   2
BRANCH   1  22
ATOM     22  C   UNL     1       5.591  -1.014  -4.015  1.00  0.00     0.275 C 
BRANCH  22  23
ATOM     23  O   UNL     1       6.836  -1.069  -3.294  1.00  0.00    -0.458 OA
BRANCH  23  24
ATOM     24  C   UNL     1       6.787  -0.515  -2.062  1.00  0.00     0.338 C 
ATOM     25  O   UNL     1       5.834   0.053  -1.550  1.00  0.00    -0.246 OA
BRANCH  24  26
ATOM     26  C   UNL     1       7.992  -0.844  -1.288  1.00  0.00     0.060 A 
ATOM     27  C   UNL     1       7.908  -1.973  -0.488  1.00  0.00     0.016 A 
ATOM     28  C   UNL     1       9.041   0.048  -1.114  1.00  0.00     0.016 A 
ATOM     29  C   UNL     1       8.747  -2.141   0.600  1.00  0.00     0.010 A 
ATOM     30  C   UNL     1       9.979  -0.197  -0.097  1.00  0.00     0.010 A 
ATOM     31  C   UNL     1       9.801  -1.254   0.822  1.00  0.00    -0.014 A 
BRANCH  31  32
ATOM     32  C   UNL     1      10.617  -1.378   2.068  1.00  0.00     0.031 A 
ATOM     33  C   UNL     1      10.757  -0.190   2.992  1.00  0.00     0.074 A 
ATOM     34  C   UNL     1      11.175  -2.556   2.426  1.00  0.00     0.049 A 
ATOM     35  N   UNL     1      11.557  -0.025   4.015  1.00  0.00    -0.248 NA
ATOM     36  C   UNL     1       9.902   0.977   2.714  1.00  0.00     0.031 C 
ATOM     37  C   UNL     1      11.061  -3.818   1.688  1.00  0.00     0.029 A 
ATOM     38  N   UNL     1      11.938  -2.891   3.520  1.00  0.00    -0.354 N 
ATOM     39  C   UNL     1      11.359   1.283   4.447  1.00  0.00     0.074 A 
ATOM     40  C   UNL     1      10.377   1.873   3.566  1.00  0.00     0.031 C 
ATOM     41  C   UNL     1      11.672  -4.793   2.376  1.00  0.00     0.029 A 
ATOM     42  C   UNL     1      12.328  -4.211   3.539  1.00  0.00     0.049 A 
ATOM     43  H   UNL     1      12.182  -2.248   4.224  1.00  0.00     0.167 HD
ATOM     44  C   UNL     1      11.942   1.934   5.483  1.00  0.00     0.031 A 
ATOM     45  C   UNL     1      13.162  -4.877   4.362  1.00  0.00     0.031 A 
ATOM     46  C   UNL     1      12.870   1.319   6.396  1.00  0.00     0.049 A 
ATOM     47  C   UNL     1      13.830  -4.126   5.479  1.00  0.00     0.074 A 
ATOM     48  C   UNL     1      13.514   1.887   7.482  1.00  0.00     0.029 A 
ATOM     49  N   UNL     1      13.267  -0.010   6.349  1.00  0.00    -0.354 N 
ATOM     50  N   UNL     1      13.702  -2.865   5.818  1.00  0.00    -0.248 NA
ATOM     51  C   UNL     1      14.764  -4.886   6.319  1.00  0.00     0.031 C 
ATOM     52  C   UNL     1      14.341   0.917   8.058  1.00  0.00     0.029 A 
ATOM     53  C   UNL     1      14.156  -0.276   7.377  1.00  0.00     0.049 A 
ATOM     54  H   UNL     1      12.961  -0.667   5.682  1.00  0.00     0.167 HD
ATOM     55  C   UNL     1      14.516  -2.689   6.931  1.00  0.00     0.074 A 
ATOM     56  C   UNL     1      15.118  -3.976   7.215  1.00  0.00     0.031 C 
ATOM     57  C   UNL     1      14.744  -1.563   7.651  1.00  0.00     0.031 A 
BRANCH  44  58
ATOM     58  C   UNL     1      11.633   3.401   5.654  1.00  0.00    -0.014 A 
ATOM     59  C   UNL     1      10.366   3.856   6.058  1.00  0.00     0.010 A 
ATOM     60  C   UNL     1      12.653   4.345   5.426  1.00  0.00     0.010 A 
ATOM     61  C   UNL     1      10.111   5.226   6.185  1.00  0.00     0.020 A 
ATOM     62  C   UNL     1      12.414   5.713   5.585  1.00  0.00     0.020 A 
ATOM     63  C   UNL     1      11.137   6.146   5.945  1.00  0.00     0.054 A 
BRANCH  63  64
ATOM     64  S   UNL     1      10.785   7.916   6.133  1.00  0.00     0.124 S 
ATOM     65  O   UNL     1       9.937   8.179   4.974  1.00  0.00    -0.237 OA
ATOM     66  O   UNL     1      10.114   7.973   7.429  1.00  0.00    -0.237 OA
ATOM     67  O   UNL     1      12.106   8.540   6.091  1.00  0.00    -0.744 OA
ENDBRANCH  63  64
ENDBRANCH  44  58
BRANCH  45  68
ATOM     68  C   UNL     1      13.459  -6.318   4.119  1.00  0.00    -0.014 A 
ATOM     69  C   UNL     1      13.057  -7.304   5.037  1.00  0.00     0.010 A 
ATOM     70  C   UNL     1      14.144  -6.713   2.954  1.00  0.00     0.010 A 
ATOM     71  C   UNL     1      13.348  -8.653   4.803  1.00  0.00     0.020 A 
ATOM     72  C   UNL     1      14.402  -8.062   2.697  1.00  0.00     0.020 A 
ATOM     73  C   UNL     1      14.014  -9.023   3.631  1.00  0.00     0.054 A 
BRANCH  73  74
ATOM     74  S   UNL     1      14.336 -10.782   3.321  1.00  0.00     0.124 S 
ATOM     75  O   UNL     1      15.390 -11.073   4.288  1.00  0.00    -0.237 OA
ATOM     76  O   UNL     1      13.038 -11.393   3.595  1.00  0.00    -0.237 OA
ATOM     77  O   UNL     1      14.746 -10.813   1.919  1.00  0.00    -0.744 OA
ENDBRANCH  73  74
ENDBRANCH  45  68
BRANCH  57  78
ATOM     78  C   UNL     1      15.633  -1.689   8.861  1.00  0.00    -0.014 A 
ATOM     79  C   UNL     1      17.015  -1.919   8.743  1.00  0.00     0.010 A 
ATOM     80  C   UNL     1      15.068  -1.549  10.143  1.00  0.00     0.010 A 
ATOM     81  C   UNL     1      17.806  -2.061   9.887  1.00  0.00     0.020 A 
ATOM     82  C   UNL     1      15.861  -1.654  11.287  1.00  0.00     0.020 A 
ATOM     83  C   UNL     1      17.222  -1.931  11.152  1.00  0.00     0.054 A 
BRANCH  83  84
ATOM     84  S   UNL     1      18.272  -2.104  12.620  1.00  0.00     0.124 S 
ATOM     85  O   UNL     1      18.534  -3.540  12.638  1.00  0.00    -0.237 OA
ATOM     86  O   UNL     1      19.419  -1.260  12.294  1.00  0.00    -0.237 OA
ATOM     87  O   UNL     1      17.431  -1.610  13.708  1.00  0.00    -0.744 OA
ENDBRANCH  83  84
ENDBRANCH  57  78
ENDBRANCH  31  32
ENDBRANCH  24  26
ENDBRANCH  23  24
ENDBRANCH  22  23
ENDBRANCH   1  22
TORSDOF 17
