REMARK SMILES C[C@H](C(=O)OCCOC(=O)c1ccc(-c2c3nc(c(-c4ccc(S(=O)(=O)[O-])cc4)c4ccc([nH]4)c(-c4ccc(S(=O)(=O)[O-])cc4)c4nc(c(-c5ccc(S(=O)(=O)[O-])cc5)c5ccc2[nH]5)C=C4)C=C3)cc1)[C@@H](C)Nc1ccccc1Oc1ccccc1
REMARK SMILES IDX 6 1 5 2 3 3 4 4 2 5 1 6 71 7 72 8 73 9 74 11 75 12 79 13
REMARK SMILES IDX 76 14 78 15 77 16 80 17 81 18 82 19 86 20 83 21 85 22 84 23
REMARK SMILES IDX 7 24 8 25 9 26 10 27 11 28 12 29 70 30 13 31 69 32 14 33
REMARK SMILES IDX 15 34 16 35 63 36 17 37 68 38 62 39 64 40 18 41 67 42 61 43
REMARK SMILES IDX 60 44 19 46 49 47 30 48 48 49 31 50 34 51 47 52 65 53 32 54
REMARK SMILES IDX 33 55 46 57 66 58 35 59 20 60 21 61 29 62 22 63 28 64 23 65
REMARK SMILES IDX 24 66 25 67 26 68 27 69 50 70 51 71 59 72 52 73 58 74 53 75
REMARK SMILES IDX 54 76 55 77 56 78 57 79 36 80 37 81 45 82 38 83 44 84 39 85
REMARK SMILES IDX 40 86 41 87 42 88 43 89
REMARK H PARENT 73 10 64 45 34 56
REMARK Flexibility Score: inf
ROOT
ATOM      1  C   UNL     1       1.203  -1.970  -0.905  1.00  0.00     0.274 C 
ENDROOT
BRANCH   1   2
ATOM      2  O   UNL     1       0.578  -0.673  -0.864  1.00  0.00    -0.462 OA
BRANCH   2   3
ATOM      3  C   UNL     1       0.944   0.106   0.190  1.00  0.00     0.310 C 
ATOM      4  O   UNL     1       1.643  -0.273   1.125  1.00  0.00    -0.252 OA
BRANCH   3   5
ATOM      5  C   UNL     1       0.362   1.505   0.128  1.00  0.00     0.118 C 
ATOM      6  C   UNL     1       0.301   2.032  -1.308  1.00  0.00     0.022 C 
BRANCH   5   7
ATOM      7  C   UNL     1      -0.999   1.453   0.828  1.00  0.00     0.090 C 
ATOM      8  C   UNL     1      -0.866   1.031   2.301  1.00  0.00     0.031 C 
BRANCH   7   9
ATOM      9  N   UNL     1      -1.658   2.749   0.822  1.00  0.00    -0.379 N 
ATOM     10  H   UNL     1      -1.410   3.352   1.560  1.00  0.00     0.160 HD
BRANCH   9  11
ATOM     11  C   UNL     1      -2.583   3.256  -0.073  1.00  0.00     0.078 A 
ATOM     12  C   UNL     1      -2.493   4.660  -0.259  1.00  0.00     0.029 A 
ATOM     13  C   UNL     1      -3.523   2.576  -0.874  1.00  0.00     0.150 A 
ATOM     14  C   UNL     1      -3.264   5.360  -1.189  1.00  0.00     0.002 A 
ATOM     15  C   UNL     1      -4.310   3.298  -1.800  1.00  0.00     0.049 A 
ATOM     16  C   UNL     1      -4.184   4.675  -1.961  1.00  0.00     0.004 A 
BRANCH  13  17
ATOM     17  O   UNL     1      -3.723   1.221  -1.026  1.00  0.00    -0.455 OA
BRANCH  17  18
ATOM     18  C   UNL     1      -3.848   0.346   0.019  1.00  0.00     0.127 A 
ATOM     19  C   UNL     1      -3.427  -0.958  -0.287  1.00  0.00     0.047 A 
ATOM     20  C   UNL     1      -4.280   0.649   1.306  1.00  0.00     0.047 A 
ATOM     21  C   UNL     1      -3.332  -1.926   0.709  1.00  0.00     0.004 A 
ATOM     22  C   UNL     1      -4.199  -0.331   2.303  1.00  0.00     0.004 A 
ATOM     23  C   UNL     1      -3.705  -1.607   2.010  1.00  0.00     0.000 A 
ENDBRANCH  17  18
ENDBRANCH  13  17
ENDBRANCH   9  11
ENDBRANCH   7   9
ENDBRANCH   5   7
ENDBRANCH   3   5
ENDBRANCH   2   3
ENDBRANCH   1   2
BRANCH   1  24
ATOM     24  C   UNL     1       2.436  -1.937  -1.808  1.00  0.00     0.275 C 
BRANCH  24  25
ATOM     25  O   UNL     1       3.291  -0.852  -1.411  1.00  0.00    -0.458 OA
BRANCH  25  26
ATOM     26  C   UNL     1       3.743  -0.056  -2.410  1.00  0.00     0.338 C 
ATOM     27  O   UNL     1       3.639  -0.267  -3.606  1.00  0.00    -0.246 OA
BRANCH  26  28
ATOM     28  C   UNL     1       4.359   1.174  -1.853  1.00  0.00     0.060 A 
ATOM     29  C   UNL     1       3.917   1.728  -0.650  1.00  0.00     0.016 A 
ATOM     30  C   UNL     1       5.322   1.850  -2.601  1.00  0.00     0.016 A 
ATOM     31  C   UNL     1       4.347   2.990  -0.247  1.00  0.00     0.010 A 
ATOM     32  C   UNL     1       5.843   3.062  -2.133  1.00  0.00     0.010 A 
ATOM     33  C   UNL     1       5.340   3.664  -0.965  1.00  0.00    -0.014 A 
BRANCH  33  34
ATOM     34  C   UNL     1       5.844   4.995  -0.525  1.00  0.00     0.031 A 
ATOM     35  C   UNL     1       5.825   6.156  -1.485  1.00  0.00     0.074 A 
ATOM     36  C   UNL     1       6.341   5.173   0.717  1.00  0.00     0.049 A 
ATOM     37  N   UNL     1       6.471   7.292  -1.422  1.00  0.00    -0.248 NA
ATOM     38  C   UNL     1       4.987   6.009  -2.687  1.00  0.00     0.031 C 
ATOM     39  C   UNL     1       6.366   4.167   1.783  1.00  0.00     0.029 A 
ATOM     40  N   UNL     1       6.927   6.274   1.294  1.00  0.00    -0.354 N 
ATOM     41  C   UNL     1       6.190   7.954  -2.612  1.00  0.00     0.074 A 
ATOM     42  C   UNL     1       5.295   7.104  -3.368  1.00  0.00     0.031 C 
ATOM     43  C   UNL     1       6.896   4.708   2.890  1.00  0.00     0.029 A 
ATOM     44  C   UNL     1       7.352   6.058   2.584  1.00  0.00     0.049 A 
ATOM     45  H   UNL     1       7.032   7.135   0.829  1.00  0.00     0.167 HD
ATOM     46  C   UNL     1       6.654   9.152  -3.040  1.00  0.00     0.031 A 
ATOM     47  C   UNL     1       8.082   6.828   3.414  1.00  0.00     0.031 A 
ATOM     48  C   UNL     1       7.496  10.015  -2.254  1.00  0.00     0.049 A 
ATOM     49  C   UNL     1       8.597   8.148   2.917  1.00  0.00     0.074 A 
ATOM     50  C   UNL     1       8.021  11.251  -2.592  1.00  0.00     0.029 A 
ATOM     51  N   UNL     1       7.913   9.744  -0.960  1.00  0.00    -0.354 N 
ATOM     52  N   UNL     1       8.413   8.715   1.749  1.00  0.00    -0.248 NA
ATOM     53  C   UNL     1       9.445   8.915   3.839  1.00  0.00     0.031 C 
ATOM     54  C   UNL     1       8.779  11.714  -1.510  1.00  0.00     0.029 A 
ATOM     55  C   UNL     1       8.691  10.786  -0.485  1.00  0.00     0.049 A 
ATOM     56  H   UNL     1       7.689   8.931  -0.453  1.00  0.00     0.167 HD
ATOM     57  C   UNL     1       9.123   9.908   1.795  1.00  0.00     0.074 A 
ATOM     58  C   UNL     1       9.719   9.992   3.113  1.00  0.00     0.031 C 
ATOM     59  C   UNL     1       9.276  10.846   0.829  1.00  0.00     0.031 A 
BRANCH  46  60
ATOM     60  C   UNL     1       6.311   9.572  -4.444  1.00  0.00    -0.014 A 
ATOM     61  C   UNL     1       5.028  10.030  -4.788  1.00  0.00     0.010 A 
ATOM     62  C   UNL     1       7.313   9.535  -5.433  1.00  0.00     0.010 A 
ATOM     63  C   UNL     1       4.743  10.407  -6.105  1.00  0.00     0.020 A 
ATOM     64  C   UNL     1       7.038   9.932  -6.745  1.00  0.00     0.020 A 
ATOM     65  C   UNL     1       5.748  10.349  -7.076  1.00  0.00     0.054 A 
BRANCH  65  66
ATOM     66  S   UNL     1       5.360  10.859  -8.774  1.00  0.00     0.124 S 
ATOM     67  O   UNL     1       4.630   9.698  -9.277  1.00  0.00    -0.237 OA
ATOM     68  O   UNL     1       4.560  12.065  -8.575  1.00  0.00    -0.237 OA
ATOM     69  O   UNL     1       6.673  11.079  -9.377  1.00  0.00    -0.744 OA
ENDBRANCH  65  66
ENDBRANCH  46  60
BRANCH  47  70
ATOM     70  C   UNL     1       8.424   6.332   4.774  1.00  0.00    -0.014 A 
ATOM     71  C   UNL     1       7.825   6.899   5.911  1.00  0.00     0.010 A 
ATOM     72  C   UNL     1       9.324   5.261   4.936  1.00  0.00     0.010 A 
ATOM     73  C   UNL     1       8.116   6.403   7.186  1.00  0.00     0.020 A 
ATOM     74  C   UNL     1       9.596   4.745   6.205  1.00  0.00     0.020 A 
ATOM     75  C   UNL     1       8.996   5.325   7.324  1.00  0.00     0.054 A 
BRANCH  75  76
ATOM     76  S   UNL     1       9.297   4.637   8.976  1.00  0.00     0.124 S 
ATOM     77  O   UNL     1      10.272   5.575   9.521  1.00  0.00    -0.237 OA
ATOM     78  O   UNL     1       7.970   4.677   9.587  1.00  0.00    -0.237 OA
ATOM     79  O   UNL     1       9.803   3.295   8.697  1.00  0.00    -0.744 OA
ENDBRANCH  75  76
ENDBRANCH  47  70
BRANCH  59  80
ATOM     80  C   UNL     1      10.098  12.053   1.177  1.00  0.00    -0.014 A 
ATOM     81  C   UNL     1      11.502  11.986   1.211  1.00  0.00     0.010 A 
ATOM     82  C   UNL     1       9.458  13.277   1.437  1.00  0.00     0.010 A 
ATOM     83  C   UNL     1      12.252  13.120   1.530  1.00  0.00     0.020 A 
ATOM     84  C   UNL     1      10.206  14.417   1.738  1.00  0.00     0.020 A 
ATOM     85  C   UNL     1      11.599  14.328   1.796  1.00  0.00     0.054 A 
BRANCH  85  86
ATOM     86  S   UNL     1      12.592  15.797   2.176  1.00  0.00     0.124 S 
ATOM     87  O   UNL     1      12.955  15.565   3.571  1.00  0.00    -0.237 OA
ATOM     88  O   UNL     1      13.690  15.703   1.217  1.00  0.00    -0.237 OA
ATOM     89  O   UNL     1      11.668  16.905   1.948  1.00  0.00    -0.744 OA
ENDBRANCH  85  86
ENDBRANCH  59  80
ENDBRANCH  33  34
ENDBRANCH  26  28
ENDBRANCH  25  26
ENDBRANCH  24  25
ENDBRANCH   1  24
TORSDOF 19
