REMARK SMILES O=C(CC[NH+]1CCC(CC(=O)OCCOC(=O)c2ccc(-c3c4nc(c(-c5ccc(S(=O)(=O)[O-])cc5)c5ccc([nH]5)c(-c5ccc(S(=O)(=O)[O-])cc5)c5nc(c(-c6ccc(S(=O)(=O)[O-])cc6)c6ccc3[nH]6)C=C5)C=C4)cc2)CC1)NC1CC1
REMARK SMILES IDX 13 1 12 2 10 3 11 4 9 5 8 6 5 7 6 8 79 9 7 11 78 12 4 13
REMARK SMILES IDX 3 14 2 15 1 16 80 17 81 19 82 20 83 21 14 22 15 23 16 24
REMARK SMILES IDX 17 25 18 26 19 27 77 28 20 29 76 30 21 31 22 32 23 33 70 34
REMARK SMILES IDX 24 35 75 36 69 37 71 38 25 39 74 40 68 41 67 42 26 44 56 45
REMARK SMILES IDX 37 46 55 47 38 48 41 49 54 50 72 51 39 52 40 53 53 55 73 56
REMARK SMILES IDX 42 57 27 58 28 59 36 60 29 61 35 62 30 63 31 64 32 65 33 66
REMARK SMILES IDX 34 67 57 68 58 69 66 70 59 71 65 72 60 73 61 74 62 75 63 76
REMARK SMILES IDX 64 77 43 78 44 79 52 80 45 81 51 82 46 83 47 84 48 85 49 86
REMARK SMILES IDX 50 87
REMARK H PARENT 5 10 80 18 71 43 41 54
REMARK Flexibility Score: inf
ROOT
ATOM      1  C   UNL     1      11.273   1.477   0.348  1.00  0.00     0.274 C 
ENDROOT
BRANCH   1   2
ATOM      2  O   UNL     1       9.839   1.580   0.406  1.00  0.00    -0.462 OA
BRANCH   2   3
ATOM      3  C   UNL     1       9.335   2.768   0.821  1.00  0.00     0.306 C 
ATOM      4  O   UNL     1      10.005   3.714   1.215  1.00  0.00    -0.252 OA
BRANCH   3   5
ATOM      5  C   UNL     1       7.824   2.790   0.810  1.00  0.00     0.126 C 
BRANCH   5   6
ATOM      6  C   UNL     1       7.152   2.164  -0.427  1.00  0.00     0.011 C 
ATOM      7  N   UNL     1       4.798   0.641  -1.194  1.00  0.00    -0.334 N 
ATOM      8  C   UNL     1       6.110  -0.005  -1.306  1.00  0.00     0.262 C 
ATOM      9  C   UNL     1       4.904   2.034  -1.643  1.00  0.00     0.262 C 
ATOM     10  H   UNL     1       4.510   0.644  -0.215  1.00  0.00     0.348 HD
ATOM     11  C   UNL     1       7.067   0.631  -0.301  1.00  0.00     0.066 C 
ATOM     12  C   UNL     1       5.759   2.790  -0.626  1.00  0.00     0.066 C 
BRANCH   7  13
ATOM     13  C   UNL     1       3.745  -0.111  -1.896  1.00  0.00     0.272 C 
BRANCH  13  14
ATOM     14  C   UNL     1       3.028  -1.036  -0.902  1.00  0.00     0.161 C 
BRANCH  14  15
ATOM     15  C   UNL     1       2.120  -0.280   0.059  1.00  0.00     0.225 C 
ATOM     16  O   UNL     1       0.964  -0.634   0.272  1.00  0.00    -0.275 OA
ATOM     17  N   UNL     1       2.740   0.778   0.688  1.00  0.00    -0.353 N 
ATOM     18  H   UNL     1       3.696   0.918   0.502  1.00  0.00     0.163 HD
BRANCH  17  19
ATOM     19  C   UNL     1       2.108   1.685   1.584  1.00  0.00     0.082 C 
ATOM     20  C   UNL     1       2.200   3.167   1.315  1.00  0.00     0.027 C 
ATOM     21  C   UNL     1       0.880   2.466   1.207  1.00  0.00     0.027 C 
ENDBRANCH  17  19
ENDBRANCH  14  15
ENDBRANCH  13  14
ENDBRANCH   7  13
ENDBRANCH   5   6
ENDBRANCH   3   5
ENDBRANCH   2   3
ENDBRANCH   1   2
BRANCH   1  22
ATOM     22  C   UNL     1      11.778   1.707  -1.077  1.00  0.00     0.275 C 
BRANCH  22  23
ATOM     23  O   UNL     1      11.611   3.081  -1.467  1.00  0.00    -0.458 OA
BRANCH  23  24
ATOM     24  C   UNL     1      10.541   3.342  -2.255  1.00  0.00     0.338 C 
ATOM     25  O   UNL     1       9.749   2.541  -2.719  1.00  0.00    -0.246 OA
BRANCH  24  26
ATOM     26  C   UNL     1      10.401   4.798  -2.400  1.00  0.00     0.060 A 
ATOM     27  C   UNL     1       9.357   5.446  -1.734  1.00  0.00     0.016 A 
ATOM     28  C   UNL     1      11.266   5.510  -3.232  1.00  0.00     0.016 A 
ATOM     29  C   UNL     1       9.178   6.820  -1.892  1.00  0.00     0.010 A 
ATOM     30  C   UNL     1      11.087   6.888  -3.385  1.00  0.00     0.010 A 
ATOM     31  C   UNL     1      10.040   7.551  -2.720  1.00  0.00    -0.014 A 
BRANCH  31  32
ATOM     32  C   UNL     1       9.842   9.008  -2.909  1.00  0.00     0.031 A 
ATOM     33  C   UNL     1       9.288   9.529  -4.205  1.00  0.00     0.074 A 
ATOM     34  C   UNL     1      10.176   9.862  -1.923  1.00  0.00     0.049 A 
ATOM     35  N   UNL     1       9.136  10.767  -4.598  1.00  0.00    -0.248 NA
ATOM     36  C   UNL     1       8.847   8.525  -5.186  1.00  0.00     0.031 C 
ATOM     37  C   UNL     1      10.690   9.476  -0.608  1.00  0.00     0.029 A 
ATOM     38  N   UNL     1      10.142  11.234  -1.880  1.00  0.00    -0.354 N 
ATOM     39  C   UNL     1       8.602  10.695  -5.879  1.00  0.00     0.074 A 
ATOM     40  C   UNL     1       8.467   9.290  -6.201  1.00  0.00     0.031 C 
ATOM     41  C   UNL     1      10.928  10.586   0.111  1.00  0.00     0.029 A 
ATOM     42  C   UNL     1      10.629  11.758  -0.706  1.00  0.00     0.049 A 
ATOM     43  H   UNL     1       9.802  11.788  -2.619  1.00  0.00     0.167 HD
ATOM     44  C   UNL     1       8.257  11.707  -6.710  1.00  0.00     0.031 A 
ATOM     45  C   UNL     1      10.841  13.038  -0.342  1.00  0.00     0.031 A 
ATOM     46  C   UNL     1       8.398  13.103  -6.388  1.00  0.00     0.049 A 
ATOM     47  C   UNL     1      10.509  14.143  -1.308  1.00  0.00     0.074 A 
ATOM     48  C   UNL     1       8.065  14.203  -7.160  1.00  0.00     0.029 A 
ATOM     49  N   UNL     1       8.918  13.593  -5.200  1.00  0.00    -0.354 N 
ATOM     50  N   UNL     1      10.000  14.057  -2.514  1.00  0.00    -0.248 NA
ATOM     51  C   UNL     1      10.784  15.517  -0.864  1.00  0.00     0.031 C 
ATOM     52  C   UNL     1       8.426  15.357  -6.457  1.00  0.00     0.029 A 
ATOM     53  C   UNL     1       8.937  14.978  -5.227  1.00  0.00     0.049 A 
ATOM     54  H   UNL     1       9.229  13.039  -4.448  1.00  0.00     0.167 HD
ATOM     55  C   UNL     1       9.877  15.366  -2.966  1.00  0.00     0.074 A 
ATOM     56  C   UNL     1      10.349  16.224  -1.898  1.00  0.00     0.031 C 
ATOM     57  C   UNL     1       9.415  15.817  -4.158  1.00  0.00     0.031 A 
BRANCH  44  58
ATOM     58  C   UNL     1       7.724  11.341  -8.069  1.00  0.00    -0.014 A 
ATOM     59  C   UNL     1       6.422  10.834  -8.228  1.00  0.00     0.010 A 
ATOM     60  C   UNL     1       8.521  11.553  -9.208  1.00  0.00     0.010 A 
ATOM     61  C   UNL     1       5.940  10.514  -9.500  1.00  0.00     0.020 A 
ATOM     62  C   UNL     1       8.035  11.255 -10.484  1.00  0.00     0.020 A 
ATOM     63  C   UNL     1       6.751  10.722 -10.620  1.00  0.00     0.054 A 
BRANCH  63  64
ATOM     64  S   UNL     1       6.093  10.320 -12.262  1.00  0.00     0.124 S 
ATOM     65  O   UNL     1       6.149   8.860 -12.258  1.00  0.00    -0.237 OA
ATOM     66  O   UNL     1       4.751  10.896 -12.221  1.00  0.00    -0.237 OA
ATOM     67  O   UNL     1       7.022  10.976 -13.178  1.00  0.00    -0.744 OA
ENDBRANCH  63  64
ENDBRANCH  44  58
BRANCH  45  68
ATOM     68  C   UNL     1      11.433  13.343   0.989  1.00  0.00    -0.014 A 
ATOM     69  C   UNL     1      10.659  13.940   1.998  1.00  0.00     0.010 A 
ATOM     70  C   UNL     1      12.780  13.031   1.251  1.00  0.00     0.010 A 
ATOM     71  C   UNL     1      11.226  14.236   3.242  1.00  0.00     0.020 A 
ATOM     72  C   UNL     1      13.343  13.302   2.501  1.00  0.00     0.020 A 
ATOM     73  C   UNL     1      12.565  13.915   3.485  1.00  0.00     0.054 A 
BRANCH  73  74
ATOM     74  S   UNL     1      13.269  14.260   5.122  1.00  0.00     0.124 S 
ATOM     75  O   UNL     1      13.493  15.701   5.056  1.00  0.00    -0.237 OA
ATOM     76  O   UNL     1      12.206  13.824   6.024  1.00  0.00    -0.237 OA
ATOM     77  O   UNL     1      14.477  13.438   5.153  1.00  0.00    -0.744 OA
ENDBRANCH  73  74
ENDBRANCH  45  68
BRANCH  57  78
ATOM     78  C   UNL     1       9.373  17.307  -4.362  1.00  0.00    -0.014 A 
ATOM     79  C   UNL     1      10.549  18.042  -4.594  1.00  0.00     0.010 A 
ATOM     80  C   UNL     1       8.134  17.973  -4.368  1.00  0.00     0.010 A 
ATOM     81  C   UNL     1      10.489  19.423  -4.799  1.00  0.00     0.020 A 
ATOM     82  C   UNL     1       8.068  19.350  -4.596  1.00  0.00     0.020 A 
ATOM     83  C   UNL     1       9.248  20.069  -4.796  1.00  0.00     0.054 A 
BRANCH  83  84
ATOM     84  S   UNL     1       9.190  21.856  -5.105  1.00  0.00     0.124 S 
ATOM     85  O   UNL     1       9.636  22.399  -3.825  1.00  0.00    -0.237 OA
ATOM     86  O   UNL     1      10.122  22.022  -6.218  1.00  0.00    -0.237 OA
ATOM     87  O   UNL     1       7.788  22.104  -5.433  1.00  0.00    -0.744 OA
ENDBRANCH  83  84
ENDBRANCH  57  78
ENDBRANCH  31  32
ENDBRANCH  24  26
ENDBRANCH  23  24
ENDBRANCH  22  23
ENDBRANCH   1  22
TORSDOF 19
