REMARK SMILES CC(=O)c1c[nH]c(C(=O)N[C@H]2C=C[C@H](C(=O)OCCOC(=O)c3ccc(-c4c5nc(c(-c6ccc(S(=O)(=O)[O-])cc6)c6ccc([nH]6)c(-c6ccc(S(=O)(=O)[O-])cc6)c6nc(c(-c7ccc(S(=O)(=O)[O-])cc7)c7ccc4[nH]7)C=C6)C=C5)cc3)C2)c1
REMARK SMILES IDX 18 1 17 2 15 3 16 4 14 5 11 6 12 7 83 8 13 9 10 10 8 11 9 12
REMARK SMILES IDX 7 14 4 15 5 16 84 17 6 18 2 20 1 21 3 22 19 23 20 24 21 25
REMARK SMILES IDX 22 26 23 27 24 28 82 29 25 30 81 31 26 32 27 33 28 34 75 35
REMARK SMILES IDX 29 36 80 37 74 38 76 39 30 40 79 41 73 42 72 43 31 45 61 46
REMARK SMILES IDX 42 47 60 48 43 49 46 50 59 51 77 52 44 53 45 54 58 56 78 57
REMARK SMILES IDX 47 58 32 59 33 60 41 61 34 62 40 63 35 64 36 65 37 66 38 67
REMARK SMILES IDX 39 68 62 69 63 70 71 71 64 72 70 73 65 74 66 75 67 76 68 77
REMARK SMILES IDX 69 78 48 79 49 80 57 81 50 82 56 83 51 84 52 85 53 86 54 87
REMARK SMILES IDX 55 88
REMARK H PARENT 10 13 6 19 76 44 46 55
REMARK Flexibility Score: inf
ROOT
ATOM      1  C   UNL     1      -6.791   1.659  -1.393  1.00  0.00     0.274 C 
ENDROOT
BRANCH   1   2
ATOM      2  O   UNL     1      -5.369   1.716  -1.577  1.00  0.00    -0.462 OA
BRANCH   2   3
ATOM      3  C   UNL     1      -4.873   2.906  -2.023  1.00  0.00     0.312 C 
ATOM      4  O   UNL     1      -5.544   3.817  -2.500  1.00  0.00    -0.252 OA
BRANCH   3   5
ATOM      5  C   UNL     1      -3.367   2.957  -1.825  1.00  0.00     0.124 C 
ATOM      6  C   UNL     1      -2.230   4.886  -2.793  1.00  0.00     0.106 C 
ATOM      7  C   UNL     1      -2.013   3.665  -3.618  1.00  0.00    -0.006 C 
ATOM      8  C   UNL     1      -2.876   4.385  -1.499  1.00  0.00     0.048 C 
ATOM      9  C   UNL     1      -2.656   2.611  -3.100  1.00  0.00    -0.014 C 
BRANCH   6  10
ATOM     10  N   UNL     1      -1.036   5.698  -2.645  1.00  0.00    -0.345 N 
ATOM     11  C   UNL     1       0.250   5.522  -2.213  1.00  0.00     0.268 C 
ATOM     12  O   UNL     1       0.978   6.517  -2.276  1.00  0.00    -0.268 OA
ATOM     13  H   UNL     1      -1.195   6.626  -2.933  1.00  0.00     0.164 HD
BRANCH  11  14
ATOM     14  C   UNL     1       0.789   4.257  -1.766  1.00  0.00     0.105 A 
ATOM     15  C   UNL     1       1.267   2.091  -1.201  1.00  0.00     0.035 A 
ATOM     16  C   UNL     1       2.452   2.791  -1.254  1.00  0.00     0.094 A 
ATOM     17  C   UNL     1       0.241   3.039  -1.429  1.00  0.00     0.045 A 
ATOM     18  N   UNL     1       2.152   4.094  -1.578  1.00  0.00    -0.356 N 
ATOM     19  H   UNL     1       2.818   4.814  -1.666  1.00  0.00     0.166 HD
BRANCH  15  20
ATOM     20  C   UNL     1       1.046   0.669  -0.988  1.00  0.00     0.161 C 
ATOM     21  C   UNL     1       1.578   0.044   0.269  1.00  0.00     0.093 C 
ATOM     22  O   UNL     1       0.376   0.011  -1.784  1.00  0.00    -0.294 OA
ENDBRANCH  15  20
ENDBRANCH  11  14
ENDBRANCH   6  10
ENDBRANCH   3   5
ENDBRANCH   2   3
ENDBRANCH   1   2
BRANCH   1  23
ATOM     23  C   UNL     1      -7.187   1.962   0.051  1.00  0.00     0.275 C 
BRANCH  23  24
ATOM     24  O   UNL     1      -6.920   3.307   0.469  1.00  0.00    -0.458 OA
BRANCH  24  25
ATOM     25  C   UNL     1      -5.690   3.471   1.006  1.00  0.00     0.338 C 
ATOM     26  O   UNL     1      -4.697   2.796   0.794  1.00  0.00    -0.246 OA
BRANCH  25  27
ATOM     27  C   UNL     1      -5.694   4.466   2.077  1.00  0.00     0.060 A 
ATOM     28  C   UNL     1      -4.464   5.044   2.410  1.00  0.00     0.016 A 
ATOM     29  C   UNL     1      -6.818   4.597   2.901  1.00  0.00     0.016 A 
ATOM     30  C   UNL     1      -4.338   5.704   3.616  1.00  0.00     0.010 A 
ATOM     31  C   UNL     1      -6.685   5.236   4.123  1.00  0.00     0.010 A 
ATOM     32  C   UNL     1      -5.442   5.775   4.477  1.00  0.00    -0.014 A 
BRANCH  32  33
ATOM     33  C   UNL     1      -5.318   6.638   5.662  1.00  0.00     0.031 A 
ATOM     34  C   UNL     1      -5.590   8.101   5.281  1.00  0.00     0.074 A 
ATOM     35  C   UNL     1      -4.922   6.044   6.830  1.00  0.00     0.049 A 
ATOM     36  N   UNL     1      -5.162   9.185   5.843  1.00  0.00    -0.248 NA
ATOM     37  C   UNL     1      -6.374   8.417   4.049  1.00  0.00     0.031 C 
ATOM     38  C   UNL     1      -4.712   4.587   7.015  1.00  0.00     0.029 A 
ATOM     39  N   UNL     1      -4.614   6.519   8.089  1.00  0.00    -0.354 N 
ATOM     40  C   UNL     1      -5.763  10.276   5.179  1.00  0.00     0.074 A 
ATOM     41  C   UNL     1      -6.400   9.750   4.014  1.00  0.00     0.031 C 
ATOM     42  C   UNL     1      -4.255   4.314   8.260  1.00  0.00     0.029 A 
ATOM     43  C   UNL     1      -4.150   5.546   9.019  1.00  0.00     0.049 A 
ATOM     44  H   UNL     1      -4.709   7.469   8.329  1.00  0.00     0.167 HD
ATOM     45  C   UNL     1      -5.822  11.526   5.718  1.00  0.00     0.031 A 
ATOM     46  C   UNL     1      -3.695   5.723  10.300  1.00  0.00     0.031 A 
ATOM     47  C   UNL     1      -5.130  11.549   6.960  1.00  0.00     0.049 A 
ATOM     48  C   UNL     1      -3.976   7.127  10.624  1.00  0.00     0.074 A 
ATOM     49  C   UNL     1      -3.800  11.450   7.273  1.00  0.00     0.029 A 
ATOM     50  N   UNL     1      -5.888  11.266   8.073  1.00  0.00    -0.354 N 
ATOM     51  N   UNL     1      -5.154   7.601  10.887  1.00  0.00    -0.248 NA
ATOM     52  C   UNL     1      -2.868   8.091  10.655  1.00  0.00     0.031 C 
ATOM     53  C   UNL     1      -3.805  10.630   8.418  1.00  0.00     0.029 A 
ATOM     54  C   UNL     1      -5.118  10.469   8.878  1.00  0.00     0.049 A 
ATOM     55  H   UNL     1      -6.804  11.577   8.255  1.00  0.00     0.167 HD
ATOM     56  C   UNL     1      -4.972   8.942  10.684  1.00  0.00     0.074 A 
ATOM     57  C   UNL     1      -3.562   9.201  10.898  1.00  0.00     0.031 C 
ATOM     58  C   UNL     1      -5.783   9.581   9.801  1.00  0.00     0.031 A 
BRANCH  45  59
ATOM     59  C   UNL     1      -6.681  12.712   5.387  1.00  0.00    -0.014 A 
ATOM     60  C   UNL     1      -6.340  13.937   6.015  1.00  0.00     0.010 A 
ATOM     61  C   UNL     1      -7.952  12.608   4.807  1.00  0.00     0.010 A 
ATOM     62  C   UNL     1      -7.275  14.956   6.190  1.00  0.00     0.020 A 
ATOM     63  C   UNL     1      -8.886  13.649   4.942  1.00  0.00     0.020 A 
ATOM     64  C   UNL     1      -8.558  14.788   5.681  1.00  0.00     0.054 A 
BRANCH  64  65
ATOM     65  S   UNL     1      -9.802  16.045   6.074  1.00  0.00     0.124 S 
ATOM     66  O   UNL     1     -10.018  15.826   7.501  1.00  0.00    -0.237 OA
ATOM     67  O   UNL     1      -9.114  17.287   5.728  1.00  0.00    -0.237 OA
ATOM     68  O   UNL     1     -10.924  15.700   5.205  1.00  0.00    -0.744 OA
ENDBRANCH  64  65
ENDBRANCH  45  59
BRANCH  46  69
ATOM     69  C   UNL     1      -2.987   4.970  11.408  1.00  0.00    -0.014 A 
ATOM     70  C   UNL     1      -2.505   3.658  11.359  1.00  0.00     0.010 A 
ATOM     71  C   UNL     1      -2.629   5.710  12.577  1.00  0.00     0.010 A 
ATOM     72  C   UNL     1      -1.597   3.181  12.343  1.00  0.00     0.020 A 
ATOM     73  C   UNL     1      -1.693   5.277  13.517  1.00  0.00     0.020 A 
ATOM     74  C   UNL     1      -1.154   4.014  13.379  1.00  0.00     0.054 A 
BRANCH  74  75
ATOM     75  S   UNL     1       0.225   3.533  14.460  1.00  0.00     0.124 S 
ATOM     76  O   UNL     1      -0.441   2.742  15.489  1.00  0.00    -0.237 OA
ATOM     77  O   UNL     1       1.100   2.790  13.556  1.00  0.00    -0.237 OA
ATOM     78  O   UNL     1       0.768   4.814  14.912  1.00  0.00    -0.744 OA
ENDBRANCH  74  75
ENDBRANCH  46  69
BRANCH  58  79
ATOM     79  C   UNL     1      -7.165   8.956   9.617  1.00  0.00    -0.014 A 
ATOM     80  C   UNL     1      -7.989   8.752  10.741  1.00  0.00     0.010 A 
ATOM     81  C   UNL     1      -7.636   8.460   8.384  1.00  0.00     0.010 A 
ATOM     82  C   UNL     1      -9.216   8.075  10.649  1.00  0.00     0.020 A 
ATOM     83  C   UNL     1      -8.866   7.780   8.277  1.00  0.00     0.020 A 
ATOM     84  C   UNL     1      -9.650   7.591   9.415  1.00  0.00     0.054 A 
BRANCH  84  85
ATOM     85  S   UNL     1     -11.241   6.712   9.335  1.00  0.00     0.124 S 
ATOM     86  O   UNL     1     -11.046   5.598  10.259  1.00  0.00    -0.237 OA
ATOM     87  O   UNL     1     -12.189   7.731   9.779  1.00  0.00    -0.237 OA
ATOM     88  O   UNL     1     -11.360   6.327   7.928  1.00  0.00    -0.744 OA
ENDBRANCH  84  85
ENDBRANCH  58  79
ENDBRANCH  32  33
ENDBRANCH  25  27
ENDBRANCH  24  25
ENDBRANCH  23  24
ENDBRANCH   1  23
TORSDOF 17
