REMARK SMILES CC(C)c1ccc(-c2cnc([C@@H]3[NH2+][C@H](C(=O)OCCOC(=O)c4ccc(-c5c6nc(c(-c7ccc(S(=O)(=O)[O-])cc7)c7ccc([nH]7)c(-c7ccc(S(=O)(=O)[O-])cc7)c7nc(c(-c8ccc(S(=O)(=O)[O-])cc8)c8ccc5[nH]8)C=C7)C=C6)cc4)C(C)(C)S3)s2)cc1
REMARK SMILES IDX 18 1 17 2 15 3 16 4 14 5 12 6 13 7 86 8 83 11 84 12 85 13
REMARK SMILES IDX 11 14 8 15 9 16 87 17 10 18 7 19 4 20 5 21 89 22 6 23 88 24
REMARK SMILES IDX 2 25 1 26 3 27 19 28 20 29 21 30 22 31 23 32 24 33 82 34
REMARK SMILES IDX 25 35 81 36 26 37 27 38 28 39 75 40 29 41 80 42 74 43 76 44
REMARK SMILES IDX 30 45 79 46 73 47 72 48 31 50 61 51 42 52 60 53 43 54 46 55
REMARK SMILES IDX 59 56 77 57 44 58 45 59 58 61 78 62 47 63 32 64 33 65 41 66
REMARK SMILES IDX 34 67 40 68 35 69 36 70 37 71 38 72 39 73 62 74 63 75 71 76
REMARK SMILES IDX 64 77 70 78 65 79 66 80 67 81 68 82 69 83 48 84 49 85 57 86
REMARK SMILES IDX 50 87 56 88 51 89 52 90 53 91 54 92 55 93
REMARK H PARENT 13 9 13 10 76 49 46 60
REMARK Flexibility Score: inf
ROOT
ATOM      1  C   UNL     1     -13.415   0.533  -1.580  1.00  0.00     0.274 C 
ENDROOT
BRANCH   1   2
ATOM      2  O   UNL     1     -12.822  -0.096  -0.427  1.00  0.00    -0.458 OA
BRANCH   2   3
ATOM      3  C   UNL     1     -12.445  -1.384  -0.636  1.00  0.00     0.366 C 
ATOM      4  O   UNL     1     -12.782  -2.028  -1.630  1.00  0.00    -0.245 OA
BRANCH   3   5
ATOM      5  C   UNL     1     -11.602  -2.016   0.502  1.00  0.00     0.310 C 
ATOM      6  C   UNL     1      -9.293  -1.536  -0.015  1.00  0.00     0.304 C 
ATOM      7  N   UNL     1     -10.328  -2.587  -0.066  1.00  0.00    -0.317 N 
ATOM      8  S   UNL     1      -9.537  -0.728   1.606  1.00  0.00    -0.079 SA
ATOM      9  H   UNL     1     -10.033  -3.391   0.489  1.00  0.00     0.348 HD
ATOM     10  H   UNL     1     -10.475  -2.893  -1.027  1.00  0.00     0.348 HD
ATOM     11  C   UNL     1     -11.269  -1.286   1.828  1.00  0.00     0.079 C 
ATOM     12  C   UNL     1     -11.220  -2.285   3.010  1.00  0.00     0.030 C 
ATOM     13  C   UNL     1     -12.213  -0.158   2.263  1.00  0.00     0.030 C 
BRANCH   6  14
ATOM     14  C   UNL     1      -9.295  -0.561  -1.195  1.00  0.00     0.162 A 
ATOM     15  C   UNL     1      -8.631   0.951  -3.033  1.00  0.00     0.055 A 
ATOM     16  C   UNL     1      -9.921   1.075  -2.557  1.00  0.00     0.132 A 
ATOM     17  S   UNL     1      -7.932  -0.431  -2.264  1.00  0.00    -0.112 S 
ATOM     18  N   UNL     1     -10.284   0.250  -1.511  1.00  0.00    -0.242 NA
BRANCH  15  19
ATOM     19  C   UNL     1      -7.924   1.850  -3.974  1.00  0.00    -0.007 A 
ATOM     20  C   UNL     1      -6.667   3.675  -5.786  1.00  0.00    -0.045 A 
ATOM     21  C   UNL     1      -6.279   2.328  -5.717  1.00  0.00     0.004 A 
ATOM     22  C   UNL     1      -7.653   4.113  -4.898  1.00  0.00     0.004 A 
ATOM     23  C   UNL     1      -6.901   1.428  -4.828  1.00  0.00     0.010 A 
ATOM     24  C   UNL     1      -8.269   3.216  -4.012  1.00  0.00     0.010 A 
BRANCH  20  25
ATOM     25  C   UNL     1      -6.080   4.645  -6.801  1.00  0.00     0.013 C 
ATOM     26  C   UNL     1      -4.623   5.002  -6.505  1.00  0.00     0.012 C 
ATOM     27  C   UNL     1      -6.225   4.123  -8.235  1.00  0.00     0.012 C 
ENDBRANCH  20  25
ENDBRANCH  15  19
ENDBRANCH   6  14
ENDBRANCH   3   5
ENDBRANCH   2   3
ENDBRANCH   1   2
BRANCH   1  28
ATOM     28  C   UNL     1     -13.566   2.043  -1.361  1.00  0.00     0.275 C 
BRANCH  28  29
ATOM     29  O   UNL     1     -12.271   2.667  -1.238  1.00  0.00    -0.458 OA
BRANCH  29  30
ATOM     30  C   UNL     1     -12.031   3.376  -0.110  1.00  0.00     0.338 C 
ATOM     31  O   UNL     1     -12.840   3.698   0.747  1.00  0.00    -0.246 OA
BRANCH  30  32
ATOM     32  C   UNL     1     -10.573   3.571   0.021  1.00  0.00     0.060 A 
ATOM     33  C   UNL     1      -9.862   2.547   0.636  1.00  0.00     0.016 A 
ATOM     34  C   UNL     1      -9.899   4.713  -0.399  1.00  0.00     0.016 A 
ATOM     35  C   UNL     1      -8.480   2.612   0.800  1.00  0.00     0.010 A 
ATOM     36  C   UNL     1      -8.502   4.793  -0.223  1.00  0.00     0.010 A 
ATOM     37  C   UNL     1      -7.782   3.738   0.370  1.00  0.00    -0.014 A 
BRANCH  37  38
ATOM     38  C   UNL     1      -6.318   3.825   0.618  1.00  0.00     0.031 A 
ATOM     39  C   UNL     1      -5.820   4.501   1.850  1.00  0.00     0.074 A 
ATOM     40  C   UNL     1      -5.424   3.208  -0.176  1.00  0.00     0.049 A 
ATOM     41  N   UNL     1      -4.597   4.834   2.163  1.00  0.00    -0.248 NA
ATOM     42  C   UNL     1      -6.823   4.807   2.878  1.00  0.00     0.031 C 
ATOM     43  C   UNL     1      -5.780   2.303  -1.251  1.00  0.00     0.029 A 
ATOM     44  N   UNL     1      -4.052   3.222  -0.205  1.00  0.00    -0.354 N 
ATOM     45  C   UNL     1      -4.680   5.413   3.418  1.00  0.00     0.074 A 
ATOM     46  C   UNL     1      -6.074   5.375   3.813  1.00  0.00     0.031 C 
ATOM     47  C   UNL     1      -4.672   1.855  -1.859  1.00  0.00     0.029 A 
ATOM     48  C   UNL     1      -3.520   2.519  -1.265  1.00  0.00     0.049 A 
ATOM     49  H   UNL     1      -3.501   3.687   0.466  1.00  0.00     0.167 HD
ATOM     50  C   UNL     1      -3.681   5.947   4.158  1.00  0.00     0.031 A 
ATOM     51  C   UNL     1      -2.262   2.472  -1.747  1.00  0.00     0.031 A 
ATOM     52  C   UNL     1      -2.310   6.013   3.725  1.00  0.00     0.049 A 
ATOM     53  C   UNL     1      -1.210   3.289  -1.053  1.00  0.00     0.074 A 
ATOM     54  C   UNL     1      -1.238   6.629   4.345  1.00  0.00     0.029 A 
ATOM     55  N   UNL     1      -1.822   5.448   2.554  1.00  0.00    -0.354 N 
ATOM     56  N   UNL     1      -1.308   3.966   0.067  1.00  0.00    -0.248 NA
ATOM     57  C   UNL     1       0.112   3.363  -1.690  1.00  0.00     0.031 C 
ATOM     58  C   UNL     1      -0.118   6.492   3.517  1.00  0.00     0.029 A 
ATOM     59  C   UNL     1      -0.474   5.733   2.413  1.00  0.00     0.049 A 
ATOM     60  H   UNL     1      -2.357   4.921   1.917  1.00  0.00     0.167 HD
ATOM     61  C   UNL     1      -0.056   4.526   0.283  1.00  0.00     0.074 A 
ATOM     62  C   UNL     1       0.786   4.103  -0.819  1.00  0.00     0.031 C 
ATOM     63  C   UNL     1       0.354   5.313   1.308  1.00  0.00     0.031 A 
BRANCH  50  64
ATOM     64  C   UNL     1      -4.085   6.611   5.443  1.00  0.00    -0.014 A 
ATOM     65  C   UNL     1      -4.498   5.868   6.563  1.00  0.00     0.010 A 
ATOM     66  C   UNL     1      -4.105   8.016   5.503  1.00  0.00     0.010 A 
ATOM     67  C   UNL     1      -4.984   6.522   7.699  1.00  0.00     0.020 A 
ATOM     68  C   UNL     1      -4.563   8.672   6.646  1.00  0.00     0.020 A 
ATOM     69  C   UNL     1      -5.026   7.920   7.727  1.00  0.00     0.054 A 
BRANCH  69  70
ATOM     70  S   UNL     1      -5.701   8.746   9.193  1.00  0.00     0.124 S 
ATOM     71  O   UNL     1      -7.131   8.480   9.055  1.00  0.00    -0.237 OA
ATOM     72  O   UNL     1      -5.036   8.047  10.289  1.00  0.00    -0.237 OA
ATOM     73  O   UNL     1      -5.307  10.142   9.017  1.00  0.00    -0.744 OA
ENDBRANCH  69  70
ENDBRANCH  50  64
BRANCH  51  74
ATOM     74  C   UNL     1      -1.952   1.709  -2.990  1.00  0.00    -0.014 A 
ATOM     75  C   UNL     1      -1.093   0.597  -2.961  1.00  0.00     0.010 A 
ATOM     76  C   UNL     1      -2.514   2.098  -4.222  1.00  0.00     0.010 A 
ATOM     77  C   UNL     1      -0.803  -0.109  -4.135  1.00  0.00     0.020 A 
ATOM     78  C   UNL     1      -2.247   1.382  -5.393  1.00  0.00     0.020 A 
ATOM     79  C   UNL     1      -1.387   0.285  -5.343  1.00  0.00     0.054 A 
BRANCH  79  80
ATOM     80  S   UNL     1      -1.046  -0.681  -6.841  1.00  0.00     0.124 S 
ATOM     81  O   UNL     1       0.351  -0.351  -7.107  1.00  0.00    -0.237 OA
ATOM     82  O   UNL     1      -1.300  -2.049  -6.397  1.00  0.00    -0.237 OA
ATOM     83  O   UNL     1      -2.008  -0.160  -7.810  1.00  0.00    -0.744 OA
ENDBRANCH  79  80
ENDBRANCH  51  74
BRANCH  63  84
ATOM     84  C   UNL     1       1.794   5.748   1.309  1.00  0.00    -0.014 A 
ATOM     85  C   UNL     1       2.259   6.731   0.418  1.00  0.00     0.010 A 
ATOM     86  C   UNL     1       2.676   5.213   2.264  1.00  0.00     0.010 A 
ATOM     87  C   UNL     1       3.587   7.162   0.476  1.00  0.00     0.020 A 
ATOM     88  C   UNL     1       3.997   5.661   2.343  1.00  0.00     0.020 A 
ATOM     89  C   UNL     1       4.445   6.629   1.443  1.00  0.00     0.054 A 
BRANCH  89  90
ATOM     90  S   UNL     1       6.143   7.260   1.545  1.00  0.00     0.124 S 
ATOM     91  O   UNL     1       6.758   6.674   0.357  1.00  0.00    -0.237 OA
ATOM     92  O   UNL     1       5.948   8.707   1.503  1.00  0.00    -0.237 OA
ATOM     93  O   UNL     1       6.630   6.740   2.820  1.00  0.00    -0.744 OA
ENDBRANCH  89  90
ENDBRANCH  63  84
ENDBRANCH  37  38
ENDBRANCH  30  32
ENDBRANCH  29  30
ENDBRANCH  28  29
ENDBRANCH   1  28
TORSDOF 17
