REMARK SMILES Cc1cc(NC(=O)[C@H]2[C@@H](C(=O)OCCOC(=O)c3ccc(-c4c5nc(c(-c6ccc(S(=O)(=O)[O-])cc6)c6ccc([nH]6)c(-c6ccc(S(=O)(=O)[O-])cc6)c6nc(c(-c7ccc(S(=O)(=O)[O-])cc7)c7ccc4[nH]7)C=C6)C=C5)cc3)C2(C)C)n(-c2ccc(F)cc2)n1
REMARK SMILES IDX 13 1 12 2 10 3 11 4 9 5 8 6 78 7 79 8 80 9 6 10 5 11 7 13
REMARK SMILES IDX 4 14 1 15 2 16 3 17 89 18 81 19 82 20 83 21 88 22 84 23
REMARK SMILES IDX 87 24 85 25 86 26 14 27 15 28 16 29 17 30 18 31 19 32 77 33
REMARK SMILES IDX 20 34 76 35 21 36 22 37 23 38 70 39 24 40 75 41 69 42 71 43
REMARK SMILES IDX 25 44 74 45 68 46 67 47 26 49 56 50 37 51 55 52 38 53 41 54
REMARK SMILES IDX 54 55 72 56 39 57 40 58 53 60 73 61 42 62 27 63 28 64 36 65
REMARK SMILES IDX 29 66 35 67 30 68 31 69 32 70 33 71 34 72 57 73 58 74 66 75
REMARK SMILES IDX 59 76 65 77 60 78 61 79 62 80 63 81 64 82 43 83 44 84 52 85
REMARK SMILES IDX 45 86 51 87 46 88 47 89 48 90 49 91 50 92
REMARK H PARENT 5 12 71 48 41 59
REMARK Flexibility Score: inf
ROOT
ATOM      1  C   UNL     1       2.086  -2.499  -5.469  1.00  0.00     0.274 C 
ENDROOT
BRANCH   1   2
ATOM      2  O   UNL     1       1.240  -1.441  -5.954  1.00  0.00    -0.462 OA
BRANCH   2   3
ATOM      3  C   UNL     1       1.329  -0.266  -5.290  1.00  0.00     0.310 C 
ATOM      4  O   UNL     1       1.838  -0.116  -4.183  1.00  0.00    -0.252 OA
BRANCH   3   5
ATOM      5  C   UNL     1       0.691   0.891  -5.965  1.00  0.00     0.118 C 
ATOM      6  C   UNL     1      -0.814   0.835  -6.148  1.00  0.00     0.100 C 
ATOM      7  C   UNL     1       0.099   0.983  -7.358  1.00  0.00    -0.009 C 
ATOM      8  C   UNL     1       0.179  -0.098  -8.397  1.00  0.00     0.013 C 
ATOM      9  C   UNL     1       0.137   2.379  -7.984  1.00  0.00     0.013 C 
BRANCH   6  10
ATOM     10  C   UNL     1      -1.493  -0.363  -5.623  1.00  0.00     0.230 C 
ATOM     11  N   UNL     1      -1.473  -0.706  -4.226  1.00  0.00    -0.310 N 
ATOM     12  H   UNL     1      -1.904  -1.564  -4.009  1.00  0.00     0.171 HD
ATOM     13  O   UNL     1      -2.088  -1.146  -6.347  1.00  0.00    -0.274 OA
BRANCH  11  14
ATOM     14  C   UNL     1      -0.944  -0.024  -3.122  1.00  0.00     0.136 A 
ATOM     15  C   UNL     1       0.975   0.015   0.025  1.00  0.00     0.069 C 
ATOM     16  C   UNL     1       0.199   0.233  -1.222  1.00  0.00     0.062 A 
ATOM     17  C   UNL     1      -0.467  -0.721  -2.026  1.00  0.00     0.072 A 
ATOM     18  N   UNL     1       0.105   1.458  -1.740  1.00  0.00    -0.171 NA
ATOM     19  N   UNL     1      -0.660   1.316  -2.848  1.00  0.00    -0.217 N 
BRANCH  19  20
ATOM     20  C   UNL     1      -1.077   2.478  -3.532  1.00  0.00     0.067 A 
ATOM     21  C   UNL     1      -2.372   2.571  -4.057  1.00  0.00     0.031 A 
ATOM     22  C   UNL     1      -0.131   3.491  -3.763  1.00  0.00     0.031 A 
ATOM     23  C   UNL     1      -2.679   3.633  -4.912  1.00  0.00     0.041 A 
ATOM     24  C   UNL     1      -0.438   4.524  -4.647  1.00  0.00     0.041 A 
ATOM     25  C   UNL     1      -1.700   4.574  -5.228  1.00  0.00     0.123 A 
ATOM     26  F   UNL     1      -1.970   5.517  -6.138  1.00  0.00    -0.207 F 
ENDBRANCH  19  20
ENDBRANCH  11  14
ENDBRANCH   6  10
ENDBRANCH   3   5
ENDBRANCH   2   3
ENDBRANCH   1   2
BRANCH   1  27
ATOM     27  C   UNL     1       3.499  -2.373  -6.028  1.00  0.00     0.275 C 
BRANCH  27  28
ATOM     28  O   UNL     1       4.146  -1.236  -5.464  1.00  0.00    -0.458 OA
BRANCH  28  29
ATOM     29  C   UNL     1       3.976  -0.081  -6.146  1.00  0.00     0.338 C 
ATOM     30  O   UNL     1       3.287   0.089  -7.139  1.00  0.00    -0.246 OA
BRANCH  29  31
ATOM     31  C   UNL     1       4.827   0.962  -5.571  1.00  0.00     0.060 A 
ATOM     32  C   UNL     1       4.772   2.199  -6.221  1.00  0.00     0.016 A 
ATOM     33  C   UNL     1       5.949   0.528  -4.859  1.00  0.00     0.016 A 
ATOM     34  C   UNL     1       5.968   2.814  -6.489  1.00  0.00     0.010 A 
ATOM     35  C   UNL     1       7.140   1.127  -5.149  1.00  0.00     0.010 A 
ATOM     36  C   UNL     1       7.137   2.177  -6.064  1.00  0.00    -0.014 A 
BRANCH  36  37
ATOM     37  C   UNL     1       8.406   2.685  -6.518  1.00  0.00     0.031 A 
ATOM     38  C   UNL     1       8.767   3.913  -5.785  1.00  0.00     0.074 A 
ATOM     39  C   UNL     1       9.181   2.002  -7.382  1.00  0.00     0.049 A 
ATOM     40  N   UNL     1       8.716   5.128  -6.218  1.00  0.00    -0.248 NA
ATOM     41  C   UNL     1       8.924   3.800  -4.321  1.00  0.00     0.031 C 
ATOM     42  C   UNL     1       8.996   0.647  -7.914  1.00  0.00     0.029 A 
ATOM     43  N   UNL     1      10.390   2.347  -7.886  1.00  0.00    -0.354 N 
ATOM     44  C   UNL     1       9.107   5.902  -5.135  1.00  0.00     0.074 A 
ATOM     45  C   UNL     1       8.924   5.083  -3.967  1.00  0.00     0.031 C 
ATOM     46  C   UNL     1      10.170   0.206  -8.429  1.00  0.00     0.029 A 
ATOM     47  C   UNL     1      11.139   1.289  -8.385  1.00  0.00     0.049 A 
ATOM     48  H   UNL     1      10.713   3.277  -7.898  1.00  0.00     0.167 HD
ATOM     49  C   UNL     1       9.890   7.000  -5.305  1.00  0.00     0.031 A 
ATOM     50  C   UNL     1      12.474   1.307  -8.651  1.00  0.00     0.031 A 
ATOM     51  C   UNL     1       9.902   7.431  -6.680  1.00  0.00     0.049 A 
ATOM     52  C   UNL     1      12.876   2.739  -8.728  1.00  0.00     0.074 A 
ATOM     53  C   UNL     1       8.933   7.845  -7.571  1.00  0.00     0.029 A 
ATOM     54  N   UNL     1      10.987   7.052  -7.438  1.00  0.00    -0.354 N 
ATOM     55  N   UNL     1      12.442   3.551  -9.655  1.00  0.00    -0.248 NA
ATOM     56  C   UNL     1      13.319   3.383  -7.499  1.00  0.00     0.031 C 
ATOM     57  C   UNL     1       9.305   7.261  -8.817  1.00  0.00     0.029 A 
ATOM     58  C   UNL     1      10.523   6.597  -8.646  1.00  0.00     0.049 A 
ATOM     59  H   UNL     1      11.931   7.099  -7.162  1.00  0.00     0.167 HD
ATOM     60  C   UNL     1      12.154   4.737  -8.990  1.00  0.00     0.074 A 
ATOM     61  C   UNL     1      12.780   4.594  -7.675  1.00  0.00     0.031 C 
ATOM     62  C   UNL     1      11.189   5.590  -9.448  1.00  0.00     0.031 A 
BRANCH  49  63
ATOM     63  C   UNL     1      10.981   7.371  -4.331  1.00  0.00    -0.014 A 
ATOM     64  C   UNL     1      11.707   8.554  -4.551  1.00  0.00     0.010 A 
ATOM     65  C   UNL     1      11.495   6.475  -3.366  1.00  0.00     0.010 A 
ATOM     66  C   UNL     1      12.914   8.795  -3.883  1.00  0.00     0.020 A 
ATOM     67  C   UNL     1      12.669   6.726  -2.662  1.00  0.00     0.020 A 
ATOM     68  C   UNL     1      13.390   7.873  -2.950  1.00  0.00     0.054 A 
BRANCH  68  69
ATOM     69  S   UNL     1      14.989   8.149  -2.158  1.00  0.00     0.124 S 
ATOM     70  O   UNL     1      15.903   8.049  -3.291  1.00  0.00    -0.237 OA
ATOM     71  O   UNL     1      14.820   9.483  -1.589  1.00  0.00    -0.237 OA
ATOM     72  O   UNL     1      15.077   7.066  -1.181  1.00  0.00    -0.744 OA
ENDBRANCH  68  69
ENDBRANCH  49  63
BRANCH  50  73
ATOM     73  C   UNL     1      13.460   0.209  -8.438  1.00  0.00    -0.014 A 
ATOM     74  C   UNL     1      14.753   0.250  -8.995  1.00  0.00     0.010 A 
ATOM     75  C   UNL     1      13.214  -0.766  -7.448  1.00  0.00     0.010 A 
ATOM     76  C   UNL     1      15.768  -0.625  -8.553  1.00  0.00     0.020 A 
ATOM     77  C   UNL     1      14.216  -1.640  -7.003  1.00  0.00     0.020 A 
ATOM     78  C   UNL     1      15.495  -1.556  -7.546  1.00  0.00     0.054 A 
BRANCH  78  79
ATOM     79  S   UNL     1      16.838  -2.586  -6.874  1.00  0.00     0.124 S 
ATOM     80  O   UNL     1      17.139  -3.475  -7.992  1.00  0.00    -0.237 OA
ATOM     81  O   UNL     1      17.866  -1.601  -6.553  1.00  0.00    -0.237 OA
ATOM     82  O   UNL     1      16.224  -3.236  -5.716  1.00  0.00    -0.744 OA
ENDBRANCH  78  79
ENDBRANCH  50  73
BRANCH  62  83
ATOM     83  C   UNL     1      10.618   5.359 -10.831  1.00  0.00    -0.014 A 
ATOM     84  C   UNL     1       9.881   4.216 -11.208  1.00  0.00     0.010 A 
ATOM     85  C   UNL     1      10.693   6.432 -11.735  1.00  0.00     0.010 A 
ATOM     86  C   UNL     1       9.256   4.150 -12.466  1.00  0.00     0.020 A 
ATOM     87  C   UNL     1      10.059   6.380 -12.977  1.00  0.00     0.020 A 
ATOM     88  C   UNL     1       9.350   5.236 -13.342  1.00  0.00     0.054 A 
BRANCH  88  89
ATOM     89  S   UNL     1       8.508   5.171 -14.950  1.00  0.00     0.124 S 
ATOM     90  O   UNL     1       9.261   4.143 -15.662  1.00  0.00    -0.237 OA
ATOM     91  O   UNL     1       7.139   4.810 -14.584  1.00  0.00    -0.237 OA
ATOM     92  O   UNL     1       8.660   6.526 -15.478  1.00  0.00    -0.744 OA
ENDBRANCH  88  89
ENDBRANCH  62  83
ENDBRANCH  36  37
ENDBRANCH  29  31
ENDBRANCH  28  29
ENDBRANCH  27  28
ENDBRANCH   1  27
TORSDOF 17
