REMARK SMILES C[C@@H](O)[C@H](C)[N@@H+]1CCOC[C@@H]1C(=O)OCCOC(=O)c1ccc(-c2c3nc(c(-c4ccc(S(=O)(=O)[O-])cc4)c4ccc([nH]4)c(-c4ccc(S(=O)(=O)[O-])cc4)c4nc(c(-c5ccc(S(=O)(=O)[O-])cc5)c5ccc2[nH]5)C=C4)C=C3)cc1
REMARK SMILES IDX 15 1 14 2 12 3 13 4 11 5 6 6 7 7 8 9 10 10 9 11 4 12 5 13
REMARK SMILES IDX 2 14 1 15 3 16 16 18 17 19 18 20 19 21 20 22 21 23 79 24
REMARK SMILES IDX 22 25 78 26 23 27 24 28 25 29 72 30 26 31 77 32 71 33 73 34
REMARK SMILES IDX 27 35 76 36 70 37 69 38 28 40 58 41 39 42 57 43 40 44 43 45
REMARK SMILES IDX 56 46 74 47 41 48 42 49 55 51 75 52 44 53 29 54 30 55 38 56
REMARK SMILES IDX 31 57 37 58 32 59 33 60 34 61 35 62 36 63 59 64 60 65 68 66
REMARK SMILES IDX 61 67 67 68 62 69 63 70 64 71 65 72 66 73 45 74 46 75 54 76
REMARK SMILES IDX 47 77 53 78 48 79 49 80 50 81 51 82 52 83
REMARK H PARENT 6 8 3 17 73 39 43 50
REMARK Flexibility Score: inf
ROOT
ATOM      1  C   UNL     1       1.244   1.795  -3.601  1.00  0.00     0.274 C 
ENDROOT
BRANCH   1   2
ATOM      2  O   UNL     1       0.572   0.670  -2.983  1.00  0.00    -0.458 OA
BRANCH   2   3
ATOM      3  C   UNL     1      -0.340   0.002  -3.731  1.00  0.00     0.367 C 
ATOM      4  O   UNL     1      -0.652   0.334  -4.871  1.00  0.00    -0.245 OA
BRANCH   3   5
ATOM      5  C   UNL     1      -0.947  -1.212  -3.033  1.00  0.00     0.321 C 
ATOM      6  N   UNL     1      -1.927  -0.940  -1.937  1.00  0.00    -0.315 N 
ATOM      7  C   UNL     1      -2.608  -2.247  -1.689  1.00  0.00     0.292 C 
ATOM      8  H   UNL     1      -2.497  -0.174  -2.296  1.00  0.00     0.349 HD
ATOM      9  C   UNL     1      -1.631  -3.398  -1.391  1.00  0.00     0.221 C 
ATOM     10  C   UNL     1       0.022  -2.365  -2.757  1.00  0.00     0.237 C 
ATOM     11  O   UNL     1      -0.684  -3.578  -2.448  1.00  0.00    -0.369 OA
BRANCH   6  12
ATOM     12  C   UNL     1      -1.520  -0.315  -0.648  1.00  0.00     0.210 C 
ATOM     13  C   UNL     1      -0.071  -0.431  -0.155  1.00  0.00     0.078 C 
BRANCH  12  14
ATOM     14  C   UNL     1      -2.056   1.153  -0.609  1.00  0.00     0.169 C 
ATOM     15  C   UNL     1      -2.437   1.580   0.806  1.00  0.00     0.045 C 
BRANCH  14  16
ATOM     16  O   UNL     1      -1.106   2.095  -1.098  1.00  0.00    -0.387 OA
ATOM     17  H   UNL     1      -0.325   2.095  -0.523  1.00  0.00     0.211 HD
ENDBRANCH  14  16
ENDBRANCH  12  14
ENDBRANCH   6  12
ENDBRANCH   3   5
ENDBRANCH   2   3
ENDBRANCH   1   2
BRANCH   1  18
ATOM     18  C   UNL     1       2.742   1.526  -3.669  1.00  0.00     0.275 C 
BRANCH  18  19
ATOM     19  O   UNL     1       2.949   0.352  -4.469  1.00  0.00    -0.458 OA
BRANCH  19  20
ATOM     20  C   UNL     1       3.511  -0.704  -3.839  1.00  0.00     0.338 C 
ATOM     21  O   UNL     1       4.012  -0.710  -2.724  1.00  0.00    -0.246 OA
BRANCH  20  22
ATOM     22  C   UNL     1       3.370  -1.917  -4.669  1.00  0.00     0.060 A 
ATOM     23  C   UNL     1       2.240  -2.110  -5.469  1.00  0.00     0.016 A 
ATOM     24  C   UNL     1       4.310  -2.940  -4.537  1.00  0.00     0.016 A 
ATOM     25  C   UNL     1       2.000  -3.360  -6.042  1.00  0.00     0.010 A 
ATOM     26  C   UNL     1       4.122  -4.149  -5.213  1.00  0.00     0.010 A 
ATOM     27  C   UNL     1       2.950  -4.388  -5.950  1.00  0.00    -0.014 A 
BRANCH  27  28
ATOM     28  C   UNL     1       2.748  -5.704  -6.624  1.00  0.00     0.031 A 
ATOM     29  C   UNL     1       2.875  -6.990  -5.847  1.00  0.00     0.074 A 
ATOM     30  C   UNL     1       2.505  -5.760  -7.950  1.00  0.00     0.049 A 
ATOM     31  N   UNL     1       3.051  -8.209  -6.290  1.00  0.00    -0.248 NA
ATOM     32  C   UNL     1       2.816  -6.889  -4.379  1.00  0.00     0.031 C 
ATOM     33  C   UNL     1       2.303  -4.608  -8.833  1.00  0.00     0.029 A 
ATOM     34  N   UNL     1       2.399  -6.840  -8.793  1.00  0.00    -0.354 N 
ATOM     35  C   UNL     1       3.200  -9.008  -5.160  1.00  0.00     0.074 A 
ATOM     36  C   UNL     1       3.078  -8.137  -4.011  1.00  0.00     0.031 C 
ATOM     37  C   UNL     1       2.065  -5.041 -10.078  1.00  0.00     0.029 A 
ATOM     38  C   UNL     1       2.211  -6.490 -10.108  1.00  0.00     0.049 A 
ATOM     39  H   UNL     1       2.453  -7.773  -8.484  1.00  0.00     0.167 HD
ATOM     40  C   UNL     1       3.433 -10.342  -5.093  1.00  0.00     0.031 A 
ATOM     41  C   UNL     1       2.221  -7.231 -11.232  1.00  0.00     0.031 A 
ATOM     42  C   UNL     1       3.501 -11.211  -6.241  1.00  0.00     0.049 A 
ATOM     43  C   UNL     1       2.509  -8.698 -11.142  1.00  0.00     0.074 A 
ATOM     44  C   UNL     1       3.726 -12.577  -6.278  1.00  0.00     0.029 A 
ATOM     45  N   UNL     1       3.322 -10.802  -7.553  1.00  0.00    -0.354 N 
ATOM     46  N   UNL     1       2.753  -9.421 -10.076  1.00  0.00    -0.248 NA
ATOM     47  C   UNL     1       2.550  -9.442 -12.407  1.00  0.00     0.031 C 
ATOM     48  C   UNL     1       3.711 -12.989  -7.616  1.00  0.00     0.029 A 
ATOM     49  C   UNL     1       3.435 -11.886  -8.408  1.00  0.00     0.049 A 
ATOM     50  H   UNL     1       3.140  -9.877  -7.837  1.00  0.00     0.167 HD
ATOM     51  C   UNL     1       2.975 -10.711 -10.542  1.00  0.00     0.074 A 
ATOM     52  C   UNL     1       2.817 -10.670 -11.982  1.00  0.00     0.031 C 
ATOM     53  C   UNL     1       3.287 -11.826  -9.839  1.00  0.00     0.031 A 
BRANCH  40  54
ATOM     54  C   UNL     1       3.680 -10.944  -3.734  1.00  0.00    -0.014 A 
ATOM     55  C   UNL     1       2.636 -11.154  -2.817  1.00  0.00     0.010 A 
ATOM     56  C   UNL     1       4.983 -11.354  -3.390  1.00  0.00     0.010 A 
ATOM     57  C   UNL     1       2.896 -11.729  -1.568  1.00  0.00     0.020 A 
ATOM     58  C   UNL     1       5.243 -11.949  -2.152  1.00  0.00     0.020 A 
ATOM     59  C   UNL     1       4.199 -12.117  -1.241  1.00  0.00     0.054 A 
BRANCH  59  60
ATOM     60  S   UNL     1       4.511 -12.881   0.376  1.00  0.00     0.124 S 
ATOM     61  O   UNL     1       4.505 -11.719   1.262  1.00  0.00    -0.237 OA
ATOM     62  O   UNL     1       3.379 -13.791   0.529  1.00  0.00    -0.237 OA
ATOM     63  O   UNL     1       5.809 -13.530   0.208  1.00  0.00    -0.744 OA
ENDBRANCH  59  60
ENDBRANCH  40  54
BRANCH  41  64
ATOM     64  C   UNL     1       2.017  -6.561 -12.544  1.00  0.00    -0.014 A 
ATOM     65  C   UNL     1       0.801  -6.704 -13.232  1.00  0.00     0.010 A 
ATOM     66  C   UNL     1       3.011  -5.716 -13.072  1.00  0.00     0.010 A 
ATOM     67  C   UNL     1       0.577  -6.002 -14.419  1.00  0.00     0.020 A 
ATOM     68  C   UNL     1       2.780  -4.992 -14.243  1.00  0.00     0.020 A 
ATOM     69  C   UNL     1       1.564  -5.143 -14.912  1.00  0.00     0.054 A 
BRANCH  69  70
ATOM     70  S   UNL     1       1.214  -4.153 -16.392  1.00  0.00     0.124 S 
ATOM     71  O   UNL     1       1.458  -5.113 -17.463  1.00  0.00    -0.237 OA
ATOM     72  O   UNL     1      -0.180  -3.763 -16.195  1.00  0.00    -0.237 OA
ATOM     73  O   UNL     1       2.176  -3.056 -16.300  1.00  0.00    -0.744 OA
ENDBRANCH  69  70
ENDBRANCH  41  64
BRANCH  53  74
ATOM     74  C   UNL     1       3.450 -13.098 -10.622  1.00  0.00    -0.014 A 
ATOM     75  C   UNL     1       4.616 -13.344 -11.367  1.00  0.00     0.010 A 
ATOM     76  C   UNL     1       2.430 -14.065 -10.597  1.00  0.00     0.010 A 
ATOM     77  C   UNL     1       4.745 -14.524 -12.104  1.00  0.00     0.020 A 
ATOM     78  C   UNL     1       2.563 -15.254 -11.317  1.00  0.00     0.020 A 
ATOM     79  C   UNL     1       3.713 -15.469 -12.079  1.00  0.00     0.054 A 
BRANCH  79  80
ATOM     80  S   UNL     1       3.907 -17.004 -13.025  1.00  0.00     0.124 S 
ATOM     81  O   UNL     1       3.613 -16.562 -14.385  1.00  0.00    -0.237 OA
ATOM     82  O   UNL     1       5.299 -17.369 -12.770  1.00  0.00    -0.237 OA
ATOM     83  O   UNL     1       2.917 -17.901 -12.432  1.00  0.00    -0.744 OA
ENDBRANCH  79  80
ENDBRANCH  53  74
ENDBRANCH  27  28
ENDBRANCH  20  22
ENDBRANCH  19  20
ENDBRANCH  18  19
ENDBRANCH   1  18
TORSDOF 17
