REMARK SMILES CCC[C@@]1(C(=O)OCCOC(=O)c2ccc(-c3c4nc(c(-c5ccc(S(=O)(=O)[O-])cc5)c5ccc([nH]5)c(-c5ccc(S(=O)(=O)[O-])cc5)c5nc(c(-c6ccc(S(=O)(=O)[O-])cc6)c6ccc3[nH]6)C=C5)C=C4)cc2)CCCN(C(=O)CCn2cncn2)C1
REMARK SMILES IDX 8 1 7 2 5 3 6 4 4 5 73 6 86 7 74 8 76 9 75 10 3 11 2 12 1 13
REMARK SMILES IDX 77 14 78 15 79 16 80 17 81 18 82 19 85 20 83 21 84 22 9 23
REMARK SMILES IDX 10 24 11 25 12 26 13 27 14 28 72 29 15 30 71 31 16 32 17 33
REMARK SMILES IDX 18 34 65 35 19 36 70 37 64 38 66 39 20 40 69 41 63 42 62 43
REMARK SMILES IDX 21 45 51 46 32 47 50 48 33 49 36 50 49 51 67 52 34 53 35 54
REMARK SMILES IDX 48 56 68 57 37 58 22 59 23 60 31 61 24 62 30 63 25 64 26 65
REMARK SMILES IDX 27 66 28 67 29 68 52 69 53 70 61 71 54 72 60 73 55 74 56 75
REMARK SMILES IDX 57 76 58 77 59 78 38 79 39 80 47 81 40 82 46 83 41 84 42 85
REMARK SMILES IDX 43 86 44 87 45 88
REMARK H PARENT 66 44 36 55
REMARK Flexibility Score: inf
ROOT
ATOM      1  C   UNL     1       3.052   0.803  -2.931  1.00  0.00     0.274 C 
ENDROOT
BRANCH   1   2
ATOM      2  O   UNL     1       1.797   0.158  -2.653  1.00  0.00    -0.462 OA
BRANCH   2   3
ATOM      3  C   UNL     1       1.687  -1.187  -2.858  1.00  0.00     0.314 C 
ATOM      4  O   UNL     1       2.601  -1.911  -3.227  1.00  0.00    -0.252 OA
BRANCH   3   5
ATOM      5  C   UNL     1       0.218  -1.623  -2.617  1.00  0.00     0.086 C 
ATOM      6  C   UNL     1       0.072  -3.172  -2.705  1.00  0.00     0.022 C 
ATOM      7  C   UNL     1      -0.583  -0.906  -3.728  1.00  0.00     0.138 C 
ATOM      8  C   UNL     1       0.059  -3.755  -4.118  1.00  0.00     0.023 C 
ATOM      9  N   UNL     1      -0.328  -1.563  -5.020  1.00  0.00    -0.341 N 
ATOM     10  C   UNL     1      -0.811  -2.932  -5.056  1.00  0.00     0.119 C 
BRANCH   5  11
ATOM     11  C   UNL     1      -0.136  -1.199  -1.163  1.00  0.00     0.020 C 
BRANCH  11  12
ATOM     12  C   UNL     1      -1.562  -1.003  -0.643  1.00  0.00    -0.002 C 
ATOM     13  C   UNL     1      -2.619  -2.025  -0.994  1.00  0.00     0.004 C 
ENDBRANCH  11  12
ENDBRANCH   5  11
BRANCH   9  14
ATOM     14  C   UNL     1       0.610  -1.034  -5.898  1.00  0.00     0.224 C 
ATOM     15  O   UNL     1       1.150   0.057  -5.690  1.00  0.00    -0.275 OA
BRANCH  14  16
ATOM     16  C   UNL     1       1.016  -1.814  -7.139  1.00  0.00     0.124 C 
BRANCH  16  17
ATOM     17  C   UNL     1       2.230  -2.719  -6.901  1.00  0.00     0.156 C 
BRANCH  17  18
ATOM     18  N   UNL     1       1.984  -4.149  -6.865  1.00  0.00    -0.252 N 
ATOM     19  C   UNL     1       2.820  -5.111  -6.378  1.00  0.00     0.219 A 
ATOM     20  N   UNL     1       0.843  -4.703  -7.320  1.00  0.00    -0.160 NA
ATOM     21  N   UNL     1       2.225  -6.280  -6.431  1.00  0.00    -0.224 NA
ATOM     22  C   UNL     1       1.016  -5.984  -6.985  1.00  0.00     0.246 A 
ENDBRANCH  17  18
ENDBRANCH  16  17
ENDBRANCH  14  16
ENDBRANCH   9  14
ENDBRANCH   3   5
ENDBRANCH   2   3
ENDBRANCH   1   2
BRANCH   1  23
ATOM     23  C   UNL     1       3.002   2.175  -2.255  1.00  0.00     0.275 C 
BRANCH  23  24
ATOM     24  O   UNL     1       3.021   1.939  -0.833  1.00  0.00    -0.458 OA
BRANCH  24  25
ATOM     25  C   UNL     1       1.987   2.436  -0.113  1.00  0.00     0.338 C 
ATOM     26  O   UNL     1       1.210   3.314  -0.440  1.00  0.00    -0.246 OA
BRANCH  25  27
ATOM     27  C   UNL     1       1.852   1.633   1.124  1.00  0.00     0.060 A 
ATOM     28  C   UNL     1       1.889   0.245   1.023  1.00  0.00     0.016 A 
ATOM     29  C   UNL     1       1.521   2.219   2.342  1.00  0.00     0.016 A 
ATOM     30  C   UNL     1       1.439  -0.546   2.077  1.00  0.00     0.010 A 
ATOM     31  C   UNL     1       1.248   1.403   3.455  1.00  0.00     0.010 A 
ATOM     32  C   UNL     1       1.151   0.002   3.334  1.00  0.00    -0.014 A 
BRANCH  32  33
ATOM     33  C   UNL     1       0.712  -0.873   4.478  1.00  0.00     0.031 A 
ATOM     34  C   UNL     1      -0.451  -0.459   5.358  1.00  0.00     0.074 A 
ATOM     35  C   UNL     1       1.304  -2.061   4.745  1.00  0.00     0.049 A 
ATOM     36  N   UNL     1      -0.775  -0.886   6.553  1.00  0.00    -0.248 NA
ATOM     37  C   UNL     1      -1.348   0.586   4.839  1.00  0.00     0.031 C 
ATOM     38  C   UNL     1       2.390  -2.678   3.979  1.00  0.00     0.029 A 
ATOM     39  N   UNL     1       1.053  -2.986   5.735  1.00  0.00    -0.354 N 
ATOM     40  C   UNL     1      -1.835  -0.086   6.972  1.00  0.00     0.074 A 
ATOM     41  C   UNL     1      -2.117   0.833   5.891  1.00  0.00     0.031 C 
ATOM     42  C   UNL     1       2.631  -3.908   4.451  1.00  0.00     0.029 A 
ATOM     43  C   UNL     1       1.848  -4.108   5.662  1.00  0.00     0.049 A 
ATOM     44  H   UNL     1       0.368  -2.857   6.431  1.00  0.00     0.167 HD
ATOM     45  C   UNL     1      -2.497  -0.105   8.155  1.00  0.00     0.031 A 
ATOM     46  C   UNL     1       2.006  -5.151   6.502  1.00  0.00     0.031 A 
ATOM     47  C   UNL     1      -2.284  -1.085   9.188  1.00  0.00     0.049 A 
ATOM     48  C   UNL     1       1.279  -5.151   7.815  1.00  0.00     0.074 A 
ATOM     49  C   UNL     1      -2.894  -1.179  10.428  1.00  0.00     0.029 A 
ATOM     50  N   UNL     1      -1.426  -2.169   9.085  1.00  0.00    -0.354 N 
ATOM     51  N   UNL     1       0.404  -4.287   8.270  1.00  0.00    -0.248 NA
ATOM     52  C   UNL     1       1.600  -6.239   8.749  1.00  0.00     0.031 C 
ATOM     53  C   UNL     1      -2.385  -2.306  11.085  1.00  0.00     0.029 A 
ATOM     54  C   UNL     1      -1.492  -2.937  10.235  1.00  0.00     0.049 A 
ATOM     55  H   UNL     1      -0.854  -2.364   8.308  1.00  0.00     0.167 HD
ATOM     56  C   UNL     1       0.078  -4.723   9.549  1.00  0.00     0.074 A 
ATOM     57  C   UNL     1       0.820  -5.945   9.781  1.00  0.00     0.031 C 
ATOM     58  C   UNL     1      -0.750  -4.150  10.456  1.00  0.00     0.031 A 
BRANCH  45  59
ATOM     59  C   UNL     1      -3.477   1.007   8.429  1.00  0.00    -0.014 A 
ATOM     60  C   UNL     1      -4.736   1.064   7.810  1.00  0.00     0.010 A 
ATOM     61  C   UNL     1      -3.134   1.997   9.372  1.00  0.00     0.010 A 
ATOM     62  C   UNL     1      -5.617   2.113   8.097  1.00  0.00     0.020 A 
ATOM     63  C   UNL     1      -4.021   3.030   9.682  1.00  0.00     0.020 A 
ATOM     64  C   UNL     1      -5.252   3.092   9.027  1.00  0.00     0.054 A 
BRANCH  64  65
ATOM     65  S   UNL     1      -6.417   4.434   9.394  1.00  0.00     0.124 S 
ATOM     66  O   UNL     1      -6.289   5.275   8.207  1.00  0.00    -0.237 OA
ATOM     67  O   UNL     1      -7.689   3.728   9.529  1.00  0.00    -0.237 OA
ATOM     68  O   UNL     1      -5.898   5.016  10.629  1.00  0.00    -0.744 OA
ENDBRANCH  64  65
ENDBRANCH  45  59
BRANCH  46  69
ATOM     69  C   UNL     1       2.985  -6.229   6.178  1.00  0.00    -0.014 A 
ATOM     70  C   UNL     1       2.548  -7.536   5.899  1.00  0.00     0.010 A 
ATOM     71  C   UNL     1       4.364  -5.947   6.136  1.00  0.00     0.010 A 
ATOM     72  C   UNL     1       3.472  -8.539   5.585  1.00  0.00     0.020 A 
ATOM     73  C   UNL     1       5.285  -6.936   5.786  1.00  0.00     0.020 A 
ATOM     74  C   UNL     1       4.834  -8.230   5.524  1.00  0.00     0.054 A 
BRANCH  74  75
ATOM     75  S   UNL     1       6.015  -9.521   5.043  1.00  0.00     0.124 S 
ATOM     76  O   UNL     1       6.165 -10.270   6.287  1.00  0.00    -0.237 OA
ATOM     77  O   UNL     1       5.311 -10.214   3.967  1.00  0.00    -0.237 OA
ATOM     78  O   UNL     1       7.190  -8.764   4.619  1.00  0.00    -0.744 OA
ENDBRANCH  74  75
ENDBRANCH  46  69
BRANCH  58  79
ATOM     79  C   UNL     1      -0.918  -4.856  11.772  1.00  0.00    -0.014 A 
ATOM     80  C   UNL     1       0.090  -4.810  12.752  1.00  0.00     0.010 A 
ATOM     81  C   UNL     1      -2.113  -5.544  12.044  1.00  0.00     0.010 A 
ATOM     82  C   UNL     1      -0.084  -5.467  13.972  1.00  0.00     0.020 A 
ATOM     83  C   UNL     1      -2.299  -6.184  13.272  1.00  0.00     0.020 A 
ATOM     84  C   UNL     1      -1.277  -6.153  14.223  1.00  0.00     0.054 A 
BRANCH  84  85
ATOM     85  S   UNL     1      -1.496  -6.969  15.829  1.00  0.00     0.124 S 
ATOM     86  O   UNL     1      -0.661  -8.158  15.682  1.00  0.00    -0.237 OA
ATOM     87  O   UNL     1      -1.002  -5.966  16.770  1.00  0.00    -0.237 OA
ATOM     88  O   UNL     1      -2.934  -7.221  15.895  1.00  0.00    -0.744 OA
ENDBRANCH  84  85
ENDBRANCH  58  79
ENDBRANCH  32  33
ENDBRANCH  25  27
ENDBRANCH  24  25
ENDBRANCH  23  24
ENDBRANCH   1  23
TORSDOF 20
