REMARK SMILES CSCc1ccc(C(=O)N[C@@H](Cc2cnc[nH]2)C(=O)OCCOC(=O)c2ccc(-c3c4nc(c(-c5ccc(S(=O)(=O)[O-])cc5)c5ccc([nH]5)c(-c5ccc(S(=O)(=O)[O-])cc5)c5nc(c(-c6ccc(S(=O)(=O)[O-])cc6)c6ccc3[nH]6)C=C5)C=C4)cc2)o1
REMARK SMILES IDX 21 1 20 2 18 3 19 4 11 5 10 6 8 7 9 8 7 10 4 11 5 12 86 13
REMARK SMILES IDX 6 14 3 15 2 16 1 17 12 18 13 19 14 20 17 21 15 22 16 23
REMARK SMILES IDX 22 25 23 26 24 27 25 28 26 29 27 30 85 31 28 32 84 33 29 34
REMARK SMILES IDX 30 35 31 36 78 37 32 38 83 39 77 40 79 41 33 42 82 43 76 44
REMARK SMILES IDX 75 45 34 47 64 48 45 49 63 50 46 51 49 52 62 53 80 54 47 55
REMARK SMILES IDX 48 56 61 58 81 59 50 60 35 61 36 62 44 63 37 64 43 65 38 66
REMARK SMILES IDX 39 67 40 68 41 69 42 70 65 71 66 72 74 73 67 74 73 75 68 76
REMARK SMILES IDX 69 77 70 78 71 79 72 80 51 81 52 82 60 83 53 84 59 85 54 86
REMARK SMILES IDX 55 87 56 88 57 89 58 90
REMARK H PARENT 10 9 17 24 79 46 49 57
REMARK Flexibility Score: inf
ROOT
ATOM      1  C   UNL     1       1.346  -9.203  -1.811  1.00  0.00     0.274 C 
ENDROOT
BRANCH   1   2
ATOM      2  O   UNL     1       0.444  -8.338  -1.095  1.00  0.00    -0.461 OA
BRANCH   2   3
ATOM      3  C   UNL     1       0.492  -8.397   0.265  1.00  0.00     0.329 C 
ATOM      4  O   UNL     1       1.191  -9.166   0.915  1.00  0.00    -0.250 OA
BRANCH   3   5
ATOM      5  C   UNL     1      -0.510  -7.428   0.918  1.00  0.00     0.198 C 
BRANCH   5   6
ATOM      6  N   UNL     1      -1.038  -6.423  -0.012  1.00  0.00    -0.336 N 
ATOM      7  C   UNL     1      -1.112  -5.051   0.068  1.00  0.00     0.287 C 
ATOM      8  O   UNL     1      -1.546  -4.484  -0.937  1.00  0.00    -0.266 OA
ATOM      9  H   UNL     1      -1.407  -6.798  -0.844  1.00  0.00     0.164 HD
BRANCH   7  10
ATOM     10  C   UNL     1      -0.695  -4.337   1.262  1.00  0.00     0.191 A 
ATOM     11  C   UNL     1       0.134  -2.556   2.301  1.00  0.00     0.114 A 
ATOM     12  C   UNL     1      -0.151  -3.483   3.280  1.00  0.00     0.047 A 
ATOM     13  O   UNL     1      -0.175  -3.077   1.079  1.00  0.00    -0.455 OA
ATOM     14  C   UNL     1      -0.697  -4.613   2.618  1.00  0.00     0.056 A 
BRANCH  11  15
ATOM     15  C   UNL     1       0.715  -1.184   2.348  1.00  0.00     0.144 C 
BRANCH  15  16
ATOM     16  S   UNL     1      -0.350   0.056   1.551  1.00  0.00    -0.157 SA
ATOM     17  C   UNL     1       0.351  -0.002  -0.118  1.00  0.00     0.085 C 
ENDBRANCH  15  16
ENDBRANCH  11  15
ENDBRANCH   7  10
ENDBRANCH   5   6
BRANCH   5  18
ATOM     18  C   UNL     1      -1.649  -8.232   1.569  1.00  0.00     0.092 C 
BRANCH  18  19
ATOM     19  C   UNL     1      -2.319  -9.181   0.629  1.00  0.00     0.037 A 
ATOM     20  C   UNL     1      -2.187 -10.544   0.465  1.00  0.00     0.134 A 
ATOM     21  N   UNL     1      -3.228  -8.801  -0.328  1.00  0.00    -0.348 N 
ATOM     22  N   UNL     1      -2.961 -10.988  -0.574  1.00  0.00    -0.245 NA
ATOM     23  C   UNL     1      -3.569  -9.919  -1.035  1.00  0.00     0.196 A 
ATOM     24  H   UNL     1      -3.570  -7.890  -0.477  1.00  0.00     0.167 HD
ENDBRANCH  18  19
ENDBRANCH   5  18
ENDBRANCH   3   5
ENDBRANCH   2   3
ENDBRANCH   1   2
BRANCH   1  25
ATOM     25  C   UNL     1       2.357  -8.385  -2.618  1.00  0.00     0.275 C 
BRANCH  25  26
ATOM     26  O   UNL     1       3.151  -7.542  -1.762  1.00  0.00    -0.458 OA
BRANCH  26  27
ATOM     27  C   UNL     1       2.636  -6.303  -1.582  1.00  0.00     0.338 C 
ATOM     28  O   UNL     1       1.621  -5.850  -2.083  1.00  0.00    -0.246 OA
BRANCH  27  29
ATOM     29  C   UNL     1       3.393  -5.577  -0.554  1.00  0.00     0.060 A 
ATOM     30  C   UNL     1       2.756  -5.345   0.664  1.00  0.00     0.016 A 
ATOM     31  C   UNL     1       4.625  -4.986  -0.832  1.00  0.00     0.016 A 
ATOM     32  C   UNL     1       3.306  -4.462   1.585  1.00  0.00     0.010 A 
ATOM     33  C   UNL     1       5.190  -4.113   0.108  1.00  0.00     0.010 A 
ATOM     34  C   UNL     1       4.510  -3.808   1.302  1.00  0.00    -0.014 A 
BRANCH  34  35
ATOM     35  C   UNL     1       4.961  -2.713   2.199  1.00  0.00     0.031 A 
ATOM     36  C   UNL     1       4.881  -1.284   1.726  1.00  0.00     0.074 A 
ATOM     37  C   UNL     1       5.343  -2.975   3.464  1.00  0.00     0.049 A 
ATOM     38  N   UNL     1       5.232  -0.189   2.351  1.00  0.00    -0.248 NA
ATOM     39  C   UNL     1       4.319  -1.055   0.385  1.00  0.00     0.031 C 
ATOM     40  C   UNL     1       5.404  -4.305   4.074  1.00  0.00     0.029 A 
ATOM     41  N   UNL     1       5.738  -2.128   4.469  1.00  0.00    -0.354 N 
ATOM     42  C   UNL     1       4.949   0.854   1.477  1.00  0.00     0.074 A 
ATOM     43  C   UNL     1       4.413   0.262   0.271  1.00  0.00     0.031 C 
ATOM     44  C   UNL     1       5.802  -4.182   5.351  1.00  0.00     0.029 A 
ATOM     45  C   UNL     1       6.066  -2.775   5.637  1.00  0.00     0.049 A 
ATOM     46  H   UNL     1       5.783  -1.151   4.364  1.00  0.00     0.167 HD
ATOM     47  C   UNL     1       5.110   2.187   1.658  1.00  0.00     0.031 A 
ATOM     48  C   UNL     1       6.547  -2.294   6.800  1.00  0.00     0.031 A 
ATOM     49  C   UNL     1       5.654   2.789   2.845  1.00  0.00     0.049 A 
ATOM     50  C   UNL     1       6.783  -0.816   6.952  1.00  0.00     0.074 A 
ATOM     51  C   UNL     1       5.913   4.126   3.092  1.00  0.00     0.029 A 
ATOM     52  N   UNL     1       6.011   2.095   3.988  1.00  0.00    -0.354 N 
ATOM     53  N   UNL     1       6.560   0.146   6.089  1.00  0.00    -0.248 NA
ATOM     54  C   UNL     1       7.335  -0.361   8.237  1.00  0.00     0.031 C 
ATOM     55  C   UNL     1       6.446   4.238   4.381  1.00  0.00     0.029 A 
ATOM     56  C   UNL     1       6.483   2.974   4.947  1.00  0.00     0.049 A 
ATOM     57  H   UNL     1       5.939   1.119   4.103  1.00  0.00     0.167 HD
ATOM     58  C   UNL     1       6.933   1.322   6.734  1.00  0.00     0.074 A 
ATOM     59  C   UNL     1       7.374   0.952   8.062  1.00  0.00     0.031 C 
ATOM     60  C   UNL     1       6.915   2.594   6.265  1.00  0.00     0.031 A 
BRANCH  47  61
ATOM     61  C   UNL     1       4.710   3.087   0.524  1.00  0.00    -0.014 A 
ATOM     62  C   UNL     1       3.358   3.395   0.293  1.00  0.00     0.010 A 
ATOM     63  C   UNL     1       5.698   3.655  -0.299  1.00  0.00     0.010 A 
ATOM     64  C   UNL     1       2.998   4.239  -0.761  1.00  0.00     0.020 A 
ATOM     65  C   UNL     1       5.343   4.513  -1.343  1.00  0.00     0.020 A 
ATOM     66  C   UNL     1       3.994   4.788  -1.576  1.00  0.00     0.054 A 
BRANCH  66  67
ATOM     67  S   UNL     1       3.507   5.901  -2.924  1.00  0.00     0.124 S 
ATOM     68  O   UNL     1       3.006   4.959  -3.922  1.00  0.00    -0.237 OA
ATOM     69  O   UNL     1       2.497   6.748  -2.296  1.00  0.00    -0.237 OA
ATOM     70  O   UNL     1       4.751   6.579  -3.278  1.00  0.00    -0.744 OA
ENDBRANCH  66  67
ENDBRANCH  47  61
BRANCH  48  71
ATOM     71  C   UNL     1       6.886  -3.226   7.908  1.00  0.00    -0.014 A 
ATOM     72  C   UNL     1       6.112  -3.264   9.081  1.00  0.00     0.010 A 
ATOM     73  C   UNL     1       8.008  -4.067   7.797  1.00  0.00     0.010 A 
ATOM     74  C   UNL     1       6.470  -4.109  10.135  1.00  0.00     0.020 A 
ATOM     75  C   UNL     1       8.353  -4.931   8.838  1.00  0.00     0.020 A 
ATOM     76  C   UNL     1       7.591  -4.934  10.008  1.00  0.00     0.054 A 
BRANCH  76  77
ATOM     77  S   UNL     1       8.027  -6.057  11.365  1.00  0.00     0.124 S 
ATOM     78  O   UNL     1       8.798  -5.183  12.243  1.00  0.00    -0.237 OA
ATOM     79  O   UNL     1       6.722  -6.474  11.872  1.00  0.00    -0.237 OA
ATOM     80  O   UNL     1       8.790  -7.109  10.696  1.00  0.00    -0.744 OA
ENDBRANCH  76  77
ENDBRANCH  48  71
BRANCH  60  81
ATOM     81  C   UNL     1       7.350   3.678   7.210  1.00  0.00    -0.014 A 
ATOM     82  C   UNL     1       8.710   3.880   7.506  1.00  0.00     0.010 A 
ATOM     83  C   UNL     1       6.386   4.520   7.792  1.00  0.00     0.010 A 
ATOM     84  C   UNL     1       9.094   4.880   8.403  1.00  0.00     0.020 A 
ATOM     85  C   UNL     1       6.769   5.533   8.674  1.00  0.00     0.020 A 
ATOM     86  C   UNL     1       8.120   5.694   8.989  1.00  0.00     0.054 A 
BRANCH  86  87
ATOM     87  S   UNL     1       8.636   6.999  10.139  1.00  0.00     0.124 S 
ATOM     88  O   UNL     1       8.810   6.253  11.383  1.00  0.00    -0.237 OA
ATOM     89  O   UNL     1       9.865   7.503   9.532  1.00  0.00    -0.237 OA
ATOM     90  O   UNL     1       7.513   7.933  10.123  1.00  0.00    -0.744 OA
ENDBRANCH  86  87
ENDBRANCH  60  81
ENDBRANCH  34  35
ENDBRANCH  27  29
ENDBRANCH  26  27
ENDBRANCH  25  26
ENDBRANCH   1  25
TORSDOF 20
