REMARK SMILES COc1cccc(C(=O)NCc2ccc(OC)c(C(=O)OCCOC(=O)c3ccc(-c4c5nc(c(-c6ccc(S(=O)(=O)[O-])cc6)c6ccc([nH]6)c(-c6ccc(S(=O)(=O)[O-])cc6)c6nc(c(-c7ccc(S(=O)(=O)[O-])cc7)c7ccc4[nH]7)C=C6)C=C5)cc3)c2)c1
REMARK SMILES IDX 22 1 21 2 19 3 20 4 18 5 12 6 13 7 87 8 14 9 15 10 11 11
REMARK SMILES IDX 10 12 8 13 9 14 7 16 3 17 4 18 88 19 5 20 6 21 2 22 1 23
REMARK SMILES IDX 16 24 17 25 23 26 24 27 25 28 26 29 27 30 28 31 86 32 29 33
REMARK SMILES IDX 85 34 30 35 31 36 32 37 79 38 33 39 84 40 78 41 80 42 34 43
REMARK SMILES IDX 83 44 77 45 76 46 35 48 65 49 46 50 64 51 47 52 50 53 63 54
REMARK SMILES IDX 81 55 48 56 49 57 62 59 82 60 51 61 36 62 37 63 45 64 38 65
REMARK SMILES IDX 44 66 39 67 40 68 41 69 42 70 43 71 66 72 67 73 75 74 68 75
REMARK SMILES IDX 74 76 69 77 70 78 71 79 72 80 73 81 52 82 53 83 61 84 54 85
REMARK SMILES IDX 60 86 55 87 56 88 57 89 58 90 59 91
REMARK H PARENT 10 15 80 47 50 58
REMARK Flexibility Score: inf
ROOT
ATOM      1  C   UNL     1       2.498   4.538   0.921  1.00  0.00     0.275 C 
ENDROOT
BRANCH   1   2
ATOM      2  O   UNL     1       3.373   3.400   1.022  1.00  0.00    -0.458 OA
BRANCH   2   3
ATOM      3  C   UNL     1       4.177   3.169  -0.043  1.00  0.00     0.342 C 
ATOM      4  O   UNL     1       4.109   3.699  -1.138  1.00  0.00    -0.246 OA
BRANCH   3   5
ATOM      5  C   UNL     1       5.157   2.134   0.334  1.00  0.00     0.102 A 
ATOM      6  C   UNL     1       5.435  -0.247   0.876  1.00  0.00    -0.028 A 
ATOM      7  C   UNL     1       6.803  -0.017   1.037  1.00  0.00     0.009 A 
ATOM      8  C   UNL     1       4.618   0.847   0.563  1.00  0.00     0.025 A 
ATOM      9  C   UNL     1       7.339   1.255   0.812  1.00  0.00     0.047 A 
ATOM     10  C   UNL     1       6.537   2.343   0.428  1.00  0.00     0.133 A 
BRANCH   6  11
ATOM     11  C   UNL     1       4.886  -1.649   0.948  1.00  0.00     0.152 C 
BRANCH  11  12
ATOM     12  N   UNL     1       4.837  -2.190   2.286  1.00  0.00    -0.348 N 
ATOM     13  C   UNL     1       3.859  -2.539   3.174  1.00  0.00     0.251 C 
ATOM     14  O   UNL     1       4.237  -3.230   4.127  1.00  0.00    -0.269 OA
ATOM     15  H   UNL     1       5.737  -2.347   2.651  1.00  0.00     0.164 HD
BRANCH  13  16
ATOM     16  C   UNL     1       2.414  -2.152   3.116  1.00  0.00     0.043 A 
ATOM     17  C   UNL     1       0.421  -1.121   2.159  1.00  0.00     0.119 A 
ATOM     18  C   UNL     1      -0.310  -1.454   3.299  1.00  0.00     0.046 A 
ATOM     19  C   UNL     1       1.777  -1.470   2.074  1.00  0.00     0.060 A 
ATOM     20  C   UNL     1       0.296  -2.140   4.344  1.00  0.00     0.005 A 
ATOM     21  C   UNL     1       1.643  -2.488   4.248  1.00  0.00     0.014 A 
BRANCH  17  22
ATOM     22  O   UNL     1      -0.298  -0.446   1.209  1.00  0.00    -0.497 OA
ATOM     23  C   UNL     1       0.368  -0.110  -0.001  1.00  0.00     0.278 C 
ENDBRANCH  17  22
ENDBRANCH  13  16
ENDBRANCH  11  12
ENDBRANCH   6  11
BRANCH  10  24
ATOM     24  O   UNL     1       7.291   3.464   0.244  1.00  0.00    -0.496 OA
ATOM     25  C   UNL     1       6.718   4.674  -0.216  1.00  0.00     0.278 C 
ENDBRANCH  10  24
ENDBRANCH   3   5
ENDBRANCH   2   3
ENDBRANCH   1   2
BRANCH   1  26
ATOM     26  C   UNL     1       2.450   5.263   2.268  1.00  0.00     0.275 C 
BRANCH  26  27
ATOM     27  O   UNL     1       3.773   5.681   2.655  1.00  0.00    -0.458 OA
BRANCH  27  28
ATOM     28  C   UNL     1       4.447   4.787   3.429  1.00  0.00     0.338 C 
ATOM     29  O   UNL     1       4.009   3.758   3.903  1.00  0.00    -0.246 OA
BRANCH  28  30
ATOM     30  C   UNL     1       5.874   5.173   3.490  1.00  0.00     0.060 A 
ATOM     31  C   UNL     1       6.827   4.154   3.391  1.00  0.00     0.016 A 
ATOM     32  C   UNL     1       6.280   6.503   3.628  1.00  0.00     0.016 A 
ATOM     33  C   UNL     1       8.187   4.464   3.388  1.00  0.00     0.010 A 
ATOM     34  C   UNL     1       7.645   6.810   3.663  1.00  0.00     0.010 A 
ATOM     35  C   UNL     1       8.604   5.792   3.541  1.00  0.00    -0.014 A 
BRANCH  35  36
ATOM     36  C   UNL     1      10.047   6.093   3.690  1.00  0.00     0.031 A 
ATOM     37  C   UNL     1      10.674   5.984   5.049  1.00  0.00     0.074 A 
ATOM     38  C   UNL     1      10.795   6.445   2.629  1.00  0.00     0.049 A 
ATOM     39  N   UNL     1      11.919   6.169   5.402  1.00  0.00    -0.248 NA
ATOM     40  C   UNL     1       9.777   5.611   6.154  1.00  0.00     0.031 C 
ATOM     41  C   UNL     1      10.313   6.548   1.254  1.00  0.00     0.029 A 
ATOM     42  N   UNL     1      12.123   6.783   2.546  1.00  0.00    -0.354 N 
ATOM     43  C   UNL     1      11.962   5.919   6.767  1.00  0.00     0.074 A 
ATOM     44  C   UNL     1      10.612   5.598   7.182  1.00  0.00     0.031 C 
ATOM     45  C   UNL     1      11.329   6.932   0.462  1.00  0.00     0.029 A 
ATOM     46  C   UNL     1      12.527   7.127   1.277  1.00  0.00     0.049 A 
ATOM     47  H   UNL     1      12.730   6.779   3.321  1.00  0.00     0.167 HD
ATOM     48  C   UNL     1      13.028   5.955   7.601  1.00  0.00     0.031 A 
ATOM     49  C   UNL     1      13.720   7.563   0.828  1.00  0.00     0.031 A 
ATOM     50  C   UNL     1      14.354   6.343   7.202  1.00  0.00     0.049 A 
ATOM     51  C   UNL     1      14.869   7.697   1.794  1.00  0.00     0.074 A 
ATOM     52  C   UNL     1      15.496   6.428   7.978  1.00  0.00     0.029 A 
ATOM     53  N   UNL     1      14.711   6.736   5.920  1.00  0.00    -0.354 N 
ATOM     54  N   UNL     1      14.905   7.416   3.075  1.00  0.00    -0.248 NA
ATOM     55  C   UNL     1      16.139   8.200   1.252  1.00  0.00     0.031 C 
ATOM     56  C   UNL     1      16.529   6.933   7.181  1.00  0.00     0.029 A 
ATOM     57  C   UNL     1      16.048   7.098   5.891  1.00  0.00     0.049 A 
ATOM     58  H   UNL     1      14.104   6.756   5.146  1.00  0.00     0.167 HD
ATOM     59  C   UNL     1      16.207   7.684   3.486  1.00  0.00     0.074 A 
ATOM     60  C   UNL     1      16.930   8.138   2.316  1.00  0.00     0.031 C 
ATOM     61  C   UNL     1      16.755   7.558   4.721  1.00  0.00     0.031 A 
BRANCH  48  62
ATOM     62  C   UNL     1      12.771   5.617   9.044  1.00  0.00    -0.014 A 
ATOM     63  C   UNL     1      12.482   4.299   9.441  1.00  0.00     0.010 A 
ATOM     64  C   UNL     1      12.808   6.634  10.014  1.00  0.00     0.010 A 
ATOM     65  C   UNL     1      12.179   4.014  10.775  1.00  0.00     0.020 A 
ATOM     66  C   UNL     1      12.532   6.348  11.354  1.00  0.00     0.020 A 
ATOM     67  C   UNL     1      12.197   5.043  11.721  1.00  0.00     0.054 A 
BRANCH  67  68
ATOM     68  S   UNL     1      11.783   4.651  13.442  1.00  0.00     0.124 S 
ATOM     69  O   UNL     1      10.337   4.453  13.366  1.00  0.00    -0.237 OA
ATOM     70  O   UNL     1      12.569   3.446  13.695  1.00  0.00    -0.237 OA
ATOM     71  O   UNL     1      12.210   5.837  14.181  1.00  0.00    -0.744 OA
ENDBRANCH  67  68
ENDBRANCH  48  62
BRANCH  49  72
ATOM     72  C   UNL     1      13.885   7.925  -0.608  1.00  0.00    -0.014 A 
ATOM     73  C   UNL     1      14.673   7.138  -1.464  1.00  0.00     0.010 A 
ATOM     74  C   UNL     1      13.241   9.064  -1.127  1.00  0.00     0.010 A 
ATOM     75  C   UNL     1      14.822   7.487  -2.811  1.00  0.00     0.020 A 
ATOM     76  C   UNL     1      13.366   9.402  -2.477  1.00  0.00     0.020 A 
ATOM     77  C   UNL     1      14.163   8.615  -3.310  1.00  0.00     0.054 A 
BRANCH  77  78
ATOM     78  S   UNL     1      14.319   9.013  -5.073  1.00  0.00     0.124 S 
ATOM     79  O   UNL     1      15.688   9.514  -5.152  1.00  0.00    -0.237 OA
ATOM     80  O   UNL     1      14.080   7.721  -5.710  1.00  0.00    -0.237 OA
ATOM     81  O   UNL     1      13.273  10.010  -5.293  1.00  0.00    -0.744 OA
ENDBRANCH  77  78
ENDBRANCH  49  72
BRANCH  61  82
ATOM     82  C   UNL     1      18.218   7.890   4.874  1.00  0.00    -0.014 A 
ATOM     83  C   UNL     1      18.677   9.218   4.828  1.00  0.00     0.010 A 
ATOM     84  C   UNL     1      19.138   6.857   5.135  1.00  0.00     0.010 A 
ATOM     85  C   UNL     1      20.033   9.504   5.014  1.00  0.00     0.020 A 
ATOM     86  C   UNL     1      20.489   7.141   5.350  1.00  0.00     0.020 A 
ATOM     87  C   UNL     1      20.930   8.464   5.276  1.00  0.00     0.054 A 
BRANCH  87  88
ATOM     88  S   UNL     1      22.676   8.866   5.567  1.00  0.00     0.124 S 
ATOM     89  O   UNL     1      23.140   9.194   4.222  1.00  0.00    -0.237 OA
ATOM     90  O   UNL     1      22.596   9.990   6.496  1.00  0.00    -0.237 OA
ATOM     91  O   UNL     1      23.225   7.636   6.133  1.00  0.00    -0.744 OA
ENDBRANCH  87  88
ENDBRANCH  61  82
ENDBRANCH  35  36
ENDBRANCH  28  30
ENDBRANCH  27  28
ENDBRANCH  26  27
ENDBRANCH   1  26
TORSDOF 19
