REMARK SMILES CCC(CC)(CC)NC(=O)NC[C@@H]1CC[C@H](C(=O)OCCOC(=O)c2ccc(-c3c4nc(c(-c5ccc(S(=O)(=O)[O-])cc5)c5ccc([nH]5)c(-c5ccc(S(=O)(=O)[O-])cc5)c5nc(c(-c6ccc(S(=O)(=O)[O-])cc6)c6ccc3[nH]6)C=C5)C=C4)cc2)O1
REMARK SMILES IDX 20 1 19 2 17 3 18 4 16 5 13 6 14 7 85 8 15 9 12 10 11 11
REMARK SMILES IDX 8 12 9 13 10 15 3 17 2 18 1 19 4 20 5 21 6 22 7 23 21 24
REMARK SMILES IDX 22 25 23 26 24 27 25 28 26 29 84 30 27 31 83 32 28 33 29 34
REMARK SMILES IDX 30 35 77 36 31 37 82 38 76 39 78 40 32 41 81 42 75 43 74 44
REMARK SMILES IDX 33 46 63 47 44 48 62 49 45 50 48 51 61 52 79 53 46 54 47 55
REMARK SMILES IDX 60 57 80 58 49 59 34 60 35 61 43 62 36 63 42 64 37 65 38 66
REMARK SMILES IDX 39 67 40 68 41 69 64 70 65 71 73 72 66 73 72 74 67 75 68 76
REMARK SMILES IDX 69 77 70 78 71 79 50 80 51 81 59 82 52 83 58 84 53 85 54 86
REMARK SMILES IDX 55 87 56 88 57 89
REMARK H PARENT 8 14 11 16 78 45 48 56
REMARK Flexibility Score: inf
ROOT
ATOM      1  C   UNL     1       4.025   2.385   0.198  1.00  0.00     0.274 C 
ENDROOT
BRANCH   1   2
ATOM      2  O   UNL     1       3.314   1.773  -0.895  1.00  0.00    -0.460 OA
BRANCH   2   3
ATOM      3  C   UNL     1       1.980   2.029  -0.934  1.00  0.00     0.335 C 
ATOM      4  O   UNL     1       1.387   2.706  -0.099  1.00  0.00    -0.249 OA
BRANCH   3   5
ATOM      5  C   UNL     1       1.266   1.369  -2.127  1.00  0.00     0.228 C 
ATOM      6  C   UNL     1       1.276  -0.967  -2.061  1.00  0.00     0.138 C 
ATOM      7  C   UNL     1       2.482  -0.513  -2.883  1.00  0.00     0.037 C 
ATOM      8  O   UNL     1       0.531   0.211  -1.722  1.00  0.00    -0.361 OA
ATOM      9  C   UNL     1       2.136   0.906  -3.274  1.00  0.00     0.047 C 
BRANCH   6  10
ATOM     10  C   UNL     1       1.565  -1.818  -0.800  1.00  0.00     0.149 C 
BRANCH  10  11
ATOM     11  N   UNL     1       2.665  -1.341   0.025  1.00  0.00    -0.336 N 
ATOM     12  N   UNL     1       2.168  -0.904   2.330  1.00  0.00    -0.333 N 
ATOM     13  C   UNL     1       2.946  -1.049   1.278  1.00  0.00     0.315 C 
ATOM     14  H   UNL     1       2.775  -0.735   3.087  1.00  0.00     0.165 HD
ATOM     15  O   UNL     1       4.155  -0.877   1.504  1.00  0.00    -0.249 OA
ATOM     16  H   UNL     1       3.458  -1.185  -0.538  1.00  0.00     0.165 HD
BRANCH  12  17
ATOM     17  C   UNL     1       0.785  -0.877   2.906  1.00  0.00     0.041 C 
BRANCH  17  18
ATOM     18  C   UNL     1      -0.405  -0.829   1.931  1.00  0.00     0.025 C 
ATOM     19  C   UNL     1      -0.434   0.405   1.058  1.00  0.00     0.006 C 
ENDBRANCH  17  18
BRANCH  17  20
ATOM     20  C   UNL     1       0.780   0.402   3.825  1.00  0.00     0.025 C 
ATOM     21  C   UNL     1      -0.546   0.804   4.460  1.00  0.00     0.006 C 
ENDBRANCH  17  20
BRANCH  17  22
ATOM     22  C   UNL     1       0.628  -2.127   3.828  1.00  0.00     0.025 C 
ATOM     23  C   UNL     1       0.947  -3.463   3.166  1.00  0.00     0.006 C 
ENDBRANCH  17  22
ENDBRANCH  12  17
ENDBRANCH  10  11
ENDBRANCH   6  10
ENDBRANCH   3   5
ENDBRANCH   2   3
ENDBRANCH   1   2
BRANCH   1  24
ATOM     24  C   UNL     1       4.634   3.731  -0.208  1.00  0.00     0.275 C 
BRANCH  24  25
ATOM     25  O   UNL     1       3.639   4.754  -0.406  1.00  0.00    -0.458 OA
BRANCH  25  26
ATOM     26  C   UNL     1       3.132   4.837  -1.658  1.00  0.00     0.338 C 
ATOM     27  O   UNL     1       3.443   4.162  -2.629  1.00  0.00    -0.246 OA
BRANCH  26  28
ATOM     28  C   UNL     1       2.024   5.799  -1.687  1.00  0.00     0.060 A 
ATOM     29  C   UNL     1       0.720   5.310  -1.805  1.00  0.00     0.016 A 
ATOM     30  C   UNL     1       2.271   7.172  -1.708  1.00  0.00     0.016 A 
ATOM     31  C   UNL     1      -0.346   6.186  -1.957  1.00  0.00     0.010 A 
ATOM     32  C   UNL     1       1.198   8.055  -1.857  1.00  0.00     0.010 A 
ATOM     33  C   UNL     1      -0.113   7.564  -1.997  1.00  0.00    -0.014 A 
BRANCH  33  34
ATOM     34  C   UNL     1      -1.245   8.480  -2.248  1.00  0.00     0.031 A 
ATOM     35  C   UNL     1      -1.415   9.089  -3.609  1.00  0.00     0.074 A 
ATOM     36  C   UNL     1      -2.134   8.724  -1.268  1.00  0.00     0.049 A 
ATOM     37  N   UNL     1      -2.294   9.967  -4.015  1.00  0.00    -0.248 NA
ATOM     38  C   UNL     1      -0.472   8.651  -4.652  1.00  0.00     0.031 C 
ATOM     39  C   UNL     1      -2.102   8.128   0.069  1.00  0.00     0.029 A 
ATOM     40  N   UNL     1      -3.238   9.536  -1.248  1.00  0.00    -0.354 N 
ATOM     41  C   UNL     1      -2.000  10.204  -5.352  1.00  0.00     0.074 A 
ATOM     42  C   UNL     1      -0.856   9.384  -5.687  1.00  0.00     0.031 C 
ATOM     43  C   UNL     1      -3.139   8.598   0.781  1.00  0.00     0.029 A 
ATOM     44  C   UNL     1      -3.878   9.560  -0.032  1.00  0.00     0.049 A 
ATOM     45  H   UNL     1      -3.543  10.052  -2.029  1.00  0.00     0.167 HD
ATOM     46  C   UNL     1      -2.628  11.034  -6.217  1.00  0.00     0.031 A 
ATOM     47  C   UNL     1      -4.922  10.299   0.387  1.00  0.00     0.031 A 
ATOM     48  C   UNL     1      -3.762  11.848  -5.869  1.00  0.00     0.049 A 
ATOM     49  C   UNL     1      -5.558  11.267  -0.573  1.00  0.00     0.074 A 
ATOM     50  C   UNL     1      -4.467  12.732  -6.666  1.00  0.00     0.029 A 
ATOM     51  N   UNL     1      -4.357  11.877  -4.615  1.00  0.00    -0.354 N 
ATOM     52  N   UNL     1      -5.256  11.498  -1.829  1.00  0.00    -0.248 NA
ATOM     53  C   UNL     1      -6.671  12.075  -0.059  1.00  0.00     0.031 C 
ATOM     54  C   UNL     1      -5.462  13.328  -5.882  1.00  0.00     0.029 A 
ATOM     55  C   UNL     1      -5.407  12.778  -4.610  1.00  0.00     0.049 A 
ATOM     56  H   UNL     1      -4.073  11.336  -3.843  1.00  0.00     0.167 HD
ATOM     57  C   UNL     1      -6.151  12.469  -2.261  1.00  0.00     0.074 A 
ATOM     58  C   UNL     1      -7.016  12.768  -1.137  1.00  0.00     0.031 C 
ATOM     59  C   UNL     1      -6.250  13.061  -3.476  1.00  0.00     0.031 A 
BRANCH  46  60
ATOM     60  C   UNL     1      -2.068  11.136  -7.610  1.00  0.00    -0.014 A 
ATOM     61  C   UNL     1      -2.249  10.105  -8.548  1.00  0.00     0.010 A 
ATOM     62  C   UNL     1      -1.369  12.296  -7.992  1.00  0.00     0.010 A 
ATOM     63  C   UNL     1      -1.710  10.216  -9.833  1.00  0.00     0.020 A 
ATOM     64  C   UNL     1      -0.846  12.420  -9.282  1.00  0.00     0.020 A 
ATOM     65  C   UNL     1      -1.006  11.371 -10.190  1.00  0.00     0.054 A 
BRANCH  65  66
ATOM     66  S   UNL     1      -0.326  11.497 -11.867  1.00  0.00     0.124 S 
ATOM     67  O   UNL     1       0.829  10.606 -11.792  1.00  0.00    -0.237 OA
ATOM     68  O   UNL     1      -1.430  11.025 -12.699  1.00  0.00    -0.237 OA
ATOM     69  O   UNL     1      -0.009  12.917 -12.006  1.00  0.00    -0.744 OA
ENDBRANCH  65  66
ENDBRANCH  46  60
BRANCH  47  70
ATOM     70  C   UNL     1      -5.399  10.181   1.791  1.00  0.00    -0.014 A 
ATOM     71  C   UNL     1      -6.635   9.581   2.082  1.00  0.00     0.010 A 
ATOM     72  C   UNL     1      -4.604  10.659   2.849  1.00  0.00     0.010 A 
ATOM     73  C   UNL     1      -7.073   9.471   3.406  1.00  0.00     0.020 A 
ATOM     74  C   UNL     1      -5.026  10.528   4.174  1.00  0.00     0.020 A 
ATOM     75  C   UNL     1      -6.265   9.945   4.444  1.00  0.00     0.054 A 
BRANCH  75  76
ATOM     76  S   UNL     1      -6.824   9.743   6.158  1.00  0.00     0.124 S 
ATOM     77  O   UNL     1      -7.817  10.806   6.280  1.00  0.00    -0.237 OA
ATOM     78  O   UNL     1      -7.352   8.381   6.164  1.00  0.00    -0.237 OA
ATOM     79  O   UNL     1      -5.604   9.932   6.939  1.00  0.00    -0.744 OA
ENDBRANCH  75  76
ENDBRANCH  47  70
BRANCH  59  80
ATOM     80  C   UNL     1      -7.346  14.074  -3.658  1.00  0.00    -0.014 A 
ATOM     81  C   UNL     1      -7.241  15.362  -3.104  1.00  0.00     0.010 A 
ATOM     82  C   UNL     1      -8.472  13.746  -4.434  1.00  0.00     0.010 A 
ATOM     83  C   UNL     1      -8.259  16.298  -3.301  1.00  0.00     0.020 A 
ATOM     84  C   UNL     1      -9.481  14.687  -4.651  1.00  0.00     0.020 A 
ATOM     85  C   UNL     1      -9.375  15.953  -4.071  1.00  0.00     0.054 A 
BRANCH  85  86
ATOM     86  S   UNL     1     -10.665  17.197  -4.350  1.00  0.00     0.124 S 
ATOM     87  O   UNL     1     -11.380  17.183  -3.076  1.00  0.00    -0.237 OA
ATOM     88  O   UNL     1      -9.894  18.407  -4.625  1.00  0.00    -0.237 OA
ATOM     89  O   UNL     1     -11.412  16.670  -5.490  1.00  0.00    -0.744 OA
ENDBRANCH  85  86
ENDBRANCH  59  80
ENDBRANCH  33  34
ENDBRANCH  26  28
ENDBRANCH  25  26
ENDBRANCH  24  25
ENDBRANCH   1  24
TORSDOF 20
