REMARK SMILES O=C(OCCOC(=O)[C@@H]1CN(C(=O)CCC(F)(F)F)C[C@H]1c1ccc2c(c1)OCO2)c1ccc(-c2c3nc(c(-c4ccc(S(=O)(=O)[O-])cc4)c4ccc([nH]4)c(-c4ccc(S(=O)(=O)[O-])cc4)c4nc(c(-c5ccc(S(=O)(=O)[O-])cc5)c5ccc2[nH]5)C=C4)C=C3)cc1
REMARK SMILES IDX 5 1 4 2 3 3 2 4 1 5 31 6 32 7 90 8 33 9 89 10 34 11 35 12
REMARK SMILES IDX 36 13 83 14 37 15 88 16 82 17 84 18 38 19 87 20 81 21 80 22
REMARK SMILES IDX 39 24 69 25 50 26 68 27 51 28 54 29 67 30 85 31 52 32 53 33
REMARK SMILES IDX 66 35 86 36 55 37 40 38 41 39 49 40 42 41 48 42 43 43 44 44
REMARK SMILES IDX 45 45 46 46 47 47 70 48 71 49 79 50 72 51 78 52 73 53 74 54
REMARK SMILES IDX 75 55 76 56 77 57 56 58 57 59 65 60 58 61 64 62 59 63 60 64
REMARK SMILES IDX 61 65 62 66 63 67 6 68 7 69 8 70 9 71 10 72 21 73 11 74
REMARK SMILES IDX 20 75 22 76 23 77 27 78 24 79 26 80 25 81 28 82 30 83 29 84
REMARK SMILES IDX 12 85 13 86 14 87 15 88 16 89 17 90 18 91 19 92
REMARK H PARENT 84 23 54 34
REMARK Flexibility Score: inf
ROOT
ATOM      1  C   UNL     1       4.134   1.356  -1.643  1.00  0.00     0.274 C 
ENDROOT
BRANCH   1   2
ATOM      2  C   UNL     1       4.454  -0.136  -1.637  1.00  0.00     0.275 C 
BRANCH   2   3
ATOM      3  O   UNL     1       3.401  -0.928  -1.052  1.00  0.00    -0.458 OA
BRANCH   3   4
ATOM      4  C   UNL     1       3.088  -1.202   0.235  1.00  0.00     0.338 C 
ATOM      5  O   UNL     1       2.093  -1.901   0.435  1.00  0.00    -0.246 OA
BRANCH   4   6
ATOM      6  C   UNL     1       3.793  -0.659   1.451  1.00  0.00     0.060 A 
ATOM      7  C   UNL     1       5.039  -0.029   1.492  1.00  0.00     0.016 A 
ATOM      8  C   UNL     1       3.092  -0.770   2.671  1.00  0.00     0.016 A 
ATOM      9  C   UNL     1       5.531   0.539   2.678  1.00  0.00     0.010 A 
ATOM     10  C   UNL     1       3.570  -0.197   3.857  1.00  0.00     0.010 A 
ATOM     11  C   UNL     1       4.803   0.457   3.868  1.00  0.00    -0.014 A 
BRANCH  11  12
ATOM     12  C   UNL     1       5.450   0.855   5.141  1.00  0.00     0.031 A 
ATOM     13  C   UNL     1       6.119  -0.222   5.938  1.00  0.00     0.074 A 
ATOM     14  C   UNL     1       5.477   2.133   5.564  1.00  0.00     0.049 A 
ATOM     15  N   UNL     1       6.867  -0.115   7.000  1.00  0.00    -0.248 NA
ATOM     16  C   UNL     1       5.898  -1.607   5.486  1.00  0.00     0.031 C 
ATOM     17  C   UNL     1       4.798   3.239   4.903  1.00  0.00     0.029 A 
ATOM     18  N   UNL     1       6.100   2.726   6.638  1.00  0.00    -0.354 N 
ATOM     19  C   UNL     1       7.189  -1.416   7.357  1.00  0.00     0.074 A 
ATOM     20  C   UNL     1       6.533  -2.296   6.418  1.00  0.00     0.031 C 
ATOM     21  C   UNL     1       5.067   4.378   5.563  1.00  0.00     0.029 A 
ATOM     22  C   UNL     1       5.960   4.099   6.677  1.00  0.00     0.049 A 
ATOM     23  H   UNL     1       6.599   2.217   7.317  1.00  0.00     0.167 HD
ATOM     24  C   UNL     1       7.962  -1.839   8.381  1.00  0.00     0.031 A 
ATOM     25  C   UNL     1       6.519   5.021   7.491  1.00  0.00     0.031 A 
ATOM     26  C   UNL     1       8.576  -0.954   9.329  1.00  0.00     0.049 A 
ATOM     27  C   UNL     1       7.432   4.522   8.581  1.00  0.00     0.074 A 
ATOM     28  C   UNL     1       9.365  -1.269  10.418  1.00  0.00     0.029 A 
ATOM     29  N   UNL     1       8.454   0.428   9.304  1.00  0.00    -0.354 N 
ATOM     30  N   UNL     1       7.810   3.291   8.838  1.00  0.00    -0.248 NA
ATOM     31  C   UNL     1       7.999   5.530   9.488  1.00  0.00     0.031 C 
ATOM     32  C   UNL     1       9.681  -0.079  11.082  1.00  0.00     0.029 A 
ATOM     33  C   UNL     1       9.140   0.981  10.369  1.00  0.00     0.049 A 
ATOM     34  H   UNL     1       7.952   0.940   8.628  1.00  0.00     0.167 HD
ATOM     35  C   UNL     1       8.659   3.380   9.932  1.00  0.00     0.074 A 
ATOM     36  C   UNL     1       8.794   4.789  10.244  1.00  0.00     0.031 C 
ATOM     37  C   UNL     1       9.251   2.390  10.642  1.00  0.00     0.031 A 
BRANCH  24  38
ATOM     38  C   UNL     1       8.118  -3.324   8.537  1.00  0.00    -0.014 A 
ATOM     39  C   UNL     1       8.847  -4.082   7.603  1.00  0.00     0.010 A 
ATOM     40  C   UNL     1       7.482  -3.977   9.607  1.00  0.00     0.010 A 
ATOM     41  C   UNL     1       8.891  -5.474   7.705  1.00  0.00     0.020 A 
ATOM     42  C   UNL     1       7.551  -5.366   9.731  1.00  0.00     0.020 A 
ATOM     43  C   UNL     1       8.237  -6.107   8.766  1.00  0.00     0.054 A 
BRANCH  43  44
ATOM     44  S   UNL     1       8.307  -7.915   8.872  1.00  0.00     0.124 S 
ATOM     45  O   UNL     1       7.422  -8.314   7.780  1.00  0.00    -0.237 OA
ATOM     46  O   UNL     1       9.726  -8.191   8.662  1.00  0.00    -0.237 OA
ATOM     47  O   UNL     1       7.810  -8.203  10.215  1.00  0.00    -0.744 OA
ENDBRANCH  43  44
ENDBRANCH  24  38
BRANCH  25  48
ATOM     48  C   UNL     1       6.325   6.495   7.285  1.00  0.00    -0.014 A 
ATOM     49  C   UNL     1       7.437   7.323   7.019  1.00  0.00     0.010 A 
ATOM     50  C   UNL     1       5.054   7.095   7.346  1.00  0.00     0.010 A 
ATOM     51  C   UNL     1       7.285   8.698   6.808  1.00  0.00     0.020 A 
ATOM     52  C   UNL     1       4.890   8.466   7.097  1.00  0.00     0.020 A 
ATOM     53  C   UNL     1       6.007   9.258   6.826  1.00  0.00     0.054 A 
BRANCH  53  54
ATOM     54  S   UNL     1       5.828  11.012   6.396  1.00  0.00     0.124 S 
ATOM     55  O   UNL     1       6.451  11.673   7.539  1.00  0.00    -0.237 OA
ATOM     56  O   UNL     1       6.569  11.093   5.139  1.00  0.00    -0.237 OA
ATOM     57  O   UNL     1       4.384  11.196   6.277  1.00  0.00    -0.744 OA
ENDBRANCH  53  54
ENDBRANCH  25  48
BRANCH  37  58
ATOM     58  C   UNL     1      10.093   2.808  11.813  1.00  0.00    -0.014 A 
ATOM     59  C   UNL     1       9.503   3.348  12.971  1.00  0.00     0.010 A 
ATOM     60  C   UNL     1      11.486   2.625  11.768  1.00  0.00     0.010 A 
ATOM     61  C   UNL     1      10.298   3.737  14.049  1.00  0.00     0.020 A 
ATOM     62  C   UNL     1      12.280   2.980  12.858  1.00  0.00     0.020 A 
ATOM     63  C   UNL     1      11.682   3.550  13.985  1.00  0.00     0.054 A 
BRANCH  63  64
ATOM     64  S   UNL     1      12.689   4.025  15.414  1.00  0.00     0.124 S 
ATOM     65  O   UNL     1      12.673   5.482  15.324  1.00  0.00    -0.237 OA
ATOM     66  O   UNL     1      11.943   3.455  16.534  1.00  0.00    -0.237 OA
ATOM     67  O   UNL     1      13.981   3.397  15.150  1.00  0.00    -0.744 OA
ENDBRANCH  63  64
ENDBRANCH  37  58
ENDBRANCH  11  12
ENDBRANCH   4   6
ENDBRANCH   3   4
ENDBRANCH   2   3
ENDBRANCH   1   2
BRANCH   1  68
ATOM     68  O   UNL     1       3.784   1.785  -0.323  1.00  0.00    -0.462 OA
BRANCH  68  69
ATOM     69  C   UNL     1       2.561   2.345  -0.124  1.00  0.00     0.311 C 
ATOM     70  O   UNL     1       1.736   2.571  -1.000  1.00  0.00    -0.252 OA
BRANCH  69  71
ATOM     71  C   UNL     1       2.380   2.643   1.342  1.00  0.00     0.128 C 
ATOM     72  C   UNL     1       1.108   1.974   1.818  1.00  0.00     0.135 C 
ATOM     73  C   UNL     1       2.181   4.134   1.686  1.00  0.00     0.055 C 
ATOM     74  N   UNL     1       0.751   2.692   3.017  1.00  0.00    -0.341 N 
ATOM     75  C   UNL     1       1.334   4.034   2.992  1.00  0.00     0.128 C 
BRANCH  73  76
ATOM     76  C   UNL     1       3.493   4.915   1.793  1.00  0.00    -0.038 A 
ATOM     77  C   UNL     1       4.595   4.618   0.947  1.00  0.00     0.008 A 
ATOM     78  C   UNL     1       3.662   5.947   2.729  1.00  0.00     0.054 A 
ATOM     79  C   UNL     1       5.851   5.209   1.099  1.00  0.00     0.051 A 
ATOM     80  C   UNL     1       4.917   6.518   2.861  1.00  0.00     0.166 A 
ATOM     81  C   UNL     1       5.985   6.145   2.085  1.00  0.00     0.165 A 
ATOM     82  O   UNL     1       5.274   7.439   3.795  1.00  0.00    -0.454 OA
ATOM     83  O   UNL     1       7.134   6.788   2.413  1.00  0.00    -0.454 OA
ATOM     84  C   UNL     1       6.707   7.455   3.622  1.00  0.00     0.468 C 
ENDBRANCH  73  76
BRANCH  74  85
ATOM     85  C   UNL     1      -0.054   2.272   4.050  1.00  0.00     0.222 C 
ATOM     86  O   UNL     1      -0.515   3.062   4.876  1.00  0.00    -0.275 OA
BRANCH  85  87
ATOM     87  C   UNL     1      -0.321   0.783   4.218  1.00  0.00     0.109 C 
BRANCH  87  88
ATOM     88  C   UNL     1      -1.675   0.300   3.717  1.00  0.00     0.125 C 
BRANCH  88  89
ATOM     89  C   UNL     1      -1.755   0.181   2.216  1.00  0.00     0.389 C 
ATOM     90  F   UNL     1      -0.703  -0.504   1.722  1.00  0.00    -0.171 F 
ATOM     91  F   UNL     1      -2.877  -0.480   1.850  1.00  0.00    -0.171 F 
ATOM     92  F   UNL     1      -1.789   1.389   1.621  1.00  0.00    -0.171 F 
ENDBRANCH  88  89
ENDBRANCH  87  88
ENDBRANCH  85  87
ENDBRANCH  74  85
ENDBRANCH  69  71
ENDBRANCH  68  69
ENDBRANCH   1  68
TORSDOF 19
