REMARK SMILES Cc1ccc([C@@H]2[C@H](C(=O)OCCOC(=O)c3ccc(-c4c5nc(c(-c6ccc(S(=O)(=O)[O-])cc6)c6ccc([nH]6)c(-c6ccc(S(=O)(=O)[O-])cc6)c6nc(c(-c7ccc(S(=O)(=O)[O-])cc7)c7ccc4[nH]7)C=C6)C=C5)cc3)c3ccccc3C(=O)N2c2ccccc2)cc1
REMARK SMILES IDX 12 1 11 2 10 3 8 4 9 5 7 6 6 7 84 8 76 9 82 10 77 11 81 12
REMARK SMILES IDX 83 13 78 14 80 15 79 16 5 17 1 18 2 19 3 20 92 21 4 22 91 23
REMARK SMILES IDX 85 24 86 25 90 26 87 27 89 28 88 29 13 30 14 31 15 32 16 33
REMARK SMILES IDX 17 34 75 35 18 36 74 37 19 38 20 39 21 40 68 41 22 42 73 43
REMARK SMILES IDX 67 44 69 45 23 46 72 47 66 48 65 49 24 51 54 52 35 53 53 54
REMARK SMILES IDX 36 55 39 56 52 57 70 58 37 59 38 60 51 62 71 63 40 64 25 65
REMARK SMILES IDX 26 66 34 67 27 68 33 69 28 70 29 71 30 72 31 73 32 74 55 75
REMARK SMILES IDX 56 76 64 77 57 78 63 79 58 80 59 81 60 82 61 83 62 84 41 85
REMARK SMILES IDX 42 86 50 87 43 88 49 89 44 90 45 91 46 92 47 93 48 94
REMARK H PARENT 69 50 39 61
REMARK Flexibility Score: inf
ROOT
ATOM      1  C   UNL     1      -4.925  -6.671   3.587  1.00  0.00     0.275 C 
ENDROOT
BRANCH   1   2
ATOM      2  C   UNL     1      -3.549  -5.623   4.445  1.00  0.00     0.274 C 
BRANCH   2   3
ATOM      3  O   UNL     1      -2.512  -4.271   3.784  1.00  0.00    -0.462 OA
BRANCH   3   4
ATOM      4  C   UNL     1      -1.900  -2.626   2.990  1.00  0.00     0.316 C 
ATOM      5  O   UNL     1      -0.810  -2.543   2.372  1.00  0.00    -0.251 OA
BRANCH   4   6
ATOM      6  C   UNL     1      -2.723  -0.937   3.042  1.00  0.00     0.157 C 
ATOM      7  C   UNL     1      -2.957  -0.304   1.576  1.00  0.00     0.140 C 
ATOM      8  N   UNL     1      -4.319  -0.767   1.050  1.00  0.00    -0.300 N 
ATOM      9  C   UNL     1      -4.102  -0.410   3.850  1.00  0.00    -0.019 A 
ATOM     10  C   UNL     1      -5.282   0.052   1.623  1.00  0.00     0.259 C 
ATOM     11  C   UNL     1      -4.269  -0.434   5.250  1.00  0.00     0.005 A 
ATOM     12  C   UNL     1      -5.276  -0.034   3.110  1.00  0.00     0.044 A 
ATOM     13  O   UNL     1      -5.991   0.862   1.042  1.00  0.00    -0.269 OA
ATOM     14  C   UNL     1      -5.569  -0.509   5.804  1.00  0.00     0.000 A 
ATOM     15  C   UNL     1      -6.553   0.034   3.694  1.00  0.00     0.014 A 
ATOM     16  C   UNL     1      -6.708  -0.323   5.021  1.00  0.00     0.001 A 
BRANCH   7  17
ATOM     17  C   UNL     1      -1.813   0.358   0.730  1.00  0.00    -0.024 A 
ATOM     18  C   UNL     1       2.304   0.684  -0.215  1.00  0.00     0.044 C 
ATOM     19  C   UNL     1       0.819   0.922  -0.188  1.00  0.00    -0.051 A 
ATOM     20  C   UNL     1      -0.063   0.181  -0.961  1.00  0.00     0.004 A 
ATOM     21  C   UNL     1       0.242   1.737   0.773  1.00  0.00     0.004 A 
ATOM     22  C   UNL     1      -1.399  -0.028  -0.530  1.00  0.00     0.006 A 
ATOM     23  C   UNL     1      -1.061   1.449   1.230  1.00  0.00     0.006 A 
ENDBRANCH   7  17
BRANCH   8  24
ATOM     24  C   UNL     1      -4.681  -2.226   1.092  1.00  0.00     0.045 A 
ATOM     25  C   UNL     1      -5.539  -2.887   2.455  1.00  0.00     0.026 A 
ATOM     26  C   UNL     1      -3.728  -3.224   0.126  1.00  0.00     0.026 A 
ATOM     27  C   UNL     1      -5.094  -4.513   3.095  1.00  0.00     0.002 A 
ATOM     28  C   UNL     1      -3.427  -4.902   0.375  1.00  0.00     0.002 A 
ATOM     29  C   UNL     1      -3.910  -5.614   1.965  1.00  0.00     0.000 A 
ENDBRANCH   8  24
ENDBRANCH   4   6
ENDBRANCH   3   4
ENDBRANCH   2   3
ENDBRANCH   1   2
BRANCH   1  30
ATOM     30  O   UNL     1      -5.814  -6.047   2.092  1.00  0.00    -0.458 OA
BRANCH  30  31
ATOM     31  C   UNL     1      -5.259  -4.548   1.247  1.00  0.00     0.338 C 
ATOM     32  O   UNL     1      -6.029  -4.291   0.327  1.00  0.00    -0.246 OA
BRANCH  31  33
ATOM     33  C   UNL     1      -3.524  -3.737   2.264  1.00  0.00     0.060 A 
ATOM     34  C   UNL     1      -3.647  -2.903   3.975  1.00  0.00     0.016 A 
ATOM     35  C   UNL     1      -1.897  -4.668   2.054  1.00  0.00     0.016 A 
ATOM     36  C   UNL     1      -2.165  -2.884   5.065  1.00  0.00     0.010 A 
ATOM     37  C   UNL     1      -0.780  -4.887   3.278  1.00  0.00     0.010 A 
ATOM     38  C   UNL     1      -0.736  -3.851   4.583  1.00  0.00    -0.014 A 
BRANCH  38  39
ATOM     39  C   UNL     1       0.752  -3.626   4.662  1.00  0.00     0.031 A 
ATOM     40  C   UNL     1       1.220  -2.938   5.876  1.00  0.00     0.074 A 
ATOM     41  C   UNL     1       1.578  -4.133   3.644  1.00  0.00     0.049 A 
ATOM     42  N   UNL     1       2.358  -2.358   6.086  1.00  0.00    -0.248 NA
ATOM     43  C   UNL     1       0.317  -2.744   7.036  1.00  0.00     0.031 C 
ATOM     44  C   UNL     1       2.422  -5.363   3.740  1.00  0.00     0.029 A 
ATOM     45  N   UNL     1       1.350  -4.206   2.246  1.00  0.00    -0.354 N 
ATOM     46  C   UNL     1       2.464  -2.483   7.463  1.00  0.00     0.074 A 
ATOM     47  C   UNL     1       1.142  -2.236   7.948  1.00  0.00     0.031 C 
ATOM     48  C   UNL     1       2.840  -5.799   2.522  1.00  0.00     0.029 A 
ATOM     49  C   UNL     1       2.218  -4.989   1.489  1.00  0.00     0.049 A 
ATOM     50  H   UNL     1       0.604  -3.721   1.825  1.00  0.00     0.167 HD
ATOM     51  C   UNL     1       3.324  -3.436   7.954  1.00  0.00     0.031 A 
ATOM     52  C   UNL     1       2.828  -4.420   0.408  1.00  0.00     0.031 A 
ATOM     53  C   UNL     1       4.121  -4.040   6.873  1.00  0.00     0.049 A 
ATOM     54  C   UNL     1       4.000  -3.647   0.993  1.00  0.00     0.074 A 
ATOM     55  C   UNL     1       4.287  -5.319   6.373  1.00  0.00     0.029 A 
ATOM     56  N   UNL     1       4.668  -3.202   5.915  1.00  0.00    -0.354 N 
ATOM     57  N   UNL     1       4.211  -3.581   2.281  1.00  0.00    -0.248 NA
ATOM     58  C   UNL     1       5.063  -2.999   0.243  1.00  0.00     0.031 C 
ATOM     59  C   UNL     1       5.025  -5.218   5.144  1.00  0.00     0.029 A 
ATOM     60  C   UNL     1       5.228  -3.878   4.858  1.00  0.00     0.049 A 
ATOM     61  H   UNL     1       4.656  -2.220   5.984  1.00  0.00     0.167 HD
ATOM     62  C   UNL     1       5.423  -3.055   2.558  1.00  0.00     0.074 A 
ATOM     63  C   UNL     1       5.878  -2.608   1.244  1.00  0.00     0.031 C 
ATOM     64  C   UNL     1       5.929  -3.095   3.833  1.00  0.00     0.031 A 
BRANCH  51  65
ATOM     65  C   UNL     1       3.284  -4.013   9.363  1.00  0.00    -0.014 A 
ATOM     66  C   UNL     1       4.258  -4.970   9.707  1.00  0.00     0.010 A 
ATOM     67  C   UNL     1       2.393  -3.649  10.399  1.00  0.00     0.010 A 
ATOM     68  C   UNL     1       4.377  -5.490  11.002  1.00  0.00     0.020 A 
ATOM     69  C   UNL     1       2.497  -4.163  11.704  1.00  0.00     0.020 A 
ATOM     70  C   UNL     1       3.509  -5.065  12.001  1.00  0.00     0.054 A 
BRANCH  70  71
ATOM     71  S   UNL     1       3.774  -5.657  13.690  1.00  0.00     0.124 S 
ATOM     72  O   UNL     1       3.621  -7.102  13.542  1.00  0.00    -0.237 OA
ATOM     73  O   UNL     1       5.128  -5.189  13.973  1.00  0.00    -0.237 OA
ATOM     74  O   UNL     1       2.718  -4.999  14.458  1.00  0.00    -0.744 OA
ENDBRANCH  70  71
ENDBRANCH  51  65
BRANCH  52  75
ATOM     75  C   UNL     1       1.826  -3.939  -0.611  1.00  0.00    -0.014 A 
ATOM     76  C   UNL     1       1.395  -4.787  -1.660  1.00  0.00     0.010 A 
ATOM     77  C   UNL     1       0.960  -2.905  -0.270  1.00  0.00     0.010 A 
ATOM     78  C   UNL     1       0.164  -4.596  -2.332  1.00  0.00     0.020 A 
ATOM     79  C   UNL     1      -0.331  -2.845  -0.829  1.00  0.00     0.020 A 
ATOM     80  C   UNL     1      -0.703  -3.595  -1.935  1.00  0.00     0.054 A 
BRANCH  80  81
ATOM     81  S   UNL     1      -2.240  -3.376  -2.936  1.00  0.00     0.124 S 
ATOM     82  O   UNL     1      -1.714  -3.292  -4.293  1.00  0.00    -0.237 OA
ATOM     83  O   UNL     1      -2.967  -4.601  -2.623  1.00  0.00    -0.237 OA
ATOM     84  O   UNL     1      -2.850  -2.136  -2.478  1.00  0.00    -0.744 OA
ENDBRANCH  80  81
ENDBRANCH  52  75
BRANCH  64  85
ATOM     85  C   UNL     1       7.167  -2.368   4.279  1.00  0.00    -0.014 A 
ATOM     86  C   UNL     1       8.145  -1.928   3.394  1.00  0.00     0.010 A 
ATOM     87  C   UNL     1       7.392  -2.107   5.656  1.00  0.00     0.010 A 
ATOM     88  C   UNL     1       9.219  -1.162   3.828  1.00  0.00     0.020 A 
ATOM     89  C   UNL     1       8.477  -1.371   6.113  1.00  0.00     0.020 A 
ATOM     90  C   UNL     1       9.377  -0.887   5.182  1.00  0.00     0.054 A 
BRANCH  90  91
ATOM     91  S   UNL     1      10.837   0.025   5.686  1.00  0.00     0.124 S 
ATOM     92  O   UNL     1      11.908  -0.795   5.123  1.00  0.00    -0.237 OA
ATOM     93  O   UNL     1      10.625   1.315   5.036  1.00  0.00    -0.237 OA
ATOM     94  O   UNL     1      10.760   0.035   7.143  1.00  0.00    -0.744 OA
ENDBRANCH  90  91
ENDBRANCH  64  85
ENDBRANCH  38  39
ENDBRANCH  31  33
ENDBRANCH  30  31
ENDBRANCH   1  30
TORSDOF 16
