REMARK SMILES O=C(CCCC(=O)OCCOC(=O)c1ccc(-c2c3nc(c(-c4ccc(S(=O)(=O)[O-])cc4)c4ccc([nH]4)c(-c4ccc(S(=O)(=O)[O-])cc4)c4nc(c(-c5ccc(S(=O)(=O)[O-])cc5)c5ccc2[nH]5)C=C4)C=C3)cc1)Nc1nc2n(n1)[C@@H](c1ccc(Cl)cc1)C[C@@H](c1ccc(Cl)cc1)N2
REMARK SMILES IDX 9 1 8 2 6 3 7 4 5 5 4 6 3 7 2 8 1 9 74 10 75 12 76 13 79 14
REMARK SMILES IDX 77 15 78 16 97 17 80 18 89 19 88 21 81 22 82 23 87 24 83 25
REMARK SMILES IDX 86 26 84 27 85 28 90 29 91 30 96 31 92 32 95 33 93 34 94 35
REMARK SMILES IDX 10 36 11 37 12 38 13 39 14 40 15 41 73 42 16 43 72 44 17 45
REMARK SMILES IDX 18 46 19 47 66 48 20 49 71 50 65 51 67 52 21 53 70 54 64 55
REMARK SMILES IDX 63 56 22 58 52 59 33 60 51 61 34 62 37 63 50 64 68 65 35 66
REMARK SMILES IDX 36 67 49 69 69 70 38 71 23 72 24 73 32 74 25 75 31 76 26 77
REMARK SMILES IDX 27 78 28 79 29 80 30 81 53 82 54 83 62 84 55 85 61 86 56 87
REMARK SMILES IDX 57 88 58 89 59 90 60 91 39 92 40 93 48 94 41 95 47 96 42 97
REMARK SMILES IDX 43 98 44 99 45 100 46 101
REMARK H PARENT 74 11 97 20 67 57 37 68
REMARK Flexibility Score: inf
ROOT
ATOM      1  C   UNL     1       6.261   1.985   0.031  1.00  0.00     0.274 C 
ENDROOT
BRANCH   1   2
ATOM      2  O   UNL     1       5.288   0.932   0.187  1.00  0.00    -0.462 OA
BRANCH   2   3
ATOM      3  C   UNL     1       5.566  -0.269  -0.373  1.00  0.00     0.305 C 
ATOM      4  O   UNL     1       6.543  -0.497  -1.072  1.00  0.00    -0.252 OA
BRANCH   3   5
ATOM      5  C   UNL     1       4.490  -1.309  -0.113  1.00  0.00     0.123 C 
BRANCH   5   6
ATOM      6  C   UNL     1       3.480  -1.035   1.004  1.00  0.00     0.022 C 
BRANCH   6   7
ATOM      7  C   UNL     1       2.566   0.182   0.858  1.00  0.00     0.101 C 
BRANCH   7   8
ATOM      8  C   UNL     1       1.729   0.184  -0.401  1.00  0.00     0.226 C 
ATOM      9  O   UNL     1       0.519  -0.033  -0.348  1.00  0.00    -0.275 OA
ATOM     10  N   UNL     1       2.429   0.497  -1.543  1.00  0.00    -0.293 N 
ATOM     11  H   UNL     1       3.356   0.823  -1.486  1.00  0.00     0.173 HD
BRANCH  10  12
ATOM     12  C   UNL     1       1.823   0.351  -2.753  1.00  0.00     0.250 A 
ATOM     13  N   UNL     1       1.499  -0.901  -3.192  1.00  0.00    -0.176 NA
ATOM     14  N   UNL     1       1.309   1.368  -3.452  1.00  0.00    -0.130 NA
ATOM     15  C   UNL     1       0.579  -0.652  -4.078  1.00  0.00     0.224 A 
ATOM     16  N   UNL     1       0.504   0.695  -4.301  1.00  0.00    -0.222 N 
ATOM     17  N   UNL     1      -0.401  -1.472  -4.502  1.00  0.00    -0.347 N 
ATOM     18  C   UNL     1      -0.598   1.323  -5.019  1.00  0.00     0.144 C 
ATOM     19  C   UNL     1      -1.739  -0.893  -4.383  1.00  0.00     0.115 C 
ATOM     20  H   UNL     1      -0.233  -2.374  -4.859  1.00  0.00     0.164 HD
ATOM     21  C   UNL     1      -1.771   0.343  -5.313  1.00  0.00     0.062 C 
BRANCH  18  22
ATOM     22  C   UNL     1      -0.078   1.998  -6.280  1.00  0.00    -0.023 A 
ATOM     23  C   UNL     1      -0.104   3.397  -6.396  1.00  0.00     0.007 A 
ATOM     24  C   UNL     1       0.460   1.244  -7.339  1.00  0.00     0.007 A 
ATOM     25  C   UNL     1       0.378   4.024  -7.548  1.00  0.00     0.021 A 
ATOM     26  C   UNL     1       0.939   1.871  -8.491  1.00  0.00     0.021 A 
ATOM     27  C   UNL     1       0.893   3.258  -8.592  1.00  0.00     0.041 A 
ATOM     28  Cl  UNL     1       1.475   4.032 -10.014  1.00  0.00    -0.084 Cl
ENDBRANCH  18  22
BRANCH  19  29
ATOM     29  C   UNL     1      -2.872  -1.895  -4.590  1.00  0.00    -0.025 A 
ATOM     30  C   UNL     1      -4.194  -1.422  -4.708  1.00  0.00     0.007 A 
ATOM     31  C   UNL     1      -2.693  -3.288  -4.505  1.00  0.00     0.007 A 
ATOM     32  C   UNL     1      -5.283  -2.297  -4.757  1.00  0.00     0.021 A 
ATOM     33  C   UNL     1      -3.782  -4.167  -4.550  1.00  0.00     0.021 A 
ATOM     34  C   UNL     1      -5.072  -3.668  -4.674  1.00  0.00     0.041 A 
ATOM     35  Cl  UNL     1      -6.414  -4.743  -4.696  1.00  0.00    -0.084 Cl
ENDBRANCH  19  29
ENDBRANCH  10  12
ENDBRANCH   7   8
ENDBRANCH   6   7
ENDBRANCH   5   6
ENDBRANCH   3   5
ENDBRANCH   2   3
ENDBRANCH   1   2
BRANCH   1  36
ATOM     36  C   UNL     1       7.045   2.213   1.327  1.00  0.00     0.275 C 
BRANCH  36  37
ATOM     37  O   UNL     1       7.926   1.110   1.601  1.00  0.00    -0.458 OA
BRANCH  37  38
ATOM     38  C   UNL     1       7.395   0.130   2.363  1.00  0.00     0.338 C 
ATOM     39  O   UNL     1       6.286   0.119   2.889  1.00  0.00    -0.246 OA
BRANCH  38  40
ATOM     40  C   UNL     1       8.277  -1.040   2.340  1.00  0.00     0.060 A 
ATOM     41  C   UNL     1       7.843  -2.163   1.636  1.00  0.00     0.016 A 
ATOM     42  C   UNL     1       9.476  -1.066   3.051  1.00  0.00     0.016 A 
ATOM     43  C   UNL     1       8.593  -3.330   1.645  1.00  0.00     0.010 A 
ATOM     44  C   UNL     1      10.240  -2.238   3.050  1.00  0.00     0.010 A 
ATOM     45  C   UNL     1       9.796  -3.379   2.356  1.00  0.00    -0.014 A 
BRANCH  45  46
ATOM     46  C   UNL     1      10.553  -4.650   2.402  1.00  0.00     0.031 A 
ATOM     47  C   UNL     1      10.587  -5.449   3.672  1.00  0.00     0.074 A 
ATOM     48  C   UNL     1      11.162  -5.103   1.291  1.00  0.00     0.049 A 
ATOM     49  N   UNL     1      11.252  -6.542   3.940  1.00  0.00    -0.248 NA
ATOM     50  C   UNL     1       9.765  -4.953   4.788  1.00  0.00     0.031 C 
ATOM     51  C   UNL     1      11.134  -4.444  -0.017  1.00  0.00     0.029 A 
ATOM     52  N   UNL     1      11.914  -6.230   1.082  1.00  0.00    -0.354 N 
ATOM     53  C   UNL     1      10.958  -6.847   5.263  1.00  0.00     0.074 A 
ATOM     54  C   UNL     1      10.059  -5.821   5.746  1.00  0.00     0.031 C 
ATOM     55  C   UNL     1      11.827  -5.187  -0.896  1.00  0.00     0.029 A 
ATOM     56  C   UNL     1      12.394  -6.338  -0.201  1.00  0.00     0.049 A 
ATOM     57  H   UNL     1      12.092  -6.898   1.783  1.00  0.00     0.167 HD
ATOM     58  C   UNL     1      11.403  -7.888   6.006  1.00  0.00     0.031 A 
ATOM     59  C   UNL     1      13.224  -7.247  -0.748  1.00  0.00     0.031 A 
ATOM     60  C   UNL     1      12.292  -8.906   5.512  1.00  0.00     0.049 A 
ATOM     61  C   UNL     1      13.751  -8.360   0.113  1.00  0.00     0.074 A 
ATOM     62  C   UNL     1      12.810  -9.999   6.185  1.00  0.00     0.029 A 
ATOM     63  N   UNL     1      12.792  -8.957   4.219  1.00  0.00    -0.354 N 
ATOM     64  N   UNL     1      13.493  -8.617   1.373  1.00  0.00    -0.248 NA
ATOM     65  C   UNL     1      14.686  -9.300  -0.518  1.00  0.00     0.031 C 
ATOM     66  C   UNL     1      13.656 -10.688   5.309  1.00  0.00     0.029 A 
ATOM     67  C   UNL     1      13.627 -10.052   4.077  1.00  0.00     0.049 A 
ATOM     68  H   UNL     1      12.584  -8.310   3.507  1.00  0.00     0.167 HD
ATOM     69  C   UNL     1      14.224  -9.757   1.684  1.00  0.00     0.074 A 
ATOM     70  C   UNL     1      14.921 -10.149   0.475  1.00  0.00     0.031 C 
ATOM     71  C   UNL     1      14.313 -10.419   2.864  1.00  0.00     0.031 A 
BRANCH  58  72
ATOM     72  C   UNL     1      10.975  -7.940   7.448  1.00  0.00    -0.014 A 
ATOM     73  C   UNL     1       9.664  -8.293   7.811  1.00  0.00     0.010 A 
ATOM     74  C   UNL     1      11.908  -7.639   8.457  1.00  0.00     0.010 A 
ATOM     75  C   UNL     1       9.282  -8.303   9.156  1.00  0.00     0.020 A 
ATOM     76  C   UNL     1      11.537  -7.670   9.803  1.00  0.00     0.020 A 
ATOM     77  C   UNL     1      10.220  -7.983  10.143  1.00  0.00     0.054 A 
BRANCH  77  78
ATOM     78  S   UNL     1       9.702  -8.004  11.882  1.00  0.00     0.124 S 
ATOM     79  O   UNL     1       8.932  -6.766  11.981  1.00  0.00    -0.237 OA
ATOM     80  O   UNL     1       8.923  -9.236  11.973  1.00  0.00    -0.237 OA
ATOM     81  O   UNL     1      10.964  -8.013  12.619  1.00  0.00    -0.744 OA
ENDBRANCH  77  78
ENDBRANCH  58  72
BRANCH  59  82
ATOM     82  C   UNL     1      13.635  -7.110  -2.171  1.00  0.00    -0.014 A 
ATOM     83  C   UNL     1      13.163  -8.007  -3.144  1.00  0.00     0.010 A 
ATOM     84  C   UNL     1      14.480  -6.055  -2.564  1.00  0.00     0.010 A 
ATOM     85  C   UNL     1      13.534  -7.855  -4.484  1.00  0.00     0.020 A 
ATOM     86  C   UNL     1      14.832  -5.885  -3.905  1.00  0.00     0.020 A 
ATOM     87  C   UNL     1      14.364  -6.793  -4.857  1.00  0.00     0.054 A 
BRANCH  87  88
ATOM     88  S   UNL     1      14.779  -6.573  -6.609  1.00  0.00     0.124 S 
ATOM     89  O   UNL     1      15.793  -7.603  -6.812  1.00  0.00    -0.237 OA
ATOM     90  O   UNL     1      13.498  -6.806  -7.272  1.00  0.00    -0.237 OA
ATOM     91  O   UNL     1      15.262  -5.195  -6.674  1.00  0.00    -0.744 OA
ENDBRANCH  87  88
ENDBRANCH  59  82
BRANCH  71  92
ATOM     92  C   UNL     1      15.176 -11.649   2.895  1.00  0.00    -0.014 A 
ATOM     93  C   UNL     1      16.578 -11.551   2.912  1.00  0.00     0.010 A 
ATOM     94  C   UNL     1      14.573 -12.918   2.958  1.00  0.00     0.010 A 
ATOM     95  C   UNL     1      17.364 -12.704   2.963  1.00  0.00     0.020 A 
ATOM     96  C   UNL     1      15.356 -14.072   3.032  1.00  0.00     0.020 A 
ATOM     97  C   UNL     1      16.748 -13.958   3.021  1.00  0.00     0.054 A 
BRANCH  97  98
ATOM     98  S   UNL     1      17.787 -15.441   3.131  1.00  0.00     0.124 S 
ATOM     99  O   UNL     1      18.255 -15.586   1.755  1.00  0.00    -0.237 OA
ATOM    100  O   UNL     1      18.804 -15.051   4.104  1.00  0.00    -0.237 OA
ATOM    101  O   UNL     1      16.863 -16.477   3.588  1.00  0.00    -0.744 OA
ENDBRANCH  97  98
ENDBRANCH  71  92
ENDBRANCH  45  46
ENDBRANCH  38  40
ENDBRANCH  37  38
ENDBRANCH  36  37
ENDBRANCH   1  36
TORSDOF 20
