REMARK SMILES C[C@@H]1c2ccccc2C(C)(C)C[C@H]2c3cccc(C(=O)OCCOC(=O)c4ccc(-c5c6nc(c(-c7ccc(S(=O)(=O)[O-])cc7)c7ccc([nH]7)c(-c7ccc(S(=O)(=O)[O-])cc7)c7nc(c(-c8ccc(S(=O)(=O)[O-])cc8)c8ccc5[nH]8)C=C7)C=C6)cc4)c3C(=O)N12
REMARK SMILES IDX 22 1 21 2 19 3 20 4 18 5 90 6 13 7 88 8 14 9 87 10 89 11
REMARK SMILES IDX 15 12 16 13 17 14 2 15 1 16 3 17 4 18 8 19 5 20 7 21 6 22
REMARK SMILES IDX 9 23 10 24 11 25 12 27 23 29 24 30 25 31 26 32 27 33 28 34
REMARK SMILES IDX 86 35 29 36 85 37 30 38 31 39 32 40 79 41 33 42 84 43 78 44
REMARK SMILES IDX 80 45 34 46 83 47 77 48 76 49 35 51 65 52 46 53 64 54 47 55
REMARK SMILES IDX 50 56 63 57 81 58 48 59 49 60 62 62 82 63 51 64 36 65 37 66
REMARK SMILES IDX 45 67 38 68 44 69 39 70 40 71 41 72 42 73 43 74 66 75 67 76
REMARK SMILES IDX 75 77 68 78 74 79 69 80 70 81 71 82 72 83 73 84 52 85 53 86
REMARK SMILES IDX 61 87 54 88 60 89 55 90 56 91 57 92 58 93 59 94
REMARK H PARENT 80 50 50 61
REMARK Flexibility Score: 80.00
ROOT
ATOM      1  C   UNL     1       6.567   1.906   0.387  1.00  0.00     0.275 C 
ENDROOT
BRANCH   1   2
ATOM      2  O   UNL     1       5.565   2.935   0.314  1.00  0.00    -0.458 OA
BRANCH   2   3
ATOM      3  C   UNL     1       4.832   3.067   1.439  1.00  0.00     0.339 C 
ATOM      4  O   UNL     1       4.950   2.454   2.488  1.00  0.00    -0.246 OA
BRANCH   3   5
ATOM      5  C   UNL     1       3.848   4.134   1.298  1.00  0.00     0.073 A 
ATOM      6  N   UNL     1       0.665   2.892   0.120  1.00  0.00    -0.325 N 
ATOM      7  C   UNL     1       0.235   4.160   0.712  1.00  0.00     0.118 C 
ATOM      8  C   UNL     1       1.980   2.591   0.437  1.00  0.00     0.256 C 
ATOM      9  C   UNL     1       1.526   4.755   1.163  1.00  0.00    -0.012 A 
ATOM     10  C   UNL     1       2.541   3.812   1.032  1.00  0.00     0.059 A 
ATOM     11  O   UNL     1       2.607   1.585   0.194  1.00  0.00    -0.269 OA
ATOM     12  C   UNL     1       1.793   6.058   1.554  1.00  0.00     0.007 A 
ATOM     13  C   UNL     1       3.123   6.417   1.767  1.00  0.00     0.001 A 
ATOM     14  C   UNL     1       4.146   5.465   1.624  1.00  0.00     0.016 A 
BRANCH   6  15
ATOM     15  C   UNL     1      -0.249   2.069  -0.691  1.00  0.00     0.113 C 
ATOM     16  C   UNL     1       0.460   1.363  -1.859  1.00  0.00     0.036 C 
BRANCH  15  17
ATOM     17  C   UNL     1      -1.464   2.929  -1.083  1.00  0.00    -0.022 A 
ATOM     18  C   UNL     1      -1.564   3.407  -2.410  1.00  0.00     0.006 A 
ATOM     19  C   UNL     1      -2.330   3.479  -0.079  1.00  0.00    -0.037 A 
ATOM     20  C   UNL     1      -2.453   4.421  -2.754  1.00  0.00     0.000 A 
ATOM     21  C   UNL     1      -3.231   4.492  -0.476  1.00  0.00     0.004 A 
ATOM     22  C   UNL     1      -3.280   4.967  -1.787  1.00  0.00     0.000 A 
BRANCH  19  23
ATOM     23  C   UNL     1      -2.097   3.216   1.438  1.00  0.00    -0.008 CG0
ATOM     24  C   UNL     1      -3.257   3.740   2.331  1.00  0.00     0.016 C 
ATOM     25  C   UNL     1      -2.002   1.710   1.808  1.00  0.00     0.016 C 
ATOM     26  G   UNL     1      -0.789   3.975   1.851  1.00  0.00     0.000 G0
ENDBRANCH  19  23
ENDBRANCH  15  17
ENDBRANCH   6  15
BRANCH   7  27
ATOM     27  C   UNL     1      -0.789   3.975   1.851  1.00  0.00     0.041 CG0
ATOM     28  G   UNL     1      -2.097   3.216   1.438  1.00  0.00     0.000 G0
ENDBRANCH   7  27
ENDBRANCH   3   5
ENDBRANCH   2   3
ENDBRANCH   1   2
BRANCH   1  29
ATOM     29  C   UNL     1       7.941   2.491   0.722  1.00  0.00     0.275 C 
BRANCH  29  30
ATOM     30  O   UNL     1       7.991   3.001   2.067  1.00  0.00    -0.458 OA
BRANCH  30  31
ATOM     31  C   UNL     1       7.733   4.322   2.193  1.00  0.00     0.338 C 
ATOM     32  O   UNL     1       7.516   5.124   1.299  1.00  0.00    -0.246 OA
BRANCH  31  33
ATOM     33  C   UNL     1       7.664   4.683   3.616  1.00  0.00     0.060 A 
ATOM     34  C   UNL     1       8.829   4.923   4.337  1.00  0.00     0.016 A 
ATOM     35  C   UNL     1       6.415   4.895   4.203  1.00  0.00     0.016 A 
ATOM     36  C   UNL     1       8.730   5.363   5.660  1.00  0.00     0.010 A 
ATOM     37  C   UNL     1       6.317   5.405   5.490  1.00  0.00     0.010 A 
ATOM     38  C   UNL     1       7.474   5.620   6.241  1.00  0.00    -0.014 A 
BRANCH  38  39
ATOM     39  C   UNL     1       7.358   6.118   7.632  1.00  0.00     0.031 A 
ATOM     40  C   UNL     1       6.718   5.265   8.693  1.00  0.00     0.074 A 
ATOM     41  C   UNL     1       7.810   7.353   7.923  1.00  0.00     0.049 A 
ATOM     42  N   UNL     1       6.606   5.505   9.974  1.00  0.00    -0.248 NA
ATOM     43  C   UNL     1       6.111   3.991   8.269  1.00  0.00     0.031 C 
ATOM     44  C   UNL     1       8.386   8.287   6.953  1.00  0.00     0.029 A 
ATOM     45  N   UNL     1       7.877   8.028   9.116  1.00  0.00    -0.354 N 
ATOM     46  C   UNL     1       5.926   4.415  10.505  1.00  0.00     0.074 A 
ATOM     47  C   UNL     1       5.592   3.543   9.404  1.00  0.00     0.031 C 
ATOM     48  C   UNL     1       8.811   9.383   7.600  1.00  0.00     0.029 A 
ATOM     49  C   UNL     1       8.505   9.249   9.021  1.00  0.00     0.049 A 
ATOM     50  H   UNL     1       7.511   7.674   9.958  1.00  0.00     0.167 HD
ATOM     51  C   UNL     1       5.641   4.152  11.800  1.00  0.00     0.031 A 
ATOM     52  C   UNL     1       8.823  10.148   9.974  1.00  0.00     0.031 A 
ATOM     53  C   UNL     1       6.004   5.022  12.888  1.00  0.00     0.049 A 
ATOM     54  C   UNL     1       8.494   9.833  11.407  1.00  0.00     0.074 A 
ATOM     55  C   UNL     1       5.828   4.812  14.244  1.00  0.00     0.029 A 
ATOM     56  N   UNL     1       6.615   6.259  12.748  1.00  0.00    -0.354 N 
ATOM     57  N   UNL     1       7.938   8.753  11.903  1.00  0.00    -0.248 NA
ATOM     58  C   UNL     1       8.846  10.845  12.412  1.00  0.00     0.031 C 
ATOM     59  C   UNL     1       6.266   5.951  14.919  1.00  0.00     0.029 A 
ATOM     60  C   UNL     1       6.789   6.840  13.992  1.00  0.00     0.049 A 
ATOM     61  H   UNL     1       6.885   6.663  11.892  1.00  0.00     0.167 HD
ATOM     62  C   UNL     1       7.891   8.946  13.278  1.00  0.00     0.074 A 
ATOM     63  C   UNL     1       8.492  10.239  13.539  1.00  0.00     0.031 C 
ATOM     64  C   UNL     1       7.392   8.127  14.236  1.00  0.00     0.031 A 
BRANCH  51  65
ATOM     65  C   UNL     1       4.938   2.863  12.141  1.00  0.00    -0.014 A 
ATOM     66  C   UNL     1       3.656   2.894  12.722  1.00  0.00     0.010 A 
ATOM     67  C   UNL     1       5.605   1.629  12.025  1.00  0.00     0.010 A 
ATOM     68  C   UNL     1       3.074   1.726  13.221  1.00  0.00     0.020 A 
ATOM     69  C   UNL     1       5.013   0.454  12.497  1.00  0.00     0.020 A 
ATOM     70  C   UNL     1       3.764   0.515  13.118  1.00  0.00     0.054 A 
BRANCH  70  71
ATOM     71  S   UNL     1       3.020  -0.979  13.829  1.00  0.00     0.124 S 
ATOM     72  O   UNL     1       3.191  -0.758  15.261  1.00  0.00    -0.237 OA
ATOM     73  O   UNL     1       1.645  -0.915  13.339  1.00  0.00    -0.237 OA
ATOM     74  O   UNL     1       3.821  -2.063  13.264  1.00  0.00    -0.744 OA
ENDBRANCH  70  71
ENDBRANCH  51  65
BRANCH  52  75
ATOM     75  C   UNL     1       9.562  11.384   9.593  1.00  0.00    -0.014 A 
ATOM     76  C   UNL     1       8.952  12.369   8.794  1.00  0.00     0.010 A 
ATOM     77  C   UNL     1      10.911  11.541   9.955  1.00  0.00     0.010 A 
ATOM     78  C   UNL     1       9.690  13.457   8.320  1.00  0.00     0.020 A 
ATOM     79  C   UNL     1      11.646  12.644   9.508  1.00  0.00     0.020 A 
ATOM     80  C   UNL     1      11.037  13.579   8.669  1.00  0.00     0.054 A 
BRANCH  80  81
ATOM     81  S   UNL     1      11.989  14.971   7.998  1.00  0.00     0.124 S 
ATOM     82  O   UNL     1      12.191  14.555   6.613  1.00  0.00    -0.237 OA
ATOM     83  O   UNL     1      11.082  16.099   8.190  1.00  0.00    -0.237 OA
ATOM     84  O   UNL     1      13.192  14.994   8.826  1.00  0.00    -0.744 OA
ENDBRANCH  80  81
ENDBRANCH  52  75
BRANCH  64  85
ATOM     85  C   UNL     1       7.456   8.584  15.670  1.00  0.00    -0.014 A 
ATOM     86  C   UNL     1       8.259   7.882  16.589  1.00  0.00     0.010 A 
ATOM     87  C   UNL     1       6.604   9.599  16.138  1.00  0.00     0.010 A 
ATOM     88  C   UNL     1       8.174   8.153  17.956  1.00  0.00     0.020 A 
ATOM     89  C   UNL     1       6.540   9.895  17.502  1.00  0.00     0.020 A 
ATOM     90  C   UNL     1       7.303   9.149  18.405  1.00  0.00     0.054 A 
BRANCH  90  91
ATOM     91  S   UNL     1       7.163   9.449  20.188  1.00  0.00     0.124 S 
ATOM     92  O   UNL     1       6.370   8.307  20.631  1.00  0.00    -0.237 OA
ATOM     93  O   UNL     1       8.558   9.454  20.623  1.00  0.00    -0.237 OA
ATOM     94  O   UNL     1       6.490  10.744  20.266  1.00  0.00    -0.744 OA
ENDBRANCH  90  91
ENDBRANCH  64  85
ENDBRANCH  38  39
ENDBRANCH  31  33
ENDBRANCH  30  31
ENDBRANCH  29  30
ENDBRANCH   1  29
TORSDOF 14
