REMARK SMILES Cc1cc(C)cc(CSc2cc(C(=O)OCCOC(=O)c3ccc(-c4c5nc(c(-c6ccc(S(=O)(=O)[O-])cc6)c6ccc([nH]6)c(-c6ccc(S(=O)(=O)[O-])cc6)c6nc(c(-c7ccc(S(=O)(=O)[O-])cc7)c7ccc4[nH]7)C=C6)C=C5)cc3)cc(Cl)n2)c1
REMARK SMILES IDX 16 1 15 2 13 3 14 4 12 5 10 6 11 7 84 8 82 9 81 10 83 11
REMARK SMILES IDX 9 12 8 13 7 14 1 15 2 16 3 17 85 18 4 19 5 20 6 21 17 22
REMARK SMILES IDX 18 23 19 24 20 25 21 26 22 27 80 28 23 29 79 30 24 31 25 32
REMARK SMILES IDX 26 33 73 34 27 35 78 36 72 37 74 38 28 39 77 40 71 41 70 42
REMARK SMILES IDX 29 44 59 45 40 46 58 47 41 48 44 49 57 50 75 51 42 52 43 53
REMARK SMILES IDX 56 55 76 56 45 57 30 58 31 59 39 60 32 61 38 62 33 63 34 64
REMARK SMILES IDX 35 65 36 66 37 67 60 68 61 69 69 70 62 71 68 72 63 73 64 74
REMARK SMILES IDX 65 75 66 76 67 77 46 78 47 79 55 80 48 81 54 82 49 83 50 84
REMARK SMILES IDX 51 85 52 86 53 87
REMARK H PARENT 74 43 44 54
REMARK Flexibility Score: inf
ROOT
ATOM      1  C   UNL     1       3.097  -4.753   7.679  1.00  0.00     0.275 C 
ENDROOT
BRANCH   1   2
ATOM      2  O   UNL     1       2.364  -3.822   6.858  1.00  0.00    -0.458 OA
BRANCH   2   3
ATOM      3  C   UNL     1       2.522  -3.955   5.518  1.00  0.00     0.338 C 
ATOM      4  O   UNL     1       3.256  -4.734   4.940  1.00  0.00    -0.246 OA
BRANCH   3   5
ATOM      5  C   UNL     1       1.557  -3.088   4.808  1.00  0.00     0.065 A 
ATOM      6  C   UNL     1      -0.050  -2.854   3.057  1.00  0.00     0.099 A 
ATOM      7  C   UNL     1       0.961  -3.585   3.650  1.00  0.00     0.051 A 
ATOM      8  N   UNL     1      -0.409  -1.632   3.491  1.00  0.00    -0.230 NA
ATOM      9  C   UNL     1       0.251  -1.143   4.560  1.00  0.00     0.131 A 
ATOM     10  C   UNL     1       1.214  -1.827   5.274  1.00  0.00     0.056 A 
ATOM     11  Cl  UNL     1      -0.194   0.453   5.003  1.00  0.00    -0.062 Cl
BRANCH   6  12
ATOM     12  S   UNL     1      -1.030  -3.615   1.782  1.00  0.00    -0.102 SA
BRANCH  12  13
ATOM     13  C   UNL     1      -0.086  -3.112   0.308  1.00  0.00     0.112 C 
BRANCH  13  14
ATOM     14  C   UNL     1      -0.043  -1.618   0.110  1.00  0.00    -0.037 A 
ATOM     15  C   UNL     1       2.536   1.182  -0.033  1.00  0.00     0.044 C 
ATOM     16  C   UNL     1       1.226   0.453  -0.041  1.00  0.00    -0.051 A 
ATOM     17  C   UNL     1       0.025   1.170  -0.126  1.00  0.00     0.006 A 
ATOM     18  C   UNL     1       1.183  -0.941   0.081  1.00  0.00     0.008 A 
ATOM     19  C   UNL     1      -1.209   0.510  -0.113  1.00  0.00    -0.051 A 
ATOM     20  C   UNL     1      -2.488   1.291  -0.154  1.00  0.00     0.044 C 
ATOM     21  C   UNL     1      -1.232  -0.883  -0.014  1.00  0.00     0.008 A 
ENDBRANCH  13  14
ENDBRANCH  12  13
ENDBRANCH   6  12
ENDBRANCH   3   5
ENDBRANCH   2   3
ENDBRANCH   1   2
BRANCH   1  22
ATOM     22  C   UNL     1       2.180  -5.845   8.234  1.00  0.00     0.275 C 
BRANCH  22  23
ATOM     23  O   UNL     1       1.766  -6.745   7.190  1.00  0.00    -0.458 OA
BRANCH  23  24
ATOM     24  C   UNL     1       0.503  -6.569   6.743  1.00  0.00     0.338 C 
ATOM     25  O   UNL     1      -0.312  -5.747   7.127  1.00  0.00    -0.246 OA
BRANCH  24  26
ATOM     26  C   UNL     1       0.244  -7.489   5.628  1.00  0.00     0.060 A 
ATOM     27  C   UNL     1       0.701  -7.135   4.362  1.00  0.00     0.016 A 
ATOM     28  C   UNL     1      -0.560  -8.613   5.795  1.00  0.00     0.016 A 
ATOM     29  C   UNL     1       0.270  -7.833   3.237  1.00  0.00     0.010 A 
ATOM     30  C   UNL     1      -0.900  -9.381   4.676  1.00  0.00     0.010 A 
ATOM     31  C   UNL     1      -0.519  -8.981   3.379  1.00  0.00    -0.014 A 
BRANCH  31  32
ATOM     32  C   UNL     1      -0.964  -9.761   2.189  1.00  0.00     0.031 A 
ATOM     33  C   UNL     1      -2.434 -10.003   1.958  1.00  0.00     0.074 A 
ATOM     34  C   UNL     1      -0.063 -10.280   1.329  1.00  0.00     0.049 A 
ATOM     35  N   UNL     1      -3.015 -10.864   1.164  1.00  0.00    -0.248 NA
ATOM     36  C   UNL     1      -3.371  -9.178   2.739  1.00  0.00     0.031 C 
ATOM     37  C   UNL     1       1.386 -10.072   1.381  1.00  0.00     0.029 A 
ATOM     38  N   UNL     1      -0.236 -11.104   0.242  1.00  0.00    -0.354 N 
ATOM     39  C   UNL     1      -4.380 -10.735   1.398  1.00  0.00     0.074 A 
ATOM     40  C   UNL     1      -4.541  -9.706   2.403  1.00  0.00     0.031 C 
ATOM     41  C   UNL     1       1.965 -10.730   0.365  1.00  0.00     0.029 A 
ATOM     42  C   UNL     1       0.945 -11.490  -0.348  1.00  0.00     0.049 A 
ATOM     43  H   UNL     1      -1.120 -11.391  -0.082  1.00  0.00     0.167 HD
ATOM     44  C   UNL     1      -5.403 -11.422   0.834  1.00  0.00     0.031 A 
ATOM     45  C   UNL     1       1.197 -12.398  -1.311  1.00  0.00     0.031 A 
ATOM     46  C   UNL     1      -5.234 -12.414  -0.195  1.00  0.00     0.049 A 
ATOM     47  C   UNL     1       0.056 -13.184  -1.891  1.00  0.00     0.074 A 
ATOM     48  C   UNL     1      -6.203 -13.167  -0.834  1.00  0.00     0.029 A 
ATOM     49  N   UNL     1      -4.016 -12.776  -0.750  1.00  0.00    -0.354 N 
ATOM     50  N   UNL     1      -1.222 -13.105  -1.607  1.00  0.00    -0.248 NA
ATOM     51  C   UNL     1       0.389 -14.192  -2.907  1.00  0.00     0.031 C 
ATOM     52  C   UNL     1      -5.568 -14.012  -1.749  1.00  0.00     0.029 A 
ATOM     53  C   UNL     1      -4.208 -13.747  -1.718  1.00  0.00     0.049 A 
ATOM     54  H   UNL     1      -3.143 -12.398  -0.494  1.00  0.00     0.167 HD
ATOM     55  C   UNL     1      -1.848 -14.037  -2.427  1.00  0.00     0.074 A 
ATOM     56  C   UNL     1      -0.811 -14.664  -3.220  1.00  0.00     0.031 C 
ATOM     57  C   UNL     1      -3.165 -14.343  -2.513  1.00  0.00     0.031 A 
BRANCH  44  58
ATOM     58  C   UNL     1      -6.794 -11.165   1.353  1.00  0.00    -0.014 A 
ATOM     59  C   UNL     1      -7.486  -9.977   1.060  1.00  0.00     0.010 A 
ATOM     60  C   UNL     1      -7.435 -12.157   2.120  1.00  0.00     0.010 A 
ATOM     61  C   UNL     1      -8.776  -9.769   1.558  1.00  0.00     0.020 A 
ATOM     62  C   UNL     1      -8.734 -11.965   2.597  1.00  0.00     0.020 A 
ATOM     63  C   UNL     1      -9.390 -10.762   2.328  1.00  0.00     0.054 A 
BRANCH  63  64
ATOM     64  S   UNL     1     -11.070 -10.475   2.951  1.00  0.00     0.124 S 
ATOM     65  O   UNL     1     -10.830  -9.530   4.039  1.00  0.00    -0.237 OA
ATOM     66  O   UNL     1     -11.758  -9.928   1.785  1.00  0.00    -0.237 OA
ATOM     67  O   UNL     1     -11.517 -11.802   3.367  1.00  0.00    -0.744 OA
ENDBRANCH  63  64
ENDBRANCH  44  58
BRANCH  45  68
ATOM     68  C   UNL     1       2.601 -12.651  -1.738  1.00  0.00    -0.014 A 
ATOM     69  C   UNL     1       3.047 -12.246  -3.007  1.00  0.00     0.010 A 
ATOM     70  C   UNL     1       3.511 -13.268  -0.858  1.00  0.00     0.010 A 
ATOM     71  C   UNL     1       4.376 -12.455  -3.390  1.00  0.00     0.020 A 
ATOM     72  C   UNL     1       4.846 -13.452  -1.225  1.00  0.00     0.020 A 
ATOM     73  C   UNL     1       5.269 -13.052  -2.494  1.00  0.00     0.054 A 
BRANCH  73  74
ATOM     74  S   UNL     1       7.005 -13.248  -2.982  1.00  0.00     0.124 S 
ATOM     75  O   UNL     1       6.937 -14.384  -3.895  1.00  0.00    -0.237 OA
ATOM     76  O   UNL     1       7.309 -11.958  -3.598  1.00  0.00    -0.237 OA
ATOM     77  O   UNL     1       7.689 -13.500  -1.716  1.00  0.00    -0.744 OA
ENDBRANCH  73  74
ENDBRANCH  45  68
BRANCH  57  78
ATOM     78  C   UNL     1      -3.579 -15.358  -3.541  1.00  0.00    -0.014 A 
ATOM     79  C   UNL     1      -3.395 -16.734  -3.323  1.00  0.00     0.010 A 
ATOM     80  C   UNL     1      -4.255 -14.927  -4.697  1.00  0.00     0.010 A 
ATOM     81  C   UNL     1      -3.877 -17.663  -4.249  1.00  0.00     0.020 A 
ATOM     82  C   UNL     1      -4.756 -15.853  -5.614  1.00  0.00     0.020 A 
ATOM     83  C   UNL     1      -4.560 -17.216  -5.385  1.00  0.00     0.054 A 
BRANCH  83  84
ATOM     84  S   UNL     1      -5.255 -18.443  -6.526  1.00  0.00     0.124 S 
ATOM     85  O   UNL     1      -4.064 -18.918  -7.225  1.00  0.00    -0.237 OA
ATOM     86  O   UNL     1      -5.879 -19.406  -5.622  1.00  0.00    -0.237 OA
ATOM     87  O   UNL     1      -6.189 -17.669  -7.341  1.00  0.00    -0.744 OA
ENDBRANCH  83  84
ENDBRANCH  57  78
ENDBRANCH  31  32
ENDBRANCH  24  26
ENDBRANCH  23  24
ENDBRANCH  22  23
ENDBRANCH   1  22
TORSDOF 17
