REMARK SMILES CCOc1ccccc1[C@H]1CC(C(=O)OCCOC(=O)c2ccc(-c3c4nc(c(-c5ccc(S(=O)(=O)[O-])cc5)c5ccc([nH]5)c(-c5ccc(S(=O)(=O)[O-])cc5)c5nc(c(-c6ccc(S(=O)(=O)[O-])cc6)c6ccc3[nH]6)C=C5)C=C4)cc2)=Nc2c(C(=O)Nc3ccccc3)cnn21
REMARK SMILES IDX 16 1 15 2 13 3 14 4 12 5 10 6 11 7 95 8 82 9 94 10 81 11
REMARK SMILES IDX 83 12 93 13 9 14 4 15 5 16 6 17 8 18 7 19 3 20 2 21 1 22
REMARK SMILES IDX 84 23 85 24 86 25 87 27 88 28 92 29 89 30 91 31 90 32 17 33
REMARK SMILES IDX 18 34 19 35 20 36 21 37 22 38 80 39 23 40 79 41 24 42 25 43
REMARK SMILES IDX 26 44 73 45 27 46 78 47 72 48 74 49 28 50 77 51 71 52 70 53
REMARK SMILES IDX 29 55 59 56 40 57 58 58 41 59 44 60 57 61 75 62 42 63 43 64
REMARK SMILES IDX 56 66 76 67 45 68 30 69 31 70 39 71 32 72 38 73 33 74 34 75
REMARK SMILES IDX 35 76 36 77 37 78 60 79 61 80 69 81 62 82 68 83 63 84 64 85
REMARK SMILES IDX 65 86 66 87 67 88 46 89 47 90 55 91 48 92 54 93 49 94 50 95
REMARK SMILES IDX 51 96 52 97 53 98
REMARK H PARENT 86 26 74 54 44 65
REMARK Flexibility Score: inf
ROOT
ATOM      1  C   UNL     1      -1.263  -4.468   1.030  1.00  0.00     0.275 C 
ENDROOT
BRANCH   1   2
ATOM      2  O   UNL     1      -0.207  -3.505   0.721  1.00  0.00    -0.458 OA
BRANCH   2   3
ATOM      3  C   UNL     1      -0.225  -2.907  -0.511  1.00  0.00     0.352 C 
ATOM      4  O   UNL     1      -0.925  -3.225  -1.453  1.00  0.00    -0.245 OA
BRANCH   3   5
ATOM      5  C   UNL     1       0.740  -1.672  -0.540  1.00  0.00     0.130 C 
ATOM      6  C   UNL     1       3.295  -1.005  -0.245  1.00  0.00     0.150 C 
ATOM      7  C   UNL     1       2.127  -1.986  -0.024  1.00  0.00     0.096 C 
ATOM      8  N   UNL     1       2.864   0.288  -0.734  1.00  0.00    -0.239 N 
ATOM      9  C   UNL     1       1.050   0.606  -0.716  1.00  0.00     0.164 A 
ATOM     10  N   UNL     1       3.809   1.894  -0.727  1.00  0.00    -0.178 NA
ATOM     11  N   UNL     1       0.259  -0.499  -0.877  1.00  0.00    -0.225 NA
ATOM     12  C   UNL     1       0.843   2.388  -0.572  1.00  0.00     0.104 A 
ATOM     13  C   UNL     1       2.633   3.160  -0.632  1.00  0.00     0.151 A 
BRANCH   6  14
ATOM     14  C   UNL     1       4.041  -0.888   1.058  1.00  0.00     0.019 A 
ATOM     15  C   UNL     1       4.096   0.292   1.800  1.00  0.00     0.124 A 
ATOM     16  C   UNL     1       4.780   0.306   3.021  1.00  0.00     0.047 A 
ATOM     17  C   UNL     1       5.373  -0.852   3.530  1.00  0.00     0.004 A 
ATOM     18  C   UNL     1       4.659  -2.050   1.577  1.00  0.00     0.010 A 
ATOM     19  C   UNL     1       5.308  -2.036   2.808  1.00  0.00     0.001 A 
BRANCH  15  20
ATOM     20  O   UNL     1       3.603   1.501   1.399  1.00  0.00    -0.494 OA
BRANCH  20  21
ATOM     21  C   UNL     1       2.332   1.612   0.466  1.00  0.00     0.226 C 
ATOM     22  C   UNL     1       2.246   1.706  -1.787  1.00  0.00     0.049 C 
ENDBRANCH  20  21
ENDBRANCH  15  20
ENDBRANCH   6  14
BRANCH  12  23
ATOM     23  C   UNL     1      -0.328   3.296  -0.514  1.00  0.00     0.261 C 
ATOM     24  O   UNL     1      -0.210   4.473  -0.849  1.00  0.00    -0.269 OA
ATOM     25  N   UNL     1      -1.567   2.842  -0.123  1.00  0.00    -0.322 N 
ATOM     26  H   UNL     1      -2.349   3.408  -0.319  1.00  0.00     0.170 HD
BRANCH  25  27
ATOM     27  C   UNL     1      -1.782   1.643   0.528  1.00  0.00     0.041 A 
ATOM     28  C   UNL     1      -2.755   0.783   0.019  1.00  0.00     0.026 A 
ATOM     29  C   UNL     1      -0.886   1.264   1.528  1.00  0.00     0.026 A 
ATOM     30  C   UNL     1      -2.701  -0.542   0.382  1.00  0.00     0.002 A 
ATOM     31  C   UNL     1      -0.767  -0.071   1.823  1.00  0.00     0.002 A 
ATOM     32  C   UNL     1      -1.685  -0.937   1.238  1.00  0.00     0.000 A 
ENDBRANCH  25  27
ENDBRANCH  12  23
ENDBRANCH   3   5
ENDBRANCH   2   3
ENDBRANCH   1   2
BRANCH   1  33
ATOM     33  C   UNL     1      -1.698  -4.458   2.521  1.00  0.00     0.275 C 
BRANCH  33  34
ATOM     34  O   UNL     1      -2.561  -3.359   2.883  1.00  0.00    -0.458 OA
BRANCH  34  35
ATOM     35  C   UNL     1      -1.996  -2.445   3.714  1.00  0.00     0.338 C 
ATOM     36  O   UNL     1      -0.834  -2.435   4.089  1.00  0.00    -0.246 OA
BRANCH  35  37
ATOM     37  C   UNL     1      -2.966  -1.401   4.105  1.00  0.00     0.060 A 
ATOM     38  C   UNL     1      -2.508  -0.085   4.233  1.00  0.00     0.016 A 
ATOM     39  C   UNL     1      -4.040  -1.821   4.858  1.00  0.00     0.016 A 
ATOM     40  C   UNL     1      -2.693   0.620   5.375  1.00  0.00     0.010 A 
ATOM     41  C   UNL     1      -4.438  -0.994   5.875  1.00  0.00     0.010 A 
ATOM     42  C   UNL     1      -3.618   0.083   6.235  1.00  0.00    -0.014 A 
BRANCH  42  43
ATOM     43  C   UNL     1      -3.974   0.849   7.394  1.00  0.00     0.031 A 
ATOM     44  C   UNL     1      -4.671   2.096   6.936  1.00  0.00     0.074 A 
ATOM     45  C   UNL     1      -3.740   0.277   8.598  1.00  0.00     0.049 A 
ATOM     46  N   UNL     1      -4.234   3.309   7.035  1.00  0.00    -0.248 NA
ATOM     47  C   UNL     1      -5.785   1.988   5.953  1.00  0.00     0.031 C 
ATOM     48  C   UNL     1      -3.082  -1.004   8.919  1.00  0.00     0.029 A 
ATOM     49  N   UNL     1      -4.170   0.668   9.824  1.00  0.00    -0.354 N 
ATOM     50  C   UNL     1      -5.240   4.103   6.486  1.00  0.00     0.074 A 
ATOM     51  C   UNL     1      -5.973   3.258   5.594  1.00  0.00     0.031 C 
ATOM     52  C   UNL     1      -3.430  -1.405  10.168  1.00  0.00     0.029 A 
ATOM     53  C   UNL     1      -4.210  -0.356  10.790  1.00  0.00     0.049 A 
ATOM     54  H   UNL     1      -4.434   1.595  10.023  1.00  0.00     0.167 HD
ATOM     55  C   UNL     1      -5.652   5.214   7.157  1.00  0.00     0.031 A 
ATOM     56  C   UNL     1      -4.903  -0.288  11.968  1.00  0.00     0.031 A 
ATOM     57  C   UNL     1      -4.639   5.624   8.095  1.00  0.00     0.049 A 
ATOM     58  C   UNL     1      -5.164   1.167  12.188  1.00  0.00     0.074 A 
ATOM     59  C   UNL     1      -3.327   6.032   7.978  1.00  0.00     0.029 A 
ATOM     60  N   UNL     1      -4.797   5.138   9.371  1.00  0.00    -0.354 N 
ATOM     61  N   UNL     1      -4.187   2.016  12.381  1.00  0.00    -0.248 NA
ATOM     62  C   UNL     1      -6.364   1.713  11.562  1.00  0.00     0.031 C 
ATOM     63  C   UNL     1      -2.645   5.368   9.039  1.00  0.00     0.029 A 
ATOM     64  C   UNL     1      -3.583   4.723   9.848  1.00  0.00     0.049 A 
ATOM     65  H   UNL     1      -5.648   5.095   9.864  1.00  0.00     0.167 HD
ATOM     66  C   UNL     1      -4.454   3.059  11.501  1.00  0.00     0.074 A 
ATOM     67  C   UNL     1      -5.828   2.822  11.036  1.00  0.00     0.031 C 
ATOM     68  C   UNL     1      -3.440   3.798  10.951  1.00  0.00     0.031 A 
BRANCH  55  69
ATOM     69  C   UNL     1      -7.114   5.550   7.372  1.00  0.00    -0.014 A 
ATOM     70  C   UNL     1      -7.418   6.696   8.133  1.00  0.00     0.010 A 
ATOM     71  C   UNL     1      -8.179   4.655   7.122  1.00  0.00     0.010 A 
ATOM     72  C   UNL     1      -8.698   6.908   8.658  1.00  0.00     0.020 A 
ATOM     73  C   UNL     1      -9.470   4.873   7.614  1.00  0.00     0.020 A 
ATOM     74  C   UNL     1      -9.717   5.992   8.396  1.00  0.00     0.054 A 
BRANCH  74  75
ATOM     75  S   UNL     1     -11.358   6.278   9.100  1.00  0.00     0.124 S 
ATOM     76  O   UNL     1     -11.096   6.190  10.533  1.00  0.00    -0.237 OA
ATOM     77  O   UNL     1     -11.677   7.610   8.594  1.00  0.00    -0.237 OA
ATOM     78  O   UNL     1     -12.165   5.196   8.541  1.00  0.00    -0.744 OA
ENDBRANCH  74  75
ENDBRANCH  55  69
BRANCH  56  79
ATOM     79  C   UNL     1      -5.712  -1.352  12.646  1.00  0.00    -0.014 A 
ATOM     80  C   UNL     1      -6.206  -1.221  13.965  1.00  0.00     0.010 A 
ATOM     81  C   UNL     1      -6.261  -2.386  11.864  1.00  0.00     0.010 A 
ATOM     82  C   UNL     1      -7.240  -2.057  14.455  1.00  0.00     0.020 A 
ATOM     83  C   UNL     1      -7.292  -3.213  12.339  1.00  0.00     0.020 A 
ATOM     84  C   UNL     1      -7.795  -3.035  13.625  1.00  0.00     0.054 A 
BRANCH  84  85
ATOM     85  S   UNL     1      -9.251  -3.995  14.166  1.00  0.00     0.124 S 
ATOM     86  O   UNL     1      -8.701  -4.833  15.229  1.00  0.00    -0.237 OA
ATOM     87  O   UNL     1     -10.180  -2.956  14.599  1.00  0.00    -0.237 OA
ATOM     88  O   UNL     1      -9.654  -4.716  12.960  1.00  0.00    -0.744 OA
ENDBRANCH  84  85
ENDBRANCH  56  79
BRANCH  68  89
ATOM     89  C   UNL     1      -2.028   3.596  11.460  1.00  0.00    -0.014 A 
ATOM     90  C   UNL     1      -1.220   2.454  11.252  1.00  0.00     0.010 A 
ATOM     91  C   UNL     1      -1.439   4.726  12.045  1.00  0.00     0.010 A 
ATOM     92  C   UNL     1       0.124   2.441  11.673  1.00  0.00     0.020 A 
ATOM     93  C   UNL     1      -0.104   4.727  12.443  1.00  0.00     0.020 A 
ATOM     94  C   UNL     1       0.667   3.579  12.279  1.00  0.00     0.054 A 
BRANCH  94  95
ATOM     95  S   UNL     1       2.387   3.573  12.860  1.00  0.00     0.124 S 
ATOM     96  O   UNL     1       2.346   2.611  13.957  1.00  0.00    -0.237 OA
ATOM     97  O   UNL     1       3.130   3.147  11.677  1.00  0.00    -0.237 OA
ATOM     98  O   UNL     1       2.622   4.959  13.264  1.00  0.00    -0.744 OA
ENDBRANCH  94  95
ENDBRANCH  68  89
ENDBRANCH  42  43
ENDBRANCH  35  37
ENDBRANCH  34  35
ENDBRANCH  33  34
ENDBRANCH   1  33
TORSDOF 19
