REMARK SMILES O=C(OCCOC(=O)c1ccc(N2C(=O)N=C(O)/C(=C\c3cccs3)C2=O)cc1)c1ccc(-c2c3nc(c(-c4ccc(S(=O)(=O)[O-])cc4)c4ccc([nH]4)c(-c4ccc(S(=O)(=O)[O-])cc4)c4nc(c(-c5ccc(S(=O)(=O)[O-])cc5)c5ccc2[nH]5)C=C4)C=C3)cc1
REMARK SMILES IDX 4 1 3 2 2 3 1 4 30 5 31 6 89 7 32 8 88 9 33 10 34 11 35 12
REMARK SMILES IDX 82 13 36 14 87 15 81 16 83 17 37 18 86 19 80 20 79 21 38 23
REMARK SMILES IDX 68 24 49 25 67 26 50 27 53 28 66 29 84 30 51 31 52 32 65 34
REMARK SMILES IDX 85 35 54 36 39 37 40 38 48 39 41 40 47 41 42 42 43 43 44 44
REMARK SMILES IDX 45 45 46 46 69 47 70 48 78 49 71 50 77 51 72 52 73 53 74 54
REMARK SMILES IDX 75 55 76 56 55 57 56 58 64 59 57 60 63 61 58 62 59 63 60 64
REMARK SMILES IDX 61 65 62 66 5 67 6 68 7 69 8 70 9 71 10 72 29 73 11 74 28 75
REMARK SMILES IDX 12 76 13 77 14 78 26 79 15 80 16 81 19 82 27 83 17 84 20 85
REMARK SMILES IDX 18 86 21 88 22 89 25 90 23 91 24 92
REMARK H PARENT 83 22 53 33 18 87
REMARK Flexibility Score: inf
ROOT
ATOM      1  C   UNL     1       4.023  -1.270  -0.919  1.00  0.00     0.275 C 
ENDROOT
BRANCH   1   2
ATOM      2  O   UNL     1       2.960  -1.097   0.032  1.00  0.00    -0.458 OA
BRANCH   2   3
ATOM      3  C   UNL     1       2.803  -0.164   1.001  1.00  0.00     0.338 C 
ATOM      4  O   UNL     1       1.931  -0.345   1.850  1.00  0.00    -0.246 OA
BRANCH   3   5
ATOM      5  C   UNL     1       3.530   1.146   1.021  1.00  0.00     0.060 A 
ATOM      6  C   UNL     1       4.816   1.386   0.531  1.00  0.00     0.016 A 
ATOM      7  C   UNL     1       2.843   2.224   1.608  1.00  0.00     0.016 A 
ATOM      8  C   UNL     1       5.370   2.669   0.551  1.00  0.00     0.010 A 
ATOM      9  C   UNL     1       3.390   3.510   1.627  1.00  0.00     0.010 A 
ATOM     10  C   UNL     1       4.661   3.739   1.096  1.00  0.00    -0.014 A 
BRANCH  10  11
ATOM     11  C   UNL     1       5.320   5.053   1.251  1.00  0.00     0.031 A 
ATOM     12  C   UNL     1       5.864   5.419   2.598  1.00  0.00     0.074 A 
ATOM     13  C   UNL     1       5.479   5.873   0.196  1.00  0.00     0.049 A 
ATOM     14  N   UNL     1       6.569   6.463   2.943  1.00  0.00    -0.248 NA
ATOM     15  C   UNL     1       5.612   4.467   3.692  1.00  0.00     0.031 C 
ATOM     16  C   UNL     1       5.062   5.575  -1.172  1.00  0.00     0.029 A 
ATOM     17  N   UNL     1       6.035   7.123   0.106  1.00  0.00    -0.354 N 
ATOM     18  C   UNL     1       6.875   6.274   4.285  1.00  0.00     0.074 A 
ATOM     19  C   UNL     1       6.228   5.053   4.706  1.00  0.00     0.031 C 
ATOM     20  C   UNL     1       5.336   6.628  -1.960  1.00  0.00     0.029 A 
ATOM     21  C   UNL     1       5.960   7.671  -1.152  1.00  0.00     0.049 A 
ATOM     22  H   UNL     1       6.449   7.584   0.871  1.00  0.00     0.167 HD
ATOM     23  C   UNL     1       7.650   7.039   5.087  1.00  0.00     0.031 A 
ATOM     24  C   UNL     1       6.359   8.877  -1.601  1.00  0.00     0.031 A 
ATOM     25  C   UNL     1       8.233   8.284   4.672  1.00  0.00     0.049 A 
ATOM     26  C   UNL     1       7.092   9.785  -0.652  1.00  0.00     0.074 A 
ATOM     27  C   UNL     1       9.018   9.156   5.400  1.00  0.00     0.029 A 
ATOM     28  N   UNL     1       8.065   8.845   3.413  1.00  0.00    -0.354 N 
ATOM     29  N   UNL     1       7.418   9.570   0.602  1.00  0.00    -0.248 NA
ATOM     30  C   UNL     1       7.542  11.079  -1.181  1.00  0.00     0.031 C 
ATOM     31  C   UNL     1       9.278  10.274   4.598  1.00  0.00     0.029 A 
ATOM     32  C   UNL     1       8.705  10.069   3.351  1.00  0.00     0.049 A 
ATOM     33  H   UNL     1       7.563   8.432   2.673  1.00  0.00     0.167 HD
ATOM     34  C   UNL     1       8.153  10.679   1.000  1.00  0.00     0.074 A 
ATOM     35  C   UNL     1       8.215  11.567  -0.146  1.00  0.00     0.031 C 
ATOM     36  C   UNL     1       8.741  10.933   2.196  1.00  0.00     0.031 A 
BRANCH  23  37
ATOM     37  C   UNL     1       7.854   6.544   6.492  1.00  0.00    -0.014 A 
ATOM     38  C   UNL     1       8.634   5.399   6.749  1.00  0.00     0.010 A 
ATOM     39  C   UNL     1       7.209   7.187   7.562  1.00  0.00     0.010 A 
ATOM     40  C   UNL     1       8.711   4.870   8.039  1.00  0.00     0.020 A 
ATOM     41  C   UNL     1       7.305   6.676   8.859  1.00  0.00     0.020 A 
ATOM     42  C   UNL     1       8.033   5.505   9.084  1.00  0.00     0.054 A 
BRANCH  42  43
ATOM     43  S   UNL     1       8.116   4.777  10.744  1.00  0.00     0.124 S 
ATOM     44  O   UNL     1       7.237   3.618  10.608  1.00  0.00    -0.237 OA
ATOM     45  O   UNL     1       9.537   4.472  10.891  1.00  0.00    -0.237 OA
ATOM     46  O   UNL     1       7.617   5.840  11.613  1.00  0.00    -0.744 OA
ENDBRANCH  42  43
ENDBRANCH  23  37
BRANCH  24  47
ATOM     47  C   UNL     1       6.094   9.271  -3.012  1.00  0.00    -0.014 A 
ATOM     48  C   UNL     1       7.138   9.355  -3.949  1.00  0.00     0.010 A 
ATOM     49  C   UNL     1       4.778   9.541  -3.433  1.00  0.00     0.010 A 
ATOM     50  C   UNL     1       6.875   9.711  -5.276  1.00  0.00     0.020 A 
ATOM     51  C   UNL     1       4.507   9.877  -4.764  1.00  0.00     0.020 A 
ATOM     52  C   UNL     1       5.559   9.966  -5.676  1.00  0.00     0.054 A 
BRANCH  52  53
ATOM     53  S   UNL     1       5.238  10.376  -7.415  1.00  0.00     0.124 S 
ATOM     54  O   UNL     1       5.833  11.703  -7.530  1.00  0.00    -0.237 OA
ATOM     55  O   UNL     1       5.935   9.304  -8.121  1.00  0.00    -0.237 OA
ATOM     56  O   UNL     1       3.780  10.333  -7.512  1.00  0.00    -0.744 OA
ENDBRANCH  52  53
ENDBRANCH  24  47
BRANCH  36  57
ATOM     57  C   UNL     1       9.532  12.206   2.315  1.00  0.00    -0.014 A 
ATOM     58  C   UNL     1       8.894  13.455   2.406  1.00  0.00     0.010 A 
ATOM     59  C   UNL     1      10.934  12.138   2.406  1.00  0.00     0.010 A 
ATOM     60  C   UNL     1       9.650  14.619   2.563  1.00  0.00     0.020 A 
ATOM     61  C   UNL     1      11.690  13.296   2.591  1.00  0.00     0.020 A 
ATOM     62  C   UNL     1      11.043  14.532   2.655  1.00  0.00     0.054 A 
BRANCH  62  63
ATOM     63  S   UNL     1      11.997  16.051   2.915  1.00  0.00     0.124 S 
ATOM     64  O   UNL     1      11.958  16.663   1.589  1.00  0.00    -0.237 OA
ATOM     65  O   UNL     1      11.229  16.741   3.948  1.00  0.00    -0.237 OA
ATOM     66  O   UNL     1      13.309  15.567   3.340  1.00  0.00    -0.744 OA
ENDBRANCH  62  63
ENDBRANCH  36  57
ENDBRANCH  10  11
ENDBRANCH   3   5
ENDBRANCH   2   3
ENDBRANCH   1   2
BRANCH   1  67
ATOM     67  C   UNL     1       3.826  -0.530  -2.246  1.00  0.00     0.275 C 
BRANCH  67  68
ATOM     68  O   UNL     1       3.363   0.819  -2.097  1.00  0.00    -0.458 OA
BRANCH  68  69
ATOM     69  C   UNL     1       2.016   0.975  -2.187  1.00  0.00     0.338 C 
ATOM     70  O   UNL     1       1.191   0.101  -2.397  1.00  0.00    -0.246 OA
BRANCH  69  71
ATOM     71  C   UNL     1       1.654   2.366  -1.855  1.00  0.00     0.060 A 
ATOM     72  C   UNL     1       0.716   2.578  -0.844  1.00  0.00     0.018 A 
ATOM     73  C   UNL     1       2.221   3.453  -2.518  1.00  0.00     0.018 A 
ATOM     74  C   UNL     1       0.403   3.881  -0.444  1.00  0.00     0.028 A 
ATOM     75  C   UNL     1       1.858   4.758  -2.149  1.00  0.00     0.028 A 
ATOM     76  C   UNL     1       0.973   4.994  -1.084  1.00  0.00     0.054 A 
BRANCH  76  77
ATOM     77  N   UNL     1       0.631   6.332  -0.663  1.00  0.00    -0.226 N 
ATOM     78  C   UNL     1       0.561   6.603   0.715  1.00  0.00     0.358 C 
ATOM     79  C   UNL     1       0.371   7.291  -1.639  1.00  0.00     0.272 C 
ATOM     80  O   UNL     1       0.926   5.788   1.561  1.00  0.00    -0.245 OA
ATOM     81  N   UNL     1       0.074   7.803   1.145  1.00  0.00    -0.156 NA
ATOM     82  C   UNL     1      -0.070   8.632  -1.138  1.00  0.00     0.104 C 
ATOM     83  O   UNL     1       0.401   7.073  -2.852  1.00  0.00    -0.268 OA
ATOM     84  C   UNL     1      -0.217   8.731   0.316  1.00  0.00     0.228 C 
ATOM     85  C   UNL     1      -0.318   9.540  -2.107  1.00  0.00     0.038 C 
BRANCH  84  86
ATOM     86  O   UNL     1      -0.728   9.840   0.867  1.00  0.00    -0.493 OA
ATOM     87  H   UNL     1      -0.821   9.902   1.797  1.00  0.00     0.295 HD
ENDBRANCH  84  86
BRANCH  85  88
ATOM     88  C   UNL     1      -0.790  10.860  -1.910  1.00  0.00     0.028 A 
ATOM     89  C   UNL     1      -0.096  11.996  -1.536  1.00  0.00     0.020 A 
ATOM     90  S   UNL     1      -2.453  11.213  -2.167  1.00  0.00    -0.144 S 
ATOM     91  C   UNL     1      -0.937  13.142  -1.428  1.00  0.00     0.012 A 
ATOM     92  C   UNL     1      -2.244  12.855  -1.750  1.00  0.00     0.065 A 
ENDBRANCH  85  88
ENDBRANCH  76  77
ENDBRANCH  69  71
ENDBRANCH  68  69
ENDBRANCH  67  68
ENDBRANCH   1  67
TORSDOF 17
