REMARK SMILES CC[C@@H](C(=O)Nc1ccc(OC(C)=O)cc1C(=O)OCCOC(=O)c1ccc(-c2c3nc(c(-c4ccc(S(=O)(=O)[O-])cc4)c4ccc([nH]4)c(-c4ccc(S(=O)(=O)[O-])cc4)c4nc(c(-c5ccc(S(=O)(=O)[O-])cc5)c5ccc2[nH]5)C=C4)C=C3)cc1)c1ccccc1
REMARK SMILES IDX 20 1 19 2 17 3 18 4 16 5 7 6 8 7 9 8 15 9 10 10 6 11 4 12
REMARK SMILES IDX 5 13 3 15 2 16 1 17 85 18 86 19 90 20 87 21 89 22 88 23
REMARK SMILES IDX 11 24 12 25 13 26 14 27 21 28 22 29 23 30 24 31 25 32 26 33
REMARK SMILES IDX 84 34 27 35 83 36 28 37 29 38 30 39 77 40 31 41 82 42 76 43
REMARK SMILES IDX 78 44 32 45 81 46 75 47 74 48 33 50 63 51 44 52 62 53 45 54
REMARK SMILES IDX 48 55 61 56 79 57 46 58 47 59 60 61 80 62 49 63 34 64 35 65
REMARK SMILES IDX 43 66 36 67 42 68 37 69 38 70 39 71 40 72 41 73 64 74 65 75
REMARK SMILES IDX 73 76 66 77 72 78 67 79 68 80 69 81 70 82 71 83 50 84 51 85
REMARK SMILES IDX 59 86 52 87 58 88 53 89 54 90 55 91 56 92 57 93
REMARK H PARENT 6 14 78 49 48 60
REMARK Flexibility Score: inf
ROOT
ATOM      1  C   UNL     1      -1.966   1.265  -0.108  1.00  0.00     0.275 C 
ENDROOT
BRANCH   1   2
ATOM      2  O   UNL     1      -1.169   0.424  -0.976  1.00  0.00    -0.458 OA
BRANCH   2   3
ATOM      3  C   UNL     1      -0.014   0.031  -0.405  1.00  0.00     0.340 C 
ATOM      4  O   UNL     1       0.252   0.118   0.786  1.00  0.00    -0.246 OA
BRANCH   3   5
ATOM      5  C   UNL     1       1.025  -0.448  -1.326  1.00  0.00     0.087 A 
ATOM      6  C   UNL     1       1.663   0.393  -2.249  1.00  0.00     0.056 A 
ATOM      7  C   UNL     1       2.741  -0.109  -3.001  1.00  0.00     0.031 A 
ATOM      8  C   UNL     1       3.316  -1.341  -2.680  1.00  0.00     0.049 A 
ATOM      9  C   UNL     1       1.545  -1.731  -1.090  1.00  0.00     0.065 A 
ATOM     10  C   UNL     1       2.743  -2.108  -1.678  1.00  0.00     0.131 A 
BRANCH   6  11
ATOM     11  N   UNL     1       1.336   1.740  -2.488  1.00  0.00    -0.325 N 
ATOM     12  C   UNL     1       0.827   2.671  -1.617  1.00  0.00     0.231 C 
ATOM     13  O   UNL     1      -0.210   3.239  -1.981  1.00  0.00    -0.274 OA
ATOM     14  H   UNL     1       1.494   2.059  -3.406  1.00  0.00     0.169 HD
BRANCH  12  15
ATOM     15  C   UNL     1       1.731   3.231  -0.459  1.00  0.00     0.108 C 
BRANCH  15  16
ATOM     16  C   UNL     1       2.202   2.362   0.723  1.00  0.00     0.015 C 
ATOM     17  C   UNL     1       3.317   1.360   0.488  1.00  0.00     0.005 C 
ENDBRANCH  15  16
BRANCH  15  18
ATOM     18  C   UNL     1       1.062   4.498   0.121  1.00  0.00    -0.036 A 
ATOM     19  C   UNL     1       1.205   5.720  -0.553  1.00  0.00     0.004 A 
ATOM     20  C   UNL     1       0.288   4.474   1.298  1.00  0.00     0.004 A 
ATOM     21  C   UNL     1       0.633   6.886  -0.042  1.00  0.00     0.000 A 
ATOM     22  C   UNL     1      -0.266   5.644   1.817  1.00  0.00     0.000 A 
ATOM     23  C   UNL     1      -0.088   6.851   1.150  1.00  0.00     0.000 A 
ENDBRANCH  15  18
ENDBRANCH  12  15
ENDBRANCH   6  11
BRANCH  10  24
ATOM     24  O   UNL     1       3.380  -3.310  -1.306  1.00  0.00    -0.427 OA
BRANCH  24  25
ATOM     25  C   UNL     1       4.067  -3.546  -0.107  1.00  0.00     0.308 C 
ATOM     26  C   UNL     1       4.021  -2.487   0.961  1.00  0.00     0.139 C 
ATOM     27  O   UNL     1       4.724  -4.574   0.035  1.00  0.00    -0.252 OA
ENDBRANCH  24  25
ENDBRANCH  10  24
ENDBRANCH   3   5
ENDBRANCH   2   3
ENDBRANCH   1   2
BRANCH   1  28
ATOM     28  C   UNL     1      -2.922   0.521   0.835  1.00  0.00     0.275 C 
BRANCH  28  29
ATOM     29  O   UNL     1      -2.242  -0.319   1.792  1.00  0.00    -0.458 OA
BRANCH  29  30
ATOM     30  C   UNL     1      -2.316  -1.648   1.541  1.00  0.00     0.338 C 
ATOM     31  O   UNL     1      -2.929  -2.184   0.634  1.00  0.00    -0.246 OA
BRANCH  30  32
ATOM     32  C   UNL     1      -1.444  -2.432   2.440  1.00  0.00     0.060 A 
ATOM     33  C   UNL     1      -0.107  -2.550   2.083  1.00  0.00     0.016 A 
ATOM     34  C   UNL     1      -1.957  -3.272   3.425  1.00  0.00     0.016 A 
ATOM     35  C   UNL     1       0.697  -3.550   2.595  1.00  0.00     0.010 A 
ATOM     36  C   UNL     1      -1.121  -4.240   4.013  1.00  0.00     0.010 A 
ATOM     37  C   UNL     1       0.201  -4.412   3.565  1.00  0.00    -0.014 A 
BRANCH  37  38
ATOM     38  C   UNL     1       1.071  -5.543   3.970  1.00  0.00     0.031 A 
ATOM     39  C   UNL     1       0.714  -6.937   3.539  1.00  0.00     0.074 A 
ATOM     40  C   UNL     1       2.258  -5.303   4.563  1.00  0.00     0.049 A 
ATOM     41  N   UNL     1       1.298  -8.067   3.841  1.00  0.00    -0.248 NA
ATOM     42  C   UNL     1      -0.445  -7.079   2.641  1.00  0.00     0.031 C 
ATOM     43  C   UNL     1       2.791  -3.975   4.886  1.00  0.00     0.029 A 
ATOM     44  N   UNL     1       3.251  -6.161   4.961  1.00  0.00    -0.354 N 
ATOM     45  C   UNL     1       0.545  -9.057   3.222  1.00  0.00     0.074 A 
ATOM     46  C   UNL     1      -0.525  -8.395   2.508  1.00  0.00     0.031 C 
ATOM     47  C   UNL     1       4.025  -4.108   5.396  1.00  0.00     0.029 A 
ATOM     48  C   UNL     1       4.332  -5.528   5.529  1.00  0.00     0.049 A 
ATOM     49  H   UNL     1       3.196  -7.138   4.850  1.00  0.00     0.167 HD
ATOM     50  C   UNL     1       0.719 -10.399   3.273  1.00  0.00     0.031 A 
ATOM     51  C   UNL     1       5.423  -6.036   6.136  1.00  0.00     0.031 A 
ATOM     52  C   UNL     1       1.801 -11.039   3.974  1.00  0.00     0.049 A 
ATOM     53  C   UNL     1       5.546  -7.531   6.256  1.00  0.00     0.074 A 
ATOM     54  C   UNL     1       2.041 -12.392   4.136  1.00  0.00     0.029 A 
ATOM     55  N   UNL     1       2.829 -10.370   4.621  1.00  0.00    -0.354 N 
ATOM     56  N   UNL     1       4.767  -8.465   5.764  1.00  0.00    -0.248 NA
ATOM     57  C   UNL     1       6.681  -8.041   7.038  1.00  0.00     0.031 C 
ATOM     58  C   UNL     1       3.179 -12.540   4.936  1.00  0.00     0.029 A 
ATOM     59  C   UNL     1       3.688 -11.280   5.213  1.00  0.00     0.049 A 
ATOM     60  H   UNL     1       2.933  -9.392   4.655  1.00  0.00     0.167 HD
ATOM     61  C   UNL     1       5.319  -9.674   6.174  1.00  0.00     0.074 A 
ATOM     62  C   UNL     1       6.517  -9.351   6.922  1.00  0.00     0.031 C 
ATOM     63  C   UNL     1       4.869 -10.936   5.965  1.00  0.00     0.031 A 
BRANCH  50  64
ATOM     64  C   UNL     1      -0.344 -11.261   2.648  1.00  0.00    -0.014 A 
ATOM     65  C   UNL     1      -0.472 -11.406   1.257  1.00  0.00     0.010 A 
ATOM     66  C   UNL     1      -1.224 -11.962   3.494  1.00  0.00     0.010 A 
ATOM     67  C   UNL     1      -1.481 -12.215   0.723  1.00  0.00     0.020 A 
ATOM     68  C   UNL     1      -2.216 -12.790   2.966  1.00  0.00     0.020 A 
ATOM     69  C   UNL     1      -2.348 -12.900   1.582  1.00  0.00     0.054 A 
BRANCH  69  70
ATOM     70  S   UNL     1      -3.633 -13.963   0.867  1.00  0.00     0.124 S 
ATOM     71  O   UNL     1      -4.568 -12.981   0.323  1.00  0.00    -0.237 OA
ATOM     72  O   UNL     1      -2.892 -14.740  -0.123  1.00  0.00    -0.237 OA
ATOM     73  O   UNL     1      -4.129 -14.726   2.009  1.00  0.00    -0.744 OA
ENDBRANCH  69  70
ENDBRANCH  50  64
BRANCH  51  74
ATOM     74  C   UNL     1       6.423  -5.130   6.772  1.00  0.00    -0.014 A 
ATOM     75  C   UNL     1       7.756  -5.088   6.328  1.00  0.00     0.010 A 
ATOM     76  C   UNL     1       6.043  -4.316   7.857  1.00  0.00     0.010 A 
ATOM     77  C   UNL     1       8.692  -4.269   6.971  1.00  0.00     0.020 A 
ATOM     78  C   UNL     1       6.964  -3.469   8.477  1.00  0.00     0.020 A 
ATOM     79  C   UNL     1       8.289  -3.464   8.041  1.00  0.00     0.054 A 
BRANCH  79  80
ATOM     80  S   UNL     1       9.507  -2.383   8.840  1.00  0.00     0.124 S 
ATOM     81  O   UNL     1      10.290  -3.334   9.622  1.00  0.00    -0.237 OA
ATOM     82  O   UNL     1      10.193  -1.781   7.700  1.00  0.00    -0.237 OA
ATOM     83  O   UNL     1       8.684  -1.459   9.619  1.00  0.00    -0.744 OA
ENDBRANCH  79  80
ENDBRANCH  51  74
BRANCH  63  84
ATOM     84  C   UNL     1       5.687 -12.059   6.543  1.00  0.00    -0.014 A 
ATOM     85  C   UNL     1       5.734 -12.287   7.930  1.00  0.00     0.010 A 
ATOM     86  C   UNL     1       6.393 -12.920   5.682  1.00  0.00     0.010 A 
ATOM     87  C   UNL     1       6.508 -13.328   8.449  1.00  0.00     0.020 A 
ATOM     88  C   UNL     1       7.142 -13.981   6.196  1.00  0.00     0.020 A 
ATOM     89  C   UNL     1       7.210 -14.166   7.578  1.00  0.00     0.054 A 
BRANCH  89  90
ATOM     90  S   UNL     1       8.190 -15.524   8.274  1.00  0.00     0.124 S 
ATOM     91  O   UNL     1       9.336 -14.815   8.835  1.00  0.00    -0.237 OA
ATOM     92  O   UNL     1       7.276 -16.113   9.250  1.00  0.00    -0.237 OA
ATOM     93  O   UNL     1       8.484 -16.367   7.118  1.00  0.00    -0.744 OA
ENDBRANCH  89  90
ENDBRANCH  63  84
ENDBRANCH  37  38
ENDBRANCH  30  32
ENDBRANCH  29  30
ENDBRANCH  28  29
ENDBRANCH   1  28
TORSDOF 20
