REMARK SMILES O=C(C[NH2+]C[C@@H]1CCCO1)OCCOC(=O)c1ccc(-c2c3nc(c(-c4ccc(S(=O)(=O)[O-])cc4)c4ccc([nH]4)c(-c4ccc(S(=O)(=O)[O-])cc4)c4nc(c(-c5ccc(S(=O)(=O)[O-])cc5)c5ccc2[nH]5)C=C4)C=C3)cc1
REMARK SMILES IDX 12 1 11 2 2 3 1 4 3 5 4 6 5 9 6 10 7 11 10 12 8 13 9 14
REMARK SMILES IDX 13 15 14 16 15 17 16 18 17 19 18 20 76 21 19 22 75 23 20 24
REMARK SMILES IDX 21 25 22 26 69 27 23 28 74 29 68 30 70 31 24 32 73 33 67 34
REMARK SMILES IDX 66 35 25 37 55 38 36 39 54 40 37 41 40 42 53 43 71 44 38 45
REMARK SMILES IDX 39 46 52 48 72 49 41 50 26 51 27 52 35 53 28 54 34 55 29 56
REMARK SMILES IDX 30 57 31 58 32 59 33 60 56 61 57 62 65 63 58 64 64 65 59 66
REMARK SMILES IDX 60 67 61 68 62 69 63 70 42 71 43 72 51 73 44 74 50 75 45 76
REMARK SMILES IDX 46 77 47 78 48 79 49 80
REMARK H PARENT 4 7 4 8 70 36 40 47
REMARK Flexibility Score: inf
ROOT
ATOM      1  C   UNL     1       4.498  -0.693  -0.651  1.00  0.00     0.274 C 
ENDROOT
BRANCH   1   2
ATOM      2  O   UNL     1       3.272  -1.185  -0.067  1.00  0.00    -0.458 OA
BRANCH   2   3
ATOM      3  C   UNL     1       2.709  -0.665   1.056  1.00  0.00     0.361 C 
ATOM      4  O   UNL     1       1.873  -1.306   1.691  1.00  0.00    -0.245 OA
BRANCH   3   5
ATOM      5  C   UNL     1       3.113   0.746   1.464  1.00  0.00     0.384 C 
BRANCH   5   6
ATOM      6  N   UNL     1       4.101   0.737   2.546  1.00  0.00    -0.335 N 
ATOM      7  H   UNL     1       4.665  -0.108   2.459  1.00  0.00     0.346 HD
ATOM      8  H   UNL     1       3.579   0.773   3.422  1.00  0.00     0.346 HD
BRANCH   6   9
ATOM      9  C   UNL     1       5.004   1.897   2.543  1.00  0.00     0.293 C 
BRANCH   9  10
ATOM     10  C   UNL     1       4.431   3.307   2.795  1.00  0.00     0.173 C 
ATOM     11  C   UNL     1       3.530   3.850   1.698  1.00  0.00     0.040 C 
ATOM     12  O   UNL     1       5.518   4.249   2.888  1.00  0.00    -0.372 OA
ATOM     13  C   UNL     1       4.004   5.262   1.440  1.00  0.00     0.031 C 
ATOM     14  C   UNL     1       4.978   5.533   2.553  1.00  0.00     0.161 C 
ENDBRANCH   9  10
ENDBRANCH   6   9
ENDBRANCH   5   6
ENDBRANCH   3   5
ENDBRANCH   2   3
ENDBRANCH   1   2
BRANCH   1  15
ATOM     15  C   UNL     1       4.250   0.041  -1.975  1.00  0.00     0.275 C 
BRANCH  15  16
ATOM     16  O   UNL     1       3.632   1.329  -1.777  1.00  0.00    -0.458 OA
BRANCH  16  17
ATOM     17  C   UNL     1       2.280   1.379  -1.934  1.00  0.00     0.338 C 
ATOM     18  O   UNL     1       1.556   0.457  -2.238  1.00  0.00    -0.246 OA
BRANCH  17  19
ATOM     19  C   UNL     1       1.781   2.718  -1.515  1.00  0.00     0.060 A 
ATOM     20  C   UNL     1       0.566   2.793  -0.820  1.00  0.00     0.016 A 
ATOM     21  C   UNL     1       2.502   3.887  -1.766  1.00  0.00     0.016 A 
ATOM     22  C   UNL     1       0.083   4.028  -0.359  1.00  0.00     0.010 A 
ATOM     23  C   UNL     1       2.023   5.116  -1.289  1.00  0.00     0.010 A 
ATOM     24  C   UNL     1       0.809   5.207  -0.579  1.00  0.00    -0.014 A 
BRANCH  24  25
ATOM     25  C   UNL     1       0.317   6.544  -0.121  1.00  0.00     0.031 A 
ATOM     26  C   UNL     1      -0.032   7.600  -1.141  1.00  0.00     0.074 A 
ATOM     27  C   UNL     1       0.258   6.873   1.188  1.00  0.00     0.049 A 
ATOM     28  N   UNL     1      -0.407   8.840  -0.950  1.00  0.00    -0.248 NA
ATOM     29  C   UNL     1       0.050   7.209  -2.558  1.00  0.00     0.031 C 
ATOM     30  C   UNL     1       0.542   5.984   2.312  1.00  0.00     0.029 A 
ATOM     31  N   UNL     1      -0.010   8.081   1.794  1.00  0.00    -0.354 N 
ATOM     32  C   UNL     1      -0.642   9.363  -2.215  1.00  0.00     0.074 A 
ATOM     33  C   UNL     1      -0.269   8.340  -3.168  1.00  0.00     0.031 C 
ATOM     34  C   UNL     1       0.541   6.692   3.454  1.00  0.00     0.029 A 
ATOM     35  C   UNL     1       0.208   8.081   3.153  1.00  0.00     0.049 A 
ATOM     36  H   UNL     1      -0.328   8.871   1.300  1.00  0.00     0.167 HD
ATOM     37  C   UNL     1      -1.174  10.560  -2.561  1.00  0.00     0.031 A 
ATOM     38  C   UNL     1       0.147   9.075   4.062  1.00  0.00     0.031 A 
ATOM     39  C   UNL     1      -1.551  11.591  -1.633  1.00  0.00     0.049 A 
ATOM     40  C   UNL     1      -0.337  10.440   3.650  1.00  0.00     0.074 A 
ATOM     41  C   UNL     1      -2.176  12.799  -1.896  1.00  0.00     0.029 A 
ATOM     42  N   UNL     1      -1.327  11.547  -0.268  1.00  0.00    -0.354 N 
ATOM     43  N   UNL     1      -0.679  10.867   2.460  1.00  0.00    -0.248 NA
ATOM     44  C   UNL     1      -0.502  11.438   4.719  1.00  0.00     0.031 C 
ATOM     45  C   UNL     1      -2.289  13.505  -0.693  1.00  0.00     0.029 A 
ATOM     46  C   UNL     1      -1.777  12.717   0.323  1.00  0.00     0.049 A 
ATOM     47  H   UNL     1      -0.910  10.796   0.212  1.00  0.00     0.167 HD
ATOM     48  C   UNL     1      -1.169  12.156   2.649  1.00  0.00     0.074 A 
ATOM     49  C   UNL     1      -1.058  12.447   4.062  1.00  0.00     0.031 C 
ATOM     50  C   UNL     1      -1.688  13.007   1.731  1.00  0.00     0.031 A 
BRANCH  37  51
ATOM     51  C   UNL     1      -1.428  10.792  -4.026  1.00  0.00    -0.014 A 
ATOM     52  C   UNL     1      -2.451  10.085  -4.686  1.00  0.00     0.010 A 
ATOM     53  C   UNL     1      -0.670  11.734  -4.741  1.00  0.00     0.010 A 
ATOM     54  C   UNL     1      -2.676  10.278  -6.049  1.00  0.00     0.020 A 
ATOM     55  C   UNL     1      -0.911  11.949  -6.101  1.00  0.00     0.020 A 
ATOM     56  C   UNL     1      -1.900  11.204  -6.750  1.00  0.00     0.054 A 
BRANCH  56  57
ATOM     57  S   UNL     1      -2.219  11.436  -8.520  1.00  0.00     0.124 S 
ATOM     58  O   UNL     1      -1.646  10.218  -9.088  1.00  0.00    -0.237 OA
ATOM     59  O   UNL     1      -3.676  11.528  -8.573  1.00  0.00    -0.237 OA
ATOM     60  O   UNL     1      -1.507  12.669  -8.841  1.00  0.00    -0.744 OA
ENDBRANCH  56  57
ENDBRANCH  37  51
BRANCH  38  61
ATOM     61  C   UNL     1       0.514   8.820   5.482  1.00  0.00    -0.014 A 
ATOM     62  C   UNL     1      -0.481   8.719   6.470  1.00  0.00     0.010 A 
ATOM     63  C   UNL     1       1.867   8.733   5.859  1.00  0.00     0.010 A 
ATOM     64  C   UNL     1      -0.130   8.576   7.815  1.00  0.00     0.020 A 
ATOM     65  C   UNL     1       2.221   8.569   7.202  1.00  0.00     0.020 A 
ATOM     66  C   UNL     1       1.220   8.509   8.173  1.00  0.00     0.054 A 
BRANCH  66  67
ATOM     67  S   UNL     1       1.648   8.319   9.927  1.00  0.00     0.124 S 
ATOM     68  O   UNL     1       1.336   9.641  10.460  1.00  0.00    -0.237 OA
ATOM     69  O   UNL     1       0.760   7.239  10.351  1.00  0.00    -0.237 OA
ATOM     70  O   UNL     1       3.067   7.974   9.896  1.00  0.00    -0.744 OA
ENDBRANCH  66  67
ENDBRANCH  38  61
BRANCH  50  71
ATOM     71  C   UNL     1      -2.253  14.313   2.224  1.00  0.00    -0.014 A 
ATOM     72  C   UNL     1      -1.423  15.354   2.674  1.00  0.00     0.010 A 
ATOM     73  C   UNL     1      -3.646  14.516   2.192  1.00  0.00     0.010 A 
ATOM     74  C   UNL     1      -1.976  16.563   3.108  1.00  0.00     0.020 A 
ATOM     75  C   UNL     1      -4.201  15.732   2.600  1.00  0.00     0.020 A 
ATOM     76  C   UNL     1      -3.363  16.744   3.069  1.00  0.00     0.054 A 
BRANCH  76  77
ATOM     77  S   UNL     1      -4.055  18.337   3.592  1.00  0.00     0.124 S 
ATOM     78  O   UNL     1      -3.955  18.250   5.046  1.00  0.00    -0.237 OA
ATOM     79  O   UNL     1      -3.159  19.301   2.958  1.00  0.00    -0.237 OA
ATOM     80  O   UNL     1      -5.415  18.316   3.057  1.00  0.00    -0.744 OA
ENDBRANCH  76  77
ENDBRANCH  50  71
ENDBRANCH  24  25
ENDBRANCH  17  19
ENDBRANCH  16  17
ENDBRANCH  15  16
ENDBRANCH   1  15
TORSDOF 17
