REMARK SMILES O=C(OCCOC(=O)c1cccn(CC[NH+]2CCCC2)c1=O)c1ccc(-c2c3nc(c(-c4ccc(S(=O)(=O)[O-])cc4)c4ccc([nH]4)c(-c4ccc(S(=O)(=O)[O-])cc4)c4nc(c(-c5ccc(S(=O)(=O)[O-])cc5)c5ccc2[nH]5)C=C4)C=C3)cc1
REMARK SMILES IDX 4 1 3 2 2 3 1 4 23 5 24 6 82 7 25 8 81 9 26 10 27 11 28 12
REMARK SMILES IDX 75 13 29 14 80 15 74 16 76 17 30 18 79 19 73 20 72 21 31 23
REMARK SMILES IDX 61 24 42 25 60 26 43 27 46 28 59 29 77 30 44 31 45 32 58 34
REMARK SMILES IDX 78 35 47 36 32 37 33 38 41 39 34 40 40 41 35 42 36 43 37 44
REMARK SMILES IDX 38 45 39 46 62 47 63 48 71 49 64 50 70 51 65 52 66 53 67 54
REMARK SMILES IDX 68 55 69 56 48 57 49 58 57 59 50 60 56 61 51 62 52 63 53 64
REMARK SMILES IDX 54 65 55 66 5 67 6 68 7 69 8 70 9 71 10 72 21 73 11 74 13 75
REMARK SMILES IDX 22 76 12 77 14 78 15 79 16 80 17 81 20 82 18 84 19 85
REMARK H PARENT 76 22 46 33 16 83
REMARK Flexibility Score: inf
ROOT
ATOM      1  C   UNL     1       4.424  -0.520   1.556  1.00  0.00     0.275 C 
ENDROOT
BRANCH   1   2
ATOM      2  O   UNL     1       3.394   0.386   1.130  1.00  0.00    -0.458 OA
BRANCH   2   3
ATOM      3  C   UNL     1       3.429   1.258   0.094  1.00  0.00     0.338 C 
ATOM      4  O   UNL     1       2.691   2.242   0.141  1.00  0.00    -0.246 OA
BRANCH   3   5
ATOM      5  C   UNL     1       4.136   0.972  -1.202  1.00  0.00     0.060 A 
ATOM      6  C   UNL     1       3.550   1.543  -2.339  1.00  0.00     0.016 A 
ATOM      7  C   UNL     1       5.267   0.176  -1.403  1.00  0.00     0.016 A 
ATOM      8  C   UNL     1       3.983   1.202  -3.625  1.00  0.00     0.010 A 
ATOM      9  C   UNL     1       5.747  -0.111  -2.695  1.00  0.00     0.010 A 
ATOM     10  C   UNL     1       5.086   0.358  -3.828  1.00  0.00    -0.014 A 
BRANCH  10  11
ATOM     11  C   UNL     1       5.571   0.082  -5.211  1.00  0.00     0.031 A 
ATOM     12  C   UNL     1       5.674  -1.310  -5.792  1.00  0.00     0.074 A 
ATOM     13  C   UNL     1       5.891   1.140  -5.985  1.00  0.00     0.049 A 
ATOM     14  N   UNL     1       5.840  -1.651  -7.048  1.00  0.00    -0.248 NA
ATOM     15  C   UNL     1       5.553  -2.464  -4.887  1.00  0.00     0.031 C 
ATOM     16  C   UNL     1       5.870   2.538  -5.544  1.00  0.00     0.029 A 
ATOM     17  N   UNL     1       6.286   1.216  -7.297  1.00  0.00    -0.354 N 
ATOM     18  C   UNL     1       5.726  -3.037  -7.095  1.00  0.00     0.074 A 
ATOM     19  C   UNL     1       5.595  -3.491  -5.732  1.00  0.00     0.031 C 
ATOM     20  C   UNL     1       6.194   3.330  -6.571  1.00  0.00     0.029 A 
ATOM     21  C   UNL     1       6.540   2.499  -7.717  1.00  0.00     0.049 A 
ATOM     22  H   UNL     1       6.379   0.427  -7.880  1.00  0.00     0.167 HD
ATOM     23  C   UNL     1       5.682  -3.843  -8.183  1.00  0.00     0.031 A 
ATOM     24  C   UNL     1       7.042   2.971  -8.875  1.00  0.00     0.031 A 
ATOM     25  C   UNL     1       6.001  -3.402  -9.515  1.00  0.00     0.049 A 
ATOM     26  C   UNL     1       7.321   2.009  -9.985  1.00  0.00     0.074 A 
ATOM     27  C   UNL     1       6.038  -4.150 -10.679  1.00  0.00     0.029 A 
ATOM     28  N   UNL     1       6.423  -2.125  -9.846  1.00  0.00    -0.354 N 
ATOM     29  N   UNL     1       7.032   0.731 -10.044  1.00  0.00    -0.248 NA
ATOM     30  C   UNL     1       7.993   2.536 -11.177  1.00  0.00     0.031 C 
ATOM     31  C   UNL     1       6.598  -3.356 -11.684  1.00  0.00     0.029 A 
ATOM     32  C   UNL     1       6.827  -2.089 -11.169  1.00  0.00     0.049 A 
ATOM     33  H   UNL     1       6.433  -1.356  -9.231  1.00  0.00     0.167 HD
ATOM     34  C   UNL     1       7.479   0.300 -11.285  1.00  0.00     0.074 A 
ATOM     35  C   UNL     1       8.044   1.457 -11.950  1.00  0.00     0.031 C 
ATOM     36  C   UNL     1       7.418  -0.945 -11.819  1.00  0.00     0.031 A 
BRANCH  23  37
ATOM     37  C   UNL     1       5.268  -5.285  -8.021  1.00  0.00    -0.014 A 
ATOM     38  C   UNL     1       6.210  -6.324  -8.116  1.00  0.00     0.010 A 
ATOM     39  C   UNL     1       3.897  -5.610  -7.991  1.00  0.00     0.010 A 
ATOM     40  C   UNL     1       5.792  -7.657  -8.210  1.00  0.00     0.020 A 
ATOM     41  C   UNL     1       3.475  -6.943  -8.071  1.00  0.00     0.020 A 
ATOM     42  C   UNL     1       4.426  -7.958  -8.202  1.00  0.00     0.054 A 
BRANCH  42  43
ATOM     43  S   UNL     1       3.905  -9.689  -8.391  1.00  0.00     0.124 S 
ATOM     44  O   UNL     1       4.195  -9.949  -9.798  1.00  0.00    -0.237 OA
ATOM     45  O   UNL     1       4.761 -10.384  -7.433  1.00  0.00    -0.237 OA
ATOM     46  O   UNL     1       2.486  -9.663  -8.041  1.00  0.00    -0.744 OA
ENDBRANCH  42  43
ENDBRANCH  23  37
BRANCH  24  47
ATOM     47  C   UNL     1       7.337   4.428  -8.971  1.00  0.00    -0.014 A 
ATOM     48  C   UNL     1       8.294   4.998  -8.104  1.00  0.00     0.010 A 
ATOM     49  C   UNL     1       6.572   5.270  -9.791  1.00  0.00     0.010 A 
ATOM     50  C   UNL     1       8.405   6.382  -7.978  1.00  0.00     0.020 A 
ATOM     51  C   UNL     1       6.710   6.660  -9.697  1.00  0.00     0.020 A 
ATOM     52  C   UNL     1       7.594   7.205  -8.760  1.00  0.00     0.054 A 
BRANCH  52  53
ATOM     53  S   UNL     1       7.681   8.998  -8.502  1.00  0.00     0.124 S 
ATOM     54  O   UNL     1       6.939   9.155  -7.253  1.00  0.00    -0.237 OA
ATOM     55  O   UNL     1       9.118   9.239  -8.414  1.00  0.00    -0.237 OA
ATOM     56  O   UNL     1       7.031   9.545  -9.690  1.00  0.00    -0.744 OA
ENDBRANCH  52  53
ENDBRANCH  24  47
BRANCH  36  57
ATOM     57  C   UNL     1       8.011  -1.156 -13.184  1.00  0.00    -0.014 A 
ATOM     58  C   UNL     1       7.178  -1.489 -14.268  1.00  0.00     0.010 A 
ATOM     59  C   UNL     1       9.405  -1.152 -13.364  1.00  0.00     0.010 A 
ATOM     60  C   UNL     1       7.730  -1.861 -15.495  1.00  0.00     0.020 A 
ATOM     61  C   UNL     1       9.960  -1.489 -14.601  1.00  0.00     0.020 A 
ATOM     62  C   UNL     1       9.119  -1.871 -15.649  1.00  0.00     0.054 A 
BRANCH  62  63
ATOM     63  S   UNL     1       9.817  -2.397 -17.237  1.00  0.00     0.124 S 
ATOM     64  O   UNL     1       9.644  -3.846 -17.183  1.00  0.00    -0.237 OA
ATOM     65  O   UNL     1       8.976  -1.697 -18.205  1.00  0.00    -0.237 OA
ATOM     66  O   UNL     1      11.201  -1.930 -17.174  1.00  0.00    -0.744 OA
ENDBRANCH  62  63
ENDBRANCH  36  57
ENDBRANCH  10  11
ENDBRANCH   3   5
ENDBRANCH   2   3
ENDBRANCH   1   2
BRANCH   1  67
ATOM     67  C   UNL     1       4.132  -1.973   1.169  1.00  0.00     0.275 C 
BRANCH  67  68
ATOM     68  O   UNL     1       3.665  -2.088  -0.183  1.00  0.00    -0.458 OA
BRANCH  68  69
ATOM     69  C   UNL     1       2.319  -2.246  -0.333  1.00  0.00     0.343 C 
ATOM     70  O   UNL     1       1.504  -2.387   0.568  1.00  0.00    -0.246 OA
BRANCH  69  71
ATOM     71  C   UNL     1       1.961  -1.950  -1.724  1.00  0.00     0.125 A 
ATOM     72  C   UNL     1       1.261  -0.820  -1.921  1.00  0.00     0.023 A 
ATOM     73  C   UNL     1       2.410  -2.772  -2.883  1.00  0.00     0.265 A 
ATOM     74  C   UNL     1       1.120  -0.285  -3.246  1.00  0.00     0.019 A 
ATOM     75  N   UNL     1       2.155  -2.217  -4.146  1.00  0.00    -0.309 N 
ATOM     76  O   UNL     1       2.940  -3.864  -2.700  1.00  0.00    -0.268 OA
ATOM     77  C   UNL     1       1.633  -0.951  -4.283  1.00  0.00     0.089 A 
BRANCH  75  78
ATOM     78  C   UNL     1       2.300  -3.040  -5.361  1.00  0.00     0.186 C 
BRANCH  78  79
ATOM     79  C   UNL     1       0.967  -3.712  -5.770  1.00  0.00     0.284 C 
BRANCH  79  80
ATOM     80  N   UNL     1       0.080  -3.145  -6.799  1.00  0.00    -0.333 N 
ATOM     81  C   UNL     1       0.173  -1.750  -7.200  1.00  0.00     0.262 C 
ATOM     82  C   UNL     1      -1.337  -3.382  -6.514  1.00  0.00     0.262 C 
ATOM     83  H   UNL     1       0.464  -3.669  -7.586  1.00  0.00     0.348 HD
ATOM     84  C   UNL     1      -0.898  -1.002  -6.421  1.00  0.00     0.067 C 
ATOM     85  C   UNL     1      -1.882  -2.067  -5.971  1.00  0.00     0.067 C 
ENDBRANCH  79  80
ENDBRANCH  78  79
ENDBRANCH  75  78
ENDBRANCH  69  71
ENDBRANCH  68  69
ENDBRANCH  67  68
ENDBRANCH   1  67
TORSDOF 17
