REMARK SMILES O=C(Cc1ccccc1F)NC[C@@H]1CC[C@@H](C(=O)OCCOC(=O)c2ccc(-c3c4nc(c(-c5ccc(S(=O)(=O)[O-])cc5)c5ccc([nH]5)c(-c5ccc(S(=O)(=O)[O-])cc5)c5nc(c(-c6ccc(S(=O)(=O)[O-])cc6)c6ccc3[nH]6)C=C5)C=C4)cc2)O1
REMARK SMILES IDX 20 1 19 2 17 3 18 4 16 5 13 6 14 7 85 8 15 9 12 10 11 11
REMARK SMILES IDX 1 12 2 13 3 15 4 16 5 17 9 18 6 19 8 20 10 21 7 22 21 23
REMARK SMILES IDX 22 24 23 25 24 26 25 27 26 28 84 29 27 30 83 31 28 32 29 33
REMARK SMILES IDX 30 34 77 35 31 36 82 37 76 38 78 39 32 40 81 41 75 42 74 43
REMARK SMILES IDX 33 45 63 46 44 47 62 48 45 49 48 50 61 51 79 52 46 53 47 54
REMARK SMILES IDX 60 56 80 57 49 58 34 59 35 60 43 61 36 62 42 63 37 64 38 65
REMARK SMILES IDX 39 66 40 67 41 68 64 69 65 70 73 71 66 72 72 73 67 74 68 75
REMARK SMILES IDX 69 76 70 77 71 78 50 79 51 80 59 81 52 82 58 83 53 84 54 85
REMARK SMILES IDX 55 86 56 87 57 88
REMARK H PARENT 11 14 78 44 48 55
REMARK Flexibility Score: inf
ROOT
ATOM      1  C   UNL     1       7.459   5.971   1.947  1.00  0.00     0.274 C 
ENDROOT
BRANCH   1   2
ATOM      2  O   UNL     1       6.623   5.799   0.785  1.00  0.00    -0.460 OA
BRANCH   2   3
ATOM      3  C   UNL     1       5.564   4.952   0.932  1.00  0.00     0.335 C 
ATOM      4  O   UNL     1       5.237   4.422   1.987  1.00  0.00    -0.249 OA
BRANCH   3   5
ATOM      5  C   UNL     1       4.850   4.724  -0.409  1.00  0.00     0.228 C 
ATOM      6  C   UNL     1       2.894   3.562   0.026  1.00  0.00     0.138 C 
ATOM      7  C   UNL     1       2.439   4.877  -0.571  1.00  0.00     0.037 C 
ATOM      8  O   UNL     1       4.253   3.415  -0.438  1.00  0.00    -0.361 OA
ATOM      9  C   UNL     1       3.710   5.709  -0.635  1.00  0.00     0.047 C 
BRANCH   6  10
ATOM     10  C   UNL     1       2.067   2.350  -0.400  1.00  0.00     0.147 C 
BRANCH  10  11
ATOM     11  N   UNL     1       2.692   1.118   0.049  1.00  0.00    -0.353 N 
ATOM     12  O   UNL     1       1.223  -0.273  -1.028  1.00  0.00    -0.275 OA
ATOM     13  C   UNL     1       2.237  -0.118  -0.354  1.00  0.00     0.224 C 
ATOM     14  H   UNL     1       3.463   1.168   0.659  1.00  0.00     0.163 HD
BRANCH  13  15
ATOM     15  C   UNL     1       3.151  -1.267   0.039  1.00  0.00     0.138 C 
BRANCH  15  16
ATOM     16  C   UNL     1       4.020  -1.729  -1.107  1.00  0.00    -0.003 A 
ATOM     17  C   UNL     1       4.807  -0.824  -1.839  1.00  0.00     0.007 A 
ATOM     18  C   UNL     1       4.081  -3.082  -1.448  1.00  0.00     0.126 A 
ATOM     19  C   UNL     1       5.602  -1.267  -2.899  1.00  0.00     0.001 A 
ATOM     20  C   UNL     1       4.875  -3.530  -2.502  1.00  0.00     0.039 A 
ATOM     21  F   UNL     1       3.372  -3.984  -0.754  1.00  0.00    -0.207 F 
ATOM     22  C   UNL     1       5.635  -2.620  -3.233  1.00  0.00     0.003 A 
ENDBRANCH  15  16
ENDBRANCH  13  15
ENDBRANCH  10  11
ENDBRANCH   6  10
ENDBRANCH   3   5
ENDBRANCH   2   3
ENDBRANCH   1   2
BRANCH   1  23
ATOM     23  C   UNL     1       7.260   7.340   2.595  1.00  0.00     0.275 C 
BRANCH  23  24
ATOM     24  O   UNL     1       5.973   7.442   3.227  1.00  0.00    -0.458 OA
BRANCH  24  25
ATOM     25  C   UNL     1       5.014   8.016   2.468  1.00  0.00     0.338 C 
ATOM     26  O   UNL     1       5.126   8.449   1.333  1.00  0.00    -0.246 OA
BRANCH  25  27
ATOM     27  C   UNL     1       3.733   7.987   3.185  1.00  0.00     0.060 A 
ATOM     28  C   UNL     1       2.824   6.976   2.876  1.00  0.00     0.016 A 
ATOM     29  C   UNL     1       3.380   9.027   4.046  1.00  0.00     0.016 A 
ATOM     30  C   UNL     1       1.524   7.041   3.370  1.00  0.00     0.010 A 
ATOM     31  C   UNL     1       2.088   9.062   4.582  1.00  0.00     0.010 A 
ATOM     32  C   UNL     1       1.140   8.089   4.220  1.00  0.00    -0.014 A 
BRANCH  32  33
ATOM     33  C   UNL     1      -0.270   8.186   4.676  1.00  0.00     0.031 A 
ATOM     34  C   UNL     1      -1.150   9.306   4.187  1.00  0.00     0.074 A 
ATOM     35  C   UNL     1      -0.782   7.243   5.490  1.00  0.00     0.049 A 
ATOM     36  N   UNL     1      -2.381   9.594   4.525  1.00  0.00    -0.248 NA
ATOM     37  C   UNL     1      -0.569  10.222   3.192  1.00  0.00     0.031 C 
ATOM     38  C   UNL     1      -0.052   6.083   6.007  1.00  0.00     0.029 A 
ATOM     39  N   UNL     1      -2.045   7.100   6.005  1.00  0.00    -0.354 N 
ATOM     40  C   UNL     1      -2.706  10.749   3.823  1.00  0.00     0.074 A 
ATOM     41  C   UNL     1      -1.546  11.104   3.034  1.00  0.00     0.031 C 
ATOM     42  C   UNL     1      -0.893   5.324   6.728  1.00  0.00     0.029 A 
ATOM     43  C   UNL     1      -2.203   5.967   6.765  1.00  0.00     0.049 A 
ATOM     44  H   UNL     1      -2.769   7.747   5.844  1.00  0.00     0.167 HD
ATOM     45  C   UNL     1      -3.862  11.455   3.839  1.00  0.00     0.031 A 
ATOM     46  C   UNL     1      -3.278   5.501   7.428  1.00  0.00     0.031 A 
ATOM     47  C   UNL     1      -5.029  11.091   4.596  1.00  0.00     0.049 A 
ATOM     48  C   UNL     1      -4.557   6.285   7.412  1.00  0.00     0.074 A 
ATOM     49  C   UNL     1      -6.235  11.763   4.702  1.00  0.00     0.029 A 
ATOM     50  N   UNL     1      -5.144   9.942   5.361  1.00  0.00    -0.354 N 
ATOM     51  N   UNL     1      -4.818   7.416   6.803  1.00  0.00    -0.248 NA
ATOM     52  C   UNL     1      -5.680   5.737   8.184  1.00  0.00     0.031 C 
ATOM     53  C   UNL     1      -7.078  11.022   5.541  1.00  0.00     0.029 A 
ATOM     54  C   UNL     1      -6.402   9.879   5.937  1.00  0.00     0.049 A 
ATOM     55  H   UNL     1      -4.436   9.268   5.478  1.00  0.00     0.167 HD
ATOM     56  C   UNL     1      -6.134   7.721   7.126  1.00  0.00     0.074 A 
ATOM     57  C   UNL     1      -6.623   6.644   7.963  1.00  0.00     0.031 C 
ATOM     58  C   UNL     1      -6.868   8.805   6.772  1.00  0.00     0.031 A 
BRANCH  45  59
ATOM     59  C   UNL     1      -3.896  12.723   3.035  1.00  0.00    -0.014 A 
ATOM     60  C   UNL     1      -4.091  12.697   1.643  1.00  0.00     0.010 A 
ATOM     61  C   UNL     1      -3.727  13.959   3.685  1.00  0.00     0.010 A 
ATOM     62  C   UNL     1      -4.077  13.886   0.908  1.00  0.00     0.020 A 
ATOM     63  C   UNL     1      -3.726  15.150   2.955  1.00  0.00     0.020 A 
ATOM     64  C   UNL     1      -3.880  15.104   1.567  1.00  0.00     0.054 A 
BRANCH  64  65
ATOM     65  S   UNL     1      -3.854  16.641   0.603  1.00  0.00     0.124 S 
ATOM     66  O   UNL     1      -2.466  16.683   0.148  1.00  0.00    -0.237 OA
ATOM     67  O   UNL     1      -4.848  16.394  -0.438  1.00  0.00    -0.237 OA
ATOM     68  O   UNL     1      -4.222  17.663   1.580  1.00  0.00    -0.744 OA
ENDBRANCH  64  65
ENDBRANCH  45  59
BRANCH  46  69
ATOM     69  C   UNL     1      -3.176   4.223   8.178  1.00  0.00    -0.014 A 
ATOM     70  C   UNL     1      -3.721   3.043   7.644  1.00  0.00     0.010 A 
ATOM     71  C   UNL     1      -2.494   4.176   9.406  1.00  0.00     0.010 A 
ATOM     72  C   UNL     1      -3.582   1.831   8.326  1.00  0.00     0.020 A 
ATOM     73  C   UNL     1      -2.340   2.963  10.082  1.00  0.00     0.020 A 
ATOM     74  C   UNL     1      -2.890   1.799   9.540  1.00  0.00     0.054 A 
BRANCH  74  75
ATOM     75  S   UNL     1      -2.631   0.210  10.378  1.00  0.00     0.124 S 
ATOM     76  O   UNL     1      -3.832   0.103  11.200  1.00  0.00    -0.237 OA
ATOM     77  O   UNL     1      -2.538  -0.735   9.267  1.00  0.00    -0.237 OA
ATOM     78  O   UNL     1      -1.383   0.420  11.109  1.00  0.00    -0.744 OA
ENDBRANCH  74  75
ENDBRANCH  46  69
BRANCH  58  79
ATOM     79  C   UNL     1      -8.273   8.873   7.294  1.00  0.00    -0.014 A 
ATOM     80  C   UNL     1      -8.527   9.306   8.607  1.00  0.00     0.010 A 
ATOM     81  C   UNL     1      -9.350   8.529   6.459  1.00  0.00     0.010 A 
ATOM     82  C   UNL     1      -9.836   9.367   9.088  1.00  0.00     0.020 A 
ATOM     83  C   UNL     1     -10.662   8.600   6.933  1.00  0.00     0.020 A 
ATOM     84  C   UNL     1     -10.896   9.005   8.250  1.00  0.00     0.054 A 
BRANCH  84  85
ATOM     85  S   UNL     1     -12.595   9.116   8.876  1.00  0.00     0.124 S 
ATOM     86  O   UNL     1     -12.743   7.844   9.578  1.00  0.00    -0.237 OA
ATOM     87  O   UNL     1     -12.555  10.302   9.729  1.00  0.00    -0.237 OA
ATOM     88  O   UNL     1     -13.397   9.258   7.662  1.00  0.00    -0.744 OA
ENDBRANCH  84  85
ENDBRANCH  58  79
ENDBRANCH  32  33
ENDBRANCH  25  27
ENDBRANCH  24  25
ENDBRANCH  23  24
ENDBRANCH   1  23
TORSDOF 18
