REMARK SMILES CC(C)(C)[C@@H]1CC(C(=O)OCCOC(=O)c2ccc(-c3c4nc(c(-c5ccc(S(=O)(=O)[O-])cc5)c5ccc([nH]5)c(-c5ccc(S(=O)(=O)[O-])cc5)c5nc(c(-c6ccc(S(=O)(=O)[O-])cc6)c6ccc3[nH]6)C=C5)C=C4)cc2)C[C@@H](C(C)(C)C)C1
REMARK SMILES IDX 12 1 11 2 10 3 8 4 9 5 7 6 5 7 6 8 82 9 77 10 76 11 2 12
REMARK SMILES IDX 1 13 3 14 4 15 78 16 79 17 80 18 81 19 13 20 14 21 15 22
REMARK SMILES IDX 16 23 17 24 75 25 18 26 74 27 19 28 20 29 21 30 68 31 22 32
REMARK SMILES IDX 73 33 67 34 69 35 23 36 72 37 66 38 65 39 24 41 54 42 35 43
REMARK SMILES IDX 53 44 36 45 39 46 52 47 70 48 37 49 38 50 51 52 71 53 40 54
REMARK SMILES IDX 25 55 26 56 34 57 27 58 33 59 28 60 29 61 30 62 31 63 32 64
REMARK SMILES IDX 55 65 56 66 64 67 57 68 63 69 58 70 59 71 60 72 61 73 62 74
REMARK SMILES IDX 41 75 42 76 50 77 43 78 49 79 44 80 45 81 46 82 47 83 48 84
REMARK H PARENT 69 40 39 51
REMARK Flexibility Score: inf
ROOT
ATOM      1  C   UNL     1      -1.012  -3.760   5.116  1.00  0.00     0.275 C 
ENDROOT
BRANCH   1   2
ATOM      2  C   UNL     1      -1.632  -2.436   5.567  1.00  0.00     0.274 C 
BRANCH   2   3
ATOM      3  O   UNL     1      -1.184  -1.347   4.740  1.00  0.00    -0.462 OA
BRANCH   3   4
ATOM      4  C   UNL     1      -0.244  -0.536   5.288  1.00  0.00     0.309 C 
ATOM      5  O   UNL     1       0.152  -0.616   6.446  1.00  0.00    -0.252 OA
BRANCH   4   6
ATOM      6  C   UNL     1       0.330   0.473   4.308  1.00  0.00     0.100 C 
ATOM      7  C   UNL     1       0.604   1.356   1.948  1.00  0.00    -0.005 C 
ATOM      8  C   UNL     1      -0.185   0.395   2.870  1.00  0.00     0.019 C 
ATOM      9  C   UNL     1       0.585   2.797   2.530  1.00  0.00     0.008 C 
ATOM     10  C   UNL     1       0.968   2.920   4.029  1.00  0.00    -0.005 C 
ATOM     11  C   UNL     1       0.167   1.887   4.845  1.00  0.00     0.019 C 
BRANCH   7  12
ATOM     12  C   UNL     1       0.177   1.266   0.433  1.00  0.00    -0.035 C 
ATOM     13  C   UNL     1       0.649  -0.084  -0.157  1.00  0.00     0.011 C 
ATOM     14  C   UNL     1       0.844   2.380  -0.402  1.00  0.00     0.011 C 
ATOM     15  C   UNL     1      -1.347   1.369   0.241  1.00  0.00     0.011 C 
ENDBRANCH   7  12
BRANCH  10  16
ATOM     16  C   UNL     1       2.525   3.025   4.332  1.00  0.00    -0.035 C 
ATOM     17  C   UNL     1       2.844   2.730   5.814  1.00  0.00     0.011 C 
ATOM     18  C   UNL     1       3.432   2.120   3.477  1.00  0.00     0.011 C 
ATOM     19  C   UNL     1       2.974   4.482   4.055  1.00  0.00     0.011 C 
ENDBRANCH  10  16
ENDBRANCH   4   6
ENDBRANCH   3   4
ENDBRANCH   2   3
ENDBRANCH   1   2
BRANCH   1  20
ATOM     20  O   UNL     1       0.417  -3.775   5.296  1.00  0.00    -0.458 OA
BRANCH  20  21
ATOM     21  C   UNL     1       1.137  -3.461   4.193  1.00  0.00     0.338 C 
ATOM     22  O   UNL     1       0.710  -3.170   3.089  1.00  0.00    -0.246 OA
BRANCH  21  23
ATOM     23  C   UNL     1       2.570  -3.431   4.522  1.00  0.00     0.060 A 
ATOM     24  C   UNL     1       3.193  -2.190   4.646  1.00  0.00     0.016 A 
ATOM     25  C   UNL     1       3.318  -4.606   4.585  1.00  0.00     0.016 A 
ATOM     26  C   UNL     1       4.573  -2.107   4.799  1.00  0.00     0.010 A 
ATOM     27  C   UNL     1       4.704  -4.524   4.767  1.00  0.00     0.010 A 
ATOM     28  C   UNL     1       5.343  -3.273   4.857  1.00  0.00    -0.014 A 
BRANCH  28  29
ATOM     29  C   UNL     1       6.818  -3.175   4.973  1.00  0.00     0.031 A 
ATOM     30  C   UNL     1       7.691  -3.544   3.806  1.00  0.00     0.074 A 
ATOM     31  C   UNL     1       7.373  -2.729   6.116  1.00  0.00     0.049 A 
ATOM     32  N   UNL     1       8.995  -3.629   3.746  1.00  0.00    -0.248 NA
ATOM     33  C   UNL     1       7.008  -3.859   2.540  1.00  0.00     0.031 C 
ATOM     34  C   UNL     1       6.635  -2.288   7.301  1.00  0.00     0.029 A 
ATOM     35  N   UNL     1       8.691  -2.572   6.466  1.00  0.00    -0.354 N 
ATOM     36  C   UNL     1       9.290  -4.033   2.450  1.00  0.00     0.074 A 
ATOM     37  C   UNL     1       8.027  -4.182   1.756  1.00  0.00     0.031 C 
ATOM     38  C   UNL     1       7.510  -1.907   8.246  1.00  0.00     0.029 A 
ATOM     39  C   UNL     1       8.866  -2.126   7.754  1.00  0.00     0.049 A 
ATOM     40  H   UNL     1       9.438  -2.762   5.854  1.00  0.00     0.167 HD
ATOM     41  C   UNL     1      10.502  -4.261   1.890  1.00  0.00     0.031 A 
ATOM     42  C   UNL     1       9.992  -1.945   8.472  1.00  0.00     0.031 A 
ATOM     43  C   UNL     1      11.755  -4.104   2.578  1.00  0.00     0.049 A 
ATOM     44  C   UNL     1      11.322  -2.249   7.843  1.00  0.00     0.074 A 
ATOM     45  C   UNL     1      13.035  -4.330   2.100  1.00  0.00     0.029 A 
ATOM     46  N   UNL     1      11.889  -3.670   3.887  1.00  0.00    -0.354 N 
ATOM     47  N   UNL     1      11.580  -2.675   6.629  1.00  0.00    -0.248 NA
ATOM     48  C   UNL     1      12.513  -2.055   8.682  1.00  0.00     0.031 C 
ATOM     49  C   UNL     1      13.941  -4.060   3.132  1.00  0.00     0.029 A 
ATOM     50  C   UNL     1      13.227  -3.628   4.238  1.00  0.00     0.049 A 
ATOM     51  H   UNL     1      11.141  -3.427   4.481  1.00  0.00     0.167 HD
ATOM     52  C   UNL     1      12.963  -2.791   6.557  1.00  0.00     0.074 A 
ATOM     53  C   UNL     1      13.488  -2.373   7.841  1.00  0.00     0.031 C 
ATOM     54  C   UNL     1      13.730  -3.211   5.521  1.00  0.00     0.031 A 
BRANCH  41  55
ATOM     55  C   UNL     1      10.526  -4.742   0.465  1.00  0.00    -0.014 A 
ATOM     56  C   UNL     1      10.297  -3.858  -0.604  1.00  0.00     0.010 A 
ATOM     57  C   UNL     1      10.819  -6.090   0.192  1.00  0.00     0.010 A 
ATOM     58  C   UNL     1      10.330  -4.322  -1.922  1.00  0.00     0.020 A 
ATOM     59  C   UNL     1      10.872  -6.554  -1.125  1.00  0.00     0.020 A 
ATOM     60  C   UNL     1      10.611  -5.669  -2.174  1.00  0.00     0.054 A 
BRANCH  60  61
ATOM     61  S   UNL     1      10.669  -6.245  -3.893  1.00  0.00     0.124 S 
ATOM     62  O   UNL     1       9.250  -6.348  -4.223  1.00  0.00    -0.237 OA
ATOM     63  O   UNL     1      11.395  -5.174  -4.570  1.00  0.00    -0.237 OA
ATOM     64  O   UNL     1      11.382  -7.518  -3.808  1.00  0.00    -0.744 OA
ENDBRANCH  60  61
ENDBRANCH  41  55
BRANCH  42  65
ATOM     65  C   UNL     1       9.903  -1.498   9.886  1.00  0.00    -0.014 A 
ATOM     66  C   UNL     1      10.287  -0.197  10.253  1.00  0.00     0.010 A 
ATOM     67  C   UNL     1       9.420  -2.376  10.874  1.00  0.00     0.010 A 
ATOM     68  C   UNL     1      10.204   0.213  11.588  1.00  0.00     0.020 A 
ATOM     69  C   UNL     1       9.314  -1.962  12.203  1.00  0.00     0.020 A 
ATOM     70  C   UNL     1       9.719  -0.673  12.554  1.00  0.00     0.054 A 
BRANCH  70  71
ATOM     71  S   UNL     1       9.566  -0.111  14.273  1.00  0.00     0.124 S 
ATOM     72  O   UNL     1      10.931  -0.265  14.764  1.00  0.00    -0.237 OA
ATOM     73  O   UNL     1       9.100   1.265  14.121  1.00  0.00    -0.237 OA
ATOM     74  O   UNL     1       8.585  -1.032  14.843  1.00  0.00    -0.744 OA
ENDBRANCH  70  71
ENDBRANCH  42  65
BRANCH  54  75
ATOM     75  C   UNL     1      15.218  -3.216   5.727  1.00  0.00    -0.014 A 
ATOM     76  C   UNL     1      15.839  -4.227   6.481  1.00  0.00     0.010 A 
ATOM     77  C   UNL     1      16.008  -2.222   5.123  1.00  0.00     0.010 A 
ATOM     78  C   UNL     1      17.226  -4.228   6.650  1.00  0.00     0.020 A 
ATOM     79  C   UNL     1      17.397  -2.231   5.274  1.00  0.00     0.020 A 
ATOM     80  C   UNL     1      17.996  -3.227   6.049  1.00  0.00     0.054 A 
BRANCH  80  81
ATOM     81  S   UNL     1      19.799  -3.269   6.244  1.00  0.00     0.124 S 
ATOM     82  O   UNL     1      19.972  -2.711   7.582  1.00  0.00    -0.237 OA
ATOM     83  O   UNL     1      20.108  -4.691   6.112  1.00  0.00    -0.237 OA
ATOM     84  O   UNL     1      20.283  -2.430   5.150  1.00  0.00    -0.744 OA
ENDBRANCH  80  81
ENDBRANCH  54  75
ENDBRANCH  28  29
ENDBRANCH  21  23
ENDBRANCH  20  21
ENDBRANCH   1  20
TORSDOF 16
