REMARK SMILES Cc1ccc(NC(=O)NC2(C(=O)OCCOC(=O)c3ccc(-c4c5nc(c(-c6ccc(S(=O)(=O)[O-])cc6)c6ccc([nH]6)c(-c6ccc(S(=O)(=O)[O-])cc6)c6nc(c(-c7ccc(S(=O)(=O)[O-])cc7)c7ccc4[nH]7)C=C6)C=C5)cc3)CC2)c(C)n1
REMARK SMILES IDX 15 1 14 2 13 3 11 4 12 5 10 6 79 7 80 8 9 9 6 10 7 11 8 13
REMARK SMILES IDX 5 15 1 16 2 17 3 18 83 19 4 20 81 21 82 22 16 23 17 24 18 25
REMARK SMILES IDX 19 26 20 27 78 28 21 29 77 30 22 31 23 32 24 33 71 34 25 35
REMARK SMILES IDX 76 36 70 37 72 38 26 39 75 40 69 41 68 42 27 44 57 45 38 46
REMARK SMILES IDX 56 47 39 48 42 49 55 50 73 51 40 52 41 53 54 55 74 56 43 57
REMARK SMILES IDX 28 58 29 59 37 60 30 61 36 62 31 63 32 64 33 65 34 66 35 67
REMARK SMILES IDX 58 68 59 69 67 70 60 71 66 72 61 73 62 74 63 75 64 76 65 77
REMARK SMILES IDX 44 78 45 79 53 80 46 81 52 82 47 83 48 84 49 85 50 86 51 87
REMARK H PARENT 6 12 9 14 72 43 42 54
REMARK Flexibility Score: inf
ROOT
ATOM      1  C   UNL     1       2.075  -0.297   3.780  1.00  0.00     0.275 C 
ENDROOT
BRANCH   1   2
ATOM      2  C   UNL     1       2.382   1.013   3.044  1.00  0.00     0.274 C 
BRANCH   2   3
ATOM      3  O   UNL     1       2.537   0.751   1.629  1.00  0.00    -0.460 OA
BRANCH   3   4
ATOM      4  C   UNL     1       3.223   1.656   0.863  1.00  0.00     0.332 C 
ATOM      5  O   UNL     1       3.783   2.654   1.303  1.00  0.00    -0.249 OA
BRANCH   4   6
ATOM      6  C   UNL     1       3.192   1.307  -0.643  1.00  0.00     0.139 C 
ATOM      7  C   UNL     1       3.698   2.439  -1.545  1.00  0.00     0.043 C 
ATOM      8  C   UNL     1       2.350   1.888  -1.795  1.00  0.00     0.043 C 
BRANCH   6   9
ATOM      9  N   UNL     1       3.460  -0.052  -0.905  1.00  0.00    -0.322 N 
ATOM     10  N   UNL     1       1.382  -1.078  -0.292  1.00  0.00    -0.306 N 
ATOM     11  C   UNL     1       2.658  -1.089  -0.684  1.00  0.00     0.320 C 
ATOM     12  H   UNL     1       1.179  -2.013  -0.063  1.00  0.00     0.171 HD
ATOM     13  O   UNL     1       3.142  -2.210  -0.895  1.00  0.00    -0.248 OA
ATOM     14  H   UNL     1       4.341  -0.257  -1.295  1.00  0.00     0.166 HD
BRANCH  10  15
ATOM     15  C   UNL     1       0.166  -0.366  -0.044  1.00  0.00     0.064 A 
ATOM     16  C   UNL     1      -3.958   0.857   0.043  1.00  0.00     0.067 C 
ATOM     17  C   UNL     1      -2.566   0.333   0.072  1.00  0.00     0.038 A 
ATOM     18  C   UNL     1      -2.244  -0.991   0.016  1.00  0.00     0.025 A 
ATOM     19  N   UNL     1      -1.617   1.266   0.143  1.00  0.00    -0.256 NA
ATOM     20  C   UNL     1      -0.892  -1.320  -0.038  1.00  0.00     0.030 A 
ATOM     21  C   UNL     1      -0.281   0.961   0.132  1.00  0.00     0.061 A 
ATOM     22  C   UNL     1       0.335   2.249   0.557  1.00  0.00     0.069 C 
ENDBRANCH  10  15
ENDBRANCH   6   9
ENDBRANCH   4   6
ENDBRANCH   3   4
ENDBRANCH   2   3
ENDBRANCH   1   2
BRANCH   1  23
ATOM     23  O   UNL     1       3.233  -1.133   3.657  1.00  0.00    -0.458 OA
BRANCH  23  24
ATOM     24  C   UNL     1       3.075  -2.246   2.905  1.00  0.00     0.338 C 
ATOM     25  O   UNL     1       2.043  -2.856   2.684  1.00  0.00    -0.246 OA
BRANCH  24  26
ATOM     26  C   UNL     1       4.362  -2.519   2.242  1.00  0.00     0.060 A 
ATOM     27  C   UNL     1       5.008  -1.463   1.600  1.00  0.00     0.016 A 
ATOM     28  C   UNL     1       4.841  -3.817   2.107  1.00  0.00     0.016 A 
ATOM     29  C   UNL     1       6.040  -1.714   0.710  1.00  0.00     0.010 A 
ATOM     30  C   UNL     1       5.986  -4.041   1.335  1.00  0.00     0.010 A 
ATOM     31  C   UNL     1       6.577  -2.998   0.596  1.00  0.00    -0.014 A 
BRANCH  31  32
ATOM     32  C   UNL     1       7.752  -3.251  -0.283  1.00  0.00     0.031 A 
ATOM     33  C   UNL     1       7.721  -4.394  -1.263  1.00  0.00     0.074 A 
ATOM     34  C   UNL     1       8.861  -2.488  -0.169  1.00  0.00     0.049 A 
ATOM     35  N   UNL     1       8.719  -4.999  -1.851  1.00  0.00    -0.248 NA
ATOM     36  C   UNL     1       6.399  -4.955  -1.597  1.00  0.00     0.031 C 
ATOM     37  C   UNL     1       9.010  -1.310   0.694  1.00  0.00     0.029 A 
ATOM     38  N   UNL     1      10.091  -2.602  -0.770  1.00  0.00    -0.354 N 
ATOM     39  C   UNL     1       8.160  -6.070  -2.541  1.00  0.00     0.074 A 
ATOM     40  C   UNL     1       6.731  -6.019  -2.318  1.00  0.00     0.031 C 
ATOM     41  C   UNL     1      10.237  -0.798   0.546  1.00  0.00     0.029 A 
ATOM     42  C   UNL     1      11.010  -1.691  -0.301  1.00  0.00     0.049 A 
ATOM     43  H   UNL     1      10.294  -3.268  -1.466  1.00  0.00     0.167 HD
ATOM     44  C   UNL     1       8.797  -7.016  -3.272  1.00  0.00     0.031 A 
ATOM     45  C   UNL     1      12.347  -1.627  -0.445  1.00  0.00     0.031 A 
ATOM     46  C   UNL     1      10.215  -6.998  -3.530  1.00  0.00     0.049 A 
ATOM     47  C   UNL     1      13.031  -2.698  -1.238  1.00  0.00     0.074 A 
ATOM     48  C   UNL     1      10.959  -7.872  -4.303  1.00  0.00     0.029 A 
ATOM     49  N   UNL     1      11.099  -6.050  -3.035  1.00  0.00    -0.354 N 
ATOM     50  N   UNL     1      12.503  -3.735  -1.843  1.00  0.00    -0.248 NA
ATOM     51  C   UNL     1      14.490  -2.602  -1.354  1.00  0.00     0.031 C 
ATOM     52  C   UNL     1      12.301  -7.489  -4.224  1.00  0.00     0.029 A 
ATOM     53  C   UNL     1      12.385  -6.334  -3.463  1.00  0.00     0.049 A 
ATOM     54  H   UNL     1      10.849  -5.288  -2.464  1.00  0.00     0.167 HD
ATOM     55  C   UNL     1      13.566  -4.409  -2.428  1.00  0.00     0.074 A 
ATOM     56  C   UNL     1      14.762  -3.647  -2.123  1.00  0.00     0.031 C 
ATOM     57  C   UNL     1      13.557  -5.558  -3.147  1.00  0.00     0.031 A 
BRANCH  44  58
ATOM     58  C   UNL     1       7.998  -8.181  -3.802  1.00  0.00    -0.014 A 
ATOM     59  C   UNL     1       7.075  -8.042  -4.853  1.00  0.00     0.010 A 
ATOM     60  C   UNL     1       8.251  -9.468  -3.287  1.00  0.00     0.010 A 
ATOM     61  C   UNL     1       6.410  -9.163  -5.364  1.00  0.00     0.020 A 
ATOM     62  C   UNL     1       7.612 -10.594  -3.814  1.00  0.00     0.020 A 
ATOM     63  C   UNL     1       6.687 -10.433  -4.846  1.00  0.00     0.054 A 
BRANCH  63  64
ATOM     64  S   UNL     1       5.858 -11.875  -5.572  1.00  0.00     0.124 S 
ATOM     65  O   UNL     1       4.483 -11.698  -5.111  1.00  0.00    -0.237 OA
ATOM     66  O   UNL     1       6.069 -11.677  -7.004  1.00  0.00    -0.237 OA
ATOM     67  O   UNL     1       6.566 -13.014  -4.993  1.00  0.00    -0.744 OA
ENDBRANCH  63  64
ENDBRANCH  44  58
BRANCH  45  68
ATOM     68  C   UNL     1      13.118  -0.568   0.265  1.00  0.00    -0.014 A 
ATOM     69  C   UNL     1      13.778   0.444  -0.450  1.00  0.00     0.010 A 
ATOM     70  C   UNL     1      13.169  -0.552   1.674  1.00  0.00     0.010 A 
ATOM     71  C   UNL     1      14.486   1.442   0.228  1.00  0.00     0.020 A 
ATOM     72  C   UNL     1      13.840   0.465   2.355  1.00  0.00     0.020 A 
ATOM     73  C   UNL     1      14.508   1.449   1.626  1.00  0.00     0.054 A 
BRANCH  73  74
ATOM     74  S   UNL     1      15.390   2.781   2.482  1.00  0.00     0.124 S 
ATOM     75  O   UNL     1      16.785   2.415   2.255  1.00  0.00    -0.237 OA
ATOM     76  O   UNL     1      14.925   3.973   1.777  1.00  0.00    -0.237 OA
ATOM     77  O   UNL     1      14.928   2.665   3.864  1.00  0.00    -0.744 OA
ENDBRANCH  73  74
ENDBRANCH  45  68
BRANCH  57  78
ATOM     78  C   UNL     1      14.877  -6.028  -3.692  1.00  0.00    -0.014 A 
ATOM     79  C   UNL     1      15.865  -6.567  -2.851  1.00  0.00     0.010 A 
ATOM     80  C   UNL     1      15.111  -5.960  -5.078  1.00  0.00     0.010 A 
ATOM     81  C   UNL     1      17.083  -6.996  -3.383  1.00  0.00     0.020 A 
ATOM     82  C   UNL     1      16.314  -6.419  -5.617  1.00  0.00     0.020 A 
ATOM     83  C   UNL     1      17.299  -6.920  -4.763  1.00  0.00     0.054 A 
BRANCH  83  84
ATOM     84  S   UNL     1      18.873  -7.519  -5.432  1.00  0.00     0.124 S 
ATOM     85  O   UNL     1      19.803  -6.482  -4.995  1.00  0.00    -0.237 OA
ATOM     86  O   UNL     1      19.025  -8.816  -4.778  1.00  0.00    -0.237 OA
ATOM     87  O   UNL     1      18.637  -7.577  -6.873  1.00  0.00    -0.744 OA
ENDBRANCH  83  84
ENDBRANCH  57  78
ENDBRANCH  31  32
ENDBRANCH  24  26
ENDBRANCH  23  24
ENDBRANCH   1  23
TORSDOF 16
