REMARK SMILES COC(=O)[C@H]1CC[C@]2(C)[C@H](CC[C@]3(C)[C@H]2CC=C2[C@H]4CC(C)(C)CC[C@@]4(C(=O)OCCOC(=O)c4ccc(-c5c6nc(c(-c7ccc(S(=O)(=O)[O-])cc7)c7ccc([nH]7)c(-c7ccc(S(=O)(=O)[O-])cc7)c7nc(c(-c8ccc(S(=O)(=O)[O-])cc8)c8ccc5[nH]8)C=C7)C=C6)cc4)CC[C@@]23C)C1(C)C
REMARK SMILES IDX 31 1 30 2 29 3 27 4 28 5 26 6 5 7 6 8 99 9 7 10 10 11 100 12
REMARK SMILES IDX 101 13 8 14 11 15 15 16 9 17 12 18 16 19 13 20 17 21 97 22
REMARK SMILES IDX 14 23 18 24 96 25 98 26 19 27 95 28 20 29 21 30 25 31 24 32
REMARK SMILES IDX 22 33 23 34 3 35 4 36 2 37 1 38 32 39 33 40 34 41 35 42
REMARK SMILES IDX 36 43 94 44 37 45 93 46 38 47 39 48 40 49 87 50 41 51 92 52
REMARK SMILES IDX 86 53 88 54 42 55 91 56 85 57 84 58 43 60 73 61 54 62 72 63
REMARK SMILES IDX 55 64 58 65 71 66 89 67 56 68 57 69 70 71 90 72 59 73 44 74
REMARK SMILES IDX 45 75 53 76 46 77 52 78 47 79 48 80 49 81 50 82 51 83 74 84
REMARK SMILES IDX 75 85 83 86 76 87 82 88 77 89 78 90 79 91 80 92 81 93 60 94
REMARK SMILES IDX 61 95 69 96 62 97 68 98 63 99 64 100 65 101 66 102 67 103
REMARK H PARENT 88 59 58 70
REMARK Flexibility Score: inf
ROOT
ATOM      1  C   UNL     1       0.062  -9.278  -3.841  1.00  0.00     0.275 C 
ENDROOT
BRANCH   1   2
ATOM      2  C   UNL     1      -0.015  -7.523  -4.235  1.00  0.00     0.274 C 
BRANCH   2   3
ATOM      3  O   UNL     1       1.482  -6.295  -4.672  1.00  0.00    -0.462 OA
BRANCH   3   4
ATOM      4  C   UNL     1       3.061  -6.837  -5.405  1.00  0.00     0.312 C 
ATOM      5  O   UNL     1       3.434  -7.989  -5.787  1.00  0.00    -0.252 OA
BRANCH   4   6
ATOM      6  C   UNL     1       3.970  -5.798  -5.343  1.00  0.00     0.075 C 
ATOM      7  C   UNL     1      -0.118  -0.547  -3.861  1.00  0.00     0.105 C 
ATOM      8  C   UNL     1      -1.551  -1.213  -4.115  1.00  0.00     0.016 C 
ATOM      9  C   UNL     1       1.143  -1.509  -3.733  1.00  0.00    -0.019 C 
ATOM     10  C   UNL     1      -1.655  -2.733  -4.557  1.00  0.00     0.008 C 
ATOM     11  C   UNL     1       0.719  -2.771  -4.521  1.00  0.00     0.002 C 
ATOM     12  C   UNL     1       1.513  -1.750  -2.247  1.00  0.00     0.012 C 
ATOM     13  C   UNL     1       2.444  -0.896  -4.316  1.00  0.00     0.012 C 
ATOM     14  C   UNL     1      -0.495  -3.553  -3.926  1.00  0.00    -0.026 C 
ATOM     15  C   UNL     1       1.685  -3.628  -5.329  1.00  0.00     0.005 C 
ATOM     16  C   UNL     1      -0.333  -5.137  -4.182  1.00  0.00     0.006 C 
ATOM     17  C   UNL     1      -0.863  -3.464  -2.404  1.00  0.00     0.012 C 
ATOM     18  C   UNL     1       0.882  -4.454  -6.395  1.00  0.00     0.008 C 
ATOM     19  C   UNL     1       0.691  -5.779  -2.736  1.00  0.00     0.032 C 
ATOM     20  C   UNL     1       0.111  -5.774  -5.904  1.00  0.00    -0.020 C 
ATOM     21  C   UNL     1       1.606  -7.309  -2.766  1.00  0.00    -0.027 C 
ATOM     22  C   UNL     1       1.176  -7.501  -5.938  1.00  0.00    -0.006 C 
ATOM     23  C   UNL     1      -1.133  -5.876  -6.820  1.00  0.00     0.012 C 
ATOM     24  C   UNL     1       2.089  -7.877  -4.063  1.00  0.00    -0.063 C 
ATOM     25  C   UNL     1       2.148  -6.914  -7.361  1.00  0.00     0.013 C 
ATOM     26  C   UNL     1       0.401  -8.645  -6.701  1.00  0.00     0.017 C 
ATOM     27  C   UNL     1       3.499  -6.560  -3.908  1.00  0.00     0.033 C 
ATOM     28  C   UNL     1       3.458  -5.910  -6.958  1.00  0.00     0.020 C 
ATOM     29  C   UNL     1       4.548  -6.615  -2.783  1.00  0.00     0.015 C 
ATOM     30  C   UNL     1       5.559  -5.452  -2.946  1.00  0.00    -0.035 C 
ATOM     31  C   UNL     1       5.498  -6.117  -5.441  1.00  0.00     0.020 C 
ATOM     32  C   UNL     1       6.361  -5.767  -4.213  1.00  0.00     0.007 C 
ATOM     33  C   UNL     1       6.465  -5.406  -1.711  1.00  0.00     0.011 C 
ATOM     34  C   UNL     1       4.918  -4.046  -3.069  1.00  0.00     0.011 C 
BRANCH   7  35
ATOM     35  C   UNL     1       0.081   0.524  -4.930  1.00  0.00     0.309 C 
ATOM     36  O   UNL     1       0.335   1.697  -4.688  1.00  0.00    -0.252 OA
BRANCH  35  37
ATOM     37  O   UNL     1      -0.065  -0.001  -6.178  1.00  0.00    -0.469 OA
ATOM     38  C   UNL     1       0.003   0.953  -7.234  1.00  0.00     0.282 C 
ENDBRANCH  35  37
ENDBRANCH   7  35
ENDBRANCH   4   6
ENDBRANCH   3   4
ENDBRANCH   2   3
ENDBRANCH   1   2
BRANCH   1  39
ATOM     39  O   UNL     1       1.097  -9.851  -2.954  1.00  0.00    -0.458 OA
BRANCH  39  40
ATOM     40  C   UNL     1       1.935 -10.794  -3.495  1.00  0.00     0.338 C 
ATOM     41  O   UNL     1       1.683 -11.486  -4.471  1.00  0.00    -0.246 OA
BRANCH  40  42
ATOM     42  C   UNL     1       3.307 -10.773  -2.881  1.00  0.00     0.060 A 
ATOM     43  C   UNL     1       4.325 -10.110  -3.575  1.00  0.00     0.016 A 
ATOM     44  C   UNL     1       3.669 -11.497  -1.744  1.00  0.00     0.016 A 
ATOM     45  C   UNL     1       5.647 -10.063  -3.109  1.00  0.00     0.010 A 
ATOM     46  C   UNL     1       5.019 -11.501  -1.298  1.00  0.00     0.010 A 
ATOM     47  C   UNL     1       6.020 -10.767  -1.966  1.00  0.00    -0.014 A 
BRANCH  47  48
ATOM     48  C   UNL     1       7.473 -10.860  -1.619  1.00  0.00     0.031 A 
ATOM     49  C   UNL     1       8.312 -11.916  -2.293  1.00  0.00     0.074 A 
ATOM     50  C   UNL     1       8.094  -9.967  -0.819  1.00  0.00     0.049 A 
ATOM     51  N   UNL     1       9.562 -12.245  -2.082  1.00  0.00    -0.248 NA
ATOM     52  C   UNL     1       7.656 -12.690  -3.358  1.00  0.00     0.031 C 
ATOM     53  C   UNL     1       7.468  -8.794  -0.217  1.00  0.00     0.029 A 
ATOM     54  N   UNL     1       9.404  -9.896  -0.393  1.00  0.00    -0.354 N 
ATOM     55  C   UNL     1       9.830 -13.289  -2.960  1.00  0.00     0.074 A 
ATOM     56  C   UNL     1       8.623 -13.516  -3.726  1.00  0.00     0.031 C 
ATOM     57  C   UNL     1       8.392  -8.116   0.489  1.00  0.00     0.029 A 
ATOM     58  C   UNL     1       9.662  -8.842   0.455  1.00  0.00     0.049 A 
ATOM     59  H   UNL     1      10.094 -10.542  -0.671  1.00  0.00     0.167 HD
ATOM     60  C   UNL     1      10.965 -14.017  -3.098  1.00  0.00     0.031 A 
ATOM     61  C   UNL     1      10.771  -8.520   1.160  1.00  0.00     0.031 A 
ATOM     62  C   UNL     1      12.163 -13.815  -2.328  1.00  0.00     0.049 A 
ATOM     63  C   UNL     1      11.986  -9.416   1.085  1.00  0.00     0.074 A 
ATOM     64  C   UNL     1      13.332 -14.557  -2.345  1.00  0.00     0.029 A 
ATOM     65  N   UNL     1      12.348 -12.799  -1.405  1.00  0.00    -0.354 N 
ATOM     66  N   UNL     1      12.190 -10.469   0.329  1.00  0.00    -0.248 NA
ATOM     67  C   UNL     1      13.111  -9.098   1.982  1.00  0.00     0.031 C 
ATOM     68  C   UNL     1      14.207 -14.017  -1.396  1.00  0.00     0.029 A 
ATOM     69  C   UNL     1      13.604 -12.905  -0.830  1.00  0.00     0.049 A 
ATOM     70  H   UNL     1      11.685 -12.104  -1.189  1.00  0.00     0.167 HD
ATOM     71  C   UNL     1      13.464 -10.930   0.653  1.00  0.00     0.074 A 
ATOM     72  C   UNL     1      13.995 -10.032   1.655  1.00  0.00     0.031 C 
ATOM     73  C   UNL     1      14.129 -12.007   0.166  1.00  0.00     0.031 A 
BRANCH  60  74
ATOM     74  C   UNL     1      10.917 -15.176  -4.055  1.00  0.00    -0.014 A 
ATOM     75  C   UNL     1      10.968 -14.991  -5.447  1.00  0.00     0.010 A 
ATOM     76  C   UNL     1      10.819 -16.481  -3.537  1.00  0.00     0.010 A 
ATOM     77  C   UNL     1      10.880 -16.090  -6.306  1.00  0.00     0.020 A 
ATOM     78  C   UNL     1      10.754 -17.583  -4.391  1.00  0.00     0.020 A 
ATOM     79  C   UNL     1      10.765 -17.379  -5.772  1.00  0.00     0.054 A 
BRANCH  79  80
ATOM     80  S   UNL     1      10.653 -18.791  -6.905  1.00  0.00     0.124 S 
ATOM     81  O   UNL     1       9.286 -18.669  -7.404  1.00  0.00    -0.237 OA
ATOM     82  O   UNL     1      11.704 -18.507  -7.879  1.00  0.00    -0.237 OA
ATOM     83  O   UNL     1      10.901 -19.946  -6.046  1.00  0.00    -0.744 OA
ENDBRANCH  79  80
ENDBRANCH  60  74
BRANCH  61  84
ATOM     84  C   UNL     1      10.768  -7.348   2.089  1.00  0.00    -0.014 A 
ATOM     85  C   UNL     1      11.609  -6.240   1.875  1.00  0.00     0.010 A 
ATOM     86  C   UNL     1       9.944  -7.360   3.231  1.00  0.00     0.010 A 
ATOM     87  C   UNL     1      11.629  -5.174   2.784  1.00  0.00     0.020 A 
ATOM     88  C   UNL     1       9.939  -6.285   4.125  1.00  0.00     0.020 A 
ATOM     89  C   UNL     1      10.790  -5.202   3.902  1.00  0.00     0.054 A 
BRANCH  89  90
ATOM     90  S   UNL     1      10.783  -3.787   5.040  1.00  0.00     0.124 S 
ATOM     91  O   UNL     1      12.024  -3.985   5.782  1.00  0.00    -0.237 OA
ATOM     92  O   UNL     1      10.765  -2.646   4.128  1.00  0.00    -0.237 OA
ATOM     93  O   UNL     1       9.555  -3.976   5.810  1.00  0.00    -0.744 OA
ENDBRANCH  89  90
ENDBRANCH  61  84
BRANCH  73  94
ATOM     94  C   UNL     1      15.521 -12.269   0.682  1.00  0.00    -0.014 A 
ATOM     95  C   UNL     1      15.737 -12.791   1.969  1.00  0.00     0.010 A 
ATOM     96  C   UNL     1      16.626 -12.057  -0.164  1.00  0.00     0.010 A 
ATOM     97  C   UNL     1      17.035 -13.073   2.410  1.00  0.00     0.020 A 
ATOM     98  C   UNL     1      17.922 -12.359   0.265  1.00  0.00     0.020 A 
ATOM     99  C   UNL     1      18.119 -12.854   1.555  1.00  0.00     0.054 A 
BRANCH  99 100
ATOM    100  S   UNL     1      19.789 -13.273   2.130  1.00  0.00     0.124 S 
ATOM    101  O   UNL     1      20.082 -12.171   3.042  1.00  0.00    -0.237 OA
ATOM    102  O   UNL     1      19.596 -14.577   2.761  1.00  0.00    -0.237 OA
ATOM    103  O   UNL     1      20.583 -13.294   0.903  1.00  0.00    -0.744 OA
ENDBRANCH  99 100
ENDBRANCH  73  94
ENDBRANCH  47  48
ENDBRANCH  40  42
ENDBRANCH  39  40
ENDBRANCH   1  39
TORSDOF 16
