REMARK SMILES Cc1ccc(S(=O)(=O)n2cc(C(=O)C(=O)NCC(=O)NCC(=O)OCCOC(=O)c3ccc(-c4c5nc(c(-c6ccc(S(=O)(=O)[O-])cc6)c6ccc([nH]6)c(-c6ccc(S(=O)(=O)[O-])cc6)c6nc(c(-c7ccc(S(=O)(=O)[O-])cc7)c7ccc4[nH]7)C=C6)C=C5)cc3)c3ccccc32)cc1
REMARK SMILES IDX 22 1 23 2 21 3 20 4 18 5 19 6 17 8 16 9 14 10 15 11 12 13
REMARK SMILES IDX 13 14 11 15 9 16 10 17 95 18 90 19 94 20 91 21 93 22 92 23
REMARK SMILES IDX 6 24 7 25 8 26 5 27 1 28 2 29 3 30 97 31 4 32 96 33 24 34
REMARK SMILES IDX 25 35 26 36 27 37 28 38 29 39 30 40 31 41 89 42 32 43 88 44
REMARK SMILES IDX 33 45 34 46 35 47 82 48 36 49 87 50 81 51 83 52 37 53 86 54
REMARK SMILES IDX 80 55 79 56 38 58 68 59 49 60 67 61 50 62 53 63 66 64 84 65
REMARK SMILES IDX 51 66 52 67 65 69 85 70 54 71 39 72 40 73 48 74 41 75 47 76
REMARK SMILES IDX 42 77 43 78 44 79 45 80 46 81 69 82 70 83 78 84 71 85 77 86
REMARK SMILES IDX 72 87 73 88 74 89 75 90 76 91 55 92 56 93 64 94 57 95 63 96
REMARK SMILES IDX 58 97 59 98 60 99 61 100 62 101
REMARK H PARENT 20 7 16 12 83 57 53 68
REMARK Flexibility Score: inf
ROOT
ATOM      1  C   UNL     1     -10.191   2.283   1.468  1.00  0.00     0.325 C 
ATOM      2  O   UNL     1     -10.440   1.608   0.423  1.00  0.00    -0.250 OA
ENDROOT
BRANCH   1   3
ATOM      3  C   UNL     1      -9.320   4.253   1.728  1.00  0.00     0.238 C 
BRANCH   3   4
ATOM      4  N   UNL     1      -9.888   5.714   2.250  1.00  0.00    -0.344 N 
ATOM      5  C   UNL     1      -9.357   6.893   2.639  1.00  0.00     0.239 C 
ATOM      6  O   UNL     1     -10.158   7.815   2.846  1.00  0.00    -0.273 OA
ATOM      7  H   UNL     1     -10.872   5.729   2.288  1.00  0.00     0.164 HD
BRANCH   5   8
ATOM      8  C   UNL     1      -7.870   7.184   2.680  1.00  0.00     0.216 C 
BRANCH   8   9
ATOM      9  N   UNL     1      -6.989   6.112   3.084  1.00  0.00    -0.340 N 
ATOM     10  C   UNL     1      -5.912   5.577   2.406  1.00  0.00     0.292 C 
ATOM     11  O   UNL     1      -5.044   5.018   3.068  1.00  0.00    -0.265 OA
ATOM     12  H   UNL     1      -7.183   5.708   3.960  1.00  0.00     0.164 HD
BRANCH  10  13
ATOM     13  C   UNL     1      -5.742   5.732   0.873  1.00  0.00     0.252 C 
ATOM     14  O   UNL     1      -6.058   6.830   0.417  1.00  0.00    -0.283 OA
BRANCH  13  15
ATOM     15  C   UNL     1      -5.078   4.736  -0.009  1.00  0.00     0.054 A 
ATOM     16  N   UNL     1      -4.033   2.936  -0.817  1.00  0.00    -0.240 N 
ATOM     17  C   UNL     1      -5.036   3.354   0.025  1.00  0.00     0.117 A 
ATOM     18  C   UNL     1      -3.770   3.899  -1.742  1.00  0.00     0.065 A 
ATOM     19  C   UNL     1      -4.410   5.047  -1.256  1.00  0.00     0.012 A 
ATOM     20  C   UNL     1      -3.033   3.870  -2.932  1.00  0.00     0.028 A 
ATOM     21  C   UNL     1      -4.308   6.222  -2.020  1.00  0.00     0.011 A 
ATOM     22  C   UNL     1      -2.980   5.043  -3.676  1.00  0.00     0.002 A 
ATOM     23  C   UNL     1      -3.613   6.200  -3.232  1.00  0.00     0.001 A 
BRANCH  16  24
ATOM     24  S   UNL     1      -3.329   1.399  -0.774  1.00  0.00     0.268 S 
ATOM     25  O   UNL     1      -3.613   0.834  -2.079  1.00  0.00    -0.201 OA
ATOM     26  O   UNL     1      -3.779   0.836   0.480  1.00  0.00    -0.201 OA
BRANCH  24  27
ATOM     27  C   UNL     1      -1.579   1.610  -0.608  1.00  0.00     0.088 A 
ATOM     28  C   UNL     1       2.659   1.597   0.147  1.00  0.00     0.044 C 
ATOM     29  C   UNL     1       1.189   1.666  -0.153  1.00  0.00    -0.051 A 
ATOM     30  C   UNL     1       0.583   0.553  -0.730  1.00  0.00     0.005 A 
ATOM     31  C   UNL     1       0.398   2.777   0.156  1.00  0.00     0.005 A 
ATOM     32  C   UNL     1      -0.787   0.524  -0.965  1.00  0.00     0.022 A 
ATOM     33  C   UNL     1      -0.989   2.751  -0.061  1.00  0.00     0.022 A 
ENDBRANCH  24  27
ENDBRANCH  16  24
ENDBRANCH  13  15
ENDBRANCH  10  13
ENDBRANCH   8   9
ENDBRANCH   5   8
ENDBRANCH   3   4
ENDBRANCH   1   3
BRANCH   1  34
ATOM     34  O   UNL     1     -10.662   1.468   2.561  1.00  0.00    -0.461 OA
BRANCH  34  35
ATOM     35  C   UNL     1     -11.819   0.663   2.297  1.00  0.00     0.274 C 
BRANCH  35  36
ATOM     36  C   UNL     1     -13.057   1.553   2.447  1.00  0.00     0.275 C 
BRANCH  36  37
ATOM     37  O   UNL     1     -13.271   2.511   1.374  1.00  0.00    -0.458 OA
BRANCH  37  38
ATOM     38  C   UNL     1     -12.870   3.805   1.496  1.00  0.00     0.338 C 
ATOM     39  O   UNL     1     -13.594   4.784   1.470  1.00  0.00    -0.246 OA
BRANCH  38  40
ATOM     40  C   UNL     1     -11.407   3.931   1.563  1.00  0.00     0.060 A 
ATOM     41  C   UNL     1     -10.450   3.794   0.043  1.00  0.00     0.016 A 
ATOM     42  C   UNL     1     -10.644   3.543   3.152  1.00  0.00     0.016 A 
ATOM     43  C   UNL     1      -8.789   3.027   0.089  1.00  0.00     0.010 A 
ATOM     44  C   UNL     1      -9.010   2.785   3.193  1.00  0.00     0.010 A 
ATOM     45  C   UNL     1      -8.136   2.429   1.654  1.00  0.00    -0.014 A 
BRANCH  45  46
ATOM     46  C   UNL     1      -7.423   1.121   1.811  1.00  0.00     0.031 A 
ATOM     47  C   UNL     1      -6.375   1.042   2.858  1.00  0.00     0.074 A 
ATOM     48  C   UNL     1      -7.763  -0.004   1.147  1.00  0.00     0.049 A 
ATOM     49  N   UNL     1      -6.032   0.081   3.644  1.00  0.00    -0.248 NA
ATOM     50  C   UNL     1      -5.579   2.236   3.045  1.00  0.00     0.031 C 
ATOM     51  C   UNL     1      -7.341  -1.366   1.476  1.00  0.00     0.029 A 
ATOM     52  N   UNL     1      -8.486  -0.191  -0.017  1.00  0.00    -0.354 N 
ATOM     53  C   UNL     1      -4.891   0.514   4.298  1.00  0.00     0.074 A 
ATOM     54  C   UNL     1      -4.733   1.916   4.005  1.00  0.00     0.031 C 
ATOM     55  C   UNL     1      -7.575  -2.164   0.425  1.00  0.00     0.029 A 
ATOM     56  C   UNL     1      -7.993  -1.315  -0.668  1.00  0.00     0.049 A 
ATOM     57  H   UNL     1      -9.226   0.378  -0.331  1.00  0.00     0.167 HD
ATOM     58  C   UNL     1      -3.770  -0.225   4.475  1.00  0.00     0.031 A 
ATOM     59  C   UNL     1      -7.376  -1.275  -1.882  1.00  0.00     0.031 A 
ATOM     60  C   UNL     1      -3.706  -1.369   3.577  1.00  0.00     0.049 A 
ATOM     61  C   UNL     1      -5.919  -1.713  -1.789  1.00  0.00     0.074 A 
ATOM     62  C   UNL     1      -4.389  -2.571   3.572  1.00  0.00     0.029 A 
ATOM     63  N   UNL     1      -3.174  -1.227   2.288  1.00  0.00    -0.354 N 
ATOM     64  N   UNL     1      -5.232  -1.796  -0.672  1.00  0.00    -0.248 NA
ATOM     65  C   UNL     1      -5.147  -2.154  -2.939  1.00  0.00     0.031 C 
ATOM     66  C   UNL     1      -4.295  -3.134   2.268  1.00  0.00     0.029 A 
ATOM     67  C   UNL     1      -3.503  -2.317   1.476  1.00  0.00     0.049 A 
ATOM     68  H   UNL     1      -2.638  -0.457   1.991  1.00  0.00     0.167 HD
ATOM     69  C   UNL     1      -3.973  -2.297  -0.914  1.00  0.00     0.074 A 
ATOM     70  C   UNL     1      -3.997  -2.534  -2.354  1.00  0.00     0.031 C 
ATOM     71  C   UNL     1      -3.025  -2.453   0.078  1.00  0.00     0.031 A 
BRANCH  58  72
ATOM     72  C   UNL     1      -2.943   0.091   5.710  1.00  0.00    -0.014 A 
ATOM     73  C   UNL     1      -2.115  -0.903   6.244  1.00  0.00     0.010 A 
ATOM     74  C   UNL     1      -3.083   1.275   6.492  1.00  0.00     0.010 A 
ATOM     75  C   UNL     1      -1.545  -0.767   7.524  1.00  0.00     0.020 A 
ATOM     76  C   UNL     1      -2.491   1.437   7.750  1.00  0.00     0.020 A 
ATOM     77  C   UNL     1      -1.763   0.388   8.281  1.00  0.00     0.054 A 
BRANCH  77  78
ATOM     78  S   UNL     1      -1.189   0.459   9.998  1.00  0.00     0.124 S 
ATOM     79  O   UNL     1      -1.974  -0.600  10.628  1.00  0.00    -0.237 OA
ATOM     80  O   UNL     1       0.240   0.197   9.868  1.00  0.00    -0.237 OA
ATOM     81  O   UNL     1      -1.532   1.815  10.428  1.00  0.00    -0.744 OA
ENDBRANCH  77  78
ENDBRANCH  58  72
BRANCH  59  82
ATOM     82  C   UNL     1      -8.048  -0.367  -2.859  1.00  0.00    -0.014 A 
ATOM     83  C   UNL     1      -9.367  -0.740  -3.219  1.00  0.00     0.010 A 
ATOM     84  C   UNL     1      -7.671   0.975  -3.024  1.00  0.00     0.010 A 
ATOM     85  C   UNL     1     -10.341   0.224  -3.499  1.00  0.00     0.020 A 
ATOM     86  C   UNL     1      -8.643   1.945  -3.351  1.00  0.00     0.020 A 
ATOM     87  C   UNL     1      -9.983   1.569  -3.509  1.00  0.00     0.054 A 
BRANCH  87  88
ATOM     88  S   UNL     1     -11.324   2.803  -3.551  1.00  0.00     0.124 S 
ATOM     89  O   UNL     1     -11.932   2.569  -4.856  1.00  0.00    -0.237 OA
ATOM     90  O   UNL     1     -12.144   2.421  -2.405  1.00  0.00    -0.237 OA
ATOM     91  O   UNL     1     -10.619   4.074  -3.402  1.00  0.00    -0.744 OA
ENDBRANCH  87  88
ENDBRANCH  59  82
BRANCH  71  92
ATOM     92  C   UNL     1      -1.537  -2.785  -0.158  1.00  0.00    -0.014 A 
ATOM     93  C   UNL     1      -0.949  -3.004  -1.417  1.00  0.00     0.010 A 
ATOM     94  C   UNL     1      -0.623  -2.743   0.926  1.00  0.00     0.010 A 
ATOM     95  C   UNL     1       0.440  -3.077  -1.612  1.00  0.00     0.020 A 
ATOM     96  C   UNL     1       0.775  -2.796   0.748  1.00  0.00     0.020 A 
ATOM     97  C   UNL     1       1.300  -2.938  -0.531  1.00  0.00     0.054 A 
BRANCH  97  98
ATOM     98  S   UNL     1       3.068  -2.694  -0.874  1.00  0.00     0.124 S 
ATOM     99  O   UNL     1       3.509  -4.041  -1.218  1.00  0.00    -0.237 OA
ATOM    100  O   UNL     1       3.042  -1.742  -1.984  1.00  0.00    -0.237 OA
ATOM    101  O   UNL     1       3.590  -2.152   0.377  1.00  0.00    -0.744 OA
ENDBRANCH  97  98
ENDBRANCH  71  92
ENDBRANCH  45  46
ENDBRANCH  38  40
ENDBRANCH  37  38
ENDBRANCH  36  37
ENDBRANCH  35  36
ENDBRANCH  34  35
ENDBRANCH   1  34
TORSDOF 21
