REMARK SMILES Cc1cccc(NC(=O)[C@H]2C=C[C@@H]([NH3+])C2)c1C(=O)OCCOC(=O)c1ccc(-c2c3nc(c(-c4ccc(S(=O)(=O)[O-])cc4)c4ccc([nH]4)c(-c4ccc(S(=O)(=O)[O-])cc4)c4nc(c(-c5ccc(S(=O)(=O)[O-])cc5)c5ccc2[nH]5)C=C4)C=C3)cc1
REMARK SMILES IDX 20 1 19 2 17 3 18 4 16 5 1 6 2 7 3 8 4 9 6 10 5 11 7 12 8 13
REMARK SMILES IDX 9 15 10 16 11 17 15 18 12 19 13 20 14 21 21 25 22 26 23 27
REMARK SMILES IDX 24 28 25 29 26 30 84 31 27 32 83 33 28 34 29 35 30 36 77 37
REMARK SMILES IDX 31 38 82 39 76 40 78 41 32 42 81 43 75 44 74 45 33 47 63 48
REMARK SMILES IDX 44 49 62 50 45 51 48 52 61 53 79 54 46 55 47 56 60 58 80 59
REMARK SMILES IDX 49 60 34 61 35 62 43 63 36 64 42 65 37 66 38 67 39 68 40 69
REMARK SMILES IDX 41 70 64 71 65 72 73 73 66 74 72 75 67 76 68 77 69 78 70 79
REMARK SMILES IDX 71 80 50 81 51 82 59 83 52 84 58 85 53 86 54 87 55 88 56 89
REMARK SMILES IDX 57 90
REMARK H PARENT 7 14 14 22 14 23 14 24 78 46 48 57
REMARK Flexibility Score: inf
ROOT
ATOM      1  C   UNL     1       3.192   2.246  -1.989  1.00  0.00     0.275 C 
ENDROOT
BRANCH   1   2
ATOM      2  O   UNL     1       1.967   1.475  -2.032  1.00  0.00    -0.458 OA
BRANCH   2   3
ATOM      3  C   UNL     1       1.523   1.015  -0.826  1.00  0.00     0.340 C 
ATOM      4  O   UNL     1       2.008   1.259   0.262  1.00  0.00    -0.246 OA
BRANCH   3   5
ATOM      5  C   UNL     1       0.660  -0.171  -1.011  1.00  0.00     0.086 A 
ATOM      6  C   UNL     1       2.833  -1.508  -0.611  1.00  0.00     0.045 C 
ATOM      7  C   UNL     1       1.354  -1.406  -0.897  1.00  0.00    -0.034 A 
ATOM      8  C   UNL     1       0.630  -2.601  -0.946  1.00  0.00     0.004 A 
ATOM      9  C   UNL     1      -0.731  -2.579  -1.205  1.00  0.00     0.002 A 
ATOM     10  C   UNL     1      -0.754  -0.150  -1.117  1.00  0.00     0.056 A 
ATOM     11  C   UNL     1      -1.393  -1.360  -1.338  1.00  0.00     0.027 A 
BRANCH  10  12
ATOM     12  N   UNL     1      -1.527   1.013  -0.949  1.00  0.00    -0.325 N 
ATOM     13  C   UNL     1      -2.800   1.284  -0.547  1.00  0.00     0.231 C 
ATOM     14  H   UNL     1      -1.026   1.829  -1.176  1.00  0.00     0.169 HD
ATOM     15  O   UNL     1      -3.029   2.489  -0.359  1.00  0.00    -0.274 OA
BRANCH  13  16
ATOM     16  C   UNL     1      -4.024   0.387  -0.291  1.00  0.00     0.107 C 
ATOM     17  C   UNL     1      -4.848   0.230  -1.535  1.00  0.00    -0.012 C 
ATOM     18  C   UNL     1      -4.043  -0.994   0.365  1.00  0.00     0.087 C 
ATOM     19  C   UNL     1      -5.401  -0.983  -1.620  1.00  0.00     0.033 C 
ATOM     20  C   UNL     1      -5.030  -1.852  -0.465  1.00  0.00     0.205 C 
BRANCH  20  21
ATOM     21  N   UNL     1      -4.470  -3.108  -0.942  1.00  0.00    -0.352 N 
ATOM     22  H   UNL     1      -3.663  -2.917  -1.536  1.00  0.00     0.345 HD
ATOM     23  H   UNL     1      -5.176  -3.613  -1.478  1.00  0.00     0.345 HD
ATOM     24  H   UNL     1      -4.179  -3.675  -0.145  1.00  0.00     0.345 HD
ENDBRANCH  20  21
ENDBRANCH  13  16
ENDBRANCH  10  12
ENDBRANCH   3   5
ENDBRANCH   2   3
ENDBRANCH   1   2
BRANCH   1  25
ATOM     25  C   UNL     1       3.257   3.343  -3.076  1.00  0.00     0.275 C 
BRANCH  25  26
ATOM     26  O   UNL     1       2.516   4.551  -2.821  1.00  0.00    -0.458 OA
BRANCH  26  27
ATOM     27  C   UNL     1       1.273   4.358  -2.308  1.00  0.00     0.338 C 
ATOM     28  O   UNL     1       0.402   3.713  -2.881  1.00  0.00    -0.246 OA
BRANCH  27  29
ATOM     29  C   UNL     1       1.373   4.623  -0.846  1.00  0.00     0.060 A 
ATOM     30  C   UNL     1       0.483   3.961   0.004  1.00  0.00     0.016 A 
ATOM     31  C   UNL     1       2.554   5.175  -0.333  1.00  0.00     0.016 A 
ATOM     32  C   UNL     1       0.845   3.684   1.317  1.00  0.00     0.010 A 
ATOM     33  C   UNL     1       2.942   4.861   0.951  1.00  0.00     0.010 A 
ATOM     34  C   UNL     1       2.102   4.089   1.764  1.00  0.00    -0.014 A 
BRANCH  34  35
ATOM     35  C   UNL     1       2.476   4.040   3.167  1.00  0.00     0.031 A 
ATOM     36  C   UNL     1       3.008   2.832   3.836  1.00  0.00     0.074 A 
ATOM     37  C   UNL     1       2.272   5.222   3.788  1.00  0.00     0.049 A 
ATOM     38  N   UNL     1       2.950   2.636   5.110  1.00  0.00    -0.248 NA
ATOM     39  C   UNL     1       3.621   1.710   3.126  1.00  0.00     0.031 C 
ATOM     40  C   UNL     1       2.642   5.642   5.123  1.00  0.00     0.029 A 
ATOM     41  N   UNL     1       1.413   6.236   3.332  1.00  0.00    -0.354 N 
ATOM     42  C   UNL     1       3.736   1.540   5.413  1.00  0.00     0.074 A 
ATOM     43  C   UNL     1       4.050   0.942   4.139  1.00  0.00     0.031 C 
ATOM     44  C   UNL     1       1.778   6.603   5.503  1.00  0.00     0.029 A 
ATOM     45  C   UNL     1       0.755   6.704   4.463  1.00  0.00     0.049 A 
ATOM     46  H   UNL     1       1.300   6.550   2.406  1.00  0.00     0.167 HD
ATOM     47  C   UNL     1       4.157   1.363   6.700  1.00  0.00     0.031 A 
ATOM     48  C   UNL     1      -0.588   6.520   4.628  1.00  0.00     0.031 A 
ATOM     49  C   UNL     1       3.527   2.348   7.574  1.00  0.00     0.049 A 
ATOM     50  C   UNL     1      -0.843   5.742   5.892  1.00  0.00     0.074 A 
ATOM     51  C   UNL     1       3.947   3.597   7.999  1.00  0.00     0.029 A 
ATOM     52  N   UNL     1       2.159   2.280   7.807  1.00  0.00    -0.354 N 
ATOM     53  N   UNL     1      -0.043   4.820   6.359  1.00  0.00    -0.248 NA
ATOM     54  C   UNL     1      -1.973   6.022   6.768  1.00  0.00     0.031 C 
ATOM     55  C   UNL     1       2.790   4.338   8.349  1.00  0.00     0.029 A 
ATOM     56  C   UNL     1       1.683   3.520   8.187  1.00  0.00     0.049 A 
ATOM     57  H   UNL     1       1.609   1.469   7.714  1.00  0.00     0.167 HD
ATOM     58  C   UNL     1      -0.449   4.495   7.628  1.00  0.00     0.074 A 
ATOM     59  C   UNL     1      -1.687   5.234   7.818  1.00  0.00     0.031 C 
ATOM     60  C   UNL     1       0.275   3.716   8.483  1.00  0.00     0.031 A 
BRANCH  47  61
ATOM     61  C   UNL     1       5.369   0.549   7.115  1.00  0.00    -0.014 A 
ATOM     62  C   UNL     1       6.090   0.944   8.267  1.00  0.00     0.010 A 
ATOM     63  C   UNL     1       5.900  -0.541   6.402  1.00  0.00     0.010 A 
ATOM     64  C   UNL     1       7.316   0.363   8.627  1.00  0.00     0.020 A 
ATOM     65  C   UNL     1       7.137  -1.125   6.743  1.00  0.00     0.020 A 
ATOM     66  C   UNL     1       7.849  -0.652   7.842  1.00  0.00     0.054 A 
BRANCH  66  67
ATOM     67  S   UNL     1       9.478  -1.327   8.272  1.00  0.00     0.124 S 
ATOM     68  O   UNL     1      10.347  -0.160   8.140  1.00  0.00    -0.237 OA
ATOM     69  O   UNL     1       9.274  -1.808   9.636  1.00  0.00    -0.237 OA
ATOM     70  O   UNL     1       9.696  -2.372   7.274  1.00  0.00    -0.744 OA
ENDBRANCH  66  67
ENDBRANCH  47  61
BRANCH  48  71
ATOM     71  C   UNL     1      -1.419   6.474   3.380  1.00  0.00    -0.014 A 
ATOM     72  C   UNL     1      -1.389   7.608   2.536  1.00  0.00     0.010 A 
ATOM     73  C   UNL     1      -1.983   5.295   2.863  1.00  0.00     0.010 A 
ATOM     74  C   UNL     1      -1.793   7.542   1.198  1.00  0.00     0.020 A 
ATOM     75  C   UNL     1      -2.408   5.231   1.514  1.00  0.00     0.020 A 
ATOM     76  C   UNL     1      -2.275   6.345   0.677  1.00  0.00     0.054 A 
BRANCH  76  77
ATOM     77  S   UNL     1      -2.530   6.249  -1.133  1.00  0.00     0.124 S 
ATOM     78  O   UNL     1      -3.935   6.620  -1.269  1.00  0.00    -0.237 OA
ATOM     79  O   UNL     1      -1.572   7.230  -1.645  1.00  0.00    -0.237 OA
ATOM     80  O   UNL     1      -2.196   4.874  -1.468  1.00  0.00    -0.744 OA
ENDBRANCH  76  77
ENDBRANCH  48  71
BRANCH  60  81
ATOM     81  C   UNL     1      -0.244   3.176   9.786  1.00  0.00    -0.014 A 
ATOM     82  C   UNL     1      -1.600   2.898  10.012  1.00  0.00     0.010 A 
ATOM     83  C   UNL     1       0.677   2.785  10.786  1.00  0.00     0.010 A 
ATOM     84  C   UNL     1      -2.029   2.332  11.216  1.00  0.00     0.020 A 
ATOM     85  C   UNL     1       0.264   2.175  11.970  1.00  0.00     0.020 A 
ATOM     86  C   UNL     1      -1.094   1.981  12.191  1.00  0.00     0.054 A 
BRANCH  86  87
ATOM     87  S   UNL     1      -1.649   1.203  13.725  1.00  0.00     0.124 S 
ATOM     88  O   UNL     1      -1.867   2.363  14.585  1.00  0.00    -0.237 OA
ATOM     89  O   UNL     1      -2.858   0.491  13.316  1.00  0.00    -0.237 OA
ATOM     90  O   UNL     1      -0.526   0.346  14.097  1.00  0.00    -0.744 OA
ENDBRANCH  86  87
ENDBRANCH  60  81
ENDBRANCH  34  35
ENDBRANCH  27  29
ENDBRANCH  26  27
ENDBRANCH  25  26
ENDBRANCH   1  25
TORSDOF 17
