REMARK SMILES O=C(OCCOC(=O)c1cn2ccnc2s1)c1ccc(-c2c3nc(c(-c4ccc(S(=O)(=O)[O-])cc4)c4ccc([nH]4)c(-c4ccc(S(=O)(=O)[O-])cc4)c4nc(c(-c5ccc(S(=O)(=O)[O-])cc5)c5ccc2[nH]5)C=C4)C=C3)cc1
REMARK SMILES IDX 3 1 2 2 1 3 17 4 18 5 76 6 19 7 75 8 20 9 21 10 22 11 69 12
REMARK SMILES IDX 23 13 74 14 68 15 70 16 24 17 73 18 67 19 66 20 25 22 55 23
REMARK SMILES IDX 36 24 54 25 37 26 40 27 53 28 71 29 38 30 39 31 52 33 72 34
REMARK SMILES IDX 41 35 26 36 27 37 35 38 28 39 34 40 29 41 30 42 31 43 32 44
REMARK SMILES IDX 33 45 56 46 57 47 65 48 58 49 64 50 59 51 60 52 61 53 62 54
REMARK SMILES IDX 63 55 42 56 43 57 51 58 44 59 50 60 45 61 46 62 47 63 48 64
REMARK SMILES IDX 49 65 4 66 5 67 6 68 7 69 8 70 9 71 10 72 16 73 11 74 15 75
REMARK SMILES IDX 12 76 14 77 13 78
REMARK H PARENT 70 21 40 32
REMARK Flexibility Score: inf
ROOT
ATOM      1  O   UNL     1       3.038  -0.498   0.757  1.00  0.00    -0.458 OA
ENDROOT
BRANCH   1   2
ATOM      2  C   UNL     1       3.025   0.848   0.597  1.00  0.00     0.338 C 
ATOM      3  O   UNL     1       2.346   1.540   1.351  1.00  0.00    -0.246 OA
BRANCH   2   4
ATOM      4  C   UNL     1       3.624   1.494  -0.612  1.00  0.00     0.060 A 
ATOM      5  C   UNL     1       4.880   1.205  -1.156  1.00  0.00     0.016 A 
ATOM      6  C   UNL     1       2.865   2.516  -1.207  1.00  0.00     0.016 A 
ATOM      7  C   UNL     1       5.351   1.878  -2.288  1.00  0.00     0.010 A 
ATOM      8  C   UNL     1       3.327   3.189  -2.341  1.00  0.00     0.010 A 
ATOM      9  C   UNL     1       4.584   2.881  -2.879  1.00  0.00    -0.014 A 
BRANCH   9  10
ATOM     10  C   UNL     1       5.158   3.745  -3.933  1.00  0.00     0.031 A 
ATOM     11  C   UNL     1       5.624   5.116  -3.545  1.00  0.00     0.074 A 
ATOM     12  C   UNL     1       5.247   3.329  -5.209  1.00  0.00     0.049 A 
ATOM     13  N   UNL     1       6.068   6.081  -4.303  1.00  0.00    -0.248 NA
ATOM     14  C   UNL     1       5.613   5.428  -2.105  1.00  0.00     0.031 C 
ATOM     15  C   UNL     1       4.928   1.987  -5.688  1.00  0.00     0.029 A 
ATOM     16  N   UNL     1       5.575   4.021  -6.347  1.00  0.00    -0.354 N 
ATOM     17  C   UNL     1       6.420   7.103  -3.431  1.00  0.00     0.074 A 
ATOM     18  C   UNL     1       6.074   6.668  -2.097  1.00  0.00     0.031 C 
ATOM     19  C   UNL     1       4.952   1.986  -7.032  1.00  0.00     0.029 A 
ATOM     20  C   UNL     1       5.286   3.328  -7.499  1.00  0.00     0.049 A 
ATOM     21  H   UNL     1       5.977   4.920  -6.340  1.00  0.00     0.167 HD
ATOM     22  C   UNL     1       7.009   8.287  -3.717  1.00  0.00     0.031 A 
ATOM     23  C   UNL     1       5.242   3.747  -8.779  1.00  0.00     0.031 A 
ATOM     24  C   UNL     1       7.292   8.726  -5.054  1.00  0.00     0.049 A 
ATOM     25  C   UNL     1       5.707   5.138  -9.097  1.00  0.00     0.074 A 
ATOM     26  C   UNL     1       7.899   9.895  -5.471  1.00  0.00     0.029 A 
ATOM     27  N   UNL     1       6.953   8.015  -6.197  1.00  0.00    -0.354 N 
ATOM     28  N   UNL     1       6.101   6.076  -8.267  1.00  0.00    -0.248 NA
ATOM     29  C   UNL     1       5.778   5.515 -10.514  1.00  0.00     0.031 C 
ATOM     30  C   UNL     1       7.881   9.912  -6.871  1.00  0.00     0.029 A 
ATOM     31  C   UNL     1       7.312   8.730  -7.323  1.00  0.00     0.049 A 
ATOM     32  H   UNL     1       6.520   7.130  -6.204  1.00  0.00     0.167 HD
ATOM     33  C   UNL     1       6.538   7.127  -9.063  1.00  0.00     0.074 A 
ATOM     34  C   UNL     1       6.320   6.725 -10.440  1.00  0.00     0.031 C 
ATOM     35  C   UNL     1       7.103   8.299  -8.685  1.00  0.00     0.031 A 
BRANCH  22  36
ATOM     36  C   UNL     1       7.341   9.171  -2.548  1.00  0.00    -0.014 A 
ATOM     37  C   UNL     1       8.353   8.809  -1.637  1.00  0.00     0.010 A 
ATOM     38  C   UNL     1       6.592  10.336  -2.314  1.00  0.00     0.010 A 
ATOM     39  C   UNL     1       8.554   9.553  -0.472  1.00  0.00     0.020 A 
ATOM     40  C   UNL     1       6.809  11.098  -1.162  1.00  0.00     0.020 A 
ATOM     41  C   UNL     1       7.766  10.682  -0.233  1.00  0.00     0.054 A 
BRANCH  41  42
ATOM     42  S   UNL     1       8.002  11.595   1.316  1.00  0.00     0.124 S 
ATOM     43  O   UNL     1       7.349  10.716   2.283  1.00  0.00    -0.237 OA
ATOM     44  O   UNL     1       9.457  11.675   1.426  1.00  0.00    -0.237 OA
ATOM     45  O   UNL     1       7.328  12.867   1.075  1.00  0.00    -0.744 OA
ENDBRANCH  41  42
ENDBRANCH  22  36
BRANCH  23  46
ATOM     46  C   UNL     1       4.712   2.836  -9.827  1.00  0.00    -0.014 A 
ATOM     47  C   UNL     1       5.571   2.154 -10.704  1.00  0.00     0.010 A 
ATOM     48  C   UNL     1       3.325   2.602  -9.907  1.00  0.00     0.010 A 
ATOM     49  C   UNL     1       5.053   1.251 -11.639  1.00  0.00     0.020 A 
ATOM     50  C   UNL     1       2.806   1.689 -10.830  1.00  0.00     0.020 A 
ATOM     51  C   UNL     1       3.675   1.017 -11.690  1.00  0.00     0.054 A 
BRANCH  51  52
ATOM     52  S   UNL     1       3.043  -0.224 -12.854  1.00  0.00     0.124 S 
ATOM     53  O   UNL     1       3.275   0.419 -14.143  1.00  0.00    -0.237 OA
ATOM     54  O   UNL     1       3.886  -1.380 -12.561  1.00  0.00    -0.237 OA
ATOM     55  O   UNL     1       1.641  -0.372 -12.469  1.00  0.00    -0.744 OA
ENDBRANCH  51  52
ENDBRANCH  23  46
BRANCH  35  56
ATOM     56  C   UNL     1       7.615   9.209  -9.765  1.00  0.00    -0.014 A 
ATOM     57  C   UNL     1       6.750  10.026 -10.509  1.00  0.00     0.010 A 
ATOM     58  C   UNL     1       9.007   9.334  -9.938  1.00  0.00     0.010 A 
ATOM     59  C   UNL     1       7.271  10.963 -11.405  1.00  0.00     0.020 A 
ATOM     60  C   UNL     1       9.530  10.283 -10.815  1.00  0.00     0.020 A 
ATOM     61  C   UNL     1       8.658  11.093 -11.544  1.00  0.00     0.054 A 
BRANCH  61  62
ATOM     62  S   UNL     1       9.311  12.395 -12.625  1.00  0.00     0.124 S 
ATOM     63  O   UNL     1       9.075  11.834 -13.952  1.00  0.00    -0.237 OA
ATOM     64  O   UNL     1       8.487  13.548 -12.273  1.00  0.00    -0.237 OA
ATOM     65  O   UNL     1      10.715  12.497 -12.232  1.00  0.00    -0.744 OA
ENDBRANCH  61  62
ENDBRANCH  35  56
ENDBRANCH   9  10
ENDBRANCH   2   4
ENDBRANCH   1   2
BRANCH   1  66
ATOM     66  C   UNL     1       4.126  -1.387   0.457  1.00  0.00     0.275 C 
BRANCH  66  67
ATOM     67  C   UNL     1       3.926  -2.179  -0.838  1.00  0.00     0.275 C 
BRANCH  67  68
ATOM     68  O   UNL     1       3.374  -1.385  -1.903  1.00  0.00    -0.458 OA
BRANCH  68  69
ATOM     69  C   UNL     1       2.016  -1.442  -2.015  1.00  0.00     0.350 C 
ATOM     70  O   UNL     1       1.276  -2.170  -1.382  1.00  0.00    -0.245 OA
BRANCH  69  71
ATOM     71  C   UNL     1       1.554  -0.405  -2.959  1.00  0.00     0.132 A 
ATOM     72  C   UNL     1       2.084  -0.075  -4.151  1.00  0.00     0.120 A 
ATOM     73  S   UNL     1       0.182   0.614  -2.489  1.00  0.00    -0.089 S 
ATOM     74  N   UNL     1       1.455   1.030  -4.678  1.00  0.00    -0.297 N 
ATOM     75  C   UNL     1       0.465   1.567  -3.909  1.00  0.00     0.194 A 
ATOM     76  C   UNL     1       1.565   1.813  -5.783  1.00  0.00     0.114 A 
ATOM     77  N   UNL     1       0.012   2.705  -4.357  1.00  0.00    -0.227 NA
ATOM     78  C   UNL     1       0.710   2.876  -5.538  1.00  0.00     0.133 A 
ENDBRANCH  69  71
ENDBRANCH  68  69
ENDBRANCH  67  68
ENDBRANCH  66  67
ENDBRANCH   1  66
TORSDOF 14
