REMARK SMILES C[C@@H]1OCC[C@@H]1C(=O)Nc1ccc(C(=O)OCCOC(=O)c2ccc(-c3c4nc(c(-c5ccc(S(=O)(=O)[O-])cc5)c5ccc([nH]5)c(-c5ccc(S(=O)(=O)[O-])cc5)c5nc(c(-c6ccc(S(=O)(=O)[O-])cc6)c6ccc3[nH]6)C=C5)C=C4)cc2)cc1F
REMARK SMILES IDX 18 1 17 2 16 3 14 4 15 5 13 6 10 7 11 8 83 9 12 10 82 11
REMARK SMILES IDX 84 12 9 13 7 14 8 15 6 17 1 18 2 19 3 20 4 21 5 22 19 23
REMARK SMILES IDX 20 24 21 25 22 26 23 27 81 28 24 29 80 30 25 31 26 32 27 33
REMARK SMILES IDX 74 34 28 35 79 36 73 37 75 38 29 39 78 40 72 41 71 42 30 44
REMARK SMILES IDX 60 45 41 46 59 47 42 48 45 49 58 50 76 51 43 52 44 53 57 55
REMARK SMILES IDX 77 56 46 57 31 58 32 59 40 60 33 61 39 62 34 63 35 64 36 65
REMARK SMILES IDX 37 66 38 67 61 68 62 69 70 70 63 71 69 72 64 73 65 74 66 75
REMARK SMILES IDX 67 76 68 77 47 78 48 79 56 80 49 81 55 82 50 83 51 84 52 85
REMARK SMILES IDX 53 86 54 87
REMARK H PARENT 9 16 75 43 45 54
REMARK Flexibility Score: inf
ROOT
ATOM      1  C   UNL     1       3.933  -2.119   7.666  1.00  0.00     0.275 C 
ENDROOT
BRANCH   1   2
ATOM      2  C   UNL     1       2.494  -2.105   7.156  1.00  0.00     0.275 C 
BRANCH   2   3
ATOM      3  O   UNL     1       2.393  -1.381   5.916  1.00  0.00    -0.458 OA
BRANCH   3   4
ATOM      4  C   UNL     1       1.896  -0.127   6.012  1.00  0.00     0.338 C 
ATOM      5  O   UNL     1       1.525   0.454   7.021  1.00  0.00    -0.246 OA
BRANCH   4   6
ATOM      6  C   UNL     1       1.785   0.457   4.671  1.00  0.00     0.063 A 
ATOM      7  C   UNL     1       1.266   1.636   2.148  1.00  0.00     0.077 A 
ATOM      8  C   UNL     1       2.192   2.202   3.034  1.00  0.00     0.030 A 
ATOM      9  C   UNL     1       0.606   0.475   2.591  1.00  0.00     0.147 A 
ATOM     10  C   UNL     1       2.440   1.627   4.286  1.00  0.00     0.018 A 
ATOM     11  C   UNL     1       0.873  -0.122   3.815  1.00  0.00     0.057 A 
ATOM     12  F   UNL     1      -0.366  -0.139   1.919  1.00  0.00    -0.205 F 
BRANCH   7  13
ATOM     13  N   UNL     1       1.119   2.341   0.926  1.00  0.00    -0.323 N 
ATOM     14  C   UNL     1       0.429   2.135  -0.236  1.00  0.00     0.230 C 
ATOM     15  O   UNL     1       0.486   3.002  -1.112  1.00  0.00    -0.274 OA
ATOM     16  H   UNL     1       1.636   3.178   0.912  1.00  0.00     0.170 HD
BRANCH  14  17
ATOM     17  C   UNL     1      -0.350   0.876  -0.441  1.00  0.00     0.110 C 
ATOM     18  C   UNL     1       1.719  -0.139  -1.612  1.00  0.00     0.039 C 
ATOM     19  C   UNL     1       0.523  -0.359  -0.686  1.00  0.00     0.127 C 
ATOM     20  O   UNL     1      -0.344  -1.332  -1.316  1.00  0.00    -0.378 OA
ATOM     21  C   UNL     1      -1.613  -0.699  -1.537  1.00  0.00     0.161 C 
ATOM     22  C   UNL     1      -1.326   0.789  -1.591  1.00  0.00     0.044 C 
ENDBRANCH  14  17
ENDBRANCH   7  13
ENDBRANCH   4   6
ENDBRANCH   3   4
ENDBRANCH   2   3
ENDBRANCH   1   2
BRANCH   1  23
ATOM     23  O   UNL     1       4.360  -0.783   7.995  1.00  0.00    -0.458 OA
BRANCH  23  24
ATOM     24  C   UNL     1       5.252  -0.237   7.136  1.00  0.00     0.338 C 
ATOM     25  O   UNL     1       5.774  -0.769   6.173  1.00  0.00    -0.246 OA
BRANCH  24  26
ATOM     26  C   UNL     1       5.453   1.188   7.447  1.00  0.00     0.060 A 
ATOM     27  C   UNL     1       4.421   2.067   7.160  1.00  0.00     0.016 A 
ATOM     28  C   UNL     1       6.704   1.686   7.792  1.00  0.00     0.016 A 
ATOM     29  C   UNL     1       4.668   3.427   7.032  1.00  0.00     0.010 A 
ATOM     30  C   UNL     1       6.902   3.075   7.838  1.00  0.00     0.010 A 
ATOM     31  C   UNL     1       5.902   3.967   7.404  1.00  0.00    -0.014 A 
BRANCH  31  32
ATOM     32  C   UNL     1       6.135   5.441   7.298  1.00  0.00     0.031 A 
ATOM     33  C   UNL     1       7.349   5.972   6.575  1.00  0.00     0.074 A 
ATOM     34  C   UNL     1       5.243   6.319   7.810  1.00  0.00     0.049 A 
ATOM     35  N   UNL     1       7.834   7.188   6.559  1.00  0.00    -0.248 NA
ATOM     36  C   UNL     1       8.133   5.010   5.782  1.00  0.00     0.031 C 
ATOM     37  C   UNL     1       3.984   5.973   8.478  1.00  0.00     0.029 A 
ATOM     38  N   UNL     1       5.247   7.694   7.829  1.00  0.00    -0.354 N 
ATOM     39  C   UNL     1       9.020   7.118   5.833  1.00  0.00     0.074 A 
ATOM     40  C   UNL     1       9.176   5.741   5.417  1.00  0.00     0.031 C 
ATOM     41  C   UNL     1       3.307   7.092   8.765  1.00  0.00     0.029 A 
ATOM     42  C   UNL     1       4.140   8.240   8.439  1.00  0.00     0.049 A 
ATOM     43  H   UNL     1       5.972   8.237   7.444  1.00  0.00     0.167 HD
ATOM     44  C   UNL     1       9.901   8.108   5.550  1.00  0.00     0.031 A 
ATOM     45  C   UNL     1       3.843   9.512   8.767  1.00  0.00     0.031 A 
ATOM     46  C   UNL     1       9.707   9.488   5.917  1.00  0.00     0.049 A 
ATOM     47  C   UNL     1       4.849  10.587   8.482  1.00  0.00     0.074 A 
ATOM     48  C   UNL     1      10.538  10.568   5.674  1.00  0.00     0.029 A 
ATOM     49  N   UNL     1       8.596   9.981   6.584  1.00  0.00    -0.354 N 
ATOM     50  N   UNL     1       6.011  10.486   7.882  1.00  0.00    -0.248 NA
ATOM     51  C   UNL     1       4.519  11.941   8.944  1.00  0.00     0.031 C 
ATOM     52  C   UNL     1       9.950  11.707   6.235  1.00  0.00     0.029 A 
ATOM     53  C   UNL     1       8.726  11.347   6.775  1.00  0.00     0.049 A 
ATOM     54  H   UNL     1       7.828   9.441   6.878  1.00  0.00     0.167 HD
ATOM     55  C   UNL     1       6.551  11.765   7.891  1.00  0.00     0.074 A 
ATOM     56  C   UNL     1       5.575  12.627   8.530  1.00  0.00     0.031 C 
ATOM     57  C   UNL     1       7.750  12.188   7.421  1.00  0.00     0.031 A 
BRANCH  44  58
ATOM     58  C   UNL     1      11.186   7.725   4.860  1.00  0.00    -0.014 A 
ATOM     59  C   UNL     1      11.221   7.338   3.509  1.00  0.00     0.010 A 
ATOM     60  C   UNL     1      12.392   7.779   5.585  1.00  0.00     0.010 A 
ATOM     61  C   UNL     1      12.430   6.967   2.911  1.00  0.00     0.020 A 
ATOM     62  C   UNL     1      13.607   7.437   4.983  1.00  0.00     0.020 A 
ATOM     63  C   UNL     1      13.614   7.013   3.654  1.00  0.00     0.054 A 
BRANCH  63  64
ATOM     64  S   UNL     1      15.170   6.530   2.853  1.00  0.00     0.124 S 
ATOM     65  O   UNL     1      15.032   5.078   2.781  1.00  0.00    -0.237 OA
ATOM     66  O   UNL     1      15.104   7.232   1.574  1.00  0.00    -0.237 OA
ATOM     67  O   UNL     1      16.198   7.013   3.772  1.00  0.00    -0.744 OA
ENDBRANCH  63  64
ENDBRANCH  44  58
BRANCH  45  68
ATOM     68  C   UNL     1       2.568   9.818   9.475  1.00  0.00    -0.014 A 
ATOM     69  C   UNL     1       1.550  10.550   8.840  1.00  0.00     0.010 A 
ATOM     70  C   UNL     1       2.351   9.343  10.784  1.00  0.00     0.010 A 
ATOM     71  C   UNL     1       0.342  10.800   9.498  1.00  0.00     0.020 A 
ATOM     72  C   UNL     1       1.133   9.560  11.431  1.00  0.00     0.020 A 
ATOM     73  C   UNL     1       0.138  10.296  10.787  1.00  0.00     0.054 A 
BRANCH  73  74
ATOM     74  S   UNL     1      -1.466  10.564  11.592  1.00  0.00     0.124 S 
ATOM     75  O   UNL     1      -1.379  11.969  11.979  1.00  0.00    -0.237 OA
ATOM     76  O   UNL     1      -2.412  10.258  10.522  1.00  0.00    -0.237 OA
ATOM     77  O   UNL     1      -1.456   9.607  12.696  1.00  0.00    -0.744 OA
ENDBRANCH  73  74
ENDBRANCH  45  68
BRANCH  57  78
ATOM     78  C   UNL     1       8.056  13.654   7.555  1.00  0.00    -0.014 A 
ATOM     79  C   UNL     1       8.365  14.222   8.803  1.00  0.00     0.010 A 
ATOM     80  C   UNL     1       8.057  14.469   6.409  1.00  0.00     0.010 A 
ATOM     81  C   UNL     1       8.631  15.589   8.909  1.00  0.00     0.020 A 
ATOM     82  C   UNL     1       8.350  15.830   6.506  1.00  0.00     0.020 A 
ATOM     83  C   UNL     1       8.619  16.385   7.759  1.00  0.00     0.054 A 
BRANCH  83  84
ATOM     84  S   UNL     1       8.993  18.152   7.917  1.00  0.00     0.124 S 
ATOM     85  O   UNL     1       7.763  18.671   8.509  1.00  0.00    -0.237 OA
ATOM     86  O   UNL     1      10.163  18.156   8.791  1.00  0.00    -0.237 OA
ATOM     87  O   UNL     1       9.249  18.576   6.542  1.00  0.00    -0.744 OA
ENDBRANCH  83  84
ENDBRANCH  57  78
ENDBRANCH  31  32
ENDBRANCH  24  26
ENDBRANCH  23  24
ENDBRANCH   1  23
TORSDOF 16
