REMARK SMILES CC[C@@](O)(C(=O)OCCOC(=O)c1ccc(-c2c3nc(c(-c4ccc(S(=O)(=O)[O-])cc4)c4ccc([nH]4)c(-c4ccc(S(=O)(=O)[O-])cc4)c4nc(c(-c5ccc(S(=O)(=O)[O-])cc5)c5ccc2[nH]5)C=C4)C=C3)cc1)[C@@H]1CCOc2ccccc21
REMARK SMILES IDX 9 1 8 2 7 3 5 4 6 5 3 6 2 7 1 8 4 9 73 11 74 12 82 13 75 14
REMARK SMILES IDX 77 15 81 16 76 17 78 18 80 19 79 20 10 21 11 22 12 23 13 24
REMARK SMILES IDX 14 25 72 26 15 27 71 28 16 29 17 30 18 31 65 32 19 33 70 34
REMARK SMILES IDX 64 35 66 36 20 37 69 38 63 39 62 40 21 42 51 43 32 44 50 45
REMARK SMILES IDX 33 46 36 47 49 48 67 49 34 50 35 51 48 53 68 54 37 55 22 56
REMARK SMILES IDX 23 57 31 58 24 59 30 60 25 61 26 62 27 63 28 64 29 65 52 66
REMARK SMILES IDX 53 67 61 68 54 69 60 70 55 71 56 72 57 73 58 74 59 75 38 76
REMARK SMILES IDX 39 77 47 78 40 79 46 80 41 81 42 82 43 83 44 84 45 85
REMARK H PARENT 4 10 66 41 36 52
REMARK Flexibility Score: inf
ROOT
ATOM      1  C   UNL     1      -0.823   3.581  -4.579  1.00  0.00     0.275 C 
ENDROOT
BRANCH   1   2
ATOM      2  C   UNL     1      -1.546   2.237  -4.478  1.00  0.00     0.274 C 
BRANCH   2   3
ATOM      3  O   UNL     1      -1.171   1.520  -3.286  1.00  0.00    -0.460 OA
BRANCH   3   4
ATOM      4  C   UNL     1      -0.116   0.664  -3.425  1.00  0.00     0.338 C 
ATOM      5  O   UNL     1       0.460   0.486  -4.494  1.00  0.00    -0.249 OA
BRANCH   4   6
ATOM      6  C   UNL     1       0.270  -0.052  -2.086  1.00  0.00     0.168 C 
BRANCH   6   7
ATOM      7  C   UNL     1       0.377   1.027  -0.974  1.00  0.00     0.044 C 
ATOM      8  C   UNL     1       0.296   0.529   0.471  1.00  0.00     0.007 C 
ENDBRANCH   6   7
BRANCH   6   9
ATOM      9  O   UNL     1      -0.810  -0.936  -1.732  1.00  0.00    -0.378 OA
ATOM     10  H   UNL     1      -1.609  -0.415  -1.558  1.00  0.00     0.212 HD
ENDBRANCH   6   9
BRANCH   6  11
ATOM     11  C   UNL     1       1.600  -0.875  -2.379  1.00  0.00     0.070 C 
ATOM     12  C   UNL     1       1.336  -2.008  -3.418  1.00  0.00     0.053 C 
ATOM     13  C   UNL     1       2.377  -1.409  -1.187  1.00  0.00     0.001 A 
ATOM     14  C   UNL     1       2.093  -3.285  -3.116  1.00  0.00     0.230 C 
ATOM     15  C   UNL     1       2.419  -2.782  -0.921  1.00  0.00     0.122 A 
ATOM     16  C   UNL     1       3.171  -0.567  -0.394  1.00  0.00     0.008 A 
ATOM     17  O   UNL     1       1.833  -3.686  -1.768  1.00  0.00    -0.493 OA
ATOM     18  C   UNL     1       3.121  -3.296   0.167  1.00  0.00     0.047 A 
ATOM     19  C   UNL     1       3.899  -1.075   0.685  1.00  0.00     0.001 A 
ATOM     20  C   UNL     1       3.862  -2.437   0.975  1.00  0.00     0.004 A 
ENDBRANCH   6  11
ENDBRANCH   4   6
ENDBRANCH   3   4
ENDBRANCH   2   3
ENDBRANCH   1   2
BRANCH   1  21
ATOM     21  O   UNL     1       0.601   3.393  -4.689  1.00  0.00    -0.458 OA
BRANCH  21  22
ATOM     22  C   UNL     1       1.355   4.055  -3.782  1.00  0.00     0.338 C 
ATOM     23  O   UNL     1       0.963   4.800  -2.901  1.00  0.00    -0.246 OA
BRANCH  22  24
ATOM     24  C   UNL     1       2.785   3.756  -3.985  1.00  0.00     0.060 A 
ATOM     25  C   UNL     1       3.253   2.451  -3.842  1.00  0.00     0.016 A 
ATOM     26  C   UNL     1       3.689   4.800  -4.171  1.00  0.00     0.016 A 
ATOM     27  C   UNL     1       4.624   2.192  -3.798  1.00  0.00     0.010 A 
ATOM     28  C   UNL     1       5.062   4.529  -4.209  1.00  0.00     0.010 A 
ATOM     29  C   UNL     1       5.550   3.229  -3.979  1.00  0.00    -0.014 A 
BRANCH  29  30
ATOM     30  C   UNL     1       7.018   2.987  -3.861  1.00  0.00     0.031 A 
ATOM     31  C   UNL     1       7.820   3.726  -2.816  1.00  0.00     0.074 A 
ATOM     32  C   UNL     1       7.652   2.115  -4.671  1.00  0.00     0.049 A 
ATOM     33  N   UNL     1       9.119   3.819  -2.681  1.00  0.00    -0.248 NA
ATOM     34  C   UNL     1       7.058   4.466  -1.797  1.00  0.00     0.031 C 
ATOM     35  C   UNL     1       7.016   1.283  -5.693  1.00  0.00     0.029 A 
ATOM     36  N   UNL     1       8.984   1.787  -4.760  1.00  0.00    -0.354 N 
ATOM     37  C   UNL     1       9.330   4.677  -1.607  1.00  0.00     0.074 A 
ATOM     38  C   UNL     1       8.024   5.072  -1.122  1.00  0.00     0.031 C 
ATOM     39  C   UNL     1       7.950   0.521  -6.285  1.00  0.00     0.029 A 
ATOM     40  C   UNL     1       9.261   0.866  -5.743  1.00  0.00     0.049 A 
ATOM     41  H   UNL     1       9.675   2.175  -4.176  1.00  0.00     0.167 HD
ATOM     42  C   UNL     1      10.501   5.106  -1.076  1.00  0.00     0.031 A 
ATOM     43  C   UNL     1      10.435   0.380  -6.193  1.00  0.00     0.031 A 
ATOM     44  C   UNL     1      11.801   4.685  -1.523  1.00  0.00     0.049 A 
ATOM     45  C   UNL     1      11.724   0.880  -5.603  1.00  0.00     0.074 A 
ATOM     46  C   UNL     1      13.043   5.075  -1.050  1.00  0.00     0.029 A 
ATOM     47  N   UNL     1      12.030   3.763  -2.531  1.00  0.00    -0.354 N 
ATOM     48  N   UNL     1      11.905   1.754  -4.643  1.00  0.00    -0.248 NA
ATOM     49  C   UNL     1      12.968   0.341  -6.172  1.00  0.00     0.031 C 
ATOM     50  C   UNL     1      14.024   4.404  -1.790  1.00  0.00     0.029 A 
ATOM     51  C   UNL     1      13.391   3.571  -2.697  1.00  0.00     0.049 A 
ATOM     52  H   UNL     1      11.328   3.310  -3.053  1.00  0.00     0.167 HD
ATOM     53  C   UNL     1      13.282   1.869  -4.493  1.00  0.00     0.074 A 
ATOM     54  C   UNL     1      13.887   0.959  -5.443  1.00  0.00     0.031 C 
ATOM     55  C   UNL     1      13.982   2.666  -3.648  1.00  0.00     0.031 A 
BRANCH  42  56
ATOM     56  C   UNL     1      10.424   6.125   0.029  1.00  0.00    -0.014 A 
ATOM     57  C   UNL     1      10.053   5.763   1.336  1.00  0.00     0.010 A 
ATOM     58  C   UNL     1      10.750   7.466  -0.246  1.00  0.00     0.010 A 
ATOM     59  C   UNL     1       9.967   6.734   2.338  1.00  0.00     0.020 A 
ATOM     60  C   UNL     1      10.686   8.435   0.758  1.00  0.00     0.020 A 
ATOM     61  C   UNL     1      10.275   8.065   2.040  1.00  0.00     0.054 A 
BRANCH  61  62
ATOM     62  S   UNL     1      10.159   9.310   3.356  1.00  0.00     0.124 S 
ATOM     63  O   UNL     1       8.720   9.552   3.413  1.00  0.00    -0.237 OA
ATOM     64  O   UNL     1      10.725   8.616   4.510  1.00  0.00    -0.237 OA
ATOM     65  O   UNL     1      10.960  10.422   2.849  1.00  0.00    -0.744 OA
ENDBRANCH  61  62
ENDBRANCH  42  56
BRANCH  43  66
ATOM     66  C   UNL     1      10.444  -0.606  -7.307  1.00  0.00    -0.014 A 
ATOM     67  C   UNL     1      10.752  -1.955  -7.064  1.00  0.00     0.010 A 
ATOM     68  C   UNL     1      10.116  -0.200  -8.614  1.00  0.00     0.010 A 
ATOM     69  C   UNL     1      10.733  -2.882  -8.110  1.00  0.00     0.020 A 
ATOM     70  C   UNL     1      10.072  -1.129  -9.656  1.00  0.00     0.020 A 
ATOM     71  C   UNL     1      10.389  -2.464  -9.399  1.00  0.00     0.054 A 
BRANCH  71  72
ATOM     72  S   UNL     1      10.286  -3.693 -10.730  1.00  0.00     0.124 S 
ATOM     73  O   UNL     1      11.685  -3.840 -11.115  1.00  0.00    -0.237 OA
ATOM     74  O   UNL     1       9.690  -4.846 -10.057  1.00  0.00    -0.237 OA
ATOM     75  O   UNL     1       9.425  -3.048 -11.718  1.00  0.00    -0.744 OA
ENDBRANCH  71  72
ENDBRANCH  43  66
BRANCH  55  76
ATOM     76  C   UNL     1      15.481   2.575  -3.698  1.00  0.00    -0.014 A 
ATOM     77  C   UNL     1      16.208   3.192  -4.731  1.00  0.00     0.010 A 
ATOM     78  C   UNL     1      16.174   1.903  -2.675  1.00  0.00     0.010 A 
ATOM     79  C   UNL     1      17.603   3.116  -4.755  1.00  0.00     0.020 A 
ATOM     80  C   UNL     1      17.570   1.840  -2.687  1.00  0.00     0.020 A 
ATOM     81  C   UNL     1      18.275   2.436  -3.735  1.00  0.00     0.054 A 
BRANCH  81  82
ATOM     82  S   UNL     1      20.089   2.382  -3.761  1.00  0.00     0.124 S 
ATOM     83  O   UNL     1      20.347   1.338  -4.749  1.00  0.00    -0.237 OA
ATOM     84  O   UNL     1      20.449   3.738  -4.170  1.00  0.00    -0.237 OA
ATOM     85  O   UNL     1      20.443   2.040  -2.385  1.00  0.00    -0.744 OA
ENDBRANCH  81  82
ENDBRANCH  55  76
ENDBRANCH  29  30
ENDBRANCH  22  24
ENDBRANCH  21  22
ENDBRANCH   1  21
TORSDOF 17
