REMARK SMILES Cc1ccccc1[C@@H]1[NH2+][C@H](C(=O)OCCOC(=O)c2ccc(-c3c4nc(c(-c5ccc(S(=O)(=O)[O-])cc5)c5ccc([nH]5)c(-c5ccc(S(=O)(=O)[O-])cc5)c5nc(c(-c6ccc(S(=O)(=O)[O-])cc6)c6ccc3[nH]6)C=C5)C=C4)cc2)CC2=c3ccccc3=N[C@H]21
REMARK SMILES IDX 15 1 14 2 13 3 11 4 12 5 10 6 8 7 9 8 88 9 80 12 87 13 79 14
REMARK SMILES IDX 81 15 86 16 82 17 85 18 83 19 84 20 7 21 1 22 2 23 3 24 4 25
REMARK SMILES IDX 6 26 5 27 16 28 17 29 18 30 19 31 20 32 78 33 21 34 77 35
REMARK SMILES IDX 22 36 23 37 24 38 71 39 25 40 76 41 70 42 72 43 26 44 75 45
REMARK SMILES IDX 69 46 68 47 27 49 57 50 38 51 56 52 39 53 42 54 55 55 73 56
REMARK SMILES IDX 40 57 41 58 54 60 74 61 43 62 28 63 29 64 37 65 30 66 36 67
REMARK SMILES IDX 31 68 32 69 33 70 34 71 35 72 58 73 59 74 67 75 60 76 66 77
REMARK SMILES IDX 61 78 62 79 63 80 64 81 65 82 44 83 45 84 53 85 46 86 52 87
REMARK SMILES IDX 47 88 48 89 49 90 50 91 51 92
REMARK H PARENT 9 10 9 11 72 48 42 59
REMARK Flexibility Score: inf
ROOT
ATOM      1  C   UNL     1      -2.367   7.347  -3.129  1.00  0.00     0.275 C 
ENDROOT
BRANCH   1   2
ATOM      2  C   UNL     1      -2.878   6.944  -1.741  1.00  0.00     0.274 C 
BRANCH   2   3
ATOM      3  O   UNL     1      -1.930   6.104  -1.073  1.00  0.00    -0.458 OA
BRANCH   3   4
ATOM      4  C   UNL     1      -2.496   5.200  -0.241  1.00  0.00     0.365 C 
ATOM      5  O   UNL     1      -3.695   5.183   0.035  1.00  0.00    -0.245 OA
BRANCH   4   6
ATOM      6  C   UNL     1      -1.522   4.333   0.516  1.00  0.00     0.298 C 
ATOM      7  C   UNL     1       0.493   2.954   0.761  1.00  0.00     0.243 C 
ATOM      8  N   UNL     1      -0.289   3.853  -0.156  1.00  0.00    -0.326 N 
ATOM      9  C   UNL     1       0.688   3.499   2.245  1.00  0.00     0.196 C 
ATOM     10  H   UNL     1      -0.545   3.334  -0.997  1.00  0.00     0.347 HD
ATOM     11  H   UNL     1       0.288   4.657  -0.402  1.00  0.00     0.347 HD
ATOM     12  C   UNL     1      -0.562   4.211   2.665  1.00  0.00    -0.024 C 
ATOM     13  N   UNL     1       0.807   2.372   3.229  1.00  0.00    -0.270 NA
ATOM     14  C   UNL     1      -1.125   5.189   1.718  1.00  0.00     0.111 C 
ATOM     15  C   UNL     1      -1.219   3.547   3.604  1.00  0.00     0.002 A 
ATOM     16  C   UNL     1      -0.300   2.445   3.905  1.00  0.00     0.066 A 
ATOM     17  C   UNL     1      -2.578   3.556   4.034  1.00  0.00     0.010 A 
ATOM     18  C   UNL     1      -0.771   1.491   4.930  1.00  0.00     0.028 A 
ATOM     19  C   UNL     1      -2.985   2.569   4.846  1.00  0.00     0.001 A 
ATOM     20  C   UNL     1      -2.049   1.571   5.343  1.00  0.00     0.002 A 
BRANCH   7  21
ATOM     21  C   UNL     1       1.863   2.566   0.201  1.00  0.00     0.015 A 
ATOM     22  C   UNL     1       2.634   4.985  -0.205  1.00  0.00     0.045 C 
ATOM     23  C   UNL     1       2.865   3.500  -0.139  1.00  0.00    -0.042 A 
ATOM     24  C   UNL     1       4.176   3.043  -0.373  1.00  0.00     0.004 A 
ATOM     25  C   UNL     1       4.486   1.684  -0.348  1.00  0.00     0.000 A 
ATOM     26  C   UNL     1       2.186   1.191   0.161  1.00  0.00     0.010 A 
ATOM     27  C   UNL     1       3.482   0.755  -0.114  1.00  0.00     0.001 A 
ENDBRANCH   7  21
ENDBRANCH   4   6
ENDBRANCH   3   4
ENDBRANCH   2   3
ENDBRANCH   1   2
BRANCH   1  28
ATOM     28  O   UNL     1      -2.010   6.321  -4.093  1.00  0.00    -0.458 OA
BRANCH  28  29
ATOM     29  C   UNL     1      -1.684   5.066  -3.664  1.00  0.00     0.338 C 
ATOM     30  O   UNL     1      -0.553   4.735  -3.366  1.00  0.00    -0.246 OA
BRANCH  29  31
ATOM     31  C   UNL     1      -2.917   4.265  -3.421  1.00  0.00     0.060 A 
ATOM     32  C   UNL     1      -2.873   3.103  -2.630  1.00  0.00     0.016 A 
ATOM     33  C   UNL     1      -4.138   4.843  -3.754  1.00  0.00     0.016 A 
ATOM     34  C   UNL     1      -4.044   2.599  -2.056  1.00  0.00     0.010 A 
ATOM     35  C   UNL     1      -5.258   4.445  -3.077  1.00  0.00     0.010 A 
ATOM     36  C   UNL     1      -5.227   3.310  -2.248  1.00  0.00    -0.014 A 
BRANCH  36  37
ATOM     37  C   UNL     1      -6.565   2.850  -1.907  1.00  0.00     0.031 A 
ATOM     38  C   UNL     1      -7.190   2.997  -0.576  1.00  0.00     0.074 A 
ATOM     39  C   UNL     1      -7.273   2.562  -3.025  1.00  0.00     0.049 A 
ATOM     40  N   UNL     1      -8.329   2.471  -0.284  1.00  0.00    -0.248 NA
ATOM     41  C   UNL     1      -6.623   3.725   0.557  1.00  0.00     0.031 C 
ATOM     42  C   UNL     1      -8.705   2.506  -3.241  1.00  0.00     0.029 A 
ATOM     43  N   UNL     1      -6.743   2.165  -4.262  1.00  0.00    -0.354 N 
ATOM     44  C   UNL     1      -8.785   3.039   0.889  1.00  0.00     0.074 A 
ATOM     45  C   UNL     1      -7.645   3.735   1.429  1.00  0.00     0.031 C 
ATOM     46  C   UNL     1      -8.935   1.806  -4.369  1.00  0.00     0.029 A 
ATOM     47  C   UNL     1      -7.652   1.266  -4.805  1.00  0.00     0.049 A 
ATOM     48  H   UNL     1      -5.896   2.464  -4.664  1.00  0.00     0.167 HD
ATOM     49  C   UNL     1     -10.118   2.953   1.169  1.00  0.00     0.031 A 
ATOM     50  C   UNL     1      -7.334  -0.058  -4.917  1.00  0.00     0.031 A 
ATOM     51  C   UNL     1     -10.782   2.137   0.156  1.00  0.00     0.049 A 
ATOM     52  C   UNL     1      -8.260  -0.877  -4.052  1.00  0.00     0.074 A 
ATOM     53  C   UNL     1     -11.513   2.467  -0.972  1.00  0.00     0.029 A 
ATOM     54  N   UNL     1     -10.442   0.798   0.044  1.00  0.00    -0.354 N 
ATOM     55  N   UNL     1      -8.810  -0.446  -2.949  1.00  0.00    -0.248 NA
ATOM     56  C   UNL     1      -8.711  -2.211  -4.425  1.00  0.00     0.031 C 
ATOM     57  C   UNL     1     -11.538   1.323  -1.812  1.00  0.00     0.029 A 
ATOM     58  C   UNL     1     -10.845   0.303  -1.179  1.00  0.00     0.049 A 
ATOM     59  H   UNL     1      -9.979   0.275   0.738  1.00  0.00     0.167 HD
ATOM     60  C   UNL     1      -9.760  -1.346  -2.538  1.00  0.00     0.074 A 
ATOM     61  C   UNL     1      -9.626  -2.452  -3.470  1.00  0.00     0.031 C 
ATOM     62  C   UNL     1     -10.628  -1.097  -1.511  1.00  0.00     0.031 A 
BRANCH  49  63
ATOM     63  C   UNL     1     -10.917   3.756   2.176  1.00  0.00    -0.014 A 
ATOM     64  C   UNL     1     -12.322   3.818   2.007  1.00  0.00     0.010 A 
ATOM     65  C   UNL     1     -10.397   4.487   3.260  1.00  0.00     0.010 A 
ATOM     66  C   UNL     1     -13.155   4.597   2.818  1.00  0.00     0.020 A 
ATOM     67  C   UNL     1     -11.226   5.273   4.091  1.00  0.00     0.020 A 
ATOM     68  C   UNL     1     -12.600   5.333   3.855  1.00  0.00     0.054 A 
BRANCH  68  69
ATOM     69  S   UNL     1     -13.706   6.351   4.871  1.00  0.00     0.124 S 
ATOM     70  O   UNL     1     -14.238   7.301   3.897  1.00  0.00    -0.237 OA
ATOM     71  O   UNL     1     -14.662   5.372   5.379  1.00  0.00    -0.237 OA
ATOM     72  O   UNL     1     -12.818   6.930   5.877  1.00  0.00    -0.744 OA
ENDBRANCH  68  69
ENDBRANCH  49  63
BRANCH  50  73
ATOM     73  C   UNL     1      -5.876  -0.322  -5.156  1.00  0.00    -0.014 A 
ATOM     74  C   UNL     1      -5.334   0.136  -6.380  1.00  0.00     0.010 A 
ATOM     75  C   UNL     1      -4.989  -0.586  -4.094  1.00  0.00     0.010 A 
ATOM     76  C   UNL     1      -3.979   0.468  -6.494  1.00  0.00     0.020 A 
ATOM     77  C   UNL     1      -3.622  -0.268  -4.212  1.00  0.00     0.020 A 
ATOM     78  C   UNL     1      -3.140   0.306  -5.393  1.00  0.00     0.054 A 
BRANCH  78  79
ATOM     79  S   UNL     1      -1.478   1.048  -5.475  1.00  0.00     0.124 S 
ATOM     80  O   UNL     1      -0.848   0.281  -6.545  1.00  0.00    -0.237 OA
ATOM     81  O   UNL     1      -1.793   2.439  -5.797  1.00  0.00    -0.237 OA
ATOM     82  O   UNL     1      -0.945   0.821  -4.135  1.00  0.00    -0.744 OA
ENDBRANCH  78  79
ENDBRANCH  50  73
BRANCH  62  83
ATOM     83  C   UNL     1     -11.462  -2.120  -0.774  1.00  0.00    -0.014 A 
ATOM     84  C   UNL     1     -11.318  -3.504  -0.919  1.00  0.00     0.010 A 
ATOM     85  C   UNL     1     -12.364  -1.679   0.230  1.00  0.00     0.010 A 
ATOM     86  C   UNL     1     -12.082  -4.400  -0.163  1.00  0.00     0.020 A 
ATOM     87  C   UNL     1     -13.084  -2.561   1.036  1.00  0.00     0.020 A 
ATOM     88  C   UNL     1     -12.960  -3.923   0.809  1.00  0.00     0.054 A 
BRANCH  88  89
ATOM     89  S   UNL     1     -13.896  -5.106   1.800  1.00  0.00     0.124 S 
ATOM     90  O   UNL     1     -14.947  -5.508   0.869  1.00  0.00    -0.237 OA
ATOM     91  O   UNL     1     -12.898  -6.131   2.099  1.00  0.00    -0.237 OA
ATOM     92  O   UNL     1     -14.340  -4.324   2.950  1.00  0.00    -0.744 OA
ENDBRANCH  88  89
ENDBRANCH  62  83
ENDBRANCH  36  37
ENDBRANCH  29  31
ENDBRANCH  28  29
ENDBRANCH   1  28
TORSDOF 15
