REMARK SMILES C[C@H](Sc1ccnc(C(=O)OCCOC(=O)c2ccc(-c3c4nc(c(-c5ccc(S(=O)(=O)[O-])cc5)c5ccc([nH]5)c(-c5ccc(S(=O)(=O)[O-])cc5)c5nc(c(-c6ccc(S(=O)(=O)[O-])cc6)c6ccc3[nH]6)C=C5)C=C4)cc2)c1)[C@@H](C)O
REMARK SMILES IDX 12 1 11 2 9 3 10 4 8 5 4 6 5 7 77 8 6 9 7 10 3 11 2 12 1 13
REMARK SMILES IDX 78 14 79 15 80 16 13 18 14 19 15 20 16 21 17 22 18 23 76 24
REMARK SMILES IDX 19 25 75 26 20 27 21 28 22 29 69 30 23 31 74 32 68 33 70 34
REMARK SMILES IDX 24 35 73 36 67 37 66 38 25 40 55 41 36 42 54 43 37 44 40 45
REMARK SMILES IDX 53 46 71 47 38 48 39 49 52 51 72 52 41 53 26 54 27 55 35 56
REMARK SMILES IDX 28 57 34 58 29 59 30 60 31 61 32 62 33 63 56 64 57 65 65 66
REMARK SMILES IDX 58 67 64 68 59 69 60 70 61 71 62 72 63 73 42 74 43 75 51 76
REMARK SMILES IDX 44 77 50 78 45 79 46 80 47 81 48 82 49 83
REMARK H PARENT 80 17 70 39 40 50
REMARK Flexibility Score: inf
ROOT
ATOM      1  C   UNL     1       5.078   4.941   2.402  1.00  0.00     0.275 C 
ENDROOT
BRANCH   1   2
ATOM      2  O   UNL     1       4.389   3.762   1.939  1.00  0.00    -0.457 OA
BRANCH   2   3
ATOM      3  C   UNL     1       5.178   2.823   1.349  1.00  0.00     0.357 C 
ATOM      4  O   UNL     1       6.370   2.956   1.115  1.00  0.00    -0.244 OA
BRANCH   3   5
ATOM      5  C   UNL     1       4.422   1.553   1.089  1.00  0.00     0.149 A 
ATOM      6  C   UNL     1       2.419   0.251   0.804  1.00  0.00     0.012 A 
ATOM      7  C   UNL     1       3.225  -0.880   0.720  1.00  0.00     0.035 A 
ATOM      8  C   UNL     1       3.036   1.496   1.006  1.00  0.00     0.051 A 
ATOM      9  C   UNL     1       4.596  -0.735   0.817  1.00  0.00     0.113 A 
ATOM     10  N   UNL     1       5.207   0.451   0.970  1.00  0.00    -0.249 NA
BRANCH   6  11
ATOM     11  S   UNL     1       0.629   0.239   0.730  1.00  0.00    -0.120 SA
BRANCH  11  12
ATOM     12  C   UNL     1       0.130  -1.432   0.090  1.00  0.00     0.077 C 
ATOM     13  C   UNL     1       0.309  -2.515   1.167  1.00  0.00     0.022 C 
BRANCH  12  14
ATOM     14  C   UNL     1      -1.353  -1.398  -0.383  1.00  0.00     0.124 C 
ATOM     15  C   UNL     1      -1.652  -0.416  -1.513  1.00  0.00     0.039 C 
BRANCH  14  16
ATOM     16  O   UNL     1      -1.756  -2.695  -0.852  1.00  0.00    -0.392 OA
ATOM     17  H   UNL     1      -1.234  -2.931  -1.635  1.00  0.00     0.210 HD
ENDBRANCH  14  16
ENDBRANCH  12  14
ENDBRANCH  11  12
ENDBRANCH   6  11
ENDBRANCH   3   5
ENDBRANCH   2   3
ENDBRANCH   1   2
BRANCH   1  18
ATOM     18  C   UNL     1       5.272   4.928   3.922  1.00  0.00     0.275 C 
BRANCH  18  19
ATOM     19  O   UNL     1       6.163   3.882   4.354  1.00  0.00    -0.458 OA
BRANCH  19  20
ATOM     20  C   UNL     1       5.551   2.729   4.716  1.00  0.00     0.338 C 
ATOM     21  O   UNL     1       4.351   2.506   4.718  1.00  0.00    -0.246 OA
BRANCH  20  22
ATOM     22  C   UNL     1       6.550   1.693   5.021  1.00  0.00     0.060 A 
ATOM     23  C   UNL     1       6.644   0.615   4.142  1.00  0.00     0.016 A 
ATOM     24  C   UNL     1       7.293   1.703   6.202  1.00  0.00     0.016 A 
ATOM     25  C   UNL     1       7.453  -0.474   4.446  1.00  0.00     0.010 A 
ATOM     26  C   UNL     1       8.130   0.616   6.495  1.00  0.00     0.010 A 
ATOM     27  C   UNL     1       8.203  -0.491   5.628  1.00  0.00    -0.014 A 
BRANCH  27  28
ATOM     28  C   UNL     1       9.020  -1.690   5.958  1.00  0.00     0.031 A 
ATOM     29  C   UNL     1       8.640  -2.572   7.117  1.00  0.00     0.074 A 
ATOM     30  C   UNL     1      10.077  -2.015   5.188  1.00  0.00     0.049 A 
ATOM     31  N   UNL     1       9.260  -3.623   7.592  1.00  0.00    -0.248 NA
ATOM     32  C   UNL     1       7.404  -2.228   7.835  1.00  0.00     0.031 C 
ATOM     33  C   UNL     1      10.519  -1.276   4.004  1.00  0.00     0.029 A 
ATOM     34  N   UNL     1      10.965  -3.059   5.279  1.00  0.00    -0.354 N 
ATOM     35  C   UNL     1       8.510  -4.045   8.685  1.00  0.00     0.074 A 
ATOM     36  C   UNL     1       7.396  -3.128   8.808  1.00  0.00     0.031 C 
ATOM     37  C   UNL     1      11.578  -1.902   3.467  1.00  0.00     0.029 A 
ATOM     38  C   UNL     1      11.930  -3.048   4.300  1.00  0.00     0.049 A 
ATOM     39  H   UNL     1      10.915  -3.749   5.979  1.00  0.00     0.167 HD
ATOM     40  C   UNL     1       8.730  -5.097   9.511  1.00  0.00     0.031 A 
ATOM     41  C   UNL     1      12.996  -3.849   4.107  1.00  0.00     0.031 A 
ATOM     42  C   UNL     1       9.834  -6.013   9.380  1.00  0.00     0.049 A 
ATOM     43  C   UNL     1      13.250  -4.978   5.066  1.00  0.00     0.074 A 
ATOM     44  C   UNL     1      10.137  -7.114  10.163  1.00  0.00     0.029 A 
ATOM     45  N   UNL     1      10.813  -5.939   8.400  1.00  0.00    -0.354 N 
ATOM     46  N   UNL     1      12.543  -5.349   6.106  1.00  0.00    -0.248 NA
ATOM     47  C   UNL     1      14.448  -5.794   4.828  1.00  0.00     0.031 C 
ATOM     48  C   UNL     1      11.327  -7.676   9.687  1.00  0.00     0.029 A 
ATOM     49  C   UNL     1      11.734  -6.960   8.572  1.00  0.00     0.049 A 
ATOM     50  H   UNL     1      10.849  -5.261   7.688  1.00  0.00     0.167 HD
ATOM     51  C   UNL     1      13.203  -6.450   6.640  1.00  0.00     0.074 A 
ATOM     52  C   UNL     1      14.355  -6.696   5.796  1.00  0.00     0.031 C 
ATOM     53  C   UNL     1      12.882  -7.189   7.730  1.00  0.00     0.031 A 
BRANCH  40  54
ATOM     54  C   UNL     1       7.780  -5.280  10.666  1.00  0.00    -0.014 A 
ATOM     55  C   UNL     1       6.462  -5.729  10.471  1.00  0.00     0.010 A 
ATOM     56  C   UNL     1       8.223  -5.011  11.975  1.00  0.00     0.010 A 
ATOM     57  C   UNL     1       5.589  -5.854  11.557  1.00  0.00     0.020 A 
ATOM     58  C   UNL     1       7.362  -5.160  13.065  1.00  0.00     0.020 A 
ATOM     59  C   UNL     1       6.043  -5.559  12.846  1.00  0.00     0.054 A 
BRANCH  59  60
ATOM     60  S   UNL     1       4.889  -5.719  14.238  1.00  0.00     0.124 S 
ATOM     61  O   UNL     1       4.047  -4.538  14.067  1.00  0.00    -0.237 OA
ATOM     62  O   UNL     1       4.237  -6.998  13.970  1.00  0.00    -0.237 OA
ATOM     63  O   UNL     1       5.758  -5.700  15.412  1.00  0.00    -0.744 OA
ENDBRANCH  59  60
ENDBRANCH  40  54
BRANCH  41  64
ATOM     64  C   UNL     1      13.920  -3.581   2.971  1.00  0.00    -0.014 A 
ATOM     65  C   UNL     1      13.966  -4.444   1.863  1.00  0.00     0.010 A 
ATOM     66  C   UNL     1      14.733  -2.432   2.978  1.00  0.00     0.010 A 
ATOM     67  C   UNL     1      14.810  -4.164   0.784  1.00  0.00     0.020 A 
ATOM     68  C   UNL     1      15.556  -2.134   1.889  1.00  0.00     0.020 A 
ATOM     69  C   UNL     1      15.595  -3.007   0.801  1.00  0.00     0.054 A 
BRANCH  69  70
ATOM     70  S   UNL     1      16.622  -2.621  -0.644  1.00  0.00     0.124 S 
ATOM     71  O   UNL     1      17.724  -3.567  -0.494  1.00  0.00    -0.237 OA
ATOM     72  O   UNL     1      15.713  -2.880  -1.758  1.00  0.00    -0.237 OA
ATOM     73  O   UNL     1      16.972  -1.216  -0.450  1.00  0.00    -0.744 OA
ENDBRANCH  69  70
ENDBRANCH  41  64
BRANCH  53  74
ATOM     74  C   UNL     1      13.776  -8.354   8.062  1.00  0.00    -0.014 A 
ATOM     75  C   UNL     1      15.051  -8.158   8.620  1.00  0.00     0.010 A 
ATOM     76  C   UNL     1      13.311  -9.666   7.856  1.00  0.00     0.010 A 
ATOM     77  C   UNL     1      15.858  -9.253   8.941  1.00  0.00     0.020 A 
ATOM     78  C   UNL     1      14.105 -10.764   8.199  1.00  0.00     0.020 A 
ATOM     79  C   UNL     1      15.379 -10.550   8.727  1.00  0.00     0.054 A 
BRANCH  79  80
ATOM     80  S   UNL     1      16.426 -11.957   9.191  1.00  0.00     0.124 S 
ATOM     81  O   UNL     1      17.416 -11.967   8.118  1.00  0.00    -0.237 OA
ATOM     82  O   UNL     1      16.929 -11.565  10.506  1.00  0.00    -0.237 OA
ATOM     83  O   UNL     1      15.502 -13.089   9.197  1.00  0.00    -0.744 OA
ENDBRANCH  79  80
ENDBRANCH  53  74
ENDBRANCH  27  28
ENDBRANCH  20  22
ENDBRANCH  19  20
ENDBRANCH  18  19
ENDBRANCH   1  18
TORSDOF 18
