REMARK SMILES O=C(CSc1nnc(-c2ccncc2)s1)Nc1cccc(C(=O)OCCOC(=O)c2ccc(-c3c4nc(c(-c5ccc(S(=O)(=O)[O-])cc5)c5ccc([nH]5)c(-c5ccc(S(=O)(=O)[O-])cc5)c5nc(c(-c6ccc(S(=O)(=O)[O-])cc6)c6ccc3[nH]6)C=C5)C=C4)cc2)c1
REMARK SMILES IDX 25 1 24 2 22 3 23 4 21 5 17 6 18 7 90 8 19 9 20 10 16 11
REMARK SMILES IDX 1 12 2 13 3 15 4 16 5 17 6 18 15 19 7 20 8 21 9 22 10 23
REMARK SMILES IDX 14 24 11 25 13 26 12 27 26 28 27 29 28 30 29 31 30 32 31 33
REMARK SMILES IDX 89 34 32 35 88 36 33 37 34 38 35 39 82 40 36 41 87 42 81 43
REMARK SMILES IDX 83 44 37 45 86 46 80 47 79 48 38 50 68 51 49 52 67 53 50 54
REMARK SMILES IDX 53 55 66 56 84 57 51 58 52 59 65 61 85 62 54 63 39 64 40 65
REMARK SMILES IDX 48 66 41 67 47 68 42 69 43 70 44 71 45 72 46 73 69 74 70 75
REMARK SMILES IDX 78 76 71 77 77 78 72 79 73 80 74 81 75 82 76 83 55 84 56 85
REMARK SMILES IDX 64 86 57 87 63 88 58 89 59 90 60 91 61 92 62 93
REMARK H PARENT 16 14 83 49 53 60
REMARK Flexibility Score: inf
ROOT
ATOM      1  C   UNL     1      -1.981  -4.176  -1.865  1.00  0.00     0.275 C 
ENDROOT
BRANCH   1   2
ATOM      2  O   UNL     1      -0.881  -3.623  -1.116  1.00  0.00    -0.458 OA
BRANCH   2   3
ATOM      3  C   UNL     1      -0.948  -3.756   0.235  1.00  0.00     0.338 C 
ATOM      4  O   UNL     1      -1.827  -4.313   0.863  1.00  0.00    -0.246 OA
BRANCH   3   5
ATOM      5  C   UNL     1       0.288  -3.221   0.866  1.00  0.00     0.062 A 
ATOM      6  C   UNL     1       2.174  -1.708   0.917  1.00  0.00     0.042 A 
ATOM      7  C   UNL     1       2.692  -2.404   2.017  1.00  0.00     0.026 A 
ATOM      8  C   UNL     1       0.999  -2.154   0.309  1.00  0.00     0.041 A 
ATOM      9  C   UNL     1       1.967  -3.443   2.597  1.00  0.00     0.003 A 
ATOM     10  C   UNL     1       0.741  -3.814   2.051  1.00  0.00     0.016 A 
BRANCH   6  11
ATOM     11  N   UNL     1       2.862  -0.546   0.517  1.00  0.00    -0.325 N 
ATOM     12  O   UNL     1       1.193   0.560  -0.671  1.00  0.00    -0.274 OA
ATOM     13  C   UNL     1       2.327   0.509  -0.199  1.00  0.00     0.234 C 
ATOM     14  H   UNL     1       3.811  -0.479   0.770  1.00  0.00     0.169 HD
BRANCH  13  15
ATOM     15  C   UNL     1       3.287   1.658  -0.449  1.00  0.00     0.177 C 
BRANCH  15  16
ATOM     16  S   UNL     1       4.365   2.055   0.950  1.00  0.00    -0.084 SA
BRANCH  16  17
ATOM     17  C   UNL     1       3.194   2.538   2.154  1.00  0.00     0.175 A 
ATOM     18  N   UNL     1       2.673   1.669   2.987  1.00  0.00    -0.131 NA
ATOM     19  S   UNL     1       2.735   4.162   2.438  1.00  0.00    -0.086 S 
ATOM     20  N   UNL     1       1.900   2.282   3.955  1.00  0.00    -0.137 NA
ATOM     21  C   UNL     1       1.847   3.591   3.803  1.00  0.00     0.148 A 
BRANCH  21  22
ATOM     22  C   UNL     1       1.215   4.525   4.735  1.00  0.00     0.015 A 
ATOM     23  C   UNL     1       0.362   5.544   4.302  1.00  0.00     0.031 A 
ATOM     24  C   UNL     1       1.468   4.403   6.104  1.00  0.00     0.031 A 
ATOM     25  C   UNL     1      -0.173   6.404   5.248  1.00  0.00     0.111 A 
ATOM     26  C   UNL     1       0.893   5.318   6.971  1.00  0.00     0.111 A 
ATOM     27  N   UNL     1       0.086   6.322   6.570  1.00  0.00    -0.265 NA
ENDBRANCH  21  22
ENDBRANCH  16  17
ENDBRANCH  15  16
ENDBRANCH  13  15
ENDBRANCH   6  11
ENDBRANCH   3   5
ENDBRANCH   2   3
ENDBRANCH   1   2
BRANCH   1  28
ATOM     28  C   UNL     1      -1.584  -5.479  -2.560  1.00  0.00     0.275 C 
BRANCH  28  29
ATOM     29  O   UNL     1      -1.367  -6.521  -1.590  1.00  0.00    -0.458 OA
BRANCH  29  30
ATOM     30  C   UNL     1      -0.088  -6.944  -1.463  1.00  0.00     0.338 C 
ATOM     31  O   UNL     1       0.878  -6.604  -2.124  1.00  0.00    -0.246 OA
BRANCH  30  32
ATOM     32  C   UNL     1       0.020  -7.814  -0.283  1.00  0.00     0.060 A 
ATOM     33  C   UNL     1       0.346  -7.205   0.924  1.00  0.00     0.016 A 
ATOM     34  C   UNL     1      -0.057  -9.202  -0.369  1.00  0.00     0.016 A 
ATOM     35  C   UNL     1       0.631  -7.968   2.051  1.00  0.00     0.010 A 
ATOM     36  C   UNL     1       0.194  -9.975   0.777  1.00  0.00     0.010 A 
ATOM     37  C   UNL     1       0.569  -9.367   1.991  1.00  0.00    -0.014 A 
BRANCH  37  38
ATOM     38  C   UNL     1       0.985 -10.162   3.182  1.00  0.00     0.031 A 
ATOM     39  C   UNL     1       2.226 -11.018   3.124  1.00  0.00     0.074 A 
ATOM     40  C   UNL     1       0.305 -10.058   4.342  1.00  0.00     0.049 A 
ATOM     41  N   UNL     1       2.733 -11.803   4.041  1.00  0.00    -0.248 NA
ATOM     42  C   UNL     1       2.997 -10.988   1.871  1.00  0.00     0.031 C 
ATOM     43  C   UNL     1      -0.882  -9.228   4.559  1.00  0.00     0.029 A 
ATOM     44  N   UNL     1       0.532 -10.635   5.569  1.00  0.00    -0.354 N 
ATOM     45  C   UNL     1       3.856 -12.389   3.465  1.00  0.00     0.074 A 
ATOM     46  C   UNL     1       3.947 -11.880   2.114  1.00  0.00     0.031 C 
ATOM     47  C   UNL     1      -1.250  -9.313   5.847  1.00  0.00     0.029 A 
ATOM     48  C   UNL     1      -0.368 -10.251   6.536  1.00  0.00     0.049 A 
ATOM     49  H   UNL     1       1.270 -11.264   5.740  1.00  0.00     0.167 HD
ATOM     50  C   UNL     1       4.735 -13.265   4.010  1.00  0.00     0.031 A 
ATOM     51  C   UNL     1      -0.485 -10.621   7.827  1.00  0.00     0.031 A 
ATOM     52  C   UNL     1       4.665 -13.753   5.363  1.00  0.00     0.049 A 
ATOM     53  C   UNL     1       0.487 -11.617   8.398  1.00  0.00     0.074 A 
ATOM     54  C   UNL     1       5.506 -14.650   6.001  1.00  0.00     0.029 A 
ATOM     55  N   UNL     1       3.711 -13.373   6.295  1.00  0.00    -0.354 N 
ATOM     56  N   UNL     1       1.512 -12.195   7.820  1.00  0.00    -0.248 NA
ATOM     57  C   UNL     1       0.281 -12.013   9.799  1.00  0.00     0.031 C 
ATOM     58  C   UNL     1       5.038 -14.840   7.306  1.00  0.00     0.029 A 
ATOM     59  C   UNL     1       3.938 -14.021   7.498  1.00  0.00     0.049 A 
ATOM     60  H   UNL     1       2.979 -12.736   6.126  1.00  0.00     0.167 HD
ATOM     61  C   UNL     1       2.083 -13.010   8.792  1.00  0.00     0.074 A 
ATOM     62  C   UNL     1       1.306 -12.829  10.000  1.00  0.00     0.031 C 
ATOM     63  C   UNL     1       3.153 -13.839   8.691  1.00  0.00     0.031 A 
BRANCH  50  64
ATOM     64  C   UNL     1       5.837 -13.786   3.123  1.00  0.00    -0.014 A 
ATOM     65  C   UNL     1       6.923 -12.974   2.750  1.00  0.00     0.010 A 
ATOM     66  C   UNL     1       5.801 -15.123   2.687  1.00  0.00     0.010 A 
ATOM     67  C   UNL     1       7.933 -13.480   1.926  1.00  0.00     0.020 A 
ATOM     68  C   UNL     1       6.822 -15.640   1.885  1.00  0.00     0.020 A 
ATOM     69  C   UNL     1       7.874 -14.809   1.496  1.00  0.00     0.054 A 
BRANCH  69  70
ATOM     70  S   UNL     1       9.209 -15.447   0.445  1.00  0.00     0.124 S 
ATOM     71  O   UNL     1       8.910 -14.816  -0.838  1.00  0.00    -0.237 OA
ATOM     72  O   UNL     1      10.410 -14.959   1.119  1.00  0.00    -0.237 OA
ATOM     73  O   UNL     1       9.021 -16.895   0.485  1.00  0.00    -0.744 OA
ENDBRANCH  69  70
ENDBRANCH  50  64
BRANCH  51  74
ATOM     74  C   UNL     1      -1.585 -10.069   8.668  1.00  0.00    -0.014 A 
ATOM     75  C   UNL     1      -1.306  -9.203   9.739  1.00  0.00     0.010 A 
ATOM     76  C   UNL     1      -2.921 -10.424   8.407  1.00  0.00     0.010 A 
ATOM     77  C   UNL     1      -2.340  -8.720  10.548  1.00  0.00     0.020 A 
ATOM     78  C   UNL     1      -3.960  -9.919   9.193  1.00  0.00     0.020 A 
ATOM     79  C   UNL     1      -3.661  -9.082  10.269  1.00  0.00     0.054 A 
BRANCH  79  80
ATOM     80  S   UNL     1      -4.995  -8.414  11.303  1.00  0.00     0.124 S 
ATOM     81  O   UNL     1      -4.884  -9.233  12.506  1.00  0.00    -0.237 OA
ATOM     82  O   UNL     1      -4.610  -7.013  11.453  1.00  0.00    -0.237 OA
ATOM     83  O   UNL     1      -6.194  -8.640  10.499  1.00  0.00    -0.744 OA
ENDBRANCH  79  80
ENDBRANCH  51  74
BRANCH  63  84
ATOM     84  C   UNL     1       3.560 -14.581   9.937  1.00  0.00    -0.014 A 
ATOM     85  C   UNL     1       2.781 -15.636  10.446  1.00  0.00     0.010 A 
ATOM     86  C   UNL     1       4.741 -14.215  10.608  1.00  0.00     0.010 A 
ATOM     87  C   UNL     1       3.146 -16.272  11.637  1.00  0.00     0.020 A 
ATOM     88  C   UNL     1       5.123 -14.867  11.783  1.00  0.00     0.020 A 
ATOM     89  C   UNL     1       4.309 -15.875  12.304  1.00  0.00     0.054 A 
BRANCH  89  90
ATOM     90  S   UNL     1       4.760 -16.706  13.851  1.00  0.00     0.124 S 
ATOM     91  O   UNL     1       3.844 -16.088  14.806  1.00  0.00    -0.237 OA
ATOM     92  O   UNL     1       4.501 -18.113  13.551  1.00  0.00    -0.237 OA
ATOM     93  O   UNL     1       6.170 -16.364  14.029  1.00  0.00    -0.744 OA
ENDBRANCH  89  90
ENDBRANCH  63  84
ENDBRANCH  37  38
ENDBRANCH  30  32
ENDBRANCH  29  30
ENDBRANCH  28  29
ENDBRANCH   1  28
TORSDOF 19
