REMARK SMILES O=C(OCCOC(=O)c1cc2c(c(S(=O)(=O)Nc3cc(C(F)(F)F)ccc3-n3cccn3)c1)CCC2)c1ccc(-c2c3nc(c(-c4ccc(S(=O)(=O)[O-])cc4)c4ccc([nH]4)c(-c4ccc(S(=O)(=O)[O-])cc4)c4nc(c(-c5ccc(S(=O)(=O)[O-])cc5)c5ccc2[nH]5)C=C4)C=C3)cc1
REMARK SMILES IDX 5 1 4 2 3 3 2 4 1 5 37 6 38 7 96 8 39 9 95 10 40 11 41 12
REMARK SMILES IDX 42 13 89 14 43 15 94 16 88 17 90 18 44 19 93 20 87 21 86 22
REMARK SMILES IDX 45 24 75 25 56 26 74 27 57 28 60 29 73 30 91 31 58 32 59 33
REMARK SMILES IDX 72 35 92 36 61 37 46 38 47 39 55 40 48 41 54 42 49 43 50 44
REMARK SMILES IDX 51 45 52 46 53 47 76 48 77 49 85 50 78 51 84 52 79 53 80 54
REMARK SMILES IDX 81 55 82 56 83 57 62 58 63 59 71 60 64 61 70 62 65 63 66 64
REMARK SMILES IDX 67 65 68 66 69 67 6 68 7 69 8 70 9 71 10 72 33 73 11 74
REMARK SMILES IDX 13 75 12 76 36 77 34 78 35 79 14 80 15 81 16 82 17 83 18 85
REMARK SMILES IDX 19 86 27 87 20 88 26 89 25 90 28 91 29 92 32 93 30 94 31 95
REMARK SMILES IDX 21 96 22 97 23 98 24 99
REMARK H PARENT 90 23 60 34 17 84
REMARK Flexibility Score: inf
ROOT
ATOM      1  C   UNL     1       4.145  -0.555  -1.494  1.00  0.00     0.275 C 
ENDROOT
BRANCH   1   2
ATOM      2  C   UNL     1       4.580  -1.262  -0.209  1.00  0.00     0.275 C 
BRANCH   2   3
ATOM      3  O   UNL     1       3.558  -1.560   0.763  1.00  0.00    -0.458 OA
BRANCH   3   4
ATOM      4  C   UNL     1       2.414  -0.841   0.729  1.00  0.00     0.338 C 
ATOM      5  O   UNL     1       1.488  -1.045  -0.039  1.00  0.00    -0.246 OA
BRANCH   4   6
ATOM      6  C   UNL     1       2.381   0.154   1.825  1.00  0.00     0.060 A 
ATOM      7  C   UNL     1       3.560   0.648   2.400  1.00  0.00     0.016 A 
ATOM      8  C   UNL     1       1.140   0.620   2.265  1.00  0.00     0.016 A 
ATOM      9  C   UNL     1       3.500   1.551   3.452  1.00  0.00     0.010 A 
ATOM     10  C   UNL     1       1.082   1.538   3.309  1.00  0.00     0.010 A 
ATOM     11  C   UNL     1       2.260   1.975   3.931  1.00  0.00    -0.014 A 
BRANCH  11  12
ATOM     12  C   UNL     1       2.245   2.914   5.060  1.00  0.00     0.031 A 
ATOM     13  C   UNL     1       2.855   4.271   4.852  1.00  0.00     0.074 A 
ATOM     14  C   UNL     1       1.559   2.643   6.191  1.00  0.00     0.049 A 
ATOM     15  N   UNL     1       3.554   4.990   5.673  1.00  0.00    -0.248 NA
ATOM     16  C   UNL     1       2.652   4.926   3.552  1.00  0.00     0.031 C 
ATOM     17  C   UNL     1       0.699   1.481   6.450  1.00  0.00     0.029 A 
ATOM     18  N   UNL     1       1.376   3.417   7.303  1.00  0.00    -0.354 N 
ATOM     19  C   UNL     1       3.684   6.247   5.081  1.00  0.00     0.074 A 
ATOM     20  C   UNL     1       3.109   6.157   3.768  1.00  0.00     0.031 C 
ATOM     21  C   UNL     1      -0.090   1.742   7.513  1.00  0.00     0.029 A 
ATOM     22  C   UNL     1       0.291   3.025   8.078  1.00  0.00     0.049 A 
ATOM     23  H   UNL     1       1.957   4.178   7.533  1.00  0.00     0.167 HD
ATOM     24  C   UNL     1       4.130   7.342   5.751  1.00  0.00     0.031 A 
ATOM     25  C   UNL     1      -0.313   3.723   9.071  1.00  0.00     0.031 A 
ATOM     26  C   UNL     1       4.984   6.996   6.848  1.00  0.00     0.049 A 
ATOM     27  C   UNL     1       0.620   4.777   9.525  1.00  0.00     0.074 A 
ATOM     28  C   UNL     1       6.149   6.263   6.962  1.00  0.00     0.029 A 
ATOM     29  N   UNL     1       4.505   7.143   8.125  1.00  0.00    -0.354 N 
ATOM     30  N   UNL     1       1.725   4.544  10.174  1.00  0.00    -0.248 NA
ATOM     31  C   UNL     1       0.497   6.112   8.963  1.00  0.00     0.031 C 
ATOM     32  C   UNL     1       6.034   5.589   8.211  1.00  0.00     0.029 A 
ATOM     33  C   UNL     1       4.829   5.990   8.791  1.00  0.00     0.049 A 
ATOM     34  H   UNL     1       4.024   7.920   8.489  1.00  0.00     0.167 HD
ATOM     35  C   UNL     1       2.598   5.536   9.759  1.00  0.00     0.074 A 
ATOM     36  C   UNL     1       1.750   6.541   9.126  1.00  0.00     0.031 C 
ATOM     37  C   UNL     1       3.947   5.323   9.724  1.00  0.00     0.031 A 
BRANCH  24  38
ATOM     38  C   UNL     1       3.459   8.688   5.631  1.00  0.00    -0.014 A 
ATOM     39  C   UNL     1       4.001   9.786   6.331  1.00  0.00     0.010 A 
ATOM     40  C   UNL     1       2.142   8.819   5.139  1.00  0.00     0.010 A 
ATOM     41  C   UNL     1       3.220  10.909   6.631  1.00  0.00     0.020 A 
ATOM     42  C   UNL     1       1.369   9.953   5.400  1.00  0.00     0.020 A 
ATOM     43  C   UNL     1       1.898  10.967   6.191  1.00  0.00     0.054 A 
BRANCH  43  44
ATOM     44  S   UNL     1       0.838  12.327   6.747  1.00  0.00     0.124 S 
ATOM     45  O   UNL     1       0.631  11.982   8.149  1.00  0.00    -0.237 OA
ATOM     46  O   UNL     1       1.675  13.498   6.499  1.00  0.00    -0.237 OA
ATOM     47  O   UNL     1      -0.337  12.212   5.886  1.00  0.00    -0.744 OA
ENDBRANCH  43  44
ENDBRANCH  24  38
BRANCH  25  48
ATOM     48  C   UNL     1      -1.730   3.669   9.507  1.00  0.00    -0.014 A 
ATOM     49  C   UNL     1      -2.132   4.239  10.729  1.00  0.00     0.010 A 
ATOM     50  C   UNL     1      -2.740   3.271   8.607  1.00  0.00     0.010 A 
ATOM     51  C   UNL     1      -3.491   4.447  11.017  1.00  0.00     0.020 A 
ATOM     52  C   UNL     1      -4.096   3.458   8.895  1.00  0.00     0.020 A 
ATOM     53  C   UNL     1      -4.465   4.069  10.090  1.00  0.00     0.054 A 
BRANCH  53  54
ATOM     54  S   UNL     1      -6.204   4.491  10.396  1.00  0.00     0.124 S 
ATOM     55  O   UNL     1      -6.560   3.582  11.481  1.00  0.00    -0.237 OA
ATOM     56  O   UNL     1      -6.131   5.905  10.754  1.00  0.00    -0.237 OA
ATOM     57  O   UNL     1      -6.857   4.214   9.117  1.00  0.00    -0.744 OA
ENDBRANCH  53  54
ENDBRANCH  25  48
BRANCH  37  58
ATOM     58  C   UNL     1       4.523   4.133  10.456  1.00  0.00    -0.014 A 
ATOM     59  C   UNL     1       4.106   2.807  10.234  1.00  0.00     0.010 A 
ATOM     60  C   UNL     1       5.634   4.353  11.291  1.00  0.00     0.010 A 
ATOM     61  C   UNL     1       4.755   1.735  10.863  1.00  0.00     0.020 A 
ATOM     62  C   UNL     1       6.302   3.287  11.901  1.00  0.00     0.020 A 
ATOM     63  C   UNL     1       5.849   1.984  11.695  1.00  0.00     0.054 A 
BRANCH  63  64
ATOM     64  S   UNL     1       6.716   0.588  12.464  1.00  0.00     0.124 S 
ATOM     65  O   UNL     1       5.761   0.140  13.473  1.00  0.00    -0.237 OA
ATOM     66  O   UNL     1       6.923  -0.326  11.343  1.00  0.00    -0.237 OA
ATOM     67  O   UNL     1       7.940   1.188  12.994  1.00  0.00    -0.744 OA
ENDBRANCH  63  64
ENDBRANCH  37  58
ENDBRANCH  11  12
ENDBRANCH   4   6
ENDBRANCH   3   4
ENDBRANCH   2   3
ENDBRANCH   1   2
BRANCH   1  68
ATOM     68  O   UNL     1       3.699   0.782  -1.203  1.00  0.00    -0.458 OA
BRANCH  68  69
ATOM     69  C   UNL     1       2.640   1.223  -1.927  1.00  0.00     0.338 C 
ATOM     70  O   UNL     1       2.039   0.640  -2.818  1.00  0.00    -0.246 OA
BRANCH  69  71
ATOM     71  C   UNL     1       2.399   2.621  -1.550  1.00  0.00     0.061 A 
ATOM     72  C   UNL     1       3.268   3.572  -2.069  1.00  0.00     0.019 A 
ATOM     73  C   UNL     1       1.327   2.993  -0.718  1.00  0.00     0.038 A 
ATOM     74  C   UNL     1       3.094   4.879  -1.664  1.00  0.00    -0.043 A 
ATOM     75  C   UNL     1       1.154   4.337  -0.298  1.00  0.00     0.092 A 
ATOM     76  C   UNL     1       2.104   5.262  -0.723  1.00  0.00    -0.024 A 
ATOM     77  C   UNL     1       3.922   6.044  -2.122  1.00  0.00     0.036 C 
ATOM     78  C   UNL     1       2.432   6.664  -0.319  1.00  0.00     0.037 C 
ATOM     79  C   UNL     1       3.066   7.199  -1.609  1.00  0.00     0.010 C 
BRANCH  75  80
ATOM     80  S   UNL     1      -0.310   4.630   0.692  1.00  0.00     0.262 S 
ATOM     81  O   UNL     1      -1.338   3.744   0.187  1.00  0.00    -0.201 OA
ATOM     82  O   UNL     1       0.094   4.477   2.069  1.00  0.00    -0.201 OA
BRANCH  80  83
ATOM     83  N   UNL     1      -0.912   6.195   0.631  1.00  0.00    -0.277 N 
ATOM     84  H   UNL     1      -1.379   6.497   1.444  1.00  0.00     0.180 HD
BRANCH  83  85
ATOM     85  C   UNL     1      -0.848   7.153  -0.424  1.00  0.00     0.075 A 
ATOM     86  C   UNL     1      -0.484   8.447   0.009  1.00  0.00     0.042 A 
ATOM     87  C   UNL     1      -0.957   6.925  -1.798  1.00  0.00     0.089 A 
ATOM     88  C   UNL     1      -0.042   9.432  -0.892  1.00  0.00     0.058 A 
ATOM     89  C   UNL     1      -0.565   7.923  -2.711  1.00  0.00     0.031 A 
ATOM     90  C   UNL     1      -0.103   9.162  -2.261  1.00  0.00     0.015 A 
BRANCH  87  91
ATOM     91  N   UNL     1      -1.442   5.721  -2.338  1.00  0.00    -0.239 N 
ATOM     92  C   UNL     1      -2.567   5.030  -1.966  1.00  0.00     0.115 A 
ATOM     93  N   UNL     1      -0.796   5.120  -3.369  1.00  0.00    -0.177 NA
ATOM     94  C   UNL     1      -2.526   3.832  -2.641  1.00  0.00     0.042 A 
ATOM     95  C   UNL     1      -1.385   3.924  -3.453  1.00  0.00     0.135 A 
ENDBRANCH  87  91
BRANCH  88  96
ATOM     96  C   UNL     1       0.594  10.702  -0.368  1.00  0.00     0.416 C 
ATOM     97  F   UNL     1      -0.312  11.589   0.112  1.00  0.00    -0.166 F 
ATOM     98  F   UNL     1       1.474  10.450   0.640  1.00  0.00    -0.166 F 
ATOM     99  F   UNL     1       1.310  11.364  -1.320  1.00  0.00    -0.166 F 
ENDBRANCH  88  96
ENDBRANCH  83  85
ENDBRANCH  80  83
ENDBRANCH  75  80
ENDBRANCH  69  71
ENDBRANCH  68  69
ENDBRANCH   1  68
TORSDOF 19
