REMARK SMILES CC[NH2+]C[C@@H](C)C(=O)N1CCO[C@@H](CC(=O)OCCOC(=O)c2ccc(-c3c4nc(c(-c5ccc(S(=O)(=O)[O-])cc5)c5ccc([nH]5)c(-c5ccc(S(=O)(=O)[O-])cc5)c5nc(c(-c6ccc(S(=O)(=O)[O-])cc6)c6ccc3[nH]6)C=C5)C=C4)cc2)C1
REMARK SMILES IDX 17 1 15 2 16 3 14 4 13 5 9 6 10 7 83 8 11 9 12 10 7 11 8 12
REMARK SMILES IDX 5 13 6 14 4 15 3 16 2 19 1 20 18 21 19 22 20 23 21 24 22 25
REMARK SMILES IDX 23 26 24 27 82 28 25 29 81 30 26 31 27 32 28 33 75 34 29 35
REMARK SMILES IDX 80 36 74 37 76 38 30 39 79 40 73 41 72 42 31 44 61 45 42 46
REMARK SMILES IDX 60 47 43 48 46 49 59 50 77 51 44 52 45 53 58 55 78 56 47 57
REMARK SMILES IDX 32 58 33 59 41 60 34 61 40 62 35 63 36 64 37 65 38 66 39 67
REMARK SMILES IDX 62 68 63 69 71 70 64 71 70 72 65 73 66 74 67 75 68 76 69 77
REMARK SMILES IDX 48 78 49 79 57 80 50 81 56 82 51 83 52 84 53 85 54 86 55 87
REMARK H PARENT 3 17 3 18 76 43 46 54
REMARK Flexibility Score: inf
ROOT
ATOM      1  O   UNL     1       0.634   5.888   8.428  1.00  0.00    -0.462 OA
ENDROOT
BRANCH   1   2
ATOM      2  C   UNL     1       0.902   7.216   8.376  1.00  0.00     0.308 C 
ATOM      3  O   UNL     1       1.306   7.883   9.319  1.00  0.00    -0.252 OA
BRANCH   2   4
ATOM      4  C   UNL     1       0.575   7.808   7.026  1.00  0.00     0.156 C 
BRANCH   4   5
ATOM      5  C   UNL     1       1.108   6.996   5.848  1.00  0.00     0.148 C 
ATOM      6  N   UNL     1       0.667   5.114   4.277  1.00  0.00    -0.337 N 
ATOM      7  C   UNL     1       1.049   5.993   3.167  1.00  0.00     0.148 C 
ATOM      8  C   UNL     1       0.183   5.827   5.465  1.00  0.00     0.152 C 
ATOM      9  C   UNL     1       1.871   7.202   3.625  1.00  0.00     0.182 C 
ATOM     10  O   UNL     1       1.236   7.885   4.715  1.00  0.00    -0.374 OA
BRANCH   6  11
ATOM     11  C   UNL     1       0.436   3.751   4.217  1.00  0.00     0.231 C 
ATOM     12  O   UNL     1      -0.284   3.193   5.056  1.00  0.00    -0.274 OA
BRANCH  11  13
ATOM     13  C   UNL     1       1.084   2.876   3.145  1.00  0.00     0.130 C 
ATOM     14  C   UNL     1       2.606   2.998   3.138  1.00  0.00     0.024 C 
BRANCH  13  15
ATOM     15  C   UNL     1       0.392   3.009   1.781  1.00  0.00     0.273 C 
BRANCH  15  16
ATOM     16  N   UNL     1       0.854   2.077   0.743  1.00  0.00    -0.346 N 
ATOM     17  H   UNL     1       0.474   2.376  -0.155  1.00  0.00     0.346 HD
ATOM     18  H   UNL     1       1.874   2.095   0.748  1.00  0.00     0.346 HD
BRANCH  16  19
ATOM     19  C   UNL     1       0.438   0.699   0.990  1.00  0.00     0.257 C 
ATOM     20  C   UNL     1       0.944  -0.199  -0.129  1.00  0.00     0.071 C 
ENDBRANCH  16  19
ENDBRANCH  15  16
ENDBRANCH  13  15
ENDBRANCH  11  13
ENDBRANCH   6  11
ENDBRANCH   4   5
ENDBRANCH   2   4
ENDBRANCH   1   2
BRANCH   1  21
ATOM     21  C   UNL     1       0.896   5.207   9.671  1.00  0.00     0.274 C 
BRANCH  21  22
ATOM     22  C   UNL     1       2.231   4.461   9.624  1.00  0.00     0.275 C 
BRANCH  22  23
ATOM     23  O   UNL     1       3.337   5.379   9.682  1.00  0.00    -0.458 OA
BRANCH  23  24
ATOM     24  C   UNL     1       3.872   5.720   8.486  1.00  0.00     0.338 C 
ATOM     25  O   UNL     1       3.569   5.281   7.391  1.00  0.00    -0.246 OA
BRANCH  24  26
ATOM     26  C   UNL     1       4.821   6.828   8.677  1.00  0.00     0.060 A 
ATOM     27  C   UNL     1       4.531   8.062   8.087  1.00  0.00     0.016 A 
ATOM     28  C   UNL     1       6.011   6.636   9.380  1.00  0.00     0.016 A 
ATOM     29  C   UNL     1       5.436   9.114   8.199  1.00  0.00     0.010 A 
ATOM     30  C   UNL     1       6.918   7.694   9.491  1.00  0.00     0.010 A 
ATOM     31  C   UNL     1       6.640   8.937   8.895  1.00  0.00    -0.014 A 
BRANCH  31  32
ATOM     32  C   UNL     1       7.629  10.040   8.963  1.00  0.00     0.031 A 
ATOM     33  C   UNL     1       8.871   9.983   8.118  1.00  0.00     0.074 A 
ATOM     34  C   UNL     1       7.405  11.095   9.769  1.00  0.00     0.049 A 
ATOM     35  N   UNL     1       9.885  10.809   8.085  1.00  0.00    -0.248 NA
ATOM     36  C   UNL     1       8.986   8.849   7.187  1.00  0.00     0.031 C 
ATOM     37  C   UNL     1       6.215  11.286  10.601  1.00  0.00     0.029 A 
ATOM     38  N   UNL     1       8.171  12.205  10.020  1.00  0.00    -0.354 N 
ATOM     39  C   UNL     1      10.762  10.295   7.137  1.00  0.00     0.074 A 
ATOM     40  C   UNL     1      10.172   9.072   6.635  1.00  0.00     0.031 C 
ATOM     41  C   UNL     1       6.330  12.447  11.268  1.00  0.00     0.029 A 
ATOM     42  C   UNL     1       7.617  13.059  10.945  1.00  0.00     0.049 A 
ATOM     43  H   UNL     1       9.035  12.375   9.580  1.00  0.00     0.167 HD
ATOM     44  C   UNL     1      11.947  10.799   6.720  1.00  0.00     0.031 A 
ATOM     45  C   UNL     1       8.103  14.191  11.489  1.00  0.00     0.031 A 
ATOM     46  C   UNL     1      12.536  12.010   7.228  1.00  0.00     0.049 A 
ATOM     47  C   UNL     1       9.461  14.686  11.066  1.00  0.00     0.074 A 
ATOM     48  C   UNL     1      13.741  12.595   6.878  1.00  0.00     0.029 A 
ATOM     49  N   UNL     1      11.963  12.825   8.192  1.00  0.00    -0.354 N 
ATOM     50  N   UNL     1      10.282  14.181  10.177  1.00  0.00    -0.248 NA
ATOM     51  C   UNL     1       9.957  15.905  11.721  1.00  0.00     0.031 C 
ATOM     52  C   UNL     1      13.915  13.742   7.660  1.00  0.00     0.029 A 
ATOM     53  C   UNL     1      12.795  13.898   8.460  1.00  0.00     0.049 A 
ATOM     54  H   UNL     1      11.092  12.664   8.623  1.00  0.00     0.167 HD
ATOM     55  C   UNL     1      11.380  15.034  10.148  1.00  0.00     0.074 A 
ATOM     56  C   UNL     1      11.111  16.095  11.097  1.00  0.00     0.031 C 
ATOM     57  C   UNL     1      12.509  14.949   9.403  1.00  0.00     0.031 A 
BRANCH  44  58
ATOM     58  C   UNL     1      12.702  10.028   5.671  1.00  0.00    -0.014 A 
ATOM     59  C   UNL     1      12.281  10.029   4.329  1.00  0.00     0.010 A 
ATOM     60  C   UNL     1      13.876   9.337   6.021  1.00  0.00     0.010 A 
ATOM     61  C   UNL     1      13.005   9.329   3.361  1.00  0.00     0.020 A 
ATOM     62  C   UNL     1      14.616   8.654   5.051  1.00  0.00     0.020 A 
ATOM     63  C   UNL     1      14.168   8.643   3.728  1.00  0.00     0.054 A 
BRANCH  63  64
ATOM     64  S   UNL     1      15.105   7.768   2.445  1.00  0.00     0.124 S 
ATOM     65  O   UNL     1      14.255   6.607   2.192  1.00  0.00    -0.237 OA
ATOM     66  O   UNL     1      15.165   8.749   1.365  1.00  0.00    -0.237 OA
ATOM     67  O   UNL     1      16.383   7.475   3.088  1.00  0.00    -0.744 OA
ENDBRANCH  63  64
ENDBRANCH  44  58
BRANCH  45  68
ATOM     68  C   UNL     1       7.319  14.926  12.519  1.00  0.00    -0.014 A 
ATOM     69  C   UNL     1       6.773  16.191  12.239  1.00  0.00     0.010 A 
ATOM     70  C   UNL     1       7.137  14.371  13.799  1.00  0.00     0.010 A 
ATOM     71  C   UNL     1       6.087  16.901  13.229  1.00  0.00     0.020 A 
ATOM     72  C   UNL     1       6.428  15.066  14.783  1.00  0.00     0.020 A 
ATOM     73  C   UNL     1       5.923  16.335  14.496  1.00  0.00     0.054 A 
BRANCH  73  74
ATOM     74  S   UNL     1       5.012  17.262  15.762  1.00  0.00     0.124 S 
ATOM     75  O   UNL     1       6.001  18.249  16.185  1.00  0.00    -0.237 OA
ATOM     76  O   UNL     1       3.872  17.788  15.014  1.00  0.00    -0.237 OA
ATOM     77  O   UNL     1       4.678  16.244  16.755  1.00  0.00    -0.744 OA
ENDBRANCH  73  74
ENDBRANCH  45  68
BRANCH  57  78
ATOM     78  C   UNL     1      13.521  16.052   9.553  1.00  0.00    -0.014 A 
ATOM     79  C   UNL     1      14.337  16.142  10.694  1.00  0.00     0.010 A 
ATOM     80  C   UNL     1      13.690  16.983   8.511  1.00  0.00     0.010 A 
ATOM     81  C   UNL     1      15.284  17.164  10.805  1.00  0.00     0.020 A 
ATOM     82  C   UNL     1      14.653  17.991   8.608  1.00  0.00     0.020 A 
ATOM     83  C   UNL     1      15.435  18.083   9.761  1.00  0.00     0.054 A 
BRANCH  83  84
ATOM     84  S   UNL     1      16.700  19.375   9.908  1.00  0.00     0.124 S 
ATOM     85  O   UNL     1      16.075  20.308  10.840  1.00  0.00    -0.237 OA
ATOM     86  O   UNL     1      17.851  18.641  10.430  1.00  0.00    -0.237 OA
ATOM     87  O   UNL     1      16.852  19.867   8.540  1.00  0.00    -0.744 OA
ENDBRANCH  83  84
ENDBRANCH  57  78
ENDBRANCH  31  32
ENDBRANCH  24  26
ENDBRANCH  23  24
ENDBRANCH  22  23
ENDBRANCH  21  22
ENDBRANCH   1  21
TORSDOF 20
