REMARK SMILES C[C@H]1CN([C@@H](C(=O)OCCOC(=O)c2ccc(-c3c4nc(c(-c5ccc(S(=O)(=O)[O-])cc5)c5ccc([nH]5)c(-c5ccc(S(=O)(=O)[O-])cc5)c5nc(c(-c6ccc(S(=O)(=O)[O-])cc6)c6ccc3[nH]6)C=C5)C=C4)cc2)C(C)(C)C)S(=O)(=O)C1
REMARK SMILES IDX 10 1 9 2 8 3 6 4 7 5 5 6 4 7 1 8 2 9 3 10 81 11 78 12 79 13
REMARK SMILES IDX 80 14 74 15 75 16 76 17 77 18 11 19 12 20 13 21 14 22 15 23
REMARK SMILES IDX 73 24 16 25 72 26 17 27 18 28 19 29 66 30 20 31 71 32 65 33
REMARK SMILES IDX 67 34 21 35 70 36 64 37 63 38 22 40 52 41 33 42 51 43 34 44
REMARK SMILES IDX 37 45 50 46 68 47 35 48 36 49 49 51 69 52 38 53 23 54 24 55
REMARK SMILES IDX 32 56 25 57 31 58 26 59 27 60 28 61 29 62 30 63 53 64 54 65
REMARK SMILES IDX 62 66 55 67 61 68 56 69 57 70 58 71 59 72 60 73 39 74 40 75
REMARK SMILES IDX 48 76 41 77 47 78 42 79 43 80 44 81 45 82 46 83
REMARK H PARENT 67 39 37 50
REMARK Flexibility Score: inf
ROOT
ATOM      1  C   UNL     1      -4.108  -2.076   0.569  1.00  0.00     0.275 C 
ENDROOT
BRANCH   1   2
ATOM      2  C   UNL     1      -3.367  -1.882   1.886  1.00  0.00     0.274 C 
BRANCH   2   3
ATOM      3  O   UNL     1      -2.027  -2.407   1.764  1.00  0.00    -0.461 OA
BRANCH   3   4
ATOM      4  C   UNL     1      -1.691  -3.477   2.544  1.00  0.00     0.325 C 
ATOM      5  O   UNL     1      -2.474  -3.966   3.350  1.00  0.00    -0.250 OA
BRANCH   4   6
ATOM      6  C   UNL     1      -0.184  -3.863   2.427  1.00  0.00     0.188 C 
BRANCH   6   7
ATOM      7  N   UNL     1       0.478  -3.070   1.337  1.00  0.00    -0.187 NA
ATOM      8  C   UNL     1      -0.401  -0.501  -0.262  1.00  0.00     0.010 C 
ATOM      9  C   UNL     1       0.956  -0.972   0.275  1.00  0.00     0.017 C 
ATOM     10  C   UNL     1       0.863  -1.682   1.639  1.00  0.00     0.107 C 
ATOM     11  C   UNL     1       1.620  -1.962  -0.685  1.00  0.00     0.159 C 
ATOM     12  S   UNL     1       1.245  -3.594  -0.057  1.00  0.00     0.215 S 
ATOM     13  O   UNL     1       2.508  -4.195   0.322  1.00  0.00    -0.212 OA
ATOM     14  O   UNL     1       0.297  -4.237  -0.924  1.00  0.00    -0.212 OA
ENDBRANCH   6   7
BRANCH   6  15
ATOM     15  C   UNL     1       0.158  -5.406   2.570  1.00  0.00    -0.011 C 
ATOM     16  C   UNL     1       1.573  -5.570   3.171  1.00  0.00     0.013 C 
ATOM     17  C   UNL     1      -0.777  -6.122   3.585  1.00  0.00     0.013 C 
ATOM     18  C   UNL     1       0.095  -6.227   1.274  1.00  0.00     0.013 C 
ENDBRANCH   6  15
ENDBRANCH   4   6
ENDBRANCH   3   4
ENDBRANCH   2   3
ENDBRANCH   1   2
BRANCH   1  19
ATOM     19  O   UNL     1      -4.209  -3.486   0.317  1.00  0.00    -0.458 OA
BRANCH  19  20
ATOM     20  C   UNL     1      -3.445  -3.951  -0.701  1.00  0.00     0.338 C 
ATOM     21  O   UNL     1      -2.846  -3.282  -1.526  1.00  0.00    -0.246 OA
BRANCH  20  22
ATOM     22  C   UNL     1      -3.423  -5.428  -0.659  1.00  0.00     0.060 A 
ATOM     23  C   UNL     1      -3.229  -6.090   0.549  1.00  0.00     0.016 A 
ATOM     24  C   UNL     1      -3.458  -6.159  -1.844  1.00  0.00     0.016 A 
ATOM     25  C   UNL     1      -2.929  -7.454   0.550  1.00  0.00     0.010 A 
ATOM     26  C   UNL     1      -3.308  -7.554  -1.813  1.00  0.00     0.010 A 
ATOM     27  C   UNL     1      -2.995  -8.228  -0.619  1.00  0.00    -0.014 A 
BRANCH  27  28
ATOM     28  C   UNL     1      -2.737  -9.709  -0.595  1.00  0.00     0.031 A 
ATOM     29  C   UNL     1      -1.852 -10.366  -1.639  1.00  0.00     0.074 A 
ATOM     30  C   UNL     1      -3.297 -10.498   0.351  1.00  0.00     0.049 A 
ATOM     31  N   UNL     1      -1.753 -11.633  -1.961  1.00  0.00    -0.248 NA
ATOM     32  C   UNL     1      -0.981  -9.485  -2.435  1.00  0.00     0.031 C 
ATOM     33  C   UNL     1      -4.122 -10.042   1.473  1.00  0.00     0.029 A 
ATOM     34  N   UNL     1      -3.254 -11.864   0.524  1.00  0.00    -0.354 N 
ATOM     35  C   UNL     1      -0.880 -11.691  -3.046  1.00  0.00     0.074 A 
ATOM     36  C   UNL     1      -0.470 -10.331  -3.321  1.00  0.00     0.031 C 
ATOM     37  C   UNL     1      -4.442 -11.085   2.248  1.00  0.00     0.029 A 
ATOM     38  C   UNL     1      -3.996 -12.306   1.597  1.00  0.00     0.049 A 
ATOM     39  H   UNL     1      -2.743 -12.467  -0.063  1.00  0.00     0.167 HD
ATOM     40  C   UNL     1      -0.470 -12.776  -3.753  1.00  0.00     0.031 A 
ATOM     41  C   UNL     1      -4.368 -13.541   1.985  1.00  0.00     0.031 A 
ATOM     42  C   UNL     1      -0.833 -14.136  -3.432  1.00  0.00     0.049 A 
ATOM     43  C   UNL     1      -3.966 -14.721   1.153  1.00  0.00     0.074 A 
ATOM     44  C   UNL     1      -0.458 -15.302  -4.080  1.00  0.00     0.029 A 
ATOM     45  N   UNL     1      -1.632 -14.517  -2.365  1.00  0.00    -0.354 N 
ATOM     46  N   UNL     1      -3.227 -14.748   0.070  1.00  0.00    -0.248 NA
ATOM     47  C   UNL     1      -4.469 -16.032   1.579  1.00  0.00     0.031 C 
ATOM     48  C   UNL     1      -1.077 -16.381  -3.440  1.00  0.00     0.029 A 
ATOM     49  C   UNL     1      -1.780 -15.896  -2.351  1.00  0.00     0.049 A 
ATOM     50  H   UNL     1      -2.036 -13.899  -1.714  1.00  0.00     0.167 HD
ATOM     51  C   UNL     1      -3.163 -16.084  -0.305  1.00  0.00     0.074 A 
ATOM     52  C   UNL     1      -3.919 -16.834   0.677  1.00  0.00     0.031 C 
ATOM     53  C   UNL     1      -2.535 -16.636  -1.372  1.00  0.00     0.031 A 
BRANCH  40  54
ATOM     54  C   UNL     1       0.375 -12.550  -4.987  1.00  0.00    -0.014 A 
ATOM     55  C   UNL     1       1.714 -12.130  -4.914  1.00  0.00     0.010 A 
ATOM     56  C   UNL     1      -0.175 -12.840  -6.253  1.00  0.00     0.010 A 
ATOM     57  C   UNL     1       2.474 -11.970  -6.080  1.00  0.00     0.020 A 
ATOM     58  C   UNL     1       0.589 -12.712  -7.418  1.00  0.00     0.020 A 
ATOM     59  C   UNL     1       1.905 -12.260  -7.325  1.00  0.00     0.054 A 
BRANCH  59  60
ATOM     60  S   UNL     1       2.919 -12.069  -8.819  1.00  0.00     0.124 S 
ATOM     61  O   UNL     1       3.029 -10.616  -8.927  1.00  0.00    -0.237 OA
ATOM     62  O   UNL     1       4.152 -12.766  -8.462  1.00  0.00    -0.237 OA
ATOM     63  O   UNL     1       2.126 -12.710  -9.865  1.00  0.00    -0.744 OA
ENDBRANCH  59  60
ENDBRANCH  40  54
BRANCH  41  64
ATOM     64  C   UNL     1      -5.257 -13.704   3.171  1.00  0.00    -0.014 A 
ATOM     65  C   UNL     1      -4.790 -14.325   4.341  1.00  0.00     0.010 A 
ATOM     66  C   UNL     1      -6.573 -13.200   3.144  1.00  0.00     0.010 A 
ATOM     67  C   UNL     1      -5.621 -14.437   5.461  1.00  0.00     0.020 A 
ATOM     68  C   UNL     1      -7.391 -13.273   4.273  1.00  0.00     0.020 A 
ATOM     69  C   UNL     1      -6.912 -13.902   5.422  1.00  0.00     0.054 A 
BRANCH  69  70
ATOM     70  S   UNL     1      -7.946 -13.993   6.910  1.00  0.00     0.124 S 
ATOM     71  O   UNL     1      -8.317 -15.404   6.936  1.00  0.00    -0.237 OA
ATOM     72  O   UNL     1      -7.027 -13.560   7.960  1.00  0.00    -0.237 OA
ATOM     73  O   UNL     1      -9.036 -13.062   6.627  1.00  0.00    -0.744 OA
ENDBRANCH  69  70
ENDBRANCH  41  64
BRANCH  53  74
ATOM     74  C   UNL     1      -2.596 -18.135  -1.503  1.00  0.00    -0.014 A 
ATOM     75  C   UNL     1      -3.784 -18.791  -1.869  1.00  0.00     0.010 A 
ATOM     76  C   UNL     1      -1.433 -18.895  -1.280  1.00  0.00     0.010 A 
ATOM     77  C   UNL     1      -3.816 -20.185  -1.974  1.00  0.00     0.020 A 
ATOM     78  C   UNL     1      -1.454 -20.285  -1.414  1.00  0.00     0.020 A 
ATOM     79  C   UNL     1      -2.650 -20.922  -1.745  1.00  0.00     0.054 A 
BRANCH  79  80
ATOM     80  S   UNL     1      -2.710 -22.727  -1.922  1.00  0.00     0.124 S 
ATOM     81  O   UNL     1      -3.468 -23.123  -0.738  1.00  0.00    -0.237 OA
ATOM     82  O   UNL     1      -3.400 -22.901  -3.197  1.00  0.00    -0.237 OA
ATOM     83  O   UNL     1      -1.304 -23.123  -1.922  1.00  0.00    -0.744 OA
ENDBRANCH  79  80
ENDBRANCH  53  74
ENDBRANCH  27  28
ENDBRANCH  20  22
ENDBRANCH  19  20
ENDBRANCH   1  19
TORSDOF 16
