REMARK SMILES C[C@@H]1[C@@H](C(=O)OCCOC(=O)c2ccc(-c3c4nc(c(-c5ccc(S(=O)(=O)[O-])cc5)c5ccc([nH]5)c(-c5ccc(S(=O)(=O)[O-])cc5)c5nc(c(-c6ccc(S(=O)(=O)[O-])cc6)c6ccc3[nH]6)C=C5)C=C4)cc2)CCN1C(=O)[C@@H]1C[C@@H]2CCCC[C@@H]2[NH2+]1
REMARK SMILES IDX 8 1 7 2 6 3 4 4 5 5 3 6 1 7 2 8 74 9 72 10 73 11 75 12 76 13
REMARK SMILES IDX 77 14 78 15 85 16 79 17 84 18 80 21 83 22 81 23 82 24 9 25
REMARK SMILES IDX 10 26 11 27 12 28 13 29 71 30 14 31 70 32 15 33 16 34 17 35
REMARK SMILES IDX 64 36 18 37 69 38 63 39 65 40 19 41 68 42 62 43 61 44 20 46
REMARK SMILES IDX 50 47 31 48 49 49 32 50 35 51 48 52 66 53 33 54 34 55 47 57
REMARK SMILES IDX 67 58 36 59 21 60 22 61 30 62 23 63 29 64 24 65 25 66 26 67
REMARK SMILES IDX 27 68 28 69 51 70 52 71 60 72 53 73 59 74 54 75 55 76 56 77
REMARK SMILES IDX 57 78 58 79 37 80 38 81 46 82 39 83 45 84 40 85 41 86 42 87
REMARK SMILES IDX 43 88 44 89
REMARK H PARENT 85 19 85 20 65 45 35 56
REMARK Flexibility Score: inf
ROOT
ATOM      1  C   UNL     1      -1.153   3.002  -4.167  1.00  0.00     0.275 C 
ENDROOT
BRANCH   1   2
ATOM      2  C   UNL     1      -2.026   1.980  -3.430  1.00  0.00     0.274 C 
BRANCH   2   3
ATOM      3  O   UNL     1      -1.704   1.902  -2.028  1.00  0.00    -0.462 OA
BRANCH   3   4
ATOM      4  C   UNL     1      -0.862   0.895  -1.652  1.00  0.00     0.311 C 
ATOM      5  O   UNL     1      -0.370   0.080  -2.418  1.00  0.00    -0.252 OA
BRANCH   4   6
ATOM      6  C   UNL     1      -0.582   0.980  -0.159  1.00  0.00     0.123 C 
ATOM      7  C   UNL     1       1.116   0.314   1.573  1.00  0.00     0.032 C 
ATOM      8  C   UNL     1       0.331  -0.161   0.342  1.00  0.00     0.096 C 
ATOM      9  N   UNL     1      -0.592  -1.270   0.639  1.00  0.00    -0.334 N 
ATOM     10  C   UNL     1      -1.849   0.750   0.658  1.00  0.00     0.039 C 
ATOM     11  C   UNL     1      -1.960  -0.768   0.680  1.00  0.00     0.121 C 
BRANCH   9  12
ATOM     12  C   UNL     1      -0.417  -2.636   0.428  1.00  0.00     0.281 C 
ATOM     13  O   UNL     1      -1.408  -3.321   0.122  1.00  0.00    -0.268 OA
BRANCH  12  14
ATOM     14  C   UNL     1       0.931  -3.384   0.721  1.00  0.00     0.273 C 
ATOM     15  C   UNL     1       2.261  -2.713   0.474  1.00  0.00     0.085 C 
ATOM     16  N   UNL     1       1.017  -4.659  -0.091  1.00  0.00    -0.333 N 
ATOM     17  C   UNL     1       2.647  -3.158  -0.912  1.00  0.00     0.054 C 
ATOM     18  C   UNL     1       2.287  -4.635  -0.860  1.00  0.00     0.186 C 
ATOM     19  H   UNL     1       0.226  -4.714  -0.733  1.00  0.00     0.347 HD
ATOM     20  H   UNL     1       0.993  -5.472   0.525  1.00  0.00     0.347 HD
ATOM     21  C   UNL     1       1.859  -2.497  -2.045  1.00  0.00     0.010 C 
ATOM     22  C   UNL     1       2.230  -5.274  -2.260  1.00  0.00     0.065 C 
ATOM     23  C   UNL     1       2.398  -2.990  -3.371  1.00  0.00     0.001 C 
ATOM     24  C   UNL     1       2.950  -4.416  -3.304  1.00  0.00     0.006 C 
ENDBRANCH  12  14
ENDBRANCH   9  12
ENDBRANCH   4   6
ENDBRANCH   3   4
ENDBRANCH   2   3
ENDBRANCH   1   2
BRANCH   1  25
ATOM     25  O   UNL     1       0.185   2.517  -4.391  1.00  0.00    -0.458 OA
BRANCH  25  26
ATOM     26  C   UNL     1       1.069   2.774  -3.396  1.00  0.00     0.338 C 
ATOM     27  O   UNL     1       0.854   3.402  -2.374  1.00  0.00    -0.246 OA
BRANCH  26  28
ATOM     28  C   UNL     1       2.329   2.040  -3.641  1.00  0.00     0.060 A 
ATOM     29  C   UNL     1       2.858   1.302  -2.580  1.00  0.00     0.016 A 
ATOM     30  C   UNL     1       3.004   2.093  -4.864  1.00  0.00     0.016 A 
ATOM     31  C   UNL     1       4.048   0.593  -2.746  1.00  0.00     0.010 A 
ATOM     32  C   UNL     1       4.216   1.404  -5.020  1.00  0.00     0.010 A 
ATOM     33  C   UNL     1       4.743   0.647  -3.964  1.00  0.00    -0.014 A 
BRANCH  33  34
ATOM     34  C   UNL     1       6.059  -0.037  -4.060  1.00  0.00     0.031 A 
ATOM     35  C   UNL     1       7.280   0.653  -3.537  1.00  0.00     0.074 A 
ATOM     36  C   UNL     1       6.156  -1.290  -4.543  1.00  0.00     0.049 A 
ATOM     37  N   UNL     1       8.498   0.193  -3.434  1.00  0.00    -0.248 NA
ATOM     38  C   UNL     1       7.122   2.058  -3.132  1.00  0.00     0.031 C 
ATOM     39  C   UNL     1       5.068  -2.024  -5.170  1.00  0.00     0.029 A 
ATOM     40  N   UNL     1       7.189  -2.199  -4.512  1.00  0.00    -0.354 N 
ATOM     41  C   UNL     1       9.273   1.274  -3.042  1.00  0.00     0.074 A 
ATOM     42  C   UNL     1       8.375   2.397  -2.864  1.00  0.00     0.031 C 
ATOM     43  C   UNL     1       5.420  -3.315  -5.285  1.00  0.00     0.029 A 
ATOM     44  C   UNL     1       6.787  -3.486  -4.814  1.00  0.00     0.049 A 
ATOM     45  H   UNL     1       8.119  -1.956  -4.297  1.00  0.00     0.167 HD
ATOM     46  C   UNL     1      10.619   1.333  -2.915  1.00  0.00     0.031 A 
ATOM     47  C   UNL     1       7.444  -4.659  -4.689  1.00  0.00     0.031 A 
ATOM     48  C   UNL     1      11.497   0.213  -3.134  1.00  0.00     0.049 A 
ATOM     49  C   UNL     1       8.918  -4.603  -4.378  1.00  0.00     0.074 A 
ATOM     50  C   UNL     1      12.880   0.183  -3.106  1.00  0.00     0.029 A 
ATOM     51  N   UNL     1      11.076  -1.078  -3.417  1.00  0.00    -0.354 N 
ATOM     52  N   UNL     1       9.650  -3.566  -4.047  1.00  0.00    -0.248 NA
ATOM     53  C   UNL     1       9.673  -5.858  -4.506  1.00  0.00     0.031 C 
ATOM     54  C   UNL     1      13.296  -1.117  -3.411  1.00  0.00     0.029 A 
ATOM     55  C   UNL     1      12.172  -1.912  -3.566  1.00  0.00     0.049 A 
ATOM     56  H   UNL     1      10.137  -1.360  -3.501  1.00  0.00     0.167 HD
ATOM     57  C   UNL     1      10.958  -4.031  -3.991  1.00  0.00     0.074 A 
ATOM     58  C   UNL     1      10.906  -5.460  -4.226  1.00  0.00     0.031 C 
ATOM     59  C   UNL     1      12.104  -3.329  -3.817  1.00  0.00     0.031 A 
BRANCH  46  60
ATOM     60  C   UNL     1      11.221   2.680  -2.633  1.00  0.00    -0.014 A 
ATOM     61  C   UNL     1      11.103   3.293  -1.374  1.00  0.00     0.010 A 
ATOM     62  C   UNL     1      11.924   3.343  -3.657  1.00  0.00     0.010 A 
ATOM     63  C   UNL     1      11.648   4.561  -1.155  1.00  0.00     0.020 A 
ATOM     64  C   UNL     1      12.494   4.597  -3.434  1.00  0.00     0.020 A 
ATOM     65  C   UNL     1      12.338   5.206  -2.188  1.00  0.00     0.054 A 
BRANCH  65  66
ATOM     66  S   UNL     1      13.048   6.844  -1.871  1.00  0.00     0.124 S 
ATOM     67  O   UNL     1      11.855   7.686  -1.833  1.00  0.00    -0.237 OA
ATOM     68  O   UNL     1      13.725   6.656  -0.591  1.00  0.00    -0.237 OA
ATOM     69  O   UNL     1      13.931   7.066  -3.013  1.00  0.00    -0.744 OA
ENDBRANCH  65  66
ENDBRANCH  46  60
BRANCH  47  70
ATOM     70  C   UNL     1       6.761  -5.980  -4.866  1.00  0.00    -0.014 A 
ATOM     71  C   UNL     1       6.756  -6.915  -3.809  1.00  0.00     0.010 A 
ATOM     72  C   UNL     1       6.150  -6.343  -6.078  1.00  0.00     0.010 A 
ATOM     73  C   UNL     1       6.187  -8.185  -3.971  1.00  0.00     0.020 A 
ATOM     74  C   UNL     1       5.539  -7.593  -6.231  1.00  0.00     0.020 A 
ATOM     75  C   UNL     1       5.582  -8.516  -5.185  1.00  0.00     0.054 A 
BRANCH  75  76
ATOM     76  S   UNL     1       4.827 -10.155  -5.385  1.00  0.00     0.124 S 
ATOM     77  O   UNL     1       5.988 -10.988  -5.684  1.00  0.00    -0.237 OA
ATOM     78  O   UNL     1       4.203 -10.385  -4.084  1.00  0.00    -0.237 OA
ATOM     79  O   UNL     1       3.892  -9.962  -6.491  1.00  0.00    -0.744 OA
ENDBRANCH  75  76
ENDBRANCH  47  70
BRANCH  59  80
ATOM     80  C   UNL     1      13.399  -4.089  -3.910  1.00  0.00    -0.014 A 
ATOM     81  C   UNL     1      13.866  -4.568  -5.148  1.00  0.00     0.010 A 
ATOM     82  C   UNL     1      14.189  -4.272  -2.762  1.00  0.00     0.010 A 
ATOM     83  C   UNL     1      15.087  -5.241  -5.231  1.00  0.00     0.020 A 
ATOM     84  C   UNL     1      15.423  -4.922  -2.846  1.00  0.00     0.020 A 
ATOM     85  C   UNL     1      15.859  -5.413  -4.079  1.00  0.00     0.054 A 
BRANCH  85  86
ATOM     86  S   UNL     1      17.462  -6.248  -4.221  1.00  0.00     0.124 S 
ATOM     87  O   UNL     1      17.065  -7.637  -4.430  1.00  0.00    -0.237 OA
ATOM     88  O   UNL     1      18.067  -5.586  -5.375  1.00  0.00    -0.237 OA
ATOM     89  O   UNL     1      18.112  -5.971  -2.941  1.00  0.00    -0.744 OA
ENDBRANCH  85  86
ENDBRANCH  59  80
ENDBRANCH  33  34
ENDBRANCH  26  28
ENDBRANCH  25  26
ENDBRANCH   1  25
TORSDOF 16
