REMARK SMILES Cc1cc(C)c2c(=O)n(CCCC(=O)OCCOC(=O)c3ccc(-c4c5nc(c(-c6ccc(S(=O)(=O)[O-])cc6)c6ccc([nH]6)c(-c6ccc(S(=O)(=O)[O-])cc6)c6nc(c(-c7ccc(S(=O)(=O)[O-])cc7)c7ccc4[nH]7)C=C6)C=C5)cc3)sc2n1
REMARK SMILES IDX 16 1 15 2 13 3 14 4 12 5 11 6 10 7 9 8 1 9 2 10 3 11 83 12
REMARK SMILES IDX 4 13 82 14 5 15 6 16 81 17 7 18 8 19 17 20 18 21 19 22 20 23
REMARK SMILES IDX 21 24 22 25 80 26 23 27 79 28 24 29 25 30 26 31 73 32 27 33
REMARK SMILES IDX 78 34 72 35 74 36 28 37 77 38 71 39 70 40 29 42 59 43 40 44
REMARK SMILES IDX 58 45 41 46 44 47 57 48 75 49 42 50 43 51 56 53 76 54 45 55
REMARK SMILES IDX 30 56 31 57 39 58 32 59 38 60 33 61 34 62 35 63 36 64 37 65
REMARK SMILES IDX 60 66 61 67 69 68 62 69 68 70 63 71 64 72 65 73 66 74 67 75
REMARK SMILES IDX 46 76 47 77 55 78 48 79 54 80 49 81 50 82 51 83 52 84 53 85
REMARK H PARENT 74 41 44 52
REMARK Flexibility Score: inf
ROOT
ATOM      1  C   UNL     1       1.391   7.416  -3.041  1.00  0.00     0.274 C 
ENDROOT
BRANCH   1   2
ATOM      2  O   UNL     1       1.680   7.117  -1.666  1.00  0.00    -0.462 OA
BRANCH   2   3
ATOM      3  C   UNL     1       2.970   7.023  -1.268  1.00  0.00     0.305 C 
ATOM      4  O   UNL     1       3.932   7.084  -2.025  1.00  0.00    -0.252 OA
BRANCH   3   5
ATOM      5  C   UNL     1       3.114   6.745   0.220  1.00  0.00     0.124 C 
BRANCH   5   6
ATOM      6  C   UNL     1       2.036   7.214   1.210  1.00  0.00     0.035 C 
BRANCH   6   7
ATOM      7  C   UNL     1       0.555   6.908   0.930  1.00  0.00     0.139 C 
BRANCH   7   8
ATOM      8  N   UNL     1       0.236   5.492   0.814  1.00  0.00    -0.262 N 
ATOM      9  C   UNL     1       0.773  -0.506   0.098  1.00  0.00     0.067 C 
ATOM     10  C   UNL     1       0.266   0.825   0.555  1.00  0.00     0.039 A 
ATOM     11  C   UNL     1      -0.550   0.960   1.688  1.00  0.00     0.027 A 
ATOM     12  N   UNL     1       0.667   1.879  -0.183  1.00  0.00    -0.241 NA
ATOM     13  C   UNL     1      -0.924   2.238   2.139  1.00  0.00    -0.033 A 
ATOM     14  C   UNL     1       0.307   3.083   0.284  1.00  0.00     0.146 A 
ATOM     15  C   UNL     1      -1.820   2.417   3.323  1.00  0.00     0.045 C 
ATOM     16  C   UNL     1      -0.418   3.320   1.435  1.00  0.00     0.081 A 
ATOM     17  S   UNL     1       0.746   4.569  -0.535  1.00  0.00    -0.035 S 
ATOM     18  C   UNL     1      -0.462   4.763   1.765  1.00  0.00     0.270 A 
ATOM     19  O   UNL     1      -0.998   5.194   2.775  1.00  0.00    -0.268 OA
ENDBRANCH   7   8
ENDBRANCH   6   7
ENDBRANCH   5   6
ENDBRANCH   3   5
ENDBRANCH   2   3
ENDBRANCH   1   2
BRANCH   1  20
ATOM     20  C   UNL     1       1.077   8.894  -3.189  1.00  0.00     0.275 C 
BRANCH  20  21
ATOM     21  O   UNL     1       2.241   9.669  -2.921  1.00  0.00    -0.458 OA
BRANCH  21  22
ATOM     22  C   UNL     1       2.406  10.002  -1.621  1.00  0.00     0.338 C 
ATOM     23  O   UNL     1       1.748   9.624  -0.667  1.00  0.00    -0.246 OA
BRANCH  22  24
ATOM     24  C   UNL     1       3.437  11.027  -1.512  1.00  0.00     0.060 A 
ATOM     25  C   UNL     1       3.974  11.280  -0.245  1.00  0.00     0.016 A 
ATOM     26  C   UNL     1       3.630  11.888  -2.598  1.00  0.00     0.016 A 
ATOM     27  C   UNL     1       4.577  12.498  -0.025  1.00  0.00     0.010 A 
ATOM     28  C   UNL     1       4.216  13.105  -2.373  1.00  0.00     0.010 A 
ATOM     29  C   UNL     1       4.612  13.421  -1.074  1.00  0.00    -0.014 A 
BRANCH  29  30
ATOM     30  C   UNL     1       5.091  14.755  -0.799  1.00  0.00     0.031 A 
ATOM     31  C   UNL     1       6.559  14.873  -0.695  1.00  0.00     0.074 A 
ATOM     32  C   UNL     1       4.262  15.813  -0.816  1.00  0.00     0.049 A 
ATOM     33  N   UNL     1       7.248  15.239   0.331  1.00  0.00    -0.248 NA
ATOM     34  C   UNL     1       7.364  14.410  -1.835  1.00  0.00     0.031 C 
ATOM     35  C   UNL     1       2.855  15.847  -1.225  1.00  0.00     0.029 A 
ATOM     36  N   UNL     1       4.563  17.122  -0.620  1.00  0.00    -0.354 N 
ATOM     37  C   UNL     1       8.573  15.234  -0.086  1.00  0.00     0.074 A 
ATOM     38  C   UNL     1       8.599  14.563  -1.361  1.00  0.00     0.031 C 
ATOM     39  C   UNL     1       2.514  17.126  -1.498  1.00  0.00     0.029 A 
ATOM     40  C   UNL     1       3.635  17.993  -1.171  1.00  0.00     0.049 A 
ATOM     41  H   UNL     1       5.364  17.424  -0.134  1.00  0.00     0.167 HD
ATOM     42  C   UNL     1       9.524  15.981   0.535  1.00  0.00     0.031 A 
ATOM     43  C   UNL     1       3.840  19.305  -1.446  1.00  0.00     0.031 A 
ATOM     44  C   UNL     1       9.077  16.483   1.807  1.00  0.00     0.049 A 
ATOM     45  C   UNL     1       4.996  19.752  -0.621  1.00  0.00     0.074 A 
ATOM     46  C   UNL     1       8.630  15.896   2.974  1.00  0.00     0.029 A 
ATOM     47  N   UNL     1       8.680  17.799   1.864  1.00  0.00    -0.354 N 
ATOM     48  N   UNL     1       4.970  19.811   0.683  1.00  0.00    -0.248 NA
ATOM     49  C   UNL     1       6.329  19.705  -1.207  1.00  0.00     0.031 C 
ATOM     50  C   UNL     1       7.593  16.752   3.442  1.00  0.00     0.029 A 
ATOM     51  C   UNL     1       7.501  17.835   2.565  1.00  0.00     0.049 A 
ATOM     52  H   UNL     1       9.153  18.570   1.475  1.00  0.00     0.167 HD
ATOM     53  C   UNL     1       6.227  19.382   1.090  1.00  0.00     0.074 A 
ATOM     54  C   UNL     1       7.052  19.438  -0.114  1.00  0.00     0.031 C 
ATOM     55  C   UNL     1       6.413  18.752   2.289  1.00  0.00     0.031 A 
BRANCH  42  56
ATOM     56  C   UNL     1      10.706  16.572  -0.183  1.00  0.00    -0.014 A 
ATOM     57  C   UNL     1      11.705  17.215   0.572  1.00  0.00     0.010 A 
ATOM     58  C   UNL     1      10.722  16.767  -1.580  1.00  0.00     0.010 A 
ATOM     59  C   UNL     1      12.626  18.076  -0.037  1.00  0.00     0.020 A 
ATOM     60  C   UNL     1      11.665  17.583  -2.202  1.00  0.00     0.020 A 
ATOM     61  C   UNL     1      12.584  18.268  -1.419  1.00  0.00     0.054 A 
BRANCH  61  62
ATOM     62  S   UNL     1      13.676  19.494  -2.176  1.00  0.00     0.124 S 
ATOM     63  O   UNL     1      13.150  20.740  -1.627  1.00  0.00    -0.237 OA
ATOM     64  O   UNL     1      14.989  19.087  -1.683  1.00  0.00    -0.237 OA
ATOM     65  O   UNL     1      13.466  19.301  -3.609  1.00  0.00    -0.744 OA
ENDBRANCH  61  62
ENDBRANCH  42  56
BRANCH  43  66
ATOM     66  C   UNL     1       3.324  20.055  -2.621  1.00  0.00    -0.014 A 
ATOM     67  C   UNL     1       3.490  21.448  -2.724  1.00  0.00     0.010 A 
ATOM     68  C   UNL     1       2.878  19.369  -3.772  1.00  0.00     0.010 A 
ATOM     69  C   UNL     1       3.274  22.115  -3.944  1.00  0.00     0.020 A 
ATOM     70  C   UNL     1       2.644  20.026  -4.984  1.00  0.00     0.020 A 
ATOM     71  C   UNL     1       2.870  21.395  -5.072  1.00  0.00     0.054 A 
BRANCH  71  72
ATOM     72  S   UNL     1       2.757  22.230  -6.681  1.00  0.00     0.124 S 
ATOM     73  O   UNL     1       1.621  23.126  -6.489  1.00  0.00    -0.237 OA
ATOM     74  O   UNL     1       4.062  22.875  -6.793  1.00  0.00    -0.237 OA
ATOM     75  O   UNL     1       2.530  21.134  -7.623  1.00  0.00    -0.744 OA
ENDBRANCH  71  72
ENDBRANCH  43  66
BRANCH  55  76
ATOM     76  C   UNL     1       5.290  18.762   3.303  1.00  0.00    -0.014 A 
ATOM     77  C   UNL     1       4.022  18.202   3.056  1.00  0.00     0.010 A 
ATOM     78  C   UNL     1       5.596  19.174   4.614  1.00  0.00     0.010 A 
ATOM     79  C   UNL     1       3.082  18.070   4.089  1.00  0.00     0.020 A 
ATOM     80  C   UNL     1       4.671  19.028   5.651  1.00  0.00     0.020 A 
ATOM     81  C   UNL     1       3.416  18.479   5.383  1.00  0.00     0.054 A 
BRANCH  81  82
ATOM     82  S   UNL     1       2.224  18.230   6.729  1.00  0.00     0.124 S 
ATOM     83  O   UNL     1       1.155  19.163   6.384  1.00  0.00    -0.237 OA
ATOM     84  O   UNL     1       1.887  16.814   6.606  1.00  0.00    -0.237 OA
ATOM     85  O   UNL     1       2.980  18.576   7.933  1.00  0.00    -0.744 OA
ENDBRANCH  81  82
ENDBRANCH  55  76
ENDBRANCH  29  30
ENDBRANCH  22  24
ENDBRANCH  21  22
ENDBRANCH  20  21
ENDBRANCH   1  20
TORSDOF 17
