REMARK SMILES COc1ccc(-c2cc(Cl)cc3c2O[C@H](C(F)(F)F)C(C(=O)OCCOC(=O)c2ccc(-c4c5nc(c(-c6ccc(S(=O)(=O)[O-])cc6)c6ccc([nH]6)c(-c6ccc(S(=O)(=O)[O-])cc6)c6nc(c(-c7ccc(S(=O)(=O)[O-])cc7)c7ccc4[nH]7)C=C6)C=C5)cc2)=C3)cc1C
REMARK SMILES IDX 25 1 24 2 23 3 21 4 22 5 20 6 7 7 8 8 13 9 9 10 12 11 14 12
REMARK SMILES IDX 10 13 11 14 89 15 15 16 6 17 3 18 4 19 91 20 5 21 90 22
REMARK SMILES IDX 92 23 2 24 1 25 16 26 17 27 18 28 19 29 26 30 27 31 28 32
REMARK SMILES IDX 29 33 30 34 88 35 31 36 87 37 32 38 33 39 34 40 81 41 35 42
REMARK SMILES IDX 86 43 80 44 82 45 36 46 85 47 79 48 78 49 37 51 67 52 48 53
REMARK SMILES IDX 66 54 49 55 52 56 65 57 83 58 50 59 51 60 64 62 84 63 53 64
REMARK SMILES IDX 38 65 39 66 47 67 40 68 46 69 41 70 42 71 43 72 44 73 45 74
REMARK SMILES IDX 68 75 69 76 77 77 70 78 76 79 71 80 72 81 73 82 74 83 75 84
REMARK SMILES IDX 54 85 55 86 63 87 56 88 62 89 57 90 58 91 59 92 60 93 61 94
REMARK H PARENT 82 50 52 61
REMARK Flexibility Score: inf
ROOT
ATOM      1  C   UNL     1      -3.598   1.589  -6.507  1.00  0.00     0.275 C 
ENDROOT
BRANCH   1   2
ATOM      2  C   UNL     1      -2.629   2.757  -6.927  1.00  0.00     0.275 C 
BRANCH   2   3
ATOM      3  O   UNL     1      -1.045   2.378  -7.673  1.00  0.00    -0.459 OA
BRANCH   3   4
ATOM      4  C   UNL     1       0.558   1.276  -7.343  1.00  0.00     0.338 C 
ATOM      5  O   UNL     1       1.095   1.096  -6.235  1.00  0.00    -0.246 OA
BRANCH   4   6
ATOM      6  C   UNL     1       1.677   0.961  -8.425  1.00  0.00     0.087 C 
ATOM      7  C   UNL     1       1.968  -3.002  -6.712  1.00  0.00     0.026 A 
ATOM      8  C   UNL     1       3.110  -3.689  -7.172  1.00  0.00     0.033 A 
ATOM      9  C   UNL     1       1.384  -1.842  -7.833  1.00  0.00     0.135 A 
ATOM     10  C   UNL     1       3.716  -3.377  -8.402  1.00  0.00     0.042 A 
ATOM     11  C   UNL     1       2.229  -1.475  -8.879  1.00  0.00     0.019 A 
ATOM     12  O   UNL     1       0.225  -0.815  -7.933  1.00  0.00    -0.475 OA
ATOM     13  Cl  UNL     1       5.184  -4.205  -8.813  1.00  0.00    -0.084 Cl
ATOM     14  C   UNL     1       3.311  -2.303  -9.224  1.00  0.00     0.032 A 
ATOM     15  C   UNL     1       2.376  -0.016  -9.059  1.00  0.00     0.027 C 
ATOM     16  C   UNL     1       0.129   1.056  -8.325  1.00  0.00     0.316 C 
BRANCH   7  17
ATOM     17  C   UNL     1       1.982  -3.239  -4.905  1.00  0.00    -0.014 A 
ATOM     18  C   UNL     1       1.516  -2.491  -1.990  1.00  0.00     0.121 A 
ATOM     19  C   UNL     1       0.669  -3.308  -2.724  1.00  0.00     0.047 A 
ATOM     20  C   UNL     1       2.775  -2.332  -2.563  1.00  0.00    -0.008 A 
ATOM     21  C   UNL     1       0.963  -3.776  -4.076  1.00  0.00     0.013 A 
ATOM     22  C   UNL     1       3.002  -2.724  -3.994  1.00  0.00     0.016 A 
ATOM     23  C   UNL     1       3.835  -1.640  -1.740  1.00  0.00     0.048 C 
BRANCH  18  24
ATOM     24  O   UNL     1       1.080  -2.072  -0.754  1.00  0.00    -0.496 OA
ATOM     25  C   UNL     1       1.111  -0.681  -0.389  1.00  0.00     0.278 C 
ENDBRANCH  18  24
ENDBRANCH   7  17
BRANCH  16  26
ATOM     26  C   UNL     1      -1.174   2.381  -9.549  1.00  0.00     0.430 C 
ATOM     27  F   UNL     1      -0.631   3.232 -10.587  1.00  0.00    -0.167 F 
ATOM     28  F   UNL     1      -2.182   1.763 -10.334  1.00  0.00    -0.167 F 
ATOM     29  F   UNL     1      -1.911   3.449  -9.018  1.00  0.00    -0.167 F 
ENDBRANCH  16  26
ENDBRANCH   4   6
ENDBRANCH   3   4
ENDBRANCH   2   3
ENDBRANCH   1   2
BRANCH   1  30
ATOM     30  O   UNL     1      -3.825   0.496  -7.470  1.00  0.00    -0.458 OA
BRANCH  30  31
ATOM     31  C   UNL     1      -3.010  -0.111  -8.397  1.00  0.00     0.338 C 
ATOM     32  O   UNL     1      -3.477  -0.656  -9.389  1.00  0.00    -0.246 OA
BRANCH  31  33
ATOM     33  C   UNL     1      -1.534   0.122  -8.287  1.00  0.00     0.060 A 
ATOM     34  C   UNL     1      -0.422   0.577  -9.901  1.00  0.00     0.016 A 
ATOM     35  C   UNL     1      -1.239   0.977  -6.546  1.00  0.00     0.016 A 
ATOM     36  C   UNL     1       0.698   2.230  -9.621  1.00  0.00     0.010 A 
ATOM     37  C   UNL     1      -0.216   2.621  -6.233  1.00  0.00     0.010 A 
ATOM     38  C   UNL     1       0.703   3.171  -7.879  1.00  0.00    -0.014 A 
BRANCH  38  39
ATOM     39  C   UNL     1       1.587   4.234  -7.320  1.00  0.00     0.031 A 
ATOM     40  C   UNL     1       1.565   5.489  -8.024  1.00  0.00     0.074 A 
ATOM     41  C   UNL     1       2.011   4.115  -6.019  1.00  0.00     0.049 A 
ATOM     42  N   UNL     1       2.593   6.232  -8.263  1.00  0.00    -0.248 NA
ATOM     43  C   UNL     1       0.325   5.948  -8.663  1.00  0.00     0.031 C 
ATOM     44  C   UNL     1       2.221   5.040  -4.906  1.00  0.00     0.029 A 
ATOM     45  N   UNL     1       2.259   2.951  -5.347  1.00  0.00    -0.354 N 
ATOM     46  C   UNL     1       1.984   7.443  -8.491  1.00  0.00     0.074 A 
ATOM     47  C   UNL     1       0.772   7.089  -9.189  1.00  0.00     0.031 C 
ATOM     48  C   UNL     1       2.853   4.444  -3.862  1.00  0.00     0.029 A 
ATOM     49  C   UNL     1       2.981   3.055  -4.179  1.00  0.00     0.049 A 
ATOM     50  H   UNL     1       1.938   2.082  -5.681  1.00  0.00     0.167 HD
ATOM     51  C   UNL     1       2.111   8.425  -7.540  1.00  0.00     0.031 A 
ATOM     52  C   UNL     1       3.997   2.184  -3.971  1.00  0.00     0.031 A 
ATOM     53  C   UNL     1       3.017   8.048  -6.426  1.00  0.00     0.049 A 
ATOM     54  C   UNL     1       5.155   2.875  -4.721  1.00  0.00     0.074 A 
ATOM     55  C   UNL     1       2.932   8.102  -5.042  1.00  0.00     0.029 A 
ATOM     56  N   UNL     1       4.149   7.271  -6.682  1.00  0.00    -0.354 N 
ATOM     57  N   UNL     1       4.954   3.987  -5.390  1.00  0.00    -0.248 NA
ATOM     58  C   UNL     1       6.584   2.592  -4.622  1.00  0.00     0.031 C 
ATOM     59  C   UNL     1       4.038   7.366  -4.492  1.00  0.00     0.029 A 
ATOM     60  C   UNL     1       4.763   6.806  -5.536  1.00  0.00     0.049 A 
ATOM     61  H   UNL     1       4.476   7.075  -7.590  1.00  0.00     0.167 HD
ATOM     62  C   UNL     1       6.088   4.726  -5.442  1.00  0.00     0.074 A 
ATOM     63  C   UNL     1       7.112   3.739  -5.107  1.00  0.00     0.031 C 
ATOM     64  C   UNL     1       6.047   6.085  -5.649  1.00  0.00     0.031 A 
BRANCH  51  65
ATOM     65  C   UNL     1       1.217   9.660  -7.497  1.00  0.00    -0.014 A 
ATOM     66  C   UNL     1       1.557  10.707  -6.622  1.00  0.00     0.010 A 
ATOM     67  C   UNL     1       0.073   9.886  -8.298  1.00  0.00     0.010 A 
ATOM     68  C   UNL     1       0.838  11.912  -6.586  1.00  0.00     0.020 A 
ATOM     69  C   UNL     1      -0.644  11.090  -8.290  1.00  0.00     0.020 A 
ATOM     70  C   UNL     1      -0.243  12.107  -7.441  1.00  0.00     0.054 A 
BRANCH  70  71
ATOM     71  S   UNL     1      -1.078  13.709  -7.469  1.00  0.00     0.124 S 
ATOM     72  O   UNL     1      -1.606  13.808  -6.111  1.00  0.00    -0.237 OA
ATOM     73  O   UNL     1       0.014  14.623  -7.793  1.00  0.00    -0.237 OA
ATOM     74  O   UNL     1      -2.088  13.559  -8.515  1.00  0.00    -0.744 OA
ENDBRANCH  70  71
ENDBRANCH  51  65
BRANCH  52  75
ATOM     75  C   UNL     1       3.327   0.839  -4.117  1.00  0.00    -0.014 A 
ATOM     76  C   UNL     1       2.062   0.639  -3.399  1.00  0.00     0.010 A 
ATOM     77  C   UNL     1       3.499   0.086  -5.229  1.00  0.00     0.010 A 
ATOM     78  C   UNL     1       0.911  -0.128  -3.826  1.00  0.00     0.020 A 
ATOM     79  C   UNL     1       2.356  -0.664  -5.631  1.00  0.00     0.020 A 
ATOM     80  C   UNL     1       0.982  -0.819  -5.006  1.00  0.00     0.054 A 
BRANCH  80  81
ATOM     81  S   UNL     1      -0.788  -1.978  -5.468  1.00  0.00     0.124 S 
ATOM     82  O   UNL     1      -0.445  -3.267  -6.057  1.00  0.00    -0.237 OA
ATOM     83  O   UNL     1      -1.410  -2.004  -4.145  1.00  0.00    -0.237 OA
ATOM     84  O   UNL     1      -1.674  -1.321  -6.394  1.00  0.00    -0.744 OA
ENDBRANCH  80  81
ENDBRANCH  52  75
BRANCH  64  85
ATOM     85  C   UNL     1       7.229   6.955  -5.978  1.00  0.00    -0.014 A 
ATOM     86  C   UNL     1       8.556   6.554  -5.878  1.00  0.00     0.010 A 
ATOM     87  C   UNL     1       6.994   8.261  -6.489  1.00  0.00     0.010 A 
ATOM     88  C   UNL     1       9.587   7.360  -6.349  1.00  0.00     0.020 A 
ATOM     89  C   UNL     1       8.009   9.077  -6.967  1.00  0.00     0.020 A 
ATOM     90  C   UNL     1       9.306   8.607  -6.903  1.00  0.00     0.054 A 
BRANCH  90  91
ATOM     91  S   UNL     1      10.680   9.600  -7.487  1.00  0.00     0.124 S 
ATOM     92  O   UNL     1      11.491   9.724  -6.278  1.00  0.00    -0.237 OA
ATOM     93  O   UNL     1      11.240   8.754  -8.537  1.00  0.00    -0.237 OA
ATOM     94  O   UNL     1      10.051  10.835  -7.947  1.00  0.00    -0.744 OA
ENDBRANCH  90  91
ENDBRANCH  64  85
ENDBRANCH  38  39
ENDBRANCH  31  33
ENDBRANCH  30  31
ENDBRANCH   1  30
TORSDOF 17
