REMARK SMILES Cc1ccc(C[C@@H](Cc2cc(F)cc(Br)c2)C(=O)OCCOC(=O)c2ccc(-c3c4nc(c(-c5ccc(S(=O)(=O)[O-])cc5)c5ccc([nH]5)c(-c5ccc(S(=O)(=O)[O-])cc5)c5nc(c(-c6ccc(S(=O)(=O)[O-])cc6)c6ccc3[nH]6)C=C5)C=C4)cc2)cc1
REMARK SMILES IDX 21 1 20 2 19 3 17 4 18 5 7 6 6 7 5 8 1 9 2 10 3 11 86 12
REMARK SMILES IDX 4 13 85 14 8 15 9 16 10 17 16 18 11 19 14 20 12 21 13 22
REMARK SMILES IDX 15 23 22 24 23 25 24 26 25 27 26 28 84 29 27 30 83 31 28 32
REMARK SMILES IDX 29 33 30 34 77 35 31 36 82 37 76 38 78 39 32 40 81 41 75 42
REMARK SMILES IDX 74 43 33 45 63 46 44 47 62 48 45 49 48 50 61 51 79 52 46 53
REMARK SMILES IDX 47 54 60 56 80 57 49 58 34 59 35 60 43 61 36 62 42 63 37 64
REMARK SMILES IDX 38 65 39 66 40 67 41 68 64 69 65 70 73 71 66 72 72 73 67 74
REMARK SMILES IDX 68 75 69 76 70 77 71 78 50 79 51 80 59 81 52 82 58 83 53 84
REMARK SMILES IDX 54 85 55 86 56 87 57 88
REMARK H PARENT 78 44 48 55
REMARK Flexibility Score: inf
ROOT
ATOM      1  C   UNL     1      -8.232   1.572   0.109  1.00  0.00     0.275 C 
ENDROOT
BRANCH   1   2
ATOM      2  C   UNL     1      -8.580   0.282  -0.638  1.00  0.00     0.274 C 
BRANCH   2   3
ATOM      3  O   UNL     1      -7.439  -0.551  -0.562  1.00  0.00    -0.462 OA
BRANCH   3   4
ATOM      4  C   UNL     1      -6.302  -0.159  -1.395  1.00  0.00     0.309 C 
ATOM      5  O   UNL     1      -6.845   0.447  -2.365  1.00  0.00    -0.252 OA
BRANCH   4   6
ATOM      6  C   UNL     1      -4.243  -0.728  -0.962  1.00  0.00     0.108 C 
BRANCH   6   7
ATOM      7  C   UNL     1      -3.081  -0.224   0.306  1.00  0.00     0.051 C 
BRANCH   7   8
ATOM      8  C   UNL     1      -1.556  -0.214   0.051  1.00  0.00    -0.047 A 
ATOM      9  C   UNL     1       2.793   0.087  -0.078  1.00  0.00     0.044 C 
ATOM     10  C   UNL     1       1.295  -0.009  -0.050  1.00  0.00    -0.051 A 
ATOM     11  C   UNL     1       0.672  -1.252   0.072  1.00  0.00     0.004 A 
ATOM     12  C   UNL     1       0.488   1.127  -0.144  1.00  0.00     0.004 A 
ATOM     13  C   UNL     1      -0.729  -1.350   0.140  1.00  0.00     0.004 A 
ATOM     14  C   UNL     1      -0.912   1.024  -0.106  1.00  0.00     0.004 A 
ENDBRANCH   7   8
ENDBRANCH   6   7
BRANCH   6  15
ATOM     15  C   UNL     1      -3.595  -2.424  -0.847  1.00  0.00     0.051 C 
BRANCH  15  16
ATOM     16  C   UNL     1      -4.474  -3.633  -1.118  1.00  0.00    -0.043 A 
ATOM     17  C   UNL     1      -4.204  -4.227  -2.801  1.00  0.00     0.043 A 
ATOM     18  C   UNL     1      -6.105  -4.034  -0.258  1.00  0.00     0.019 A 
ATOM     19  C   UNL     1      -5.452  -5.184  -3.602  1.00  0.00     0.124 A 
ATOM     20  C   UNL     1      -7.304  -5.086  -1.067  1.00  0.00     0.021 A 
ATOM     21  F   UNL     1      -5.093  -5.746  -4.761  1.00  0.00    -0.207 F 
ATOM     22  C   UNL     1      -6.959  -5.669  -2.727  1.00  0.00     0.055 A 
ATOM     23  Br  UNL     1      -8.953  -5.381  -0.182  1.00  0.00    -0.051 Br
ENDBRANCH  15  16
ENDBRANCH   6  15
ENDBRANCH   4   6
ENDBRANCH   3   4
ENDBRANCH   2   3
ENDBRANCH   1   2
BRANCH   1  24
ATOM     24  O   UNL     1      -7.268   2.507  -0.508  1.00  0.00    -0.458 OA
BRANCH  24  25
ATOM     25  C   UNL     1      -5.896   2.589  -0.425  1.00  0.00     0.338 C 
ATOM     26  O   UNL     1      -5.318   3.640  -0.182  1.00  0.00    -0.246 OA
BRANCH  25  27
ATOM     27  C   UNL     1      -5.088   1.344  -0.651  1.00  0.00     0.060 A 
ATOM     28  C   UNL     1      -4.723   0.872  -2.333  1.00  0.00     0.016 A 
ATOM     29  C   UNL     1      -5.511   0.134   0.542  1.00  0.00     0.016 A 
ATOM     30  C   UNL     1      -5.063  -0.823  -2.915  1.00  0.00     0.010 A 
ATOM     31  C   UNL     1      -5.769  -1.550   0.036  1.00  0.00     0.010 A 
ATOM     32  C   UNL     1      -5.744  -2.028  -1.765  1.00  0.00    -0.014 A 
BRANCH  32  33
ATOM     33  C   UNL     1      -6.224  -3.643  -2.286  1.00  0.00     0.031 A 
ATOM     34  C   UNL     1      -5.307  -5.412  -1.471  1.00  0.00     0.074 A 
ATOM     35  C   UNL     1      -7.403  -3.254  -3.060  1.00  0.00     0.049 A 
ATOM     36  N   UNL     1      -5.000  -6.630  -1.986  1.00  0.00    -0.248 NA
ATOM     37  C   UNL     1      -4.588  -5.694   0.060  1.00  0.00     0.031 C 
ATOM     38  C   UNL     1      -8.689  -3.981  -3.397  1.00  0.00     0.029 A 
ATOM     39  N   UNL     1      -7.336  -2.397  -4.188  1.00  0.00    -0.354 N 
ATOM     40  C   UNL     1      -4.873  -7.602  -1.032  1.00  0.00     0.074 A 
ATOM     41  C   UNL     1      -4.316  -6.982   0.113  1.00  0.00     0.031 C 
ATOM     42  C   UNL     1      -8.983  -3.890  -4.696  1.00  0.00     0.029 A 
ATOM     43  C   UNL     1      -8.018  -3.015  -5.269  1.00  0.00     0.049 A 
ATOM     44  H   UNL     1      -6.890  -1.520  -4.216  1.00  0.00     0.167 HD
ATOM     45  C   UNL     1      -5.523  -8.786  -1.211  1.00  0.00     0.031 A 
ATOM     46  C   UNL     1      -7.540  -3.148  -6.526  1.00  0.00     0.031 A 
ATOM     47  C   UNL     1      -6.321  -8.819  -2.470  1.00  0.00     0.049 A 
ATOM     48  C   UNL     1      -7.270  -4.621  -6.889  1.00  0.00     0.074 A 
ATOM     49  C   UNL     1      -7.688  -8.878  -2.708  1.00  0.00     0.029 A 
ATOM     50  N   UNL     1      -5.753  -8.476  -3.708  1.00  0.00    -0.354 N 
ATOM     51  N   UNL     1      -7.280  -5.642  -6.045  1.00  0.00    -0.248 NA
ATOM     52  C   UNL     1      -7.023  -5.065  -8.262  1.00  0.00     0.031 C 
ATOM     53  C   UNL     1      -7.935  -8.555  -4.078  1.00  0.00     0.029 A 
ATOM     54  C   UNL     1      -6.729  -8.255  -4.691  1.00  0.00     0.049 A 
ATOM     55  H   UNL     1      -4.785  -8.399  -3.867  1.00  0.00     0.167 HD
ATOM     56  C   UNL     1      -6.809  -6.783  -6.688  1.00  0.00     0.074 A 
ATOM     57  C   UNL     1      -6.811  -6.381  -8.089  1.00  0.00     0.031 C 
ATOM     58  C   UNL     1      -6.359  -7.949  -6.087  1.00  0.00     0.031 A 
BRANCH  45  59
ATOM     59  C   UNL     1      -5.706  -9.768  -0.059  1.00  0.00    -0.014 A 
ATOM     60  C   UNL     1      -6.673 -10.779  -0.171  1.00  0.00     0.010 A 
ATOM     61  C   UNL     1      -4.976  -9.765   1.153  1.00  0.00     0.010 A 
ATOM     62  C   UNL     1      -6.924 -11.691   0.864  1.00  0.00     0.020 A 
ATOM     63  C   UNL     1      -5.238 -10.640   2.216  1.00  0.00     0.020 A 
ATOM     64  C   UNL     1      -6.206 -11.614   2.054  1.00  0.00     0.054 A 
BRANCH  64  65
ATOM     65  S   UNL     1      -6.489 -12.853   3.336  1.00  0.00     0.124 S 
ATOM     66  O   UNL     1      -7.904 -12.670   3.642  1.00  0.00    -0.237 OA
ATOM     67  O   UNL     1      -6.144 -14.092   2.645  1.00  0.00    -0.237 OA
ATOM     68  O   UNL     1      -5.570 -12.465   4.406  1.00  0.00    -0.744 OA
ENDBRANCH  64  65
ENDBRANCH  45  59
BRANCH  46  69
ATOM     69  C   UNL     1      -6.957  -1.833  -6.948  1.00  0.00    -0.014 A 
ATOM     70  C   UNL     1      -7.905  -0.765  -7.014  1.00  0.00     0.010 A 
ATOM     71  C   UNL     1      -5.625  -1.499  -6.667  1.00  0.00     0.010 A 
ATOM     72  C   UNL     1      -7.583   0.530  -6.583  1.00  0.00     0.020 A 
ATOM     73  C   UNL     1      -5.287  -0.173  -6.304  1.00  0.00     0.020 A 
ATOM     74  C   UNL     1      -6.277   0.815  -6.201  1.00  0.00     0.054 A 
BRANCH  74  75
ATOM     75  S   UNL     1      -5.919   2.467  -5.513  1.00  0.00     0.124 S 
ATOM     76  O   UNL     1      -6.257   3.347  -6.627  1.00  0.00    -0.237 OA
ATOM     77  O   UNL     1      -6.818   2.559  -4.368  1.00  0.00    -0.237 OA
ATOM     78  O   UNL     1      -4.495   2.400  -5.192  1.00  0.00    -0.744 OA
ENDBRANCH  74  75
ENDBRANCH  46  69
BRANCH  58  79
ATOM     79  C   UNL     1      -5.525  -9.018  -6.808  1.00  0.00    -0.014 A 
ATOM     80  C   UNL     1      -4.894  -8.845  -8.050  1.00  0.00     0.010 A 
ATOM     81  C   UNL     1      -5.281 -10.260  -6.164  1.00  0.00     0.010 A 
ATOM     82  C   UNL     1      -4.210  -9.894  -8.683  1.00  0.00     0.020 A 
ATOM     83  C   UNL     1      -4.525 -11.284  -6.743  1.00  0.00     0.020 A 
ATOM     84  C   UNL     1      -4.047 -11.114  -8.032  1.00  0.00     0.054 A 
BRANCH  84  85
ATOM     85  S   UNL     1      -3.218 -12.470  -8.889  1.00  0.00     0.124 S 
ATOM     86  O   UNL     1      -4.242 -12.887  -9.845  1.00  0.00    -0.237 OA
ATOM     87  O   UNL     1      -2.048 -11.816  -9.470  1.00  0.00    -0.237 OA
ATOM     88  O   UNL     1      -2.927 -13.430  -7.828  1.00  0.00    -0.744 OA
ENDBRANCH  84  85
ENDBRANCH  58  79
ENDBRANCH  32  33
ENDBRANCH  25  27
ENDBRANCH  24  25
ENDBRANCH   1  24
TORSDOF 18
