REMARK SMILES CC1=Nc2ncnn2[C@H](c2ccc(F)cc2)[C@@H]1C(=O)OCCOC(=O)c1ccc(-c2c3nc(c(-c4ccc(S(=O)(=O)[O-])cc4)c4ccc([nH]4)c(-c4ccc(S(=O)(=O)[O-])cc4)c4nc(c(-c5ccc(S(=O)(=O)[O-])cc5)c5ccc2[nH]5)C=C4)C=C3)cc1
REMARK SMILES IDX 22 1 21 2 20 3 18 4 19 5 17 6 1 7 2 8 3 9 4 10 9 11 5 12
REMARK SMILES IDX 8 13 6 14 7 15 10 16 11 17 16 18 12 19 15 20 13 21 14 22
REMARK SMILES IDX 23 23 24 24 25 25 26 26 27 27 85 28 28 29 84 30 29 31 30 32
REMARK SMILES IDX 31 33 78 34 32 35 83 36 77 37 79 38 33 39 82 40 76 41 75 42
REMARK SMILES IDX 34 44 64 45 45 46 63 47 46 48 49 49 62 50 80 51 47 52 48 53
REMARK SMILES IDX 61 55 81 56 50 57 35 58 36 59 44 60 37 61 43 62 38 63 39 64
REMARK SMILES IDX 40 65 41 66 42 67 65 68 66 69 74 70 67 71 73 72 68 73 69 74
REMARK SMILES IDX 70 75 71 76 72 77 51 78 52 79 60 80 53 81 59 82 54 83 55 84
REMARK SMILES IDX 56 85 57 86 58 87
REMARK H PARENT 79 43 49 54
REMARK Flexibility Score: inf
ROOT
ATOM      1  C   UNL     1      -2.436  -3.562  -0.209  1.00  0.00     0.275 C 
ENDROOT
BRANCH   1   2
ATOM      2  C   UNL     1      -2.470  -2.971  -1.614  1.00  0.00     0.274 C 
BRANCH   2   3
ATOM      3  O   UNL     1      -1.256  -2.324  -2.065  1.00  0.00    -0.461 OA
BRANCH   3   4
ATOM      4  C   UNL     1      -1.050  -1.015  -1.739  1.00  0.00     0.317 C 
ATOM      5  O   UNL     1      -1.687  -0.367  -0.916  1.00  0.00    -0.251 OA
BRANCH   4   6
ATOM      6  C   UNL     1      -0.018  -0.394  -2.630  1.00  0.00     0.173 C 
ATOM      7  C   UNL     1       1.887  -0.134  -0.851  1.00  0.00     0.063 C 
ATOM      8  C   UNL     1       0.940   0.503  -1.846  1.00  0.00     0.036 C 
ATOM      9  N   UNL     1       1.076   1.782  -2.004  1.00  0.00    -0.220 NA
ATOM     10  C   UNL     1       0.358   2.412  -2.954  1.00  0.00     0.248 A 
ATOM     11  C   UNL     1      -0.695   0.325  -3.827  1.00  0.00     0.161 C 
ATOM     12  N   UNL     1       0.428   3.671  -3.333  1.00  0.00    -0.198 NA
ATOM     13  N   UNL     1      -0.512   1.768  -3.791  1.00  0.00    -0.221 N 
ATOM     14  C   UNL     1      -0.350   3.721  -4.449  1.00  0.00     0.248 A 
ATOM     15  N   UNL     1      -0.916   2.568  -4.804  1.00  0.00    -0.157 NA
BRANCH  11  16
ATOM     16  C   UNL     1      -2.142  -0.020  -4.232  1.00  0.00    -0.022 A 
ATOM     17  C   UNL     1      -2.409  -0.365  -5.570  1.00  0.00     0.009 A 
ATOM     18  C   UNL     1      -3.246   0.069  -3.361  1.00  0.00     0.009 A 
ATOM     19  C   UNL     1      -3.701  -0.701  -5.986  1.00  0.00     0.039 A 
ATOM     20  C   UNL     1      -4.523  -0.341  -3.755  1.00  0.00     0.039 A 
ATOM     21  C   UNL     1      -4.739  -0.725  -5.066  1.00  0.00     0.123 A 
ATOM     22  F   UNL     1      -5.965  -1.096  -5.455  1.00  0.00    -0.207 F 
ENDBRANCH  11  16
ENDBRANCH   4   6
ENDBRANCH   3   4
ENDBRANCH   2   3
ENDBRANCH   1   2
BRANCH   1  23
ATOM     23  O   UNL     1      -2.488  -2.530   0.766  1.00  0.00    -0.458 OA
BRANCH  23  24
ATOM     24  C   UNL     1      -1.260  -2.055   1.056  1.00  0.00     0.338 C 
ATOM     25  O   UNL     1      -0.198  -2.401   0.560  1.00  0.00    -0.246 OA
BRANCH  24  26
ATOM     26  C   UNL     1      -1.338  -1.095   2.147  1.00  0.00     0.060 A 
ATOM     27  C   UNL     1      -0.253  -0.221   2.244  1.00  0.00     0.016 A 
ATOM     28  C   UNL     1      -2.100  -1.498   3.242  1.00  0.00     0.016 A 
ATOM     29  C   UNL     1       0.285  -0.008   3.483  1.00  0.00     0.010 A 
ATOM     30  C   UNL     1      -1.562  -1.286   4.480  1.00  0.00     0.010 A 
ATOM     31  C   UNL     1      -0.328  -0.630   4.571  1.00  0.00    -0.014 A 
BRANCH  31  32
ATOM     32  C   UNL     1       0.240  -0.414   5.882  1.00  0.00     0.031 A 
ATOM     33  C   UNL     1       0.027   0.983   6.339  1.00  0.00     0.074 A 
ATOM     34  C   UNL     1       0.682  -1.459   6.606  1.00  0.00     0.049 A 
ATOM     35  N   UNL     1       0.894   1.835   6.771  1.00  0.00    -0.248 NA
ATOM     36  C   UNL     1      -1.312   1.566   6.091  1.00  0.00     0.031 C 
ATOM     37  C   UNL     1       0.624  -2.879   6.234  1.00  0.00     0.029 A 
ATOM     38  N   UNL     1       1.089  -1.500   7.902  1.00  0.00    -0.354 N 
ATOM     39  C   UNL     1       0.156   2.978   7.072  1.00  0.00     0.074 A 
ATOM     40  C   UNL     1      -1.110   2.840   6.410  1.00  0.00     0.031 C 
ATOM     41  C   UNL     1       0.700  -3.629   7.355  1.00  0.00     0.029 A 
ATOM     42  C   UNL     1       0.906  -2.748   8.493  1.00  0.00     0.049 A 
ATOM     43  H   UNL     1       1.474  -0.727   8.374  1.00  0.00     0.167 HD
ATOM     44  C   UNL     1       0.493   3.776   8.119  1.00  0.00     0.031 A 
ATOM     45  C   UNL     1       0.796  -3.007   9.822  1.00  0.00     0.031 A 
ATOM     46  C   UNL     1       1.878   3.611   8.475  1.00  0.00     0.049 A 
ATOM     47  C   UNL     1       1.264  -1.798  10.549  1.00  0.00     0.074 A 
ATOM     48  C   UNL     1       3.068   3.741   7.786  1.00  0.00     0.029 A 
ATOM     49  N   UNL     1       2.154   2.857   9.591  1.00  0.00    -0.354 N 
ATOM     50  N   UNL     1       2.500  -1.389  10.556  1.00  0.00    -0.248 NA
ATOM     51  C   UNL     1       0.275  -0.790  10.905  1.00  0.00     0.031 C 
ATOM     52  C   UNL     1       3.901   2.700   8.284  1.00  0.00     0.029 A 
ATOM     53  C   UNL     1       3.209   2.035   9.299  1.00  0.00     0.049 A 
ATOM     54  H   UNL     1       1.677   2.902  10.451  1.00  0.00     0.167 HD
ATOM     55  C   UNL     1       2.418  -0.004  10.489  1.00  0.00     0.074 A 
ATOM     56  C   UNL     1       1.030   0.309  10.818  1.00  0.00     0.031 C 
ATOM     57  C   UNL     1       3.405   0.730   9.893  1.00  0.00     0.031 A 
BRANCH  44  58
ATOM     58  C   UNL     1      -0.548   4.294   9.093  1.00  0.00    -0.014 A 
ATOM     59  C   UNL     1      -0.107   5.016  10.218  1.00  0.00     0.010 A 
ATOM     60  C   UNL     1      -1.890   3.849   9.113  1.00  0.00     0.010 A 
ATOM     61  C   UNL     1      -0.921   5.168  11.347  1.00  0.00     0.020 A 
ATOM     62  C   UNL     1      -2.725   4.035  10.213  1.00  0.00     0.020 A 
ATOM     63  C   UNL     1      -2.217   4.652  11.343  1.00  0.00     0.054 A 
BRANCH  63  64
ATOM     64  S   UNL     1      -3.211   4.725  12.849  1.00  0.00     0.124 S 
ATOM     65  O   UNL     1      -2.486   3.811  13.726  1.00  0.00    -0.237 OA
ATOM     66  O   UNL     1      -3.135   6.140  13.200  1.00  0.00    -0.237 OA
ATOM     67  O   UNL     1      -4.527   4.266  12.412  1.00  0.00    -0.744 OA
ENDBRANCH  63  64
ENDBRANCH  44  58
BRANCH  45  68
ATOM     68  C   UNL     1       0.021  -4.084  10.493  1.00  0.00    -0.014 A 
ATOM     69  C   UNL     1       0.198  -4.344  11.866  1.00  0.00     0.010 A 
ATOM     70  C   UNL     1      -1.077  -4.695   9.853  1.00  0.00     0.010 A 
ATOM     71  C   UNL     1      -0.722  -5.132  12.580  1.00  0.00     0.020 A 
ATOM     72  C   UNL     1      -1.988  -5.495  10.553  1.00  0.00     0.020 A 
ATOM     73  C   UNL     1      -1.821  -5.688  11.921  1.00  0.00     0.054 A 
BRANCH  73  74
ATOM     74  S   UNL     1      -3.098  -6.555  12.880  1.00  0.00     0.124 S 
ATOM     75  O   UNL     1      -2.413  -7.783  13.273  1.00  0.00    -0.237 OA
ATOM     76  O   UNL     1      -3.379  -5.614  13.960  1.00  0.00    -0.237 OA
ATOM     77  O   UNL     1      -4.187  -6.733  11.920  1.00  0.00    -0.744 OA
ENDBRANCH  73  74
ENDBRANCH  45  68
BRANCH  57  78
ATOM     78  C   UNL     1       4.736   0.069   9.628  1.00  0.00    -0.014 A 
ATOM     79  C   UNL     1       4.905  -1.084   8.838  1.00  0.00     0.010 A 
ATOM     80  C   UNL     1       5.882   0.733  10.099  1.00  0.00     0.010 A 
ATOM     81  C   UNL     1       6.189  -1.582   8.566  1.00  0.00     0.020 A 
ATOM     82  C   UNL     1       7.162   0.258   9.812  1.00  0.00     0.020 A 
ATOM     83  C   UNL     1       7.309  -0.907   9.061  1.00  0.00     0.054 A 
BRANCH  83  84
ATOM     84  S   UNL     1       8.968  -1.541   8.694  1.00  0.00     0.124 S 
ATOM     85  O   UNL     1       9.012  -2.779   9.467  1.00  0.00    -0.237 OA
ATOM     86  O   UNL     1       8.940  -1.706   7.242  1.00  0.00    -0.237 OA
ATOM     87  O   UNL     1       9.859  -0.483   9.170  1.00  0.00    -0.744 OA
ENDBRANCH  83  84
ENDBRANCH  57  78
ENDBRANCH  31  32
ENDBRANCH  24  26
ENDBRANCH  23  24
ENDBRANCH   1  23
TORSDOF 15
