REMARK SMILES CCC[NH2+][C@@]1(C(=O)OCCOC(=O)c2ccc(-c3c4nc(c(-c5ccc(S(=O)(=O)[O-])cc5)c5ccc([nH]5)c(-c5ccc(S(=O)(=O)[O-])cc5)c5nc(c(-c6ccc(S(=O)(=O)[O-])cc6)c6ccc3[nH]6)C=C5)C=C4)cc2)CC[C@@H](SC2CCCC2)C1
REMARK SMILES IDX 9 1 8 2 6 3 7 4 5 5 74 6 83 7 75 8 76 9 4 10 3 13 2 14 1 15
REMARK SMILES IDX 77 16 78 17 79 18 82 19 80 20 81 21 10 22 11 23 12 24 13 25
REMARK SMILES IDX 14 26 15 27 73 28 16 29 72 30 17 31 18 32 19 33 66 34 20 35
REMARK SMILES IDX 71 36 65 37 67 38 21 39 70 40 64 41 63 42 22 44 52 45 33 46
REMARK SMILES IDX 51 47 34 48 37 49 50 50 68 51 35 52 36 53 49 55 69 56 38 57
REMARK SMILES IDX 23 58 24 59 32 60 25 61 31 62 26 63 27 64 28 65 29 66 30 67
REMARK SMILES IDX 53 68 54 69 62 70 55 71 61 72 56 73 57 74 58 75 59 76 60 77
REMARK SMILES IDX 39 78 40 79 48 80 41 81 47 82 42 83 43 84 44 85 45 86 46 87
REMARK H PARENT 4 11 4 12 67 43 37 54
REMARK Flexibility Score: inf
ROOT
ATOM      1  C   UNL     1      -1.314  -0.110   7.055  1.00  0.00     0.274 C 
ENDROOT
BRANCH   1   2
ATOM      2  O   UNL     1      -0.070  -0.036   6.331  1.00  0.00    -0.457 OA
BRANCH   2   3
ATOM      3  C   UNL     1       0.028  -0.803   5.207  1.00  0.00     0.368 C 
ATOM      4  O   UNL     1      -0.826  -1.613   4.859  1.00  0.00    -0.245 OA
BRANCH   3   5
ATOM      5  C   UNL     1       1.383  -0.586   4.446  1.00  0.00     0.195 C 
ATOM      6  C   UNL     1       2.304  -1.752   4.854  1.00  0.00     0.082 C 
ATOM      7  C   UNL     1       2.149   0.686   4.903  1.00  0.00     0.095 C 
ATOM      8  C   UNL     1       2.986  -1.279   6.125  1.00  0.00     0.022 C 
ATOM      9  C   UNL     1       3.201   0.214   5.914  1.00  0.00     0.054 C 
BRANCH   5  10
ATOM     10  N   UNL     1       1.060  -0.476   3.002  1.00  0.00    -0.332 N 
ATOM     11  H   UNL     1       0.058  -0.299   2.926  1.00  0.00     0.347 HD
ATOM     12  H   UNL     1       1.661   0.272   2.656  1.00  0.00     0.347 HD
BRANCH  10  13
ATOM     13  C   UNL     1       1.367  -1.624   2.157  1.00  0.00     0.261 C 
BRANCH  13  14
ATOM     14  C   UNL     1       0.832  -1.474   0.729  1.00  0.00     0.058 C 
ATOM     15  C   UNL     1       1.325  -0.230   0.000  1.00  0.00     0.010 C 
ENDBRANCH  13  14
ENDBRANCH  10  13
ENDBRANCH   5  10
BRANCH   9  16
ATOM     16  S   UNL     1       4.943   0.742   5.616  1.00  0.00    -0.155 SA
BRANCH  16  17
ATOM     17  C   UNL     1       5.518   0.061   4.013  1.00  0.00     0.047 C 
ATOM     18  C   UNL     1       5.822  -1.438   3.930  1.00  0.00     0.014 C 
ATOM     19  C   UNL     1       4.758   0.392   2.737  1.00  0.00     0.014 C 
ATOM     20  C   UNL     1       5.652  -1.811   2.451  1.00  0.00     0.001 C 
ATOM     21  C   UNL     1       5.434  -0.499   1.706  1.00  0.00     0.001 C 
ENDBRANCH  16  17
ENDBRANCH   9  16
ENDBRANCH   3   5
ENDBRANCH   2   3
ENDBRANCH   1   2
BRANCH   1  22
ATOM     22  C   UNL     1      -2.147   1.145   6.806  1.00  0.00     0.275 C 
BRANCH  22  23
ATOM     23  O   UNL     1      -2.554   1.187   5.427  1.00  0.00    -0.458 OA
BRANCH  23  24
ATOM     24  C   UNL     1      -2.107   2.243   4.709  1.00  0.00     0.338 C 
ATOM     25  O   UNL     1      -1.457   3.192   5.108  1.00  0.00    -0.246 OA
BRANCH  24  26
ATOM     26  C   UNL     1      -2.507   2.071   3.304  1.00  0.00     0.060 A 
ATOM     27  C   UNL     1      -1.909   1.063   2.556  1.00  0.00     0.016 A 
ATOM     28  C   UNL     1      -3.382   2.971   2.697  1.00  0.00     0.016 A 
ATOM     29  C   UNL     1      -2.122   0.999   1.183  1.00  0.00     0.010 A 
ATOM     30  C   UNL     1      -3.659   2.849   1.328  1.00  0.00     0.010 A 
ATOM     31  C   UNL     1      -3.004   1.880   0.548  1.00  0.00    -0.014 A 
BRANCH  31  32
ATOM     32  C   UNL     1      -3.179   1.812  -0.931  1.00  0.00     0.031 A 
ATOM     33  C   UNL     1      -2.812   2.996  -1.787  1.00  0.00     0.074 A 
ATOM     34  C   UNL     1      -3.606   0.677  -1.524  1.00  0.00     0.049 A 
ATOM     35  N   UNL     1      -3.029   3.191  -3.063  1.00  0.00    -0.248 NA
ATOM     36  C   UNL     1      -2.110   4.105  -1.122  1.00  0.00     0.031 C 
ATOM     37  C   UNL     1      -3.916  -0.579  -0.837  1.00  0.00     0.029 A 
ATOM     38  N   UNL     1      -3.832   0.390  -2.849  1.00  0.00    -0.354 N 
ATOM     39  C   UNL     1      -2.548   4.466  -3.339  1.00  0.00     0.074 A 
ATOM     40  C   UNL     1      -2.017   4.994  -2.101  1.00  0.00     0.031 C 
ATOM     41  C   UNL     1      -4.241  -1.511  -1.746  1.00  0.00     0.029 A 
ATOM     42  C   UNL     1      -4.253  -0.900  -3.071  1.00  0.00     0.049 A 
ATOM     43  H   UNL     1      -3.704   1.047  -3.571  1.00  0.00     0.167 HD
ATOM     44  C   UNL     1      -2.556   5.140  -4.515  1.00  0.00     0.031 A 
ATOM     45  C   UNL     1      -4.646  -1.516  -4.202  1.00  0.00     0.031 A 
ATOM     46  C   UNL     1      -3.049   4.602  -5.755  1.00  0.00     0.049 A 
ATOM     47  C   UNL     1      -4.692  -0.737  -5.486  1.00  0.00     0.074 A 
ATOM     48  C   UNL     1      -3.131   5.220  -6.991  1.00  0.00     0.029 A 
ATOM     49  N   UNL     1      -3.522   3.310  -5.921  1.00  0.00    -0.354 N 
ATOM     50  N   UNL     1      -4.332   0.505  -5.707  1.00  0.00    -0.248 NA
ATOM     51  C   UNL     1      -5.224  -1.433  -6.666  1.00  0.00     0.031 C 
ATOM     52  C   UNL     1      -3.682   4.309  -7.900  1.00  0.00     0.029 A 
ATOM     53  C   UNL     1      -3.905   3.112  -7.237  1.00  0.00     0.049 A 
ATOM     54  H   UNL     1      -3.579   2.633  -5.209  1.00  0.00     0.167 HD
ATOM     55  C   UNL     1      -4.597   0.740  -7.051  1.00  0.00     0.074 A 
ATOM     56  C   UNL     1      -5.121  -0.495  -7.599  1.00  0.00     0.031 C 
ATOM     57  C   UNL     1      -4.430   1.880  -7.764  1.00  0.00     0.031 A 
BRANCH  44  58
ATOM     58  C   UNL     1      -2.067   6.562  -4.497  1.00  0.00    -0.014 A 
ATOM     59  C   UNL     1      -0.696   6.868  -4.438  1.00  0.00     0.010 A 
ATOM     60  C   UNL     1      -3.003   7.611  -4.557  1.00  0.00     0.010 A 
ATOM     61  C   UNL     1      -0.273   8.200  -4.398  1.00  0.00     0.020 A 
ATOM     62  C   UNL     1      -2.583   8.943  -4.538  1.00  0.00     0.020 A 
ATOM     63  C   UNL     1      -1.220   9.229  -4.439  1.00  0.00     0.054 A 
BRANCH  63  64
ATOM     64  S   UNL     1      -0.650  10.951  -4.391  1.00  0.00     0.124 S 
ATOM     65  O   UNL     1      -0.347  11.126  -2.973  1.00  0.00    -0.237 OA
ATOM     66  O   UNL     1       0.507  10.935  -5.282  1.00  0.00    -0.237 OA
ATOM     67  O   UNL     1      -1.798  11.709  -4.881  1.00  0.00    -0.744 OA
ENDBRANCH  63  64
ENDBRANCH  44  58
BRANCH  45  68
ATOM     68  C   UNL     1      -5.087  -2.937  -4.158  1.00  0.00    -0.014 A 
ATOM     69  C   UNL     1      -4.301  -3.949  -4.735  1.00  0.00     0.010 A 
ATOM     70  C   UNL     1      -6.292  -3.286  -3.519  1.00  0.00     0.010 A 
ATOM     71  C   UNL     1      -4.713  -5.285  -4.675  1.00  0.00     0.020 A 
ATOM     72  C   UNL     1      -6.693  -4.621  -3.434  1.00  0.00     0.020 A 
ATOM     73  C   UNL     1      -5.904  -5.612  -4.022  1.00  0.00     0.054 A 
BRANCH  73  74
ATOM     74  S   UNL     1      -6.389  -7.356  -3.886  1.00  0.00     0.124 S 
ATOM     75  O   UNL     1      -6.987  -7.607  -5.194  1.00  0.00    -0.237 OA
ATOM     76  O   UNL     1      -5.115  -8.025  -3.634  1.00  0.00    -0.237 OA
ATOM     77  O   UNL     1      -7.319  -7.362  -2.759  1.00  0.00    -0.744 OA
ENDBRANCH  73  74
ENDBRANCH  45  68
BRANCH  57  78
ATOM     78  C   UNL     1      -4.806   1.841  -9.219  1.00  0.00    -0.014 A 
ATOM     79  C   UNL     1      -6.153   1.893  -9.616  1.00  0.00     0.010 A 
ATOM     80  C   UNL     1      -3.799   1.797 -10.199  1.00  0.00     0.010 A 
ATOM     81  C   UNL     1      -6.489   1.877 -10.972  1.00  0.00     0.020 A 
ATOM     82  C   UNL     1      -4.130   1.798 -11.556  1.00  0.00     0.020 A 
ATOM     83  C   UNL     1      -5.475   1.825 -11.934  1.00  0.00     0.054 A 
BRANCH  83  84
ATOM     84  S   UNL     1      -5.929   1.847 -13.690  1.00  0.00     0.124 S 
ATOM     85  O   UNL     1      -6.343   0.465 -13.913  1.00  0.00    -0.237 OA
ATOM     86  O   UNL     1      -7.000   2.840 -13.737  1.00  0.00    -0.237 OA
ATOM     87  O   UNL     1      -4.692   2.244 -14.361  1.00  0.00    -0.744 OA
ENDBRANCH  83  84
ENDBRANCH  57  78
ENDBRANCH  31  32
ENDBRANCH  24  26
ENDBRANCH  23  24
ENDBRANCH  22  23
ENDBRANCH   1  22
TORSDOF 19
