REMARK SMILES Cc1ccccc1[C@@H](Cc1c(Cl)cccc1Cl)C(=O)OCCOC(=O)c1ccc(-c2c3nc(c(-c4ccc(S(=O)(=O)[O-])cc4)c4ccc([nH]4)c(-c4ccc(S(=O)(=O)[O-])cc4)c4nc(c(-c5ccc(S(=O)(=O)[O-])cc5)c5ccc2[nH]5)C=C4)C=C3)cc1
REMARK SMILES IDX 22 1 21 2 20 3 18 4 19 5 8 6 7 7 1 8 2 9 3 10 4 11 6 12 5 13
REMARK SMILES IDX 9 14 10 15 11 16 16 17 12 18 13 19 15 20 17 21 14 22 23 23
REMARK SMILES IDX 24 24 25 25 26 26 27 27 85 28 28 29 84 30 29 31 30 32 31 33
REMARK SMILES IDX 78 34 32 35 83 36 77 37 79 38 33 39 82 40 76 41 75 42 34 44
REMARK SMILES IDX 64 45 45 46 63 47 46 48 49 49 62 50 80 51 47 52 48 53 61 55
REMARK SMILES IDX 81 56 50 57 35 58 36 59 44 60 37 61 43 62 38 63 39 64 40 65
REMARK SMILES IDX 41 66 42 67 65 68 66 69 74 70 67 71 73 72 68 73 69 74 70 75
REMARK SMILES IDX 71 76 72 77 51 78 52 79 60 80 53 81 59 82 54 83 55 84 56 85
REMARK SMILES IDX 57 86 58 87
REMARK H PARENT 79 43 49 54
REMARK Flexibility Score: inf
ROOT
ATOM      1  C   UNL     1      -2.158   1.671   3.561  1.00  0.00     0.275 C 
ENDROOT
BRANCH   1   2
ATOM      2  C   UNL     1      -2.317   2.163   2.105  1.00  0.00     0.274 C 
BRANCH   2   3
ATOM      3  O   UNL     1      -1.138   2.009   1.313  1.00  0.00    -0.462 OA
BRANCH   3   4
ATOM      4  C   UNL     1      -1.192   2.493   0.032  1.00  0.00     0.313 C 
ATOM      5  O   UNL     1      -2.192   3.005  -0.454  1.00  0.00    -0.252 OA
BRANCH   4   6
ATOM      6  C   UNL     1       0.042   2.020  -0.769  1.00  0.00     0.134 C 
BRANCH   6   7
ATOM      7  C   UNL     1      -0.219   0.509  -0.953  1.00  0.00    -0.031 A 
ATOM      8  C   UNL     1       2.139  -0.197  -0.234  1.00  0.00     0.044 C 
ATOM      9  C   UNL     1       0.690  -0.467  -0.511  1.00  0.00    -0.047 A 
ATOM     10  C   UNL     1       0.211  -1.761  -0.247  1.00  0.00     0.004 A 
ATOM     11  C   UNL     1      -1.127  -2.097  -0.455  1.00  0.00     0.000 A 
ATOM     12  C   UNL     1      -1.532   0.108  -1.304  1.00  0.00     0.005 A 
ATOM     13  C   UNL     1      -1.993  -1.171  -1.014  1.00  0.00     0.000 A 
ENDBRANCH   6   7
BRANCH   6  14
ATOM     14  C   UNL     1       0.302   2.744  -2.126  1.00  0.00     0.058 C 
BRANCH  14  15
ATOM     15  C   UNL     1       0.959   4.137  -2.191  1.00  0.00    -0.010 A 
ATOM     16  C   UNL     1       0.385   5.182  -2.955  1.00  0.00     0.045 A 
ATOM     17  C   UNL     1       2.221   4.437  -1.636  1.00  0.00     0.045 A 
ATOM     18  Cl  UNL     1      -0.980   4.929  -3.995  1.00  0.00    -0.084 Cl
ATOM     19  C   UNL     1       0.938   6.478  -2.992  1.00  0.00     0.021 A 
ATOM     20  C   UNL     1       2.767   5.736  -1.661  1.00  0.00     0.021 A 
ATOM     21  Cl  UNL     1       3.265   3.240  -0.969  1.00  0.00    -0.084 Cl
ATOM     22  C   UNL     1       2.107   6.769  -2.306  1.00  0.00     0.003 A 
ENDBRANCH  14  15
ENDBRANCH   6  14
ENDBRANCH   4   6
ENDBRANCH   3   4
ENDBRANCH   2   3
ENDBRANCH   1   2
BRANCH   1  23
ATOM     23  O   UNL     1      -0.876   1.155   4.011  1.00  0.00    -0.458 OA
BRANCH  23  24
ATOM     24  C   UNL     1       0.358   1.628   3.676  1.00  0.00     0.338 C 
ATOM     25  O   UNL     1       1.290   0.842   3.504  1.00  0.00    -0.246 OA
BRANCH  24  26
ATOM     26  C   UNL     1       0.443   3.080   3.381  1.00  0.00     0.060 A 
ATOM     27  C   UNL     1       1.204   3.512   2.289  1.00  0.00     0.016 A 
ATOM     28  C   UNL     1      -0.456   3.951   3.986  1.00  0.00     0.016 A 
ATOM     29  C   UNL     1       0.880   4.718   1.660  1.00  0.00     0.010 A 
ATOM     30  C   UNL     1      -0.861   5.076   3.293  1.00  0.00     0.010 A 
ATOM     31  C   UNL     1      -0.224   5.451   2.100  1.00  0.00    -0.014 A 
BRANCH  31  32
ATOM     32  C   UNL     1      -0.569   6.787   1.602  1.00  0.00     0.031 A 
ATOM     33  C   UNL     1      -1.240   7.086   0.314  1.00  0.00     0.074 A 
ATOM     34  C   UNL     1      -0.210   7.768   2.457  1.00  0.00     0.049 A 
ATOM     35  N   UNL     1      -1.236   8.233  -0.278  1.00  0.00    -0.248 NA
ATOM     36  C   UNL     1      -1.983   6.097  -0.444  1.00  0.00     0.031 C 
ATOM     37  C   UNL     1      -0.451   9.196   2.393  1.00  0.00     0.029 A 
ATOM     38  N   UNL     1       0.738   7.626   3.480  1.00  0.00    -0.354 N 
ATOM     39  C   UNL     1      -2.138   8.190  -1.331  1.00  0.00     0.074 A 
ATOM     40  C   UNL     1      -2.544   6.816  -1.421  1.00  0.00     0.031 C 
ATOM     41  C   UNL     1       0.564   9.805   3.037  1.00  0.00     0.029 A 
ATOM     42  C   UNL     1       1.525   8.767   3.405  1.00  0.00     0.049 A 
ATOM     43  H   UNL     1       0.827   6.878   4.114  1.00  0.00     0.167 HD
ATOM     44  C   UNL     1      -2.517   9.349  -1.942  1.00  0.00     0.031 A 
ATOM     45  C   UNL     1       2.822   8.677   2.990  1.00  0.00     0.031 A 
ATOM     46  C   UNL     1      -1.688  10.447  -1.462  1.00  0.00     0.049 A 
ATOM     47  C   UNL     1       3.030   9.517   1.754  1.00  0.00     0.074 A 
ATOM     48  C   UNL     1      -1.857  11.366  -0.441  1.00  0.00     0.029 A 
ATOM     49  N   UNL     1      -0.331  10.431  -1.766  1.00  0.00    -0.354 N 
ATOM     50  N   UNL     1       2.122   9.758   0.843  1.00  0.00    -0.248 NA
ATOM     51  C   UNL     1       4.282  10.211   1.512  1.00  0.00     0.031 C 
ATOM     52  C   UNL     1      -0.562  11.796  -0.036  1.00  0.00     0.029 A 
ATOM     53  C   UNL     1       0.380  11.184  -0.849  1.00  0.00     0.049 A 
ATOM     54  H   UNL     1       0.068   9.951  -2.527  1.00  0.00     0.167 HD
ATOM     55  C   UNL     1       2.594  10.729  -0.009  1.00  0.00     0.074 A 
ATOM     56  C   UNL     1       3.962  10.949   0.438  1.00  0.00     0.031 C 
ATOM     57  C   UNL     1       1.828  11.333  -0.971  1.00  0.00     0.031 A 
BRANCH  44  58
ATOM     58  C   UNL     1      -3.792   9.526  -2.748  1.00  0.00    -0.014 A 
ATOM     59  C   UNL     1      -4.438  10.784  -2.743  1.00  0.00     0.010 A 
ATOM     60  C   UNL     1      -4.455   8.501  -3.453  1.00  0.00     0.010 A 
ATOM     61  C   UNL     1      -5.710  10.981  -3.310  1.00  0.00     0.020 A 
ATOM     62  C   UNL     1      -5.739   8.679  -4.008  1.00  0.00     0.020 A 
ATOM     63  C   UNL     1      -6.371   9.915  -3.912  1.00  0.00     0.054 A 
BRANCH  63  64
ATOM     64  S   UNL     1      -8.062  10.159  -4.531  1.00  0.00     0.124 S 
ATOM     65  O   UNL     1      -8.784  10.559  -3.325  1.00  0.00    -0.237 OA
ATOM     66  O   UNL     1      -7.886  11.206  -5.534  1.00  0.00    -0.237 OA
ATOM     67  O   UNL     1      -8.432   8.849  -5.063  1.00  0.00    -0.744 OA
ENDBRANCH  63  64
ENDBRANCH  44  58
BRANCH  45  68
ATOM     68  C   UNL     1       3.554   7.404   3.320  1.00  0.00    -0.014 A 
ATOM     69  C   UNL     1       3.504   6.935   4.658  1.00  0.00     0.010 A 
ATOM     70  C   UNL     1       4.068   6.534   2.344  1.00  0.00     0.010 A 
ATOM     71  C   UNL     1       3.829   5.615   4.987  1.00  0.00     0.020 A 
ATOM     72  C   UNL     1       4.426   5.211   2.676  1.00  0.00     0.020 A 
ATOM     73  C   UNL     1       4.271   4.752   3.989  1.00  0.00     0.054 A 
BRANCH  73  74
ATOM     74  S   UNL     1       4.455   2.987   4.401  1.00  0.00     0.124 S 
ATOM     75  O   UNL     1       5.737   2.969   5.098  1.00  0.00    -0.237 OA
ATOM     76  O   UNL     1       3.281   2.751   5.240  1.00  0.00    -0.237 OA
ATOM     77  O   UNL     1       4.439   2.343   3.091  1.00  0.00    -0.744 OA
ENDBRANCH  73  74
ENDBRANCH  45  68
BRANCH  57  78
ATOM     78  C   UNL     1       2.331  12.252  -2.071  1.00  0.00    -0.014 A 
ATOM     79  C   UNL     1       3.679  12.453  -2.393  1.00  0.00     0.010 A 
ATOM     80  C   UNL     1       1.385  12.896  -2.913  1.00  0.00     0.010 A 
ATOM     81  C   UNL     1       4.069  13.308  -3.431  1.00  0.00     0.020 A 
ATOM     82  C   UNL     1       1.759  13.702  -3.991  1.00  0.00     0.020 A 
ATOM     83  C   UNL     1       3.106  13.927  -4.224  1.00  0.00     0.054 A 
BRANCH  83  84
ATOM     84  S   UNL     1       3.639  14.972  -5.597  1.00  0.00     0.124 S 
ATOM     85  O   UNL     1       3.997  16.210  -4.910  1.00  0.00    -0.237 OA
ATOM     86  O   UNL     1       4.760  14.217  -6.155  1.00  0.00    -0.237 OA
ATOM     87  O   UNL     1       2.459  15.047  -6.454  1.00  0.00    -0.744 OA
ENDBRANCH  83  84
ENDBRANCH  57  78
ENDBRANCH  31  32
ENDBRANCH  24  26
ENDBRANCH  23  24
ENDBRANCH   1  23
TORSDOF 17
