REMARK SMILES O=C(/C=C/c1ccc(O)c(O)c1)OCCOC(=O)c1ccc(-c2c3nc(c(-c4ccc(S(=O)(=O)[O-])cc4)c4ccc([nH]4)c(-c4ccc(S(=O)(=O)[O-])cc4)c4nc(c(-c5ccc(S(=O)(=O)[O-])cc5)c5ccc2[nH]5)C=C4)C=C3)cc1
REMARK SMILES IDX 15 1 14 2 13 3 2 4 1 5 3 6 4 7 5 8 6 9 12 10 7 11 10 12 8 13
REMARK SMILES IDX 11 14 9 16 16 18 17 19 18 20 19 21 20 22 78 23 21 24 77 25
REMARK SMILES IDX 22 26 23 27 24 28 71 29 25 30 76 31 70 32 72 33 26 34 75 35
REMARK SMILES IDX 69 36 68 37 27 39 57 40 38 41 56 42 39 43 42 44 55 45 73 46
REMARK SMILES IDX 40 47 41 48 54 50 74 51 43 52 28 53 29 54 37 55 30 56 36 57
REMARK SMILES IDX 31 58 32 59 33 60 34 61 35 62 58 63 59 64 67 65 60 66 66 67
REMARK SMILES IDX 61 68 62 69 63 70 64 71 65 72 44 73 45 74 53 75 46 76 52 77
REMARK SMILES IDX 47 78 48 79 49 80 50 81 51 82
REMARK H PARENT 11 15 9 17 72 38 42 49
REMARK Flexibility Score: inf
ROOT
ATOM      1  C   UNL     1       4.241  -0.660  -1.748  1.00  0.00     0.275 C 
ENDROOT
BRANCH   1   2
ATOM      2  C   UNL     1       4.301  -1.210  -0.321  1.00  0.00     0.275 C 
BRANCH   2   3
ATOM      3  O   UNL     1       3.101  -1.035   0.462  1.00  0.00    -0.459 OA
BRANCH   3   4
ATOM      4  C   UNL     1       2.770   0.003   1.267  1.00  0.00     0.330 C 
ATOM      5  O   UNL     1       1.791  -0.066   2.005  1.00  0.00    -0.247 OA
BRANCH   4   6
ATOM      6  C   UNL     1       3.460   1.296   1.136  1.00  0.00     0.094 C 
ATOM      7  C   UNL     1       4.778   1.526   1.179  1.00  0.00     0.016 C 
BRANCH   7   8
ATOM      8  C   UNL     1       5.349   2.836   0.845  1.00  0.00    -0.021 A 
ATOM      9  C   UNL     1       4.924   4.024   1.458  1.00  0.00     0.012 A 
ATOM     10  C   UNL     1       6.356   2.888  -0.130  1.00  0.00     0.058 A 
ATOM     11  C   UNL     1       5.496   5.253   1.105  1.00  0.00     0.051 A 
ATOM     12  C   UNL     1       6.915   4.109  -0.474  1.00  0.00     0.157 A 
ATOM     13  C   UNL     1       6.495   5.284   0.140  1.00  0.00     0.157 A 
BRANCH  12  14
ATOM     14  O   UNL     1       7.889   4.149  -1.431  1.00  0.00    -0.504 OA
ATOM     15  H   UNL     1       8.275   4.968  -1.673  1.00  0.00     0.293 HD
ENDBRANCH  12  14
BRANCH  13  16
ATOM     16  O   UNL     1       7.101   6.449  -0.240  1.00  0.00    -0.504 OA
ATOM     17  H   UNL     1       6.844   7.261   0.152  1.00  0.00     0.293 HD
ENDBRANCH  13  16
ENDBRANCH   7   8
ENDBRANCH   4   6
ENDBRANCH   3   4
ENDBRANCH   2   3
ENDBRANCH   1   2
BRANCH   1  18
ATOM     18  O   UNL     1       3.883   0.728  -1.797  1.00  0.00    -0.458 OA
BRANCH  18  19
ATOM     19  C   UNL     1       2.573   0.967  -2.060  1.00  0.00     0.338 C 
ATOM     20  O   UNL     1       1.720   0.129  -2.303  1.00  0.00    -0.246 OA
BRANCH  19  21
ATOM     21  C   UNL     1       2.265   2.403  -1.869  1.00  0.00     0.060 A 
ATOM     22  C   UNL     1       1.032   2.729  -1.291  1.00  0.00     0.016 A 
ATOM     23  C   UNL     1       3.155   3.417  -2.237  1.00  0.00     0.016 A 
ATOM     24  C   UNL     1       0.676   4.066  -1.103  1.00  0.00     0.010 A 
ATOM     25  C   UNL     1       2.795   4.757  -2.050  1.00  0.00     0.010 A 
ATOM     26  C   UNL     1       1.544   5.090  -1.503  1.00  0.00    -0.014 A 
BRANCH  26  27
ATOM     27  C   UNL     1       1.098   6.505  -1.438  1.00  0.00     0.031 A 
ATOM     28  C   UNL     1       0.587   7.176  -2.684  1.00  0.00     0.074 A 
ATOM     29  C   UNL     1       1.122   7.183  -0.276  1.00  0.00     0.049 A 
ATOM     30  N   UNL     1       0.127   8.392  -2.837  1.00  0.00    -0.248 NA
ATOM     31  C   UNL     1       0.595   6.373  -3.917  1.00  0.00     0.031 C 
ATOM     32  C   UNL     1       1.563   6.646   1.011  1.00  0.00     0.029 A 
ATOM     33  N   UNL     1       0.760   8.478   0.007  1.00  0.00    -0.354 N 
ATOM     34  C   UNL     1      -0.215   8.499  -4.180  1.00  0.00     0.074 A 
ATOM     35  C   UNL     1       0.125   7.238  -4.805  1.00  0.00     0.031 C 
ATOM     36  C   UNL     1       1.447   7.605   1.946  1.00  0.00     0.029 A 
ATOM     37  C   UNL     1       0.944   8.829   1.322  1.00  0.00     0.049 A 
ATOM     38  H   UNL     1       0.403   9.097  -0.670  1.00  0.00     0.167 HD
ATOM     39  C   UNL     1      -0.771   9.546  -4.836  1.00  0.00     0.031 A 
ATOM     40  C   UNL     1       0.739  10.003   1.953  1.00  0.00     0.031 A 
ATOM     41  C   UNL     1      -1.095  10.809  -4.228  1.00  0.00     0.049 A 
ATOM     42  C   UNL     1       0.186  11.178   1.187  1.00  0.00     0.074 A 
ATOM     43  C   UNL     1      -1.678  11.920  -4.814  1.00  0.00     0.029 A 
ATOM     44  N   UNL     1      -0.857  11.136  -2.902  1.00  0.00    -0.354 N 
ATOM     45  N   UNL     1      -0.171  11.247  -0.073  1.00  0.00    -0.248 NA
ATOM     46  C   UNL     1      -0.002  12.431   1.935  1.00  0.00     0.031 C 
ATOM     47  C   UNL     1      -1.741  12.938  -3.856  1.00  0.00     0.029 A 
ATOM     48  C   UNL     1      -1.253  12.441  -2.659  1.00  0.00     0.049 A 
ATOM     49  H   UNL     1      -0.464  10.531  -2.233  1.00  0.00     0.167 HD
ATOM     50  C   UNL     1      -0.656  12.539  -0.259  1.00  0.00     0.074 A 
ATOM     51  C   UNL     1      -0.553  13.214   1.017  1.00  0.00     0.031 C 
ATOM     52  C   UNL     1      -1.150  13.109  -1.386  1.00  0.00     0.031 A 
BRANCH  39  53
ATOM     53  C   UNL     1      -1.043   9.377  -6.306  1.00  0.00    -0.014 A 
ATOM     54  C   UNL     1      -2.091   8.556  -6.761  1.00  0.00     0.010 A 
ATOM     55  C   UNL     1      -0.266  10.081  -7.244  1.00  0.00     0.010 A 
ATOM     56  C   UNL     1      -2.332   8.412  -8.129  1.00  0.00     0.020 A 
ATOM     57  C   UNL     1      -0.521   9.960  -8.612  1.00  0.00     0.020 A 
ATOM     58  C   UNL     1      -1.542   9.112  -9.047  1.00  0.00     0.054 A 
BRANCH  58  59
ATOM     59  S   UNL     1      -1.889   8.922 -10.817  1.00  0.00     0.124 S 
ATOM     60  O   UNL     1      -1.374   7.580 -11.081  1.00  0.00    -0.237 OA
ATOM     61  O   UNL     1      -3.342   9.060 -10.877  1.00  0.00    -0.237 OA
ATOM     62  O   UNL     1      -1.137  10.010 -11.436  1.00  0.00    -0.744 OA
ENDBRANCH  58  59
ENDBRANCH  39  53
BRANCH  40  63
ATOM     63  C   UNL     1       1.069  10.137   3.398  1.00  0.00    -0.014 A 
ATOM     64  C   UNL     1       0.053  10.274   4.359  1.00  0.00     0.010 A 
ATOM     65  C   UNL     1       2.413  10.143   3.815  1.00  0.00     0.010 A 
ATOM     66  C   UNL     1       0.374  10.434   5.710  1.00  0.00     0.020 A 
ATOM     67  C   UNL     1       2.737  10.277   5.167  1.00  0.00     0.020 A 
ATOM     68  C   UNL     1       1.715  10.434   6.105  1.00  0.00     0.054 A 
BRANCH  68  69
ATOM     69  S   UNL     1       2.112  10.600   7.868  1.00  0.00     0.124 S 
ATOM     70  O   UNL     1       1.868  12.020   8.101  1.00  0.00    -0.237 OA
ATOM     71  O   UNL     1       1.163   9.682   8.493  1.00  0.00    -0.237 OA
ATOM     72  O   UNL     1       3.510  10.183   7.941  1.00  0.00    -0.744 OA
ENDBRANCH  68  69
ENDBRANCH  40  63
BRANCH  52  73
ATOM     73  C   UNL     1      -1.655  14.526  -1.294  1.00  0.00    -0.014 A 
ATOM     74  C   UNL     1      -0.770  15.612  -1.173  1.00  0.00     0.010 A 
ATOM     75  C   UNL     1      -3.036  14.778  -1.398  1.00  0.00     0.010 A 
ATOM     76  C   UNL     1      -1.259  16.922  -1.132  1.00  0.00     0.020 A 
ATOM     77  C   UNL     1      -3.527  16.086  -1.383  1.00  0.00     0.020 A 
ATOM     78  C   UNL     1      -2.635  17.151  -1.238  1.00  0.00     0.054 A 
BRANCH  78  79
ATOM     79  S   UNL     1      -3.241  18.861  -1.233  1.00  0.00     0.124 S 
ATOM     80  O   UNL     1      -3.105  19.229   0.173  1.00  0.00    -0.237 OA
ATOM     81  O   UNL     1      -2.321  19.531  -2.150  1.00  0.00    -0.237 OA
ATOM     82  O   UNL     1      -4.615  18.743  -1.716  1.00  0.00    -0.744 OA
ENDBRANCH  78  79
ENDBRANCH  52  73
ENDBRANCH  26  27
ENDBRANCH  19  21
ENDBRANCH  18  19
ENDBRANCH   1  18
TORSDOF 17
