REMARK SMILES Cc1cnc(S[C@H]2CC[C@@]([NH2+]C(C)C)(C(=O)OCCOC(=O)c3ccc(-c4c5nc(c(-c6ccc(S(=O)(=O)[O-])cc6)c6ccc([nH]6)c(-c6ccc(S(=O)(=O)[O-])cc6)c6nc(c(-c7ccc(S(=O)(=O)[O-])cc7)c7ccc4[nH]7)C=C6)C=C5)cc3)C2)nc1
REMARK SMILES IDX 19 1 18 2 17 3 15 4 16 5 10 6 7 7 8 8 83 9 9 10 6 11 5 12
REMARK SMILES IDX 1 13 2 14 3 15 85 16 4 17 84 18 11 19 12 22 13 23 14 24
REMARK SMILES IDX 20 25 21 26 22 27 23 28 24 29 82 30 25 31 81 32 26 33 27 34
REMARK SMILES IDX 28 35 75 36 29 37 80 38 74 39 76 40 30 41 79 42 73 43 72 44
REMARK SMILES IDX 31 46 61 47 42 48 60 49 43 50 46 51 59 52 77 53 44 54 45 55
REMARK SMILES IDX 58 57 78 58 47 59 32 60 33 61 41 62 34 63 40 64 35 65 36 66
REMARK SMILES IDX 37 67 38 68 39 69 62 70 63 71 71 72 64 73 70 74 65 75 66 76
REMARK SMILES IDX 67 77 68 78 69 79 48 80 49 81 57 82 50 83 56 84 51 85 52 86
REMARK SMILES IDX 53 87 54 88 55 89
REMARK H PARENT 11 20 11 21 76 45 46 56
REMARK Flexibility Score: inf
ROOT
ATOM      1  C   UNL     1       8.304  -4.672   0.184  1.00  0.00     0.275 C 
ENDROOT
BRANCH   1   2
ATOM      2  C   UNL     1       7.268  -5.792   0.361  1.00  0.00     0.274 C 
BRANCH   2   3
ATOM      3  O   UNL     1       5.957  -5.426  -0.125  1.00  0.00    -0.457 OA
BRANCH   3   4
ATOM      4  C   UNL     1       5.163  -4.801   0.787  1.00  0.00     0.368 C 
ATOM      5  O   UNL     1       5.537  -4.548   1.932  1.00  0.00    -0.245 OA
BRANCH   4   6
ATOM      6  C   UNL     1       3.718  -4.463   0.283  1.00  0.00     0.195 C 
ATOM      7  C   UNL     1       3.746  -2.309  -0.963  1.00  0.00     0.062 C 
ATOM      8  C   UNL     1       3.053  -3.346  -1.837  1.00  0.00     0.022 C 
ATOM      9  C   UNL     1       3.482  -2.929   0.425  1.00  0.00     0.096 C 
ATOM     10  C   UNL     1       3.464  -4.703  -1.238  1.00  0.00     0.082 C 
BRANCH   7  11
ATOM     11  S   UNL     1       5.533  -2.291  -1.367  1.00  0.00    -0.083 SA
BRANCH  11  12
ATOM     12  C   UNL     1       5.833  -0.710  -2.103  1.00  0.00     0.187 A 
ATOM     13  C   UNL     1       7.132   2.528  -4.450  1.00  0.00     0.048 C 
ATOM     14  C   UNL     1       6.649   1.423  -3.572  1.00  0.00    -0.014 A 
ATOM     15  C   UNL     1       5.367   0.910  -3.639  1.00  0.00     0.119 A 
ATOM     16  C   UNL     1       7.471   0.796  -2.667  1.00  0.00     0.119 A 
ATOM     17  N   UNL     1       4.932  -0.157  -2.926  1.00  0.00    -0.231 NA
ATOM     18  N   UNL     1       7.089  -0.260  -1.931  1.00  0.00    -0.231 NA
ENDBRANCH  11  12
ENDBRANCH   7  11
BRANCH   6  19
ATOM     19  N   UNL     1       2.703  -5.284   1.017  1.00  0.00    -0.330 N 
ATOM     20  H   UNL     1       2.655  -6.190   0.550  1.00  0.00     0.347 HD
ATOM     21  H   UNL     1       1.857  -4.714   0.989  1.00  0.00     0.347 HD
BRANCH  19  22
ATOM     22  C   UNL     1       2.906  -5.547   2.451  1.00  0.00     0.176 C 
ATOM     23  C   UNL     1       2.678  -4.324   3.339  1.00  0.00     0.075 C 
ATOM     24  C   UNL     1       1.947  -6.668   2.864  1.00  0.00     0.075 C 
ENDBRANCH  19  22
ENDBRANCH   6  19
ENDBRANCH   4   6
ENDBRANCH   3   4
ENDBRANCH   2   3
ENDBRANCH   1   2
BRANCH   1  25
ATOM     25  O   UNL     1       7.905  -3.510   0.923  1.00  0.00    -0.458 OA
BRANCH  25  26
ATOM     26  C   UNL     1       8.621  -2.376   0.714  1.00  0.00     0.338 C 
ATOM     27  O   UNL     1       9.686  -2.309   0.124  1.00  0.00    -0.246 OA
BRANCH  26  28
ATOM     28  C   UNL     1       7.871  -1.200   1.256  1.00  0.00     0.060 A 
ATOM     29  C   UNL     1       6.597  -1.347   1.807  1.00  0.00     0.016 A 
ATOM     30  C   UNL     1       8.394   0.090   1.129  1.00  0.00     0.016 A 
ATOM     31  C   UNL     1       5.810  -0.237   2.116  1.00  0.00     0.010 A 
ATOM     32  C   UNL     1       7.641   1.205   1.540  1.00  0.00     0.010 A 
ATOM     33  C   UNL     1       6.329   1.058   2.022  1.00  0.00    -0.014 A 
BRANCH  33  34
ATOM     34  C   UNL     1       5.510   2.231   2.455  1.00  0.00     0.031 A 
ATOM     35  C   UNL     1       5.243   3.381   1.516  1.00  0.00     0.074 A 
ATOM     36  C   UNL     1       4.993   2.275   3.702  1.00  0.00     0.049 A 
ATOM     37  N   UNL     1       4.745   4.563   1.782  1.00  0.00    -0.248 NA
ATOM     38  C   UNL     1       5.583   3.182   0.099  1.00  0.00     0.031 C 
ATOM     39  C   UNL     1       5.108   1.219   4.713  1.00  0.00     0.029 A 
ATOM     40  N   UNL     1       4.261   3.252   4.336  1.00  0.00    -0.354 N 
ATOM     41  C   UNL     1       4.772   5.270   0.585  1.00  0.00     0.074 A 
ATOM     42  C   UNL     1       5.321   4.378  -0.415  1.00  0.00     0.031 C 
ATOM     43  C   UNL     1       4.442   1.586   5.817  1.00  0.00     0.029 A 
ATOM     44  C   UNL     1       3.946   2.945   5.640  1.00  0.00     0.049 A 
ATOM     45  H   UNL     1       3.989   4.091   3.899  1.00  0.00     0.167 HD
ATOM     46  C   UNL     1       4.386   6.548   0.346  1.00  0.00     0.031 A 
ATOM     47  C   UNL     1       3.382   3.683   6.615  1.00  0.00     0.031 A 
ATOM     48  C   UNL     1       3.794   7.421   1.328  1.00  0.00     0.049 A 
ATOM     49  C   UNL     1       3.014   5.111   6.339  1.00  0.00     0.074 A 
ATOM     50  C   UNL     1       3.356   8.726   1.166  1.00  0.00     0.029 A 
ATOM     51  N   UNL     1       3.541   7.081   2.647  1.00  0.00    -0.354 N 
ATOM     52  N   UNL     1       3.116   5.786   5.220  1.00  0.00    -0.248 NA
ATOM     53  C   UNL     1       2.477   5.884   7.467  1.00  0.00     0.031 C 
ATOM     54  C   UNL     1       2.879   9.189   2.397  1.00  0.00     0.029 A 
ATOM     55  C   UNL     1       2.974   8.156   3.314  1.00  0.00     0.049 A 
ATOM     56  H   UNL     1       3.735   6.205   3.051  1.00  0.00     0.167 HD
ATOM     57  C   UNL     1       2.653   7.064   5.510  1.00  0.00     0.074 A 
ATOM     58  C   UNL     1       2.243   7.059   6.899  1.00  0.00     0.031 C 
ATOM     59  C   UNL     1       2.583   8.147   4.699  1.00  0.00     0.031 A 
BRANCH  46  60
ATOM     60  C   UNL     1       4.633   7.116  -1.026  1.00  0.00    -0.014 A 
ATOM     61  C   UNL     1       3.812   6.789  -2.118  1.00  0.00     0.010 A 
ATOM     62  C   UNL     1       5.653   8.072  -1.196  1.00  0.00     0.010 A 
ATOM     63  C   UNL     1       4.020   7.395  -3.362  1.00  0.00     0.020 A 
ATOM     64  C   UNL     1       5.851   8.695  -2.431  1.00  0.00     0.020 A 
ATOM     65  C   UNL     1       5.038   8.343  -3.510  1.00  0.00     0.054 A 
BRANCH  65  66
ATOM     66  S   UNL     1       5.258   9.144  -5.123  1.00  0.00     0.124 S 
ATOM     67  O   UNL     1       5.876   8.074  -5.904  1.00  0.00    -0.237 OA
ATOM     68  O   UNL     1       3.890   9.488  -5.501  1.00  0.00    -0.237 OA
ATOM     69  O   UNL     1       6.126  10.282  -4.831  1.00  0.00    -0.744 OA
ENDBRANCH  65  66
ENDBRANCH  46  60
BRANCH  47  70
ATOM     70  C   UNL     1       3.212   3.108   7.977  1.00  0.00    -0.014 A 
ATOM     71  C   UNL     1       1.931   2.835   8.487  1.00  0.00     0.010 A 
ATOM     72  C   UNL     1       4.340   2.830   8.772  1.00  0.00     0.010 A 
ATOM     73  C   UNL     1       1.782   2.307   9.773  1.00  0.00     0.020 A 
ATOM     74  C   UNL     1       4.196   2.272  10.043  1.00  0.00     0.020 A 
ATOM     75  C   UNL     1       2.915   2.028  10.542  1.00  0.00     0.054 A 
BRANCH  75  76
ATOM     76  S   UNL     1       2.708   1.290  12.186  1.00  0.00     0.124 S 
ATOM     77  O   UNL     1       2.376   2.455  13.000  1.00  0.00    -0.237 OA
ATOM     78  O   UNL     1       1.624   0.335  11.975  1.00  0.00    -0.237 OA
ATOM     79  O   UNL     1       4.013   0.689  12.454  1.00  0.00    -0.744 OA
ENDBRANCH  75  76
ENDBRANCH  47  70
BRANCH  59  80
ATOM     80  C   UNL     1       2.018   9.407   5.296  1.00  0.00    -0.014 A 
ATOM     81  C   UNL     1       2.759  10.169   6.216  1.00  0.00     0.010 A 
ATOM     82  C   UNL     1       0.725   9.828   4.939  1.00  0.00     0.010 A 
ATOM     83  C   UNL     1       2.197  11.303   6.809  1.00  0.00     0.020 A 
ATOM     84  C   UNL     1       0.169  10.975   5.510  1.00  0.00     0.020 A 
ATOM     85  C   UNL     1       0.900  11.693   6.459  1.00  0.00     0.054 A 
BRANCH  85  86
ATOM     86  S   UNL     1       0.186  13.165   7.241  1.00  0.00     0.124 S 
ATOM     87  O   UNL     1      -0.198  12.655   8.554  1.00  0.00    -0.237 OA
ATOM     88  O   UNL     1       1.300  14.110   7.235  1.00  0.00    -0.237 OA
ATOM     89  O   UNL     1      -0.925  13.518   6.360  1.00  0.00    -0.744 OA
ENDBRANCH  85  86
ENDBRANCH  59  80
ENDBRANCH  33  34
ENDBRANCH  26  28
ENDBRANCH  25  26
ENDBRANCH   1  25
TORSDOF 18
