REMARK SMILES CO[C@H]1C[C@@H](C(=O)OCCOC(=O)c2ccc(-c3c4nc(c(-c5ccc(S(=O)(=O)[O-])cc5)c5ccc([nH]5)c(-c5ccc(S(=O)(=O)[O-])cc5)c5nc(c(-c6ccc(S(=O)(=O)[O-])cc6)c6ccc3[nH]6)C=C5)C=C4)cc2)N(C(=O)Nc2cc(C)cc(F)c2)C1
REMARK SMILES IDX 10 1 9 2 8 3 6 4 7 5 5 6 3 7 4 8 86 9 74 10 2 11 1 12 75 13
REMARK SMILES IDX 76 14 77 15 78 17 79 18 85 19 80 20 83 21 81 22 82 23 84 24
REMARK SMILES IDX 11 25 12 26 13 27 14 28 15 29 73 30 16 31 72 32 17 33 18 34
REMARK SMILES IDX 19 35 66 36 20 37 71 38 65 39 67 40 21 41 70 42 64 43 63 44
REMARK SMILES IDX 22 46 52 47 33 48 51 49 34 50 37 51 50 52 68 53 35 54 36 55
REMARK SMILES IDX 49 57 69 58 38 59 23 60 24 61 32 62 25 63 31 64 26 65 27 66
REMARK SMILES IDX 28 67 29 68 30 69 53 70 54 71 62 72 55 73 61 74 56 75 57 76
REMARK SMILES IDX 58 77 59 78 60 79 39 80 40 81 48 82 41 83 47 84 42 85 43 86
REMARK SMILES IDX 44 87 45 88 46 89
REMARK H PARENT 77 16 67 45 37 56
REMARK Flexibility Score: inf
ROOT
ATOM      1  C   UNL     1       4.067   3.651  -4.083  1.00  0.00     0.275 C 
ENDROOT
BRANCH   1   2
ATOM      2  C   UNL     1       3.839   3.791  -2.568  1.00  0.00     0.274 C 
BRANCH   2   3
ATOM      3  O   UNL     1       2.664   3.192  -1.981  1.00  0.00    -0.461 OA
BRANCH   3   4
ATOM      4  C   UNL     1       2.077   2.113  -2.561  1.00  0.00     0.329 C 
ATOM      5  O   UNL     1       2.508   1.496  -3.518  1.00  0.00    -0.250 OA
BRANCH   4   6
ATOM      6  C   UNL     1       0.835   1.703  -1.770  1.00  0.00     0.199 C 
ATOM      7  C   UNL     1       0.761  -0.739  -1.991  1.00  0.00     0.140 C 
ATOM      8  C   UNL     1       1.279   0.396  -1.094  1.00  0.00     0.071 C 
ATOM      9  C   UNL     1      -0.237  -0.071  -2.947  1.00  0.00     0.154 C 
ATOM     10  N   UNL     1      -0.321   1.344  -2.595  1.00  0.00    -0.308 N 
BRANCH   7  11
ATOM     11  O   UNL     1       1.699  -1.445  -2.800  1.00  0.00    -0.380 OA
ATOM     12  C   UNL     1       2.960  -1.752  -2.245  1.00  0.00     0.195 C 
ENDBRANCH   7  11
BRANCH  10  13
ATOM     13  C   UNL     1      -1.449   2.014  -2.968  1.00  0.00     0.322 C 
ATOM     14  O   UNL     1      -2.386   1.399  -3.494  1.00  0.00    -0.248 OA
ATOM     15  N   UNL     1      -1.710   3.314  -2.713  1.00  0.00    -0.308 N 
ATOM     16  H   UNL     1      -2.667   3.458  -2.530  1.00  0.00     0.171 HD
BRANCH  15  17
ATOM     17  C   UNL     1      -0.989   4.515  -2.638  1.00  0.00     0.046 A 
ATOM     18  C   UNL     1      -1.660   5.675  -2.211  1.00  0.00     0.029 A 
ATOM     19  C   UNL     1       0.300   4.660  -3.109  1.00  0.00     0.065 A 
ATOM     20  C   UNL     1      -0.997   6.916  -2.127  1.00  0.00    -0.046 A 
ATOM     21  C   UNL     1       0.966   5.878  -3.002  1.00  0.00     0.125 A 
ATOM     22  C   UNL     1      -1.720   8.192  -1.820  1.00  0.00     0.044 C 
ATOM     23  C   UNL     1       0.349   6.991  -2.472  1.00  0.00     0.042 A 
ATOM     24  F   UNL     1       2.215   6.010  -3.464  1.00  0.00    -0.207 F 
ENDBRANCH  15  17
ENDBRANCH  10  13
ENDBRANCH   4   6
ENDBRANCH   3   4
ENDBRANCH   2   3
ENDBRANCH   1   2
BRANCH   1  25
ATOM     25  O   UNL     1       2.857   3.814  -4.847  1.00  0.00    -0.458 OA
BRANCH  25  26
ATOM     26  C   UNL     1       2.826   3.107  -6.006  1.00  0.00     0.338 C 
ATOM     27  O   UNL     1       3.755   2.487  -6.502  1.00  0.00    -0.246 OA
BRANCH  26  28
ATOM     28  C   UNL     1       1.519   3.263  -6.682  1.00  0.00     0.060 A 
ATOM     29  C   UNL     1       0.336   2.733  -6.151  1.00  0.00     0.016 A 
ATOM     30  C   UNL     1       1.507   3.845  -7.949  1.00  0.00     0.016 A 
ATOM     31  C   UNL     1      -0.863   2.796  -6.879  1.00  0.00     0.010 A 
ATOM     32  C   UNL     1       0.317   3.898  -8.681  1.00  0.00     0.010 A 
ATOM     33  C   UNL     1      -0.873   3.356  -8.163  1.00  0.00    -0.014 A 
BRANCH  33  34
ATOM     34  C   UNL     1      -2.046   3.230  -9.071  1.00  0.00     0.031 A 
ATOM     35  C   UNL     1      -2.034   2.132 -10.103  1.00  0.00     0.074 A 
ATOM     36  C   UNL     1      -3.069   4.103  -9.038  1.00  0.00     0.049 A 
ATOM     37  N   UNL     1      -2.809   1.959 -11.143  1.00  0.00    -0.248 NA
ATOM     38  C   UNL     1      -1.003   1.096  -9.937  1.00  0.00     0.031 C 
ATOM     39  C   UNL     1      -3.255   5.154  -8.040  1.00  0.00     0.029 A 
ATOM     40  N   UNL     1      -4.139   4.255  -9.889  1.00  0.00    -0.354 N 
ATOM     41  C   UNL     1      -2.342   0.809 -11.771  1.00  0.00     0.074 A 
ATOM     42  C   UNL     1      -1.216   0.332 -10.998  1.00  0.00     0.031 C 
ATOM     43  C   UNL     1      -4.362   5.855  -8.347  1.00  0.00     0.029 A 
ATOM     44  C   UNL     1      -4.926   5.345  -9.597  1.00  0.00     0.049 A 
ATOM     45  H   UNL     1      -4.324   3.641 -10.637  1.00  0.00     0.167 HD
ATOM     46  C   UNL     1      -2.801   0.213 -12.898  1.00  0.00     0.031 A 
ATOM     47  C   UNL     1      -5.951   5.896 -10.282  1.00  0.00     0.031 A 
ATOM     48  C   UNL     1      -3.905   0.708 -13.678  1.00  0.00     0.049 A 
ATOM     49  C   UNL     1      -6.377   5.283 -11.596  1.00  0.00     0.074 A 
ATOM     50  C   UNL     1      -4.432   0.195 -14.850  1.00  0.00     0.029 A 
ATOM     51  N   UNL     1      -4.650   1.837 -13.367  1.00  0.00    -0.354 N 
ATOM     52  N   UNL     1      -5.907   4.218 -12.202  1.00  0.00    -0.248 NA
ATOM     53  C   UNL     1      -7.469   5.951 -12.321  1.00  0.00     0.031 C 
ATOM     54  C   UNL     1      -5.453   1.048 -15.281  1.00  0.00     0.029 A 
ATOM     55  C   UNL     1      -5.615   2.049 -14.337  1.00  0.00     0.049 A 
ATOM     56  H   UNL     1      -4.513   2.403 -12.573  1.00  0.00     0.167 HD
ATOM     57  C   UNL     1      -6.668   4.069 -13.359  1.00  0.00     0.074 A 
ATOM     58  C   UNL     1      -7.634   5.148 -13.365  1.00  0.00     0.031 C 
ATOM     59  C   UNL     1      -6.579   3.122 -14.326  1.00  0.00     0.031 A 
BRANCH  46  60
ATOM     60  C   UNL     1      -2.062  -1.005 -13.391  1.00  0.00    -0.014 A 
ATOM     61  C   UNL     1      -2.120  -2.231 -12.706  1.00  0.00     0.010 A 
ATOM     62  C   UNL     1      -1.310  -0.922 -14.578  1.00  0.00     0.010 A 
ATOM     63  C   UNL     1      -1.404  -3.338 -13.173  1.00  0.00     0.020 A 
ATOM     64  C   UNL     1      -0.618  -2.034 -15.066  1.00  0.00     0.020 A 
ATOM     65  C   UNL     1      -0.655  -3.232 -14.350  1.00  0.00     0.054 A 
BRANCH  65  66
ATOM     66  S   UNL     1       0.253  -4.686 -14.941  1.00  0.00     0.124 S 
ATOM     67  O   UNL     1       1.325  -4.795 -13.955  1.00  0.00    -0.237 OA
ATOM     68  O   UNL     1      -0.758  -5.739 -14.886  1.00  0.00    -0.237 OA
ATOM     69  O   UNL     1       0.681  -4.308 -16.285  1.00  0.00    -0.744 OA
ENDBRANCH  65  66
ENDBRANCH  46  60
BRANCH  47  70
ATOM     70  C   UNL     1      -6.623   7.128  -9.771  1.00  0.00    -0.014 A 
ATOM     71  C   UNL     1      -7.966   7.098  -9.355  1.00  0.00     0.010 A 
ATOM     72  C   UNL     1      -5.923   8.348  -9.711  1.00  0.00     0.010 A 
ATOM     73  C   UNL     1      -8.598   8.262  -8.903  1.00  0.00     0.020 A 
ATOM     74  C   UNL     1      -6.540   9.506  -9.229  1.00  0.00     0.020 A 
ATOM     75  C   UNL     1      -7.878   9.458  -8.836  1.00  0.00     0.054 A 
BRANCH  75  76
ATOM     76  S   UNL     1      -8.700  10.941  -8.188  1.00  0.00     0.124 S 
ATOM     77  O   UNL     1      -9.631  11.270  -9.263  1.00  0.00    -0.237 OA
ATOM     78  O   UNL     1      -9.307  10.450  -6.953  1.00  0.00    -0.237 OA
ATOM     79  O   UNL     1      -7.602  11.887  -7.999  1.00  0.00    -0.744 OA
ENDBRANCH  75  76
ENDBRANCH  47  70
BRANCH  59  80
ATOM     80  C   UNL     1      -7.587   3.162 -15.448  1.00  0.00    -0.014 A 
ATOM     81  C   UNL     1      -7.543   4.149 -16.447  1.00  0.00     0.010 A 
ATOM     82  C   UNL     1      -8.551   2.139 -15.541  1.00  0.00     0.010 A 
ATOM     83  C   UNL     1      -8.460   4.128 -17.504  1.00  0.00     0.020 A 
ATOM     84  C   UNL     1      -9.449   2.096 -16.610  1.00  0.00     0.020 A 
ATOM     85  C   UNL     1      -9.406   3.099 -17.580  1.00  0.00     0.054 A 
BRANCH  85  86
ATOM     86  S   UNL     1     -10.548   3.063 -18.989  1.00  0.00     0.124 S 
ATOM     87  O   UNL     1     -11.437   4.183 -18.690  1.00  0.00    -0.237 OA
ATOM     88  O   UNL     1      -9.655   3.257 -20.130  1.00  0.00    -0.237 OA
ATOM     89  O   UNL     1     -11.163   1.740 -18.905  1.00  0.00    -0.744 OA
ENDBRANCH  85  86
ENDBRANCH  59  80
ENDBRANCH  33  34
ENDBRANCH  26  28
ENDBRANCH  25  26
ENDBRANCH   1  25
TORSDOF 17
