REMARK SMILES CC1=C(C)C[C@@H](C(=O)OCCOC(=O)c2ccc(-c3c4nc(c(-c5ccc(S(=O)(=O)[O-])cc5)c5ccc([nH]5)c(-c5ccc(S(=O)(=O)[O-])cc5)c5nc(c(-c6ccc(S(=O)(=O)[O-])cc6)c6ccc3[nH]6)C=C5)C=C4)cc2)[C@@H](C(=O)NCC[NH+]2CCOCC2)C1
REMARK SMILES IDX 10 1 9 2 7 3 8 4 6 5 1 6 2 7 3 8 87 9 4 10 5 11 75 12 76 13
REMARK SMILES IDX 77 14 78 15 79 17 80 18 81 19 82 20 86 21 83 23 85 24 84 25
REMARK SMILES IDX 11 26 12 27 13 28 14 29 15 30 16 31 74 32 17 33 73 34 18 35
REMARK SMILES IDX 19 36 20 37 67 38 21 39 72 40 66 41 68 42 22 43 71 44 65 45
REMARK SMILES IDX 64 46 23 48 53 49 34 50 52 51 35 52 38 53 51 54 69 55 36 56
REMARK SMILES IDX 37 57 50 59 70 60 39 61 24 62 25 63 33 64 26 65 32 66 27 67
REMARK SMILES IDX 28 68 29 69 30 70 31 71 54 72 55 73 63 74 56 75 62 76 57 77
REMARK SMILES IDX 58 78 59 79 60 80 61 81 40 82 41 83 49 84 42 85 48 86 43 87
REMARK SMILES IDX 44 88 45 89 46 90 47 91
REMARK H PARENT 78 16 81 22 68 47 38 58
REMARK Flexibility Score: inf
ROOT
ATOM      1  C   UNL     1       1.744  -5.134   4.500  1.00  0.00     0.274 C 
ENDROOT
BRANCH   1   2
ATOM      2  O   UNL     1       0.964  -4.347   3.575  1.00  0.00    -0.462 OA
BRANCH   2   3
ATOM      3  C   UNL     1       0.923  -4.730   2.286  1.00  0.00     0.310 C 
ATOM      4  O   UNL     1       1.461  -5.752   1.871  1.00  0.00    -0.252 OA
BRANCH   3   5
ATOM      5  C   UNL     1       0.146  -3.788   1.359  1.00  0.00     0.116 C 
ATOM      6  C   UNL     1       0.766   0.285  -0.364  1.00  0.00     0.039 C 
ATOM      7  C   UNL     1       0.490  -1.149   0.002  1.00  0.00    -0.074 C 
ATOM      8  C   UNL     1       1.252  -2.186  -0.398  1.00  0.00    -0.073 C 
ATOM      9  C   UNL     1      -0.710  -1.379   0.887  1.00  0.00     0.045 C 
ATOM     10  C   UNL     1       2.416  -2.087  -1.349  1.00  0.00     0.039 C 
ATOM     11  C   UNL     1       0.981  -3.592   0.071  1.00  0.00     0.046 C 
ATOM     12  C   UNL     1      -0.567  -2.528   1.900  1.00  0.00     0.097 C 
BRANCH  12  13
ATOM     13  C   UNL     1      -0.250  -1.928   3.271  1.00  0.00     0.224 C 
ATOM     14  O   UNL     1      -1.170  -1.605   4.030  1.00  0.00    -0.275 OA
ATOM     15  N   UNL     1       1.000  -1.590   3.656  1.00  0.00    -0.350 N 
ATOM     16  H   UNL     1       1.071  -1.273   4.586  1.00  0.00     0.163 HD
BRANCH  15  17
ATOM     17  C   UNL     1       2.248  -1.615   2.933  1.00  0.00     0.177 C 
BRANCH  17  18
ATOM     18  C   UNL     1       3.222  -0.583   3.500  1.00  0.00     0.283 C 
BRANCH  18  19
ATOM     19  N   UNL     1       3.636  -0.902   4.881  1.00  0.00    -0.330 N 
ATOM     20  C   UNL     1       4.204   0.293   5.542  1.00  0.00     0.291 C 
ATOM     21  C   UNL     1       4.666  -1.968   4.923  1.00  0.00     0.291 C 
ATOM     22  H   UNL     1       2.797  -1.222   5.365  1.00  0.00     0.348 HD
ATOM     23  C   UNL     1       5.558   0.717   4.952  1.00  0.00     0.221 C 
ATOM     24  C   UNL     1       6.043  -1.530   4.390  1.00  0.00     0.221 C 
ATOM     25  O   UNL     1       6.516  -0.345   5.043  1.00  0.00    -0.370 OA
ENDBRANCH  18  19
ENDBRANCH  17  18
ENDBRANCH  15  17
ENDBRANCH  12  13
ENDBRANCH   3   5
ENDBRANCH   2   3
ENDBRANCH   1   2
BRANCH   1  26
ATOM     26  C   UNL     1       0.984  -5.274   5.818  1.00  0.00     0.275 C 
BRANCH  26  27
ATOM     27  O   UNL     1      -0.125  -6.165   5.621  1.00  0.00    -0.458 OA
BRANCH  27  28
ATOM     28  C   UNL     1      -1.228  -5.563   5.119  1.00  0.00     0.338 C 
ATOM     29  O   UNL     1      -1.463  -4.373   5.042  1.00  0.00    -0.246 OA
BRANCH  28  30
ATOM     30  C   UNL     1      -2.028  -6.578   4.439  1.00  0.00     0.060 A 
ATOM     31  C   UNL     1      -2.191  -6.459   3.055  1.00  0.00     0.016 A 
ATOM     32  C   UNL     1      -2.632  -7.604   5.159  1.00  0.00     0.016 A 
ATOM     33  C   UNL     1      -2.977  -7.371   2.369  1.00  0.00     0.010 A 
ATOM     34  C   UNL     1      -3.427  -8.514   4.474  1.00  0.00     0.010 A 
ATOM     35  C   UNL     1      -3.611  -8.389   3.084  1.00  0.00    -0.014 A 
BRANCH  35  36
ATOM     36  C   UNL     1      -4.567  -9.284   2.413  1.00  0.00     0.031 A 
ATOM     37  C   UNL     1      -6.028  -9.074   2.663  1.00  0.00     0.074 A 
ATOM     38  C   UNL     1      -4.109 -10.288   1.648  1.00  0.00     0.049 A 
ATOM     39  N   UNL     1      -7.032  -9.861   2.395  1.00  0.00    -0.248 NA
ATOM     40  C   UNL     1      -6.403  -7.811   3.324  1.00  0.00     0.031 C 
ATOM     41  C   UNL     1      -2.705 -10.513   1.297  1.00  0.00     0.029 A 
ATOM     42  N   UNL     1      -4.776 -11.322   1.051  1.00  0.00    -0.354 N 
ATOM     43  C   UNL     1      -8.156  -9.211   2.891  1.00  0.00     0.074 A 
ATOM     44  C   UNL     1      -7.709  -7.968   3.481  1.00  0.00     0.031 C 
ATOM     45  C   UNL     1      -2.614 -11.631   0.559  1.00  0.00     0.029 A 
ATOM     46  C   UNL     1      -3.941 -12.228   0.444  1.00  0.00     0.049 A 
ATOM     47  H   UNL     1      -5.757 -11.408   1.055  1.00  0.00     0.167 HD
ATOM     48  C   UNL     1      -9.441  -9.632   2.863  1.00  0.00     0.031 A 
ATOM     49  C   UNL     1      -4.219 -13.428  -0.097  1.00  0.00     0.031 A 
ATOM     50  C   UNL     1      -9.840 -10.885   2.278  1.00  0.00     0.049 A 
ATOM     51  C   UNL     1      -5.645 -13.905  -0.063  1.00  0.00     0.074 A 
ATOM     52  C   UNL     1     -11.104 -11.439   2.195  1.00  0.00     0.029 A 
ATOM     53  N   UNL     1      -8.967 -11.779   1.671  1.00  0.00    -0.354 N 
ATOM     54  N   UNL     1      -6.700 -13.308   0.442  1.00  0.00    -0.248 NA
ATOM     55  C   UNL     1      -5.919 -15.215  -0.664  1.00  0.00     0.031 C 
ATOM     56  C   UNL     1     -10.987 -12.688   1.572  1.00  0.00     0.029 A 
ATOM     57  C   UNL     1      -9.660 -12.886   1.217  1.00  0.00     0.049 A 
ATOM     58  H   UNL     1      -7.996 -11.644   1.577  1.00  0.00     0.167 HD
ATOM     59  C   UNL     1      -7.772 -14.156   0.194  1.00  0.00     0.074 A 
ATOM     60  C   UNL     1      -7.234 -15.305  -0.512  1.00  0.00     0.031 C 
ATOM     61  C   UNL     1      -9.081 -14.005   0.515  1.00  0.00     0.031 A 
BRANCH  48  62
ATOM     62  C   UNL     1     -10.473  -8.758   3.526  1.00  0.00    -0.014 A 
ATOM     63  C   UNL     1     -10.838  -7.512   2.984  1.00  0.00     0.010 A 
ATOM     64  C   UNL     1     -11.082  -9.185   4.721  1.00  0.00     0.010 A 
ATOM     65  C   UNL     1     -11.754  -6.690   3.647  1.00  0.00     0.020 A 
ATOM     66  C   UNL     1     -12.020  -8.379   5.373  1.00  0.00     0.020 A 
ATOM     67  C   UNL     1     -12.334  -7.126   4.842  1.00  0.00     0.054 A 
BRANCH  67  68
ATOM     68  S   UNL     1     -13.522  -6.042   5.683  1.00  0.00     0.124 S 
ATOM     69  O   UNL     1     -12.648  -5.015   6.245  1.00  0.00    -0.237 OA
ATOM     70  O   UNL     1     -14.384  -5.601   4.589  1.00  0.00    -0.237 OA
ATOM     71  O   UNL     1     -14.161  -6.919   6.660  1.00  0.00    -0.744 OA
ENDBRANCH  67  68
ENDBRANCH  48  62
BRANCH  49  72
ATOM     72  C   UNL     1      -3.128 -14.248  -0.688  1.00  0.00    -0.014 A 
ATOM     73  C   UNL     1      -3.047 -14.423  -2.080  1.00  0.00     0.010 A 
ATOM     74  C   UNL     1      -2.136 -14.819   0.131  1.00  0.00     0.010 A 
ATOM     75  C   UNL     1      -1.998 -15.159  -2.641  1.00  0.00     0.020 A 
ATOM     76  C   UNL     1      -1.072 -15.533  -0.428  1.00  0.00     0.020 A 
ATOM     77  C   UNL     1      -1.014 -15.705  -1.812  1.00  0.00     0.054 A 
BRANCH  77  78
ATOM     78  S   UNL     1       0.372 -16.597  -2.572  1.00  0.00     0.124 S 
ATOM     79  O   UNL     1      -0.262 -17.844  -2.988  1.00  0.00    -0.237 OA
ATOM     80  O   UNL     1       0.772 -15.699  -3.652  1.00  0.00    -0.237 OA
ATOM     81  O   UNL     1       1.339 -16.718  -1.483  1.00  0.00    -0.744 OA
ENDBRANCH  77  78
ENDBRANCH  49  72
BRANCH  61  82
ATOM     82  C   UNL     1     -10.021 -15.084   0.057  1.00  0.00    -0.014 A 
ATOM     83  C   UNL     1     -10.064 -16.334   0.698  1.00  0.00     0.010 A 
ATOM     84  C   UNL     1     -10.915 -14.814  -0.995  1.00  0.00     0.010 A 
ATOM     85  C   UNL     1     -10.970 -17.308   0.273  1.00  0.00     0.020 A 
ATOM     86  C   UNL     1     -11.839 -15.775  -1.404  1.00  0.00     0.020 A 
ATOM     87  C   UNL     1     -11.852 -17.021  -0.774  1.00  0.00     0.054 A 
BRANCH  87  88
ATOM     88  S   UNL     1     -13.054 -18.284  -1.273  1.00  0.00     0.124 S 
ATOM     89  O   UNL     1     -12.215 -19.228  -2.006  1.00  0.00    -0.237 OA
ATOM     90  O   UNL     1     -13.568 -18.762   0.008  1.00  0.00    -0.237 OA
ATOM     91  O   UNL     1     -14.016 -17.543  -2.086  1.00  0.00    -0.744 OA
ENDBRANCH  87  88
ENDBRANCH  61  82
ENDBRANCH  35  36
ENDBRANCH  28  30
ENDBRANCH  27  28
ENDBRANCH  26  27
ENDBRANCH   1  26
TORSDOF 18
