REMARK SMILES CC1(C)CCC[C@@H]1NC(=O)NC1(CC(=O)OCCOC(=O)c2ccc(-c3c4nc(c(-c5ccc(S(=O)(=O)[O-])cc5)c5ccc([nH]5)c(-c5ccc(S(=O)(=O)[O-])cc5)c5nc(c(-c6ccc(S(=O)(=O)[O-])cc6)c6ccc3[nH]6)C=C5)C=C4)cc2)CCCCC1
REMARK SMILES IDX 17 1 16 2 14 3 15 4 13 5 12 6 82 7 86 8 83 9 85 10 84 11
REMARK SMILES IDX 11 12 8 13 9 14 10 16 7 18 1 19 2 20 3 21 4 22 5 23 6 24
REMARK SMILES IDX 18 25 19 26 20 27 21 28 22 29 23 30 81 31 24 32 80 33 25 34
REMARK SMILES IDX 26 35 27 36 74 37 28 38 79 39 73 40 75 41 29 42 78 43 72 44
REMARK SMILES IDX 71 45 30 47 60 48 41 49 59 50 42 51 45 52 58 53 76 54 43 55
REMARK SMILES IDX 44 56 57 58 77 59 46 60 31 61 32 62 40 63 33 64 39 65 34 66
REMARK SMILES IDX 35 67 36 68 37 69 38 70 61 71 62 72 70 73 63 74 69 75 64 76
REMARK SMILES IDX 65 77 66 78 67 79 68 80 47 81 48 82 56 83 49 84 55 85 50 86
REMARK SMILES IDX 51 87 52 88 53 89 54 90
REMARK H PARENT 8 15 11 17 75 46 45 57
REMARK Flexibility Score: inf
ROOT
ATOM      1  C   UNL     1      -0.347   5.612   5.317  1.00  0.00     0.274 C 
ENDROOT
BRANCH   1   2
ATOM      2  O   UNL     1      -0.781   4.551   4.440  1.00  0.00    -0.462 OA
BRANCH   2   3
ATOM      3  C   UNL     1      -2.112   4.502   4.223  1.00  0.00     0.308 C 
ATOM      4  O   UNL     1      -2.918   5.270   4.744  1.00  0.00    -0.252 OA
BRANCH   3   5
ATOM      5  C   UNL     1      -2.603   3.384   3.337  1.00  0.00     0.151 C 
BRANCH   5   6
ATOM      6  C   UNL     1      -1.735   2.542   2.343  1.00  0.00     0.052 C 
ATOM      7  C   UNL     1      -2.811   1.660   1.637  1.00  0.00     0.029 C 
ATOM      8  C   UNL     1      -0.683   1.728   3.126  1.00  0.00     0.029 C 
ATOM      9  C   UNL     1      -3.283   0.443   2.428  1.00  0.00     0.002 C 
ATOM     10  C   UNL     1      -1.263   0.570   3.930  1.00  0.00     0.002 C 
ATOM     11  C   UNL     1      -2.144  -0.330   3.077  1.00  0.00     0.000 C 
BRANCH   6  12
ATOM     12  N   UNL     1      -1.050   3.384   1.325  1.00  0.00    -0.332 N 
ATOM     13  N   UNL     1      -0.093   2.094  -0.466  1.00  0.00    -0.335 N 
ATOM     14  C   UNL     1      -0.377   3.234   0.173  1.00  0.00     0.315 C 
ATOM     15  H   UNL     1       0.374   2.270  -1.314  1.00  0.00     0.165 HD
ATOM     16  O   UNL     1       0.040   4.259  -0.378  1.00  0.00    -0.249 OA
ATOM     17  H   UNL     1      -1.107   4.336   1.569  1.00  0.00     0.165 HD
BRANCH  13  18
ATOM     18  C   UNL     1      -0.282   0.674  -0.258  1.00  0.00     0.089 C 
ATOM     19  C   UNL     1       2.002  -0.029   0.667  1.00  0.00     0.013 C 
ATOM     20  C   UNL     1       0.974  -0.217  -0.452  1.00  0.00    -0.015 C 
ATOM     21  C   UNL     1       1.687  -0.036  -1.806  1.00  0.00     0.013 C 
ATOM     22  C   UNL     1       0.326  -1.619  -0.395  1.00  0.00     0.008 C 
ATOM     23  C   UNL     1      -1.069  -1.464  -1.021  1.00  0.00     0.003 C 
ATOM     24  C   UNL     1      -1.278   0.035  -1.232  1.00  0.00     0.025 C 
ENDBRANCH  13  18
ENDBRANCH   6  12
ENDBRANCH   5   6
ENDBRANCH   3   5
ENDBRANCH   2   3
ENDBRANCH   1   2
BRANCH   1  25
ATOM     25  C   UNL     1       0.149   6.854   4.562  1.00  0.00     0.275 C 
BRANCH  25  26
ATOM     26  O   UNL     1      -0.879   7.514   3.797  1.00  0.00    -0.458 OA
BRANCH  26  27
ATOM     27  C   UNL     1      -1.071   6.992   2.567  1.00  0.00     0.338 C 
ATOM     28  O   UNL     1      -0.483   6.024   2.091  1.00  0.00    -0.246 OA
BRANCH  27  29
ATOM     29  C   UNL     1      -2.219   7.599   1.889  1.00  0.00     0.060 A 
ATOM     30  C   UNL     1      -3.295   6.763   1.583  1.00  0.00     0.016 A 
ATOM     31  C   UNL     1      -2.200   8.919   1.441  1.00  0.00     0.016 A 
ATOM     32  C   UNL     1      -4.356   7.229   0.821  1.00  0.00     0.010 A 
ATOM     33  C   UNL     1      -3.277   9.394   0.682  1.00  0.00     0.010 A 
ATOM     34  C   UNL     1      -4.355   8.549   0.362  1.00  0.00    -0.014 A 
BRANCH  34  35
ATOM     35  C   UNL     1      -5.479   9.018  -0.480  1.00  0.00     0.031 A 
ATOM     36  C   UNL     1      -5.268   9.278  -1.942  1.00  0.00     0.074 A 
ATOM     37  C   UNL     1      -6.699   9.170   0.068  1.00  0.00     0.049 A 
ATOM     38  N   UNL     1      -6.094   9.794  -2.814  1.00  0.00    -0.248 NA
ATOM     39  C   UNL     1      -3.955   8.911  -2.494  1.00  0.00     0.031 C 
ATOM     40  C   UNL     1      -7.041   8.880   1.462  1.00  0.00     0.029 A 
ATOM     41  N   UNL     1      -7.878   9.601  -0.484  1.00  0.00    -0.354 N 
ATOM     42  C   UNL     1      -5.391   9.854  -4.010  1.00  0.00     0.074 A 
ATOM     43  C   UNL     1      -4.070   9.318  -3.751  1.00  0.00     0.031 C 
ATOM     44  C   UNL     1      -8.345   9.134   1.654  1.00  0.00     0.029 A 
ATOM     45  C   UNL     1      -8.913   9.662   0.417  1.00  0.00     0.049 A 
ATOM     46  H   UNL     1      -7.973   9.844  -1.433  1.00  0.00     0.167 HD
ATOM     47  C   UNL     1      -5.806  10.323  -5.211  1.00  0.00     0.031 A 
ATOM     48  C   UNL     1     -10.168  10.129   0.278  1.00  0.00     0.031 A 
ATOM     49  C   UNL     1      -7.124  10.847  -5.460  1.00  0.00     0.049 A 
ATOM     50  C   UNL     1     -10.595  10.688  -1.048  1.00  0.00     0.074 A 
ATOM     51  C   UNL     1      -7.643  11.357  -6.637  1.00  0.00     0.029 A 
ATOM     52  N   UNL     1      -8.134  10.924  -4.511  1.00  0.00    -0.354 N 
ATOM     53  N   UNL     1      -9.904  10.784  -2.159  1.00  0.00    -0.248 NA
ATOM     54  C   UNL     1     -11.964  11.209  -1.137  1.00  0.00     0.031 C 
ATOM     55  C   UNL     1      -8.957  11.777  -6.390  1.00  0.00     0.029 A 
ATOM     56  C   UNL     1      -9.269  11.488  -5.071  1.00  0.00     0.049 A 
ATOM     57  H   UNL     1      -8.056  10.622  -3.578  1.00  0.00     0.167 HD
ATOM     58  C   UNL     1     -10.755  11.377  -3.083  1.00  0.00     0.074 A 
ATOM     59  C   UNL     1     -12.018  11.598  -2.405  1.00  0.00     0.031 C 
ATOM     60  C   UNL     1     -10.511  11.712  -4.374  1.00  0.00     0.031 A 
BRANCH  47  61
ATOM     61  C   UNL     1      -4.793  10.346  -6.324  1.00  0.00    -0.014 A 
ATOM     62  C   UNL     1      -4.386   9.166  -6.972  1.00  0.00     0.010 A 
ATOM     63  C   UNL     1      -4.228  11.573  -6.715  1.00  0.00     0.010 A 
ATOM     64  C   UNL     1      -3.390   9.208  -7.953  1.00  0.00     0.020 A 
ATOM     65  C   UNL     1      -3.249  11.621  -7.710  1.00  0.00     0.020 A 
ATOM     66  C   UNL     1      -2.818  10.434  -8.306  1.00  0.00     0.054 A 
BRANCH  66  67
ATOM     67  S   UNL     1      -1.513  10.467  -9.566  1.00  0.00     0.124 S 
ATOM     68  O   UNL     1      -0.347  10.029  -8.803  1.00  0.00    -0.237 OA
ATOM     69  O   UNL     1      -2.001   9.519 -10.565  1.00  0.00    -0.237 OA
ATOM     70  O   UNL     1      -1.487  11.862 -10.000  1.00  0.00    -0.744 OA
ENDBRANCH  66  67
ENDBRANCH  47  61
BRANCH  48  71
ATOM     71  C   UNL     1     -11.078  10.123   1.452  1.00  0.00    -0.014 A 
ATOM     72  C   UNL     1     -12.124   9.191   1.544  1.00  0.00     0.010 A 
ATOM     73  C   UNL     1     -10.850  11.008   2.524  1.00  0.00     0.010 A 
ATOM     74  C   UNL     1     -12.918   9.133   2.693  1.00  0.00     0.020 A 
ATOM     75  C   UNL     1     -11.626  10.937   3.682  1.00  0.00     0.020 A 
ATOM     76  C   UNL     1     -12.658  10.001   3.759  1.00  0.00     0.054 A 
BRANCH  76  77
ATOM     77  S   UNL     1     -13.628   9.838   5.285  1.00  0.00     0.124 S 
ATOM     78  O   UNL     1     -14.872  10.510   4.927  1.00  0.00    -0.237 OA
ATOM     79  O   UNL     1     -13.717   8.389   5.453  1.00  0.00    -0.237 OA
ATOM     80  O   UNL     1     -12.808  10.522   6.283  1.00  0.00    -0.744 OA
ENDBRANCH  76  77
ENDBRANCH  48  71
BRANCH  60  81
ATOM     81  C   UNL     1     -11.640  12.344  -5.139  1.00  0.00    -0.014 A 
ATOM     82  C   UNL     1     -11.987  13.691  -4.933  1.00  0.00     0.010 A 
ATOM     83  C   UNL     1     -12.335  11.593  -6.104  1.00  0.00     0.010 A 
ATOM     84  C   UNL     1     -13.030  14.270  -5.662  1.00  0.00     0.020 A 
ATOM     85  C   UNL     1     -13.364  12.174  -6.848  1.00  0.00     0.020 A 
ATOM     86  C   UNL     1     -13.715  13.505  -6.612  1.00  0.00     0.054 A 
BRANCH  86  87
ATOM     87  S   UNL     1     -15.039  14.285  -7.576  1.00  0.00     0.124 S 
ATOM     88  O   UNL     1     -16.146  14.287  -6.623  1.00  0.00    -0.237 OA
ATOM     89  O   UNL     1     -14.481  15.598  -7.892  1.00  0.00    -0.237 OA
ATOM     90  O   UNL     1     -15.202  13.393  -8.722  1.00  0.00    -0.744 OA
ENDBRANCH  86  87
ENDBRANCH  60  81
ENDBRANCH  34  35
ENDBRANCH  27  29
ENDBRANCH  26  27
ENDBRANCH  25  26
ENDBRANCH   1  25
TORSDOF 17
