REMARK SMILES C[C@@](NC(=O)CCOC1CC[NH2+]CC1)(C(=O)OCCOC(=O)c1ccc(-c2c3nc(c(-c4ccc(S(=O)(=O)[O-])cc4)c4ccc([nH]4)c(-c4ccc(S(=O)(=O)[O-])cc4)c4nc(c(-c5ccc(S(=O)(=O)[O-])cc5)c5ccc2[nH]5)C=C4)C=C3)cc1)C(F)(F)F
REMARK SMILES IDX 18 1 17 2 15 3 16 4 2 5 1 6 3 7 4 8 5 10 6 11 7 12 8 13 9 14
REMARK SMILES IDX 10 15 14 16 11 17 13 18 12 19 83 22 84 23 85 24 86 25 19 26
REMARK SMILES IDX 20 27 21 28 22 29 23 30 24 31 82 32 25 33 81 34 26 35 27 36
REMARK SMILES IDX 28 37 75 38 29 39 80 40 74 41 76 42 30 43 79 44 73 45 72 46
REMARK SMILES IDX 31 48 61 49 42 50 60 51 43 52 46 53 59 54 77 55 44 56 45 57
REMARK SMILES IDX 58 59 78 60 47 61 32 62 33 63 41 64 34 65 40 66 35 67 36 68
REMARK SMILES IDX 37 69 38 70 39 71 62 72 63 73 71 74 64 75 70 76 65 77 66 78
REMARK SMILES IDX 67 79 68 80 69 81 48 82 49 83 57 84 50 85 56 86 51 87 52 88
REMARK SMILES IDX 53 89 54 90 55 91
REMARK H PARENT 3 9 12 20 12 21 76 47 46 58
REMARK Flexibility Score: inf
ROOT
ATOM      1  C   UNL     1      -3.992  -1.712   0.208  1.00  0.00     0.274 C 
ENDROOT
BRANCH   1   2
ATOM      2  O   UNL     1      -2.559  -1.790   0.298  1.00  0.00    -0.460 OA
BRANCH   2   3
ATOM      3  C   UNL     1      -1.864  -2.944   0.034  1.00  0.00     0.341 C 
ATOM      4  O   UNL     1      -2.375  -4.033  -0.066  1.00  0.00    -0.249 OA
BRANCH   3   5
ATOM      5  C   UNL     1      -0.358  -2.610   0.010  1.00  0.00     0.231 C 
ATOM      6  C   UNL     1      -0.222  -1.131  -0.400  1.00  0.00     0.058 C 
BRANCH   5   7
ATOM      7  N   UNL     1       0.277  -3.031   1.311  1.00  0.00    -0.333 N 
ATOM      8  C   UNL     1       0.182  -2.683   2.612  1.00  0.00     0.223 C 
ATOM      9  H   UNL     1       0.935  -3.751   1.176  1.00  0.00     0.164 HD
ATOM     10  O   UNL     1       0.942  -3.230   3.413  1.00  0.00    -0.275 OA
BRANCH   8  11
ATOM     11  C   UNL     1      -0.788  -1.639   3.071  1.00  0.00     0.128 C 
BRANCH  11  12
ATOM     12  C   UNL     1      -0.110  -0.276   3.080  1.00  0.00     0.170 C 
BRANCH  12  13
ATOM     13  O   UNL     1       0.664  -0.129   1.894  1.00  0.00    -0.377 OA
BRANCH  13  14
ATOM     14  C   UNL     1       1.959   0.450   2.030  1.00  0.00     0.129 C 
ATOM     15  C   UNL     1       1.860   1.921   1.664  1.00  0.00     0.093 C 
ATOM     16  C   UNL     1       2.971  -0.306   1.145  1.00  0.00     0.093 C 
ATOM     17  C   UNL     1       1.739   2.108   0.156  1.00  0.00     0.263 C 
ATOM     18  C   UNL     1       3.149   0.187  -0.300  1.00  0.00     0.263 C 
ATOM     19  N   UNL     1       2.943   1.616  -0.503  1.00  0.00    -0.346 N 
ATOM     20  H   UNL     1       3.749   2.118  -0.131  1.00  0.00     0.346 HD
ATOM     21  H   UNL     1       2.833   1.773  -1.505  1.00  0.00     0.346 HD
ENDBRANCH  13  14
ENDBRANCH  12  13
ENDBRANCH  11  12
ENDBRANCH   8  11
ENDBRANCH   5   7
BRANCH   5  22
ATOM     22  C   UNL     1       0.390  -3.404  -1.096  1.00  0.00     0.422 C 
ATOM     23  F   UNL     1       0.574  -2.694  -2.229  1.00  0.00    -0.168 F 
ATOM     24  F   UNL     1       1.655  -3.693  -0.663  1.00  0.00    -0.168 F 
ATOM     25  F   UNL     1      -0.173  -4.580  -1.419  1.00  0.00    -0.168 F 
ENDBRANCH   5  22
ENDBRANCH   3   5
ENDBRANCH   2   3
ENDBRANCH   1   2
BRANCH   1  26
ATOM     26  C   UNL     1      -4.305  -0.674  -0.874  1.00  0.00     0.275 C 
BRANCH  26  27
ATOM     27  O   UNL     1      -3.911  -1.253  -2.130  1.00  0.00    -0.458 OA
BRANCH  27  28
ATOM     28  C   UNL     1      -3.265  -0.465  -3.021  1.00  0.00     0.338 C 
ATOM     29  O   UNL     1      -3.163   0.750  -2.995  1.00  0.00    -0.246 OA
BRANCH  28  30
ATOM     30  C   UNL     1      -2.575  -1.355  -3.981  1.00  0.00     0.060 A 
ATOM     31  C   UNL     1      -1.920  -2.468  -3.473  1.00  0.00     0.016 A 
ATOM     32  C   UNL     1      -2.476  -1.079  -5.340  1.00  0.00     0.016 A 
ATOM     33  C   UNL     1      -1.103  -3.246  -4.277  1.00  0.00     0.010 A 
ATOM     34  C   UNL     1      -1.786  -1.977  -6.178  1.00  0.00     0.010 A 
ATOM     35  C   UNL     1      -1.085  -3.083  -5.654  1.00  0.00    -0.014 A 
BRANCH  35  36
ATOM     36  C   UNL     1      -0.361  -4.077  -6.507  1.00  0.00     0.031 A 
ATOM     37  C   UNL     1       0.508  -3.593  -7.635  1.00  0.00     0.074 A 
ATOM     38  C   UNL     1      -0.487  -5.411  -6.301  1.00  0.00     0.049 A 
ATOM     39  N   UNL     1       0.869  -4.221  -8.721  1.00  0.00    -0.248 NA
ATOM     40  C   UNL     1       1.017  -2.213  -7.542  1.00  0.00     0.031 C 
ATOM     41  C   UNL     1      -1.190  -6.062  -5.186  1.00  0.00     0.029 A 
ATOM     42  N   UNL     1      -0.033  -6.479  -7.046  1.00  0.00    -0.354 N 
ATOM     43  C   UNL     1       1.544  -3.282  -9.493  1.00  0.00     0.074 A 
ATOM     44  C   UNL     1       1.585  -2.054  -8.731  1.00  0.00     0.031 C 
ATOM     45  C   UNL     1      -1.089  -7.391  -5.298  1.00  0.00     0.029 A 
ATOM     46  C   UNL     1      -0.484  -7.697  -6.580  1.00  0.00     0.049 A 
ATOM     47  H   UNL     1       0.553  -6.383  -7.830  1.00  0.00     0.167 HD
ATOM     48  C   UNL     1       2.045  -3.439 -10.740  1.00  0.00     0.031 A 
ATOM     49  C   UNL     1      -0.537  -8.913  -7.158  1.00  0.00     0.031 A 
ATOM     50  C   UNL     1       2.055  -4.699 -11.438  1.00  0.00     0.049 A 
ATOM     51  C   UNL     1      -0.047  -9.051  -8.568  1.00  0.00     0.074 A 
ATOM     52  C   UNL     1       2.564  -4.982 -12.693  1.00  0.00     0.029 A 
ATOM     53  N   UNL     1       1.549  -5.887 -10.933  1.00  0.00    -0.354 N 
ATOM     54  N   UNL     1       0.500  -8.140  -9.337  1.00  0.00    -0.248 NA
ATOM     55  C   UNL     1      -0.215 -10.364  -9.202  1.00  0.00     0.031 C 
ATOM     56  C   UNL     1       2.309  -6.328 -12.971  1.00  0.00     0.029 A 
ATOM     57  C   UNL     1       1.700  -6.898 -11.864  1.00  0.00     0.049 A 
ATOM     58  H   UNL     1       1.142  -5.995 -10.043  1.00  0.00     0.167 HD
ATOM     59  C   UNL     1       0.747  -8.774 -10.547  1.00  0.00     0.074 A 
ATOM     60  C   UNL     1       0.317 -10.149 -10.397  1.00  0.00     0.031 C 
ATOM     61  C   UNL     1       1.271  -8.260 -11.685  1.00  0.00     0.031 A 
BRANCH  48  62
ATOM     62  C   UNL     1       2.545  -2.224 -11.474  1.00  0.00    -0.014 A 
ATOM     63  C   UNL     1       3.767  -1.606 -11.164  1.00  0.00     0.010 A 
ATOM     64  C   UNL     1       1.798  -1.750 -12.572  1.00  0.00     0.010 A 
ATOM     65  C   UNL     1       4.228  -0.531 -11.933  1.00  0.00     0.020 A 
ATOM     66  C   UNL     1       2.267  -0.694 -13.357  1.00  0.00     0.020 A 
ATOM     67  C   UNL     1       3.478  -0.086 -13.028  1.00  0.00     0.054 A 
BRANCH  67  68
ATOM     68  S   UNL     1       4.134   1.264 -14.049  1.00  0.00     0.124 S 
ATOM     69  O   UNL     1       3.982   2.414 -13.162  1.00  0.00    -0.237 OA
ATOM     70  O   UNL     1       5.509   0.838 -14.295  1.00  0.00    -0.237 OA
ATOM     71  O   UNL     1       3.265   1.266 -15.224  1.00  0.00    -0.744 OA
ENDBRANCH  67  68
ENDBRANCH  48  62
BRANCH  49  72
ATOM     72  C   UNL     1      -1.226 -10.044  -6.467  1.00  0.00    -0.014 A 
ATOM     73  C   UNL     1      -0.520 -11.192  -6.072  1.00  0.00     0.010 A 
ATOM     74  C   UNL     1      -2.609  -9.974  -6.201  1.00  0.00     0.010 A 
ATOM     75  C   UNL     1      -1.184 -12.252  -5.443  1.00  0.00     0.020 A 
ATOM     76  C   UNL     1      -3.268 -11.010  -5.536  1.00  0.00     0.020 A 
ATOM     77  C   UNL     1      -2.554 -12.153  -5.178  1.00  0.00     0.054 A 
BRANCH  77  78
ATOM     78  S   UNL     1      -3.391 -13.524  -4.335  1.00  0.00     0.124 S 
ATOM     79  O   UNL     1      -3.486 -14.519  -5.398  1.00  0.00    -0.237 OA
ATOM     80  O   UNL     1      -2.465 -13.842  -3.251  1.00  0.00    -0.237 OA
ATOM     81  O   UNL     1      -4.660 -12.940  -3.907  1.00  0.00    -0.744 OA
ENDBRANCH  77  78
ENDBRANCH  49  72
BRANCH  61  82
ATOM     82  C   UNL     1       1.441  -9.201 -12.843  1.00  0.00    -0.014 A 
ATOM     83  C   UNL     1       0.334  -9.629 -13.596  1.00  0.00     0.010 A 
ATOM     84  C   UNL     1       2.733  -9.611 -13.215  1.00  0.00     0.010 A 
ATOM     85  C   UNL     1       0.518 -10.467 -14.696  1.00  0.00     0.020 A 
ATOM     86  C   UNL     1       2.922 -10.425 -14.332  1.00  0.00     0.020 A 
ATOM     87  C   UNL     1       1.811 -10.855 -15.060  1.00  0.00     0.054 A 
BRANCH  87  88
ATOM     88  S   UNL     1       2.026 -11.890 -16.533  1.00  0.00     0.124 S 
ATOM     89  O   UNL     1       1.525 -13.182 -16.073  1.00  0.00    -0.237 OA
ATOM     90  O   UNL     1       1.196 -11.209 -17.525  1.00  0.00    -0.237 OA
ATOM     91  O   UNL     1       3.464 -11.835 -16.789  1.00  0.00    -0.744 OA
ENDBRANCH  87  88
ENDBRANCH  61  82
ENDBRANCH  35  36
ENDBRANCH  28  30
ENDBRANCH  27  28
ENDBRANCH  26  27
ENDBRANCH   1  26
TORSDOF 20
