REMARK SMILES Cc1cc(C(=O)OCCOC(=O)c2ccc(-c3c4nc(c(-c5ccc(S(=O)(=O)[O-])cc5)c5ccc([nH]5)c(-c5ccc(S(=O)(=O)[O-])cc5)c5nc(c(-c6ccc(S(=O)(=O)[O-])cc6)c6ccc3[nH]6)C=C5)C=C4)cc2)nn1[C@H]1CCS(=O)(=O)C1
REMARK SMILES IDX 9 1 8 2 7 3 5 4 6 5 4 6 1 7 2 8 3 9 74 10 73 11 75 12 76 13
REMARK SMILES IDX 81 14 77 15 78 16 79 17 80 18 10 19 11 20 12 21 13 22 14 23
REMARK SMILES IDX 72 24 15 25 71 26 16 27 17 28 18 29 65 30 19 31 70 32 64 33
REMARK SMILES IDX 66 34 20 35 69 36 63 37 62 38 21 40 51 41 32 42 50 43 33 44
REMARK SMILES IDX 36 45 49 46 67 47 34 48 35 49 48 51 68 52 37 53 22 54 23 55
REMARK SMILES IDX 31 56 24 57 30 58 25 59 26 60 27 61 28 62 29 63 52 64 53 65
REMARK SMILES IDX 61 66 54 67 60 68 55 69 56 70 57 71 58 72 59 73 38 74 39 75
REMARK SMILES IDX 47 76 40 77 46 78 41 79 42 80 43 81 44 82 45 83
REMARK H PARENT 66 39 36 50
REMARK Flexibility Score: inf
ROOT
ATOM      1  C   UNL     1      -6.357  -5.184   5.095  1.00  0.00     0.275 C 
ENDROOT
BRANCH   1   2
ATOM      2  C   UNL     1      -4.973  -5.631   5.540  1.00  0.00     0.275 C 
BRANCH   2   3
ATOM      3  O   UNL     1      -4.035  -4.545   5.477  1.00  0.00    -0.457 OA
BRANCH   3   4
ATOM      4  C   UNL     1      -3.391  -4.346   4.273  1.00  0.00     0.358 C 
ATOM      5  O   UNL     1      -3.394  -5.150   3.361  1.00  0.00    -0.244 OA
BRANCH   4   6
ATOM      6  C   UNL     1      -2.741  -3.020   4.238  1.00  0.00     0.170 A 
ATOM      7  C   UNL     1      -1.402   0.051   5.737  1.00  0.00     0.066 C 
ATOM      8  C   UNL     1      -1.900  -1.046   4.872  1.00  0.00     0.037 A 
ATOM      9  C   UNL     1      -2.622  -2.129   5.323  1.00  0.00     0.061 A 
ATOM     10  N   UNL     1      -1.737  -1.255   3.520  1.00  0.00    -0.265 N 
ATOM     11  N   UNL     1      -2.175  -2.484   3.140  1.00  0.00    -0.165 NA
BRANCH  10  12
ATOM     12  C   UNL     1      -1.115  -0.464   2.468  1.00  0.00     0.123 C 
ATOM     13  C   UNL     1      -2.110   0.053   1.405  1.00  0.00     0.044 C 
ATOM     14  C   UNL     1      -0.342   0.774   2.886  1.00  0.00     0.164 C 
ATOM     15  C   UNL     1      -1.326   0.949   0.439  1.00  0.00     0.139 C 
ATOM     16  S   UNL     1       0.082   1.554   1.357  1.00  0.00     0.152 S 
ATOM     17  O   UNL     1       1.286   0.924   0.857  1.00  0.00    -0.229 OA
ATOM     18  O   UNL     1      -0.018   2.987   1.536  1.00  0.00    -0.229 OA
ENDBRANCH  10  12
ENDBRANCH   4   6
ENDBRANCH   3   4
ENDBRANCH   2   3
ENDBRANCH   1   2
BRANCH   1  19
ATOM     19  O   UNL     1      -6.382  -4.952   3.690  1.00  0.00    -0.458 OA
BRANCH  19  20
ATOM     20  C   UNL     1      -6.195  -3.667   3.312  1.00  0.00     0.338 C 
ATOM     21  O   UNL     1      -5.767  -2.755   4.002  1.00  0.00    -0.246 OA
BRANCH  20  22
ATOM     22  C   UNL     1      -6.798  -3.473   1.992  1.00  0.00     0.060 A 
ATOM     23  C   UNL     1      -6.638  -2.225   1.381  1.00  0.00     0.016 A 
ATOM     24  C   UNL     1      -7.736  -4.410   1.535  1.00  0.00     0.016 A 
ATOM     25  C   UNL     1      -7.543  -1.849   0.411  1.00  0.00     0.010 A 
ATOM     26  C   UNL     1      -8.652  -4.023   0.592  1.00  0.00     0.010 A 
ATOM     27  C   UNL     1      -8.586  -2.724   0.093  1.00  0.00    -0.014 A 
BRANCH  27  28
ATOM     28  C   UNL     1      -9.584  -2.302  -0.864  1.00  0.00     0.031 A 
ATOM     29  C   UNL     1      -9.106  -2.359  -2.264  1.00  0.00     0.074 A 
ATOM     30  C   UNL     1     -10.862  -2.079  -0.507  1.00  0.00     0.049 A 
ATOM     31  N   UNL     1      -8.900  -1.377  -3.076  1.00  0.00    -0.248 NA
ATOM     32  C   UNL     1      -8.626  -3.662  -2.758  1.00  0.00     0.031 C 
ATOM     33  C   UNL     1     -11.488  -2.324   0.797  1.00  0.00     0.029 A 
ATOM     34  N   UNL     1     -11.912  -1.714  -1.286  1.00  0.00    -0.354 N 
ATOM     35  C   UNL     1      -8.489  -1.968  -4.266  1.00  0.00     0.074 A 
ATOM     36  C   UNL     1      -8.119  -3.320  -3.940  1.00  0.00     0.031 C 
ATOM     37  C   UNL     1     -12.832  -2.336   0.647  1.00  0.00     0.029 A 
ATOM     38  C   UNL     1     -13.156  -1.973  -0.723  1.00  0.00     0.049 A 
ATOM     39  H   UNL     1     -11.802  -1.301  -2.173  1.00  0.00     0.167 HD
ATOM     40  C   UNL     1      -8.776  -1.407  -5.473  1.00  0.00     0.031 A 
ATOM     41  C   UNL     1     -14.348  -1.972  -1.373  1.00  0.00     0.031 A 
ATOM     42  C   UNL     1      -9.148  -0.021  -5.337  1.00  0.00     0.049 A 
ATOM     43  C   UNL     1     -14.156  -1.225  -2.642  1.00  0.00     0.074 A 
ATOM     44  C   UNL     1      -8.537   1.104  -4.820  1.00  0.00     0.029 A 
ATOM     45  N   UNL     1     -10.489   0.276  -5.415  1.00  0.00    -0.354 N 
ATOM     46  N   UNL     1     -13.898   0.052  -2.694  1.00  0.00    -0.248 NA
ATOM     47  C   UNL     1     -13.802  -1.979  -3.835  1.00  0.00     0.031 C 
ATOM     48  C   UNL     1      -9.584   1.837  -4.189  1.00  0.00     0.029 A 
ATOM     49  C   UNL     1     -10.783   1.157  -4.408  1.00  0.00     0.049 A 
ATOM     50  H   UNL     1     -11.124  -0.081  -6.078  1.00  0.00     0.167 HD
ATOM     51  C   UNL     1     -12.975   0.189  -3.723  1.00  0.00     0.074 A 
ATOM     52  C   UNL     1     -13.034  -1.076  -4.453  1.00  0.00     0.031 C 
ATOM     53  C   UNL     1     -12.054   1.198  -3.715  1.00  0.00     0.031 A 
BRANCH  40  54
ATOM     54  C   UNL     1      -9.171  -2.232  -6.681  1.00  0.00    -0.014 A 
ATOM     55  C   UNL     1      -9.516  -1.558  -7.870  1.00  0.00     0.010 A 
ATOM     56  C   UNL     1      -9.503  -3.602  -6.611  1.00  0.00     0.010 A 
ATOM     57  C   UNL     1     -10.257  -2.192  -8.875  1.00  0.00     0.020 A 
ATOM     58  C   UNL     1     -10.198  -4.256  -7.626  1.00  0.00     0.020 A 
ATOM     59  C   UNL     1     -10.613  -3.533  -8.732  1.00  0.00     0.054 A 
BRANCH  59  60
ATOM     60  S   UNL     1     -11.694  -4.304  -9.958  1.00  0.00     0.124 S 
ATOM     61  O   UNL     1     -12.942  -3.577  -9.750  1.00  0.00    -0.237 OA
ATOM     62  O   UNL     1     -10.992  -4.021 -11.207  1.00  0.00    -0.237 OA
ATOM     63  O   UNL     1     -11.710  -5.710  -9.561  1.00  0.00    -0.744 OA
ENDBRANCH  59  60
ENDBRANCH  40  54
BRANCH  41  64
ATOM     64  C   UNL     1     -15.524  -2.848  -1.134  1.00  0.00    -0.014 A 
ATOM     65  C   UNL     1     -16.766  -2.572  -1.736  1.00  0.00     0.010 A 
ATOM     66  C   UNL     1     -15.355  -4.116  -0.539  1.00  0.00     0.010 A 
ATOM     67  C   UNL     1     -17.775  -3.549  -1.798  1.00  0.00     0.020 A 
ATOM     68  C   UNL     1     -16.358  -5.091  -0.589  1.00  0.00     0.020 A 
ATOM     69  C   UNL     1     -17.556  -4.811  -1.241  1.00  0.00     0.054 A 
BRANCH  69  70
ATOM     70  S   UNL     1     -18.789  -6.126  -1.483  1.00  0.00     0.124 S 
ATOM     71  O   UNL     1     -19.888  -5.682  -0.632  1.00  0.00    -0.237 OA
ATOM     72  O   UNL     1     -19.039  -6.067  -2.921  1.00  0.00    -0.237 OA
ATOM     73  O   UNL     1     -18.100  -7.332  -1.026  1.00  0.00    -0.744 OA
ENDBRANCH  69  70
ENDBRANCH  41  64
BRANCH  53  74
ATOM     74  C   UNL     1     -12.246   2.340  -2.742  1.00  0.00    -0.014 A 
ATOM     75  C   UNL     1     -12.248   2.186  -1.341  1.00  0.00     0.010 A 
ATOM     76  C   UNL     1     -12.268   3.641  -3.273  1.00  0.00     0.010 A 
ATOM     77  C   UNL     1     -12.295   3.307  -0.498  1.00  0.00     0.020 A 
ATOM     78  C   UNL     1     -12.297   4.761  -2.440  1.00  0.00     0.020 A 
ATOM     79  C   UNL     1     -12.319   4.590  -1.056  1.00  0.00     0.054 A 
BRANCH  79  80
ATOM     80  S   UNL     1     -12.327   6.039   0.036  1.00  0.00     0.124 S 
ATOM     81  O   UNL     1     -13.654   5.975   0.641  1.00  0.00    -0.237 OA
ATOM     82  O   UNL     1     -11.210   5.772   0.940  1.00  0.00    -0.237 OA
ATOM     83  O   UNL     1     -12.117   7.164  -0.876  1.00  0.00    -0.744 OA
ENDBRANCH  79  80
ENDBRANCH  53  74
ENDBRANCH  27  28
ENDBRANCH  20  22
ENDBRANCH  19  20
ENDBRANCH   1  19
TORSDOF 15
