REMARK SMILES COc1ccc(/C=C2\SC(=S)N(c3cc(C(=O)OCCOC(=O)c4ccc(-c5c6nc(c(-c7ccc(S(=O)(=O)[O-])cc7)c7ccc([nH]7)c(-c7ccc(S(=O)(=O)[O-])cc7)c7nc(c(-c8ccc(S(=O)(=O)[O-])cc8)c8ccc5[nH]8)C=C7)C=C6)cc4)ccc3C)C2=O)cc1
REMARK SMILES IDX 19 1 18 2 16 3 17 4 15 5 13 6 14 7 86 8 85 9 87 10 84 11
REMARK SMILES IDX 12 12 7 13 8 14 9 15 88 16 10 17 89 18 11 19 6 20 3 21 4 22
REMARK SMILES IDX 91 23 5 24 90 25 2 26 1 27 20 28 21 29 22 30 23 31 24 32
REMARK SMILES IDX 25 33 83 34 26 35 82 36 27 37 28 38 29 39 76 40 30 41 81 42
REMARK SMILES IDX 75 43 77 44 31 45 80 46 74 47 73 48 32 50 62 51 43 52 61 53
REMARK SMILES IDX 44 54 47 55 60 56 78 57 45 58 46 59 59 61 79 62 48 63 33 64
REMARK SMILES IDX 34 65 42 66 35 67 41 68 36 69 37 70 38 71 39 72 40 73 63 74
REMARK SMILES IDX 64 75 72 76 65 77 71 78 66 79 67 80 68 81 69 82 70 83 49 84
REMARK SMILES IDX 50 85 58 86 51 87 57 88 52 89 53 90 54 91 55 92 56 93
REMARK H PARENT 77 49 47 60
REMARK Flexibility Score: inf
ROOT
ATOM      1  C   UNL     1       7.957   8.439  10.948  1.00  0.00     0.275 C 
ENDROOT
BRANCH   1   2
ATOM      2  O   UNL     1       7.423   9.050   9.755  1.00  0.00    -0.458 OA
BRANCH   2   3
ATOM      3  C   UNL     1       7.721   8.434   8.584  1.00  0.00     0.338 C 
ATOM      4  O   UNL     1       8.461   7.476   8.431  1.00  0.00    -0.246 OA
BRANCH   3   5
ATOM      5  C   UNL     1       6.903   9.004   7.486  1.00  0.00     0.062 A 
ATOM      6  C   UNL     1       5.615   8.605   5.461  1.00  0.00     0.054 A 
ATOM      7  C   UNL     1       6.485   8.149   6.459  1.00  0.00     0.042 A 
ATOM      8  C   UNL     1       5.216   9.953   5.439  1.00  0.00    -0.027 A 
ATOM      9  C   UNL     1       5.700  10.818   6.438  1.00  0.00     0.006 A 
ATOM     10  C   UNL     1       4.329  10.521   4.367  1.00  0.00     0.046 C 
ATOM     11  C   UNL     1       6.516  10.344   7.470  1.00  0.00     0.016 A 
BRANCH   6  12
ATOM     12  N   UNL     1       5.067   7.648   4.569  1.00  0.00    -0.261 N 
ATOM     13  C   UNL     1       2.519   5.134   4.047  1.00  0.00     0.029 C 
ATOM     14  C   UNL     1       3.577   5.945   3.908  1.00  0.00     0.081 C 
ATOM     15  S   UNL     1       4.612   6.123   2.547  1.00  0.00    -0.054 SA
ATOM     16  C   UNL     1       3.979   6.889   4.987  1.00  0.00     0.270 C 
ATOM     17  C   UNL     1       5.568   7.393   3.308  1.00  0.00     0.152 C 
ATOM     18  O   UNL     1       3.406   6.961   6.067  1.00  0.00    -0.268 OA
ATOM     19  S   UNL     1       6.870   8.110   2.543  1.00  0.00    -0.051 S 
BRANCH  13  20
ATOM     20  C   UNL     1       2.010   4.182   3.054  1.00  0.00    -0.024 A 
ATOM     21  C   UNL     1       0.986   2.396   1.137  1.00  0.00     0.118 A 
ATOM     22  C   UNL     1       0.210   3.459   1.601  1.00  0.00     0.047 A 
ATOM     23  C   UNL     1       2.266   2.208   1.658  1.00  0.00     0.047 A 
ATOM     24  C   UNL     1       0.711   4.341   2.562  1.00  0.00     0.012 A 
ATOM     25  C   UNL     1       2.775   3.096   2.614  1.00  0.00     0.012 A 
BRANCH  21  26
ATOM     26  O   UNL     1       0.395   1.642   0.161  1.00  0.00    -0.497 OA
ATOM     27  C   UNL     1       0.996   0.382  -0.108  1.00  0.00     0.278 C 
ENDBRANCH  21  26
ENDBRANCH  13  20
ENDBRANCH   6  12
ENDBRANCH   3   5
ENDBRANCH   2   3
ENDBRANCH   1   2
BRANCH   1  28
ATOM     28  C   UNL     1       6.858   7.672  11.681  1.00  0.00     0.275 C 
BRANCH  28  29
ATOM     29  O   UNL     1       6.462   6.547  10.878  1.00  0.00    -0.458 OA
BRANCH  29  30
ATOM     30  C   UNL     1       5.133   6.398  10.666  1.00  0.00     0.338 C 
ATOM     31  O   UNL     1       4.229   7.054  11.152  1.00  0.00    -0.246 OA
BRANCH  30  32
ATOM     32  C   UNL     1       4.925   5.281   9.725  1.00  0.00     0.060 A 
ATOM     33  C   UNL     1       5.561   5.301   8.487  1.00  0.00     0.016 A 
ATOM     34  C   UNL     1       4.036   4.255  10.032  1.00  0.00     0.016 A 
ATOM     35  C   UNL     1       5.245   4.353   7.516  1.00  0.00     0.010 A 
ATOM     36  C   UNL     1       3.798   3.244   9.092  1.00  0.00     0.010 A 
ATOM     37  C   UNL     1       4.367   3.300   7.806  1.00  0.00    -0.014 A 
BRANCH  37  38
ATOM     38  C   UNL     1       4.013   2.295   6.760  1.00  0.00     0.031 A 
ATOM     39  C   UNL     1       2.569   2.067   6.381  1.00  0.00     0.074 A 
ATOM     40  C   UNL     1       4.971   1.592   6.120  1.00  0.00     0.049 A 
ATOM     41  N   UNL     1       2.053   1.130   5.625  1.00  0.00    -0.248 NA
ATOM     42  C   UNL     1       1.579   3.007   6.929  1.00  0.00     0.031 C 
ATOM     43  C   UNL     1       6.413   1.721   6.339  1.00  0.00     0.029 A 
ATOM     44  N   UNL     1       4.874   0.627   5.144  1.00  0.00    -0.354 N 
ATOM     45  C   UNL     1       0.677   1.341   5.645  1.00  0.00     0.074 A 
ATOM     46  C   UNL     1       0.439   2.490   6.491  1.00  0.00     0.031 C 
ATOM     47  C   UNL     1       7.064   0.904   5.497  1.00  0.00     0.029 A 
ATOM     48  C   UNL     1       6.089   0.124   4.742  1.00  0.00     0.049 A 
ATOM     49  H   UNL     1       4.015   0.326   4.768  1.00  0.00     0.167 HD
ATOM     50  C   UNL     1      -0.301   0.639   5.023  1.00  0.00     0.031 A 
ATOM     51  C   UNL     1       6.400  -0.882   3.900  1.00  0.00     0.031 A 
ATOM     52  C   UNL     1      -0.073  -0.486   4.155  1.00  0.00     0.049 A 
ATOM     53  C   UNL     1       5.301  -1.667   3.245  1.00  0.00     0.074 A 
ATOM     54  C   UNL     1      -1.006  -1.266   3.493  1.00  0.00     0.029 A 
ATOM     55  N   UNL     1       1.175  -0.980   3.812  1.00  0.00    -0.354 N 
ATOM     56  N   UNL     1       4.004  -1.506   3.346  1.00  0.00    -0.248 NA
ATOM     57  C   UNL     1       5.707  -2.782   2.377  1.00  0.00     0.031 C 
ATOM     58  C   UNL     1      -0.324  -2.260   2.783  1.00  0.00     0.029 A 
ATOM     59  C   UNL     1       1.036  -2.060   2.955  1.00  0.00     0.049 A 
ATOM     60  H   UNL     1       2.033  -0.617   4.129  1.00  0.00     0.167 HD
ATOM     61  C   UNL     1       3.438  -2.505   2.563  1.00  0.00     0.074 A 
ATOM     62  C   UNL     1       4.532  -3.242   1.965  1.00  0.00     0.031 C 
ATOM     63  C   UNL     1       2.128  -2.791   2.367  1.00  0.00     0.031 A 
BRANCH  50  64
ATOM     64  C   UNL     1      -1.727   1.034   5.304  1.00  0.00    -0.014 A 
ATOM     65  C   UNL     1      -2.296   2.188   4.739  1.00  0.00     0.010 A 
ATOM     66  C   UNL     1      -2.524   0.203   6.113  1.00  0.00     0.010 A 
ATOM     67  C   UNL     1      -3.628   2.521   5.003  1.00  0.00     0.020 A 
ATOM     68  C   UNL     1      -3.862   0.518   6.360  1.00  0.00     0.020 A 
ATOM     69  C   UNL     1      -4.402   1.685   5.816  1.00  0.00     0.054 A 
BRANCH  69  70
ATOM     70  S   UNL     1      -6.137   2.120   6.120  1.00  0.00     0.124 S 
ATOM     71  O   UNL     1      -6.010   3.202   7.093  1.00  0.00    -0.237 OA
ATOM     72  O   UNL     1      -6.607   2.519   4.796  1.00  0.00    -0.237 OA
ATOM     73  O   UNL     1      -6.719   0.883   6.636  1.00  0.00    -0.744 OA
ENDBRANCH  69  70
ENDBRANCH  50  64
BRANCH  51  74
ATOM     74  C   UNL     1       7.828  -1.238   3.676  1.00  0.00    -0.014 A 
ATOM     75  C   UNL     1       8.457  -0.938   2.456  1.00  0.00     0.010 A 
ATOM     76  C   UNL     1       8.575  -1.844   4.703  1.00  0.00     0.010 A 
ATOM     77  C   UNL     1       9.810  -1.235   2.268  1.00  0.00     0.020 A 
ATOM     78  C   UNL     1       9.934  -2.117   4.528  1.00  0.00     0.020 A 
ATOM     79  C   UNL     1      10.542  -1.816   3.308  1.00  0.00     0.054 A 
BRANCH  79  80
ATOM     80  S   UNL     1      12.318  -2.112   3.077  1.00  0.00     0.124 S 
ATOM     81  O   UNL     1      12.319  -3.323   2.264  1.00  0.00    -0.237 OA
ATOM     82  O   UNL     1      12.758  -0.894   2.401  1.00  0.00    -0.237 OA
ATOM     83  O   UNL     1      12.815  -2.270   4.442  1.00  0.00    -0.744 OA
ENDBRANCH  79  80
ENDBRANCH  51  74
BRANCH  63  84
ATOM     84  C   UNL     1       1.800  -3.925   1.436  1.00  0.00    -0.014 A 
ATOM     85  C   UNL     1       1.948  -5.263   1.840  1.00  0.00     0.010 A 
ATOM     86  C   UNL     1       1.294  -3.647   0.153  1.00  0.00     0.010 A 
ATOM     87  C   UNL     1       1.621  -6.303   0.966  1.00  0.00     0.020 A 
ATOM     88  C   UNL     1       0.948  -4.684  -0.716  1.00  0.00     0.020 A 
ATOM     89  C   UNL     1       1.127  -6.007  -0.309  1.00  0.00     0.054 A 
BRANCH  89  90
ATOM     90  S   UNL     1       0.677  -7.371  -1.416  1.00  0.00     0.124 S 
ATOM     91  O   UNL     1       1.985  -7.842  -1.862  1.00  0.00    -0.237 OA
ATOM     92  O   UNL     1      -0.050  -8.278  -0.532  1.00  0.00    -0.237 OA
ATOM     93  O   UNL     1      -0.138  -6.727  -2.444  1.00  0.00    -0.744 OA
ENDBRANCH  89  90
ENDBRANCH  63  84
ENDBRANCH  37  38
ENDBRANCH  30  32
ENDBRANCH  29  30
ENDBRANCH  28  29
ENDBRANCH   1  28
TORSDOF 17
