REMARK SMILES C[C@]1(CNC(=O)N[C@H](C(=O)OCCOC(=O)c2ccc(-c3c4nc(c(-c5ccc(S(=O)(=O)[O-])cc5)c5ccc([nH]5)c(-c5ccc(S(=O)(=O)[O-])cc5)c5nc(c(-c6ccc(S(=O)(=O)[O-])cc6)c6ccc3[nH]6)C=C5)C=C4)cc2)C2CCCCC2)CCCO1
REMARK SMILES IDX 12 1 11 2 9 3 10 4 8 5 7 6 4 7 5 8 6 10 3 12 2 13 1 14 83 15
REMARK SMILES IDX 86 16 84 17 85 18 77 19 78 20 82 21 79 22 81 23 80 24 13 25
REMARK SMILES IDX 14 26 15 27 16 28 17 29 18 30 76 31 19 32 75 33 20 34 21 35
REMARK SMILES IDX 22 36 69 37 23 38 74 39 68 40 70 41 24 42 73 43 67 44 66 45
REMARK SMILES IDX 25 47 55 48 36 49 54 50 37 51 40 52 53 53 71 54 38 55 39 56
REMARK SMILES IDX 52 58 72 59 41 60 26 61 27 62 35 63 28 64 34 65 29 66 30 67
REMARK SMILES IDX 31 68 32 69 33 70 56 71 57 72 65 73 58 74 64 75 59 76 60 77
REMARK SMILES IDX 61 78 62 79 63 80 42 81 43 82 51 83 44 84 50 85 45 86 46 87
REMARK SMILES IDX 47 88 48 89 49 90
REMARK H PARENT 4 9 7 11 70 46 40 57
REMARK Flexibility Score: inf
ROOT
ATOM      1  C   UNL     1       4.590  -0.224   0.357  1.00  0.00     0.274 C 
ENDROOT
BRANCH   1   2
ATOM      2  O   UNL     1       3.396  -0.104   1.163  1.00  0.00    -0.461 OA
BRANCH   2   3
ATOM      3  C   UNL     1       3.069  -1.169   1.957  1.00  0.00     0.329 C 
ATOM      4  O   UNL     1       3.792  -2.133   2.179  1.00  0.00    -0.250 OA
BRANCH   3   5
ATOM      5  C   UNL     1       1.609  -1.047   2.441  1.00  0.00     0.197 C 
BRANCH   5   6
ATOM      6  N   UNL     1       1.015  -2.380   2.323  1.00  0.00    -0.324 N 
ATOM      7  N   UNL     1      -1.269  -1.998   1.873  1.00  0.00    -0.335 N 
ATOM      8  C   UNL     1      -0.205  -2.809   1.974  1.00  0.00     0.315 C 
ATOM      9  H   UNL     1      -2.026  -2.407   1.395  1.00  0.00     0.165 HD
ATOM     10  O   UNL     1      -0.361  -4.006   1.732  1.00  0.00    -0.249 OA
ATOM     11  H   UNL     1       1.639  -3.109   2.544  1.00  0.00     0.166 HD
BRANCH   7  12
ATOM     12  C   UNL     1      -1.537  -0.642   2.323  1.00  0.00     0.152 C 
BRANCH  12  13
ATOM     13  C   UNL     1      -2.525   0.131   1.448  1.00  0.00     0.083 C 
ATOM     14  C   UNL     1      -2.779   1.499   2.096  1.00  0.00     0.044 C 
ATOM     15  C   UNL     1      -2.030   0.286   0.006  1.00  0.00     0.039 C 
ATOM     16  O   UNL     1      -3.777  -0.581   1.394  1.00  0.00    -0.373 OA
ATOM     17  C   UNL     1      -3.303   0.146  -0.790  1.00  0.00     0.031 C 
ATOM     18  C   UNL     1      -4.065  -0.874   0.023  1.00  0.00     0.161 C 
ENDBRANCH  12  13
ENDBRANCH   7  12
ENDBRANCH   5   6
BRANCH   5  19
ATOM     19  C   UNL     1       1.365  -0.356   3.816  1.00  0.00     0.023 C 
ATOM     20  C   UNL     1       0.659  -1.229   4.882  1.00  0.00     0.006 C 
ATOM     21  C   UNL     1       2.600   0.256   4.461  1.00  0.00     0.006 C 
ATOM     22  C   UNL     1       0.242  -0.383   6.085  1.00  0.00     0.000 C 
ATOM     23  C   UNL     1       2.244   1.095   5.688  1.00  0.00     0.000 C 
ATOM     24  C   UNL     1       1.443   0.305   6.719  1.00  0.00     0.000 C 
ENDBRANCH   5  19
ENDBRANCH   3   5
ENDBRANCH   2   3
ENDBRANCH   1   2
BRANCH   1  25
ATOM     25  C   UNL     1       5.667   0.754   0.824  1.00  0.00     0.275 C 
BRANCH  25  26
ATOM     26  O   UNL     1       6.125   0.325   2.114  1.00  0.00    -0.458 OA
BRANCH  26  27
ATOM     27  C   UNL     1       6.242   1.270   3.075  1.00  0.00     0.338 C 
ATOM     28  O   UNL     1       6.217   2.481   2.906  1.00  0.00    -0.246 OA
BRANCH  27  29
ATOM     29  C   UNL     1       6.266   0.619   4.412  1.00  0.00     0.060 A 
ATOM     30  C   UNL     1       5.761  -0.666   4.569  1.00  0.00     0.016 A 
ATOM     31  C   UNL     1       6.605   1.349   5.553  1.00  0.00     0.016 A 
ATOM     32  C   UNL     1       5.398  -1.119   5.839  1.00  0.00     0.010 A 
ATOM     33  C   UNL     1       6.379   0.811   6.836  1.00  0.00     0.010 A 
ATOM     34  C   UNL     1       5.683  -0.398   7.011  1.00  0.00    -0.014 A 
BRANCH  34  35
ATOM     35  C   UNL     1       5.173  -0.866   8.356  1.00  0.00     0.031 A 
ATOM     36  C   UNL     1       4.549   0.104   9.356  1.00  0.00     0.074 A 
ATOM     37  C   UNL     1       5.170  -2.178   8.696  1.00  0.00     0.049 A 
ATOM     38  N   UNL     1       4.232  -0.096  10.616  1.00  0.00    -0.248 NA
ATOM     39  C   UNL     1       4.246   1.469   8.896  1.00  0.00     0.031 C 
ATOM     40  C   UNL     1       5.658  -3.285   7.869  1.00  0.00     0.029 A 
ATOM     41  N   UNL     1       4.703  -2.815   9.828  1.00  0.00    -0.354 N 
ATOM     42  C   UNL     1       3.775   1.127  11.105  1.00  0.00     0.074 A 
ATOM     43  C   UNL     1       3.826   2.060  10.005  1.00  0.00     0.031 C 
ATOM     44  C   UNL     1       5.352  -4.450   8.452  1.00  0.00     0.029 A 
ATOM     45  C   UNL     1       4.824  -4.186   9.783  1.00  0.00     0.049 A 
ATOM     46  H   UNL     1       4.319  -2.333  10.596  1.00  0.00     0.167 HD
ATOM     47  C   UNL     1       3.369   1.458  12.357  1.00  0.00     0.031 A 
ATOM     48  C   UNL     1       4.630  -5.142  10.714  1.00  0.00     0.031 A 
ATOM     49  C   UNL     1       3.264   0.535  13.457  1.00  0.00     0.049 A 
ATOM     50  C   UNL     1       4.266  -4.749  12.112  1.00  0.00     0.074 A 
ATOM     51  C   UNL     1       2.884   0.795  14.764  1.00  0.00     0.029 A 
ATOM     52  N   UNL     1       3.520  -0.822  13.382  1.00  0.00    -0.354 N 
ATOM     53  N   UNL     1       3.988  -3.560  12.587  1.00  0.00    -0.248 NA
ATOM     54  C   UNL     1       4.244  -5.824  13.114  1.00  0.00     0.031 C 
ATOM     55  C   UNL     1       2.958  -0.398  15.492  1.00  0.00     0.029 A 
ATOM     56  C   UNL     1       3.330  -1.409  14.623  1.00  0.00     0.049 A 
ATOM     57  H   UNL     1       3.796  -1.301  12.567  1.00  0.00     0.167 HD
ATOM     58  C   UNL     1       3.777  -3.742  13.948  1.00  0.00     0.074 A 
ATOM     59  C   UNL     1       3.919  -5.158  14.213  1.00  0.00     0.031 C 
ATOM     60  C   UNL     1       3.505  -2.811  14.895  1.00  0.00     0.031 A 
BRANCH  47  61
ATOM     61  C   UNL     1       3.078   2.910  12.642  1.00  0.00    -0.014 A 
ATOM     62  C   UNL     1       1.885   3.528  12.229  1.00  0.00     0.010 A 
ATOM     63  C   UNL     1       3.999   3.647  13.412  1.00  0.00     0.010 A 
ATOM     64  C   UNL     1       1.632   4.864  12.561  1.00  0.00     0.020 A 
ATOM     65  C   UNL     1       3.739   4.973  13.766  1.00  0.00     0.020 A 
ATOM     66  C   UNL     1       2.561   5.578  13.327  1.00  0.00     0.054 A 
BRANCH  66  67
ATOM     67  S   UNL     1       2.191   7.297  13.779  1.00  0.00     0.124 S 
ATOM     68  O   UNL     1       2.412   7.994  12.515  1.00  0.00    -0.237 OA
ATOM     69  O   UNL     1       0.800   7.222  14.220  1.00  0.00    -0.237 OA
ATOM     70  O   UNL     1       3.159   7.595  14.832  1.00  0.00    -0.744 OA
ENDBRANCH  66  67
ENDBRANCH  47  61
BRANCH  48  71
ATOM     71  C   UNL     1       4.925  -6.565  10.379  1.00  0.00    -0.014 A 
ATOM     72  C   UNL     1       3.897  -7.520  10.309  1.00  0.00     0.010 A 
ATOM     73  C   UNL     1       6.247  -6.960  10.096  1.00  0.00     0.010 A 
ATOM     74  C   UNL     1       4.185  -8.840   9.945  1.00  0.00     0.020 A 
ATOM     75  C   UNL     1       6.531  -8.265   9.694  1.00  0.00     0.020 A 
ATOM     76  C   UNL     1       5.498  -9.200   9.628  1.00  0.00     0.054 A 
BRANCH  76  77
ATOM     77  S   UNL     1       5.846 -10.885   9.052  1.00  0.00     0.124 S 
ATOM     78  O   UNL     1       5.926 -11.623  10.308  1.00  0.00    -0.237 OA
ATOM     79  O   UNL     1       4.687 -11.184   8.214  1.00  0.00    -0.237 OA
ATOM     80  O   UNL     1       7.106 -10.740   8.326  1.00  0.00    -0.744 OA
ENDBRANCH  76  77
ENDBRANCH  48  71
BRANCH  60  81
ATOM     81  C   UNL     1       3.338  -3.303  16.305  1.00  0.00    -0.014 A 
ATOM     82  C   UNL     1       4.447  -3.726  17.059  1.00  0.00     0.010 A 
ATOM     83  C   UNL     1       2.055  -3.359  16.878  1.00  0.00     0.010 A 
ATOM     84  C   UNL     1       4.270  -4.247  18.343  1.00  0.00     0.020 A 
ATOM     85  C   UNL     1       1.877  -3.858  18.171  1.00  0.00     0.020 A 
ATOM     86  C   UNL     1       2.984  -4.321  18.886  1.00  0.00     0.054 A 
BRANCH  86  87
ATOM     87  S   UNL     1       2.773  -5.017  20.548  1.00  0.00     0.124 S 
ATOM     88  O   UNL     1       2.906  -6.449  20.295  1.00  0.00    -0.237 OA
ATOM     89  O   UNL     1       3.869  -4.406  21.296  1.00  0.00    -0.237 OA
ATOM     90  O   UNL     1       1.437  -4.574  20.940  1.00  0.00    -0.744 OA
ENDBRANCH  86  87
ENDBRANCH  60  81
ENDBRANCH  34  35
ENDBRANCH  27  29
ENDBRANCH  26  27
ENDBRANCH  25  26
ENDBRANCH   1  25
TORSDOF 18
