REMARK SMILES CC(C)(C)OC(=O)Nc1ccc(-c2cccc(Cl)c2C(=O)OCCOC(=O)c2ccc(-c3c4nc(c(-c5ccc(S(=O)(=O)[O-])cc5)c5ccc([nH]5)c(-c5ccc(S(=O)(=O)[O-])cc5)c5nc(c(-c6ccc(S(=O)(=O)[O-])cc6)c6ccc3[nH]6)C=C5)C=C4)cc2)cc1
REMARK SMILES IDX 23 1 22 2 20 3 21 4 19 5 13 6 14 7 15 8 17 9 16 10 18 11
REMARK SMILES IDX 12 12 9 13 10 14 89 15 11 16 88 17 8 18 6 19 7 20 5 22 2 23
REMARK SMILES IDX 1 24 3 25 4 26 24 27 25 28 26 29 27 30 28 31 29 32 87 33
REMARK SMILES IDX 30 34 86 35 31 36 32 37 33 38 80 39 34 40 85 41 79 42 81 43
REMARK SMILES IDX 35 44 84 45 78 46 77 47 36 49 66 50 47 51 65 52 48 53 51 54
REMARK SMILES IDX 64 55 82 56 49 57 50 58 63 60 83 61 52 62 37 63 38 64 46 65
REMARK SMILES IDX 39 66 45 67 40 68 41 69 42 70 43 71 44 72 67 73 68 74 76 75
REMARK SMILES IDX 69 76 75 77 70 78 71 79 72 80 73 81 74 82 53 83 54 84 62 85
REMARK SMILES IDX 55 86 61 87 56 88 57 89 58 90 59 91 60 92
REMARK H PARENT 8 21 81 48 51 59
REMARK Flexibility Score: inf
ROOT
ATOM      1  C   UNL     1       6.581   2.359  -4.370  1.00  0.00     0.275 C 
ENDROOT
BRANCH   1   2
ATOM      2  O   UNL     1       6.211   3.724  -4.091  1.00  0.00    -0.458 OA
BRANCH   2   3
ATOM      3  C   UNL     1       6.345   4.133  -2.803  1.00  0.00     0.340 C 
ATOM      4  O   UNL     1       6.828   3.493  -1.887  1.00  0.00    -0.246 OA
BRANCH   3   5
ATOM      5  C   UNL     1       5.731   5.479  -2.655  1.00  0.00     0.086 A 
ATOM      6  C   UNL     1       4.383   5.693  -3.048  1.00  0.00    -0.002 A 
ATOM      7  C   UNL     1       3.866   7.001  -2.962  1.00  0.00     0.010 A 
ATOM      8  C   UNL     1       4.638   8.056  -2.481  1.00  0.00     0.002 A 
ATOM      9  C   UNL     1       6.476   6.531  -2.098  1.00  0.00     0.056 A 
ATOM     10  C   UNL     1       5.935   7.818  -2.036  1.00  0.00     0.021 A 
ATOM     11  Cl  UNL     1       8.062   6.325  -1.442  1.00  0.00    -0.083 Cl
BRANCH   6  12
ATOM     12  C   UNL     1       3.483   4.592  -3.449  1.00  0.00    -0.017 A 
ATOM     13  C   UNL     1       1.779   2.442  -4.166  1.00  0.00     0.044 A 
ATOM     14  C   UNL     1       1.844   3.591  -4.958  1.00  0.00     0.027 A 
ATOM     15  C   UNL     1       2.600   2.360  -3.045  1.00  0.00     0.027 A 
ATOM     16  C   UNL     1       2.687   4.655  -4.602  1.00  0.00     0.011 A 
ATOM     17  C   UNL     1       3.406   3.430  -2.669  1.00  0.00     0.011 A 
BRANCH  13  18
ATOM     18  N   UNL     1       0.892   1.418  -4.550  1.00  0.00    -0.291 N 
ATOM     19  C   UNL     1       0.415   0.364  -3.808  1.00  0.00     0.412 C 
ATOM     20  O   UNL     1      -0.289  -0.502  -4.314  1.00  0.00    -0.224 OA
ATOM     21  H   UNL     1       0.569   1.463  -5.479  1.00  0.00     0.173 HD
BRANCH  19  22
ATOM     22  O   UNL     1       0.739   0.436  -2.499  1.00  0.00    -0.444 OA
BRANCH  22  23
ATOM     23  C   UNL     1       0.314  -0.525  -1.509  1.00  0.00     0.106 C 
ATOM     24  C   UNL     1       0.923  -0.007  -0.196  1.00  0.00     0.056 C 
ATOM     25  C   UNL     1       0.888  -1.910  -1.808  1.00  0.00     0.056 C 
ATOM     26  C   UNL     1      -1.209  -0.533  -1.380  1.00  0.00     0.056 C 
ENDBRANCH  22  23
ENDBRANCH  19  22
ENDBRANCH  13  18
ENDBRANCH   6  12
ENDBRANCH   3   5
ENDBRANCH   2   3
ENDBRANCH   1   2
BRANCH   1  27
ATOM     27  C   UNL     1       7.083   2.243  -5.810  1.00  0.00     0.275 C 
BRANCH  27  28
ATOM     28  O   UNL     1       8.278   3.030  -5.954  1.00  0.00    -0.458 OA
BRANCH  28  29
ATOM     29  C   UNL     1       8.070   4.285  -6.417  1.00  0.00     0.338 C 
ATOM     30  O   UNL     1       7.055   4.743  -6.913  1.00  0.00    -0.246 OA
BRANCH  29  31
ATOM     31  C   UNL     1       9.223   5.108  -6.039  1.00  0.00     0.060 A 
ATOM     32  C   UNL     1       9.103   5.878  -4.884  1.00  0.00     0.016 A 
ATOM     33  C   UNL     1      10.361   5.192  -6.835  1.00  0.00     0.016 A 
ATOM     34  C   UNL     1      10.111   6.767  -4.526  1.00  0.00     0.010 A 
ATOM     35  C   UNL     1      11.387   6.069  -6.461  1.00  0.00     0.010 A 
ATOM     36  C   UNL     1      11.262   6.879  -5.315  1.00  0.00    -0.014 A 
BRANCH  36  37
ATOM     37  C   UNL     1      12.280   7.915  -4.996  1.00  0.00     0.031 A 
ATOM     38  C   UNL     1      12.477   9.069  -5.942  1.00  0.00     0.074 A 
ATOM     39  C   UNL     1      12.989   7.857  -3.850  1.00  0.00     0.049 A 
ATOM     40  N   UNL     1      13.404   9.992  -5.939  1.00  0.00    -0.248 NA
ATOM     41  C   UNL     1      11.501   9.202  -7.037  1.00  0.00     0.031 C 
ATOM     42  C   UNL     1      12.834   6.845  -2.803  1.00  0.00     0.029 A 
ATOM     43  N   UNL     1      13.982   8.678  -3.373  1.00  0.00    -0.354 N 
ATOM     44  C   UNL     1      13.146  10.791  -7.048  1.00  0.00     0.074 A 
ATOM     45  C   UNL     1      11.983  10.239  -7.707  1.00  0.00     0.031 C 
ATOM     46  C   UNL     1      13.691   7.112  -1.804  1.00  0.00     0.029 A 
ATOM     47  C   UNL     1      14.507   8.266  -2.169  1.00  0.00     0.049 A 
ATOM     48  H   UNL     1      14.290   9.484  -3.846  1.00  0.00     0.167 HD
ATOM     49  C   UNL     1      13.817  11.887  -7.475  1.00  0.00     0.031 A 
ATOM     50  C   UNL     1      15.555   8.735  -1.462  1.00  0.00     0.031 A 
ATOM     51  C   UNL     1      14.960  12.445  -6.802  1.00  0.00     0.049 A 
ATOM     52  C   UNL     1      16.338   9.903  -2.005  1.00  0.00     0.074 A 
ATOM     53  C   UNL     1      15.728  13.536  -7.171  1.00  0.00     0.029 A 
ATOM     54  N   UNL     1      15.487  11.969  -5.611  1.00  0.00    -0.354 N 
ATOM     55  N   UNL     1      16.123  10.608  -3.090  1.00  0.00    -0.248 NA
ATOM     56  C   UNL     1      17.513  10.332  -1.232  1.00  0.00     0.031 C 
ATOM     57  C   UNL     1      16.747  13.693  -6.226  1.00  0.00     0.029 A 
ATOM     58  C   UNL     1      16.576  12.737  -5.237  1.00  0.00     0.049 A 
ATOM     59  H   UNL     1      15.139  11.198  -5.107  1.00  0.00     0.167 HD
ATOM     60  C   UNL     1      17.121  11.577  -3.116  1.00  0.00     0.074 A 
ATOM     61  C   UNL     1      17.925  11.382  -1.928  1.00  0.00     0.031 C 
ATOM     62  C   UNL     1      17.356  12.538  -4.043  1.00  0.00     0.031 A 
BRANCH  49  63
ATOM     63  C   UNL     1      13.356  12.542  -8.750  1.00  0.00    -0.014 A 
ATOM     64  C   UNL     1      12.177  13.306  -8.793  1.00  0.00     0.010 A 
ATOM     65  C   UNL     1      14.153  12.445  -9.906  1.00  0.00     0.010 A 
ATOM     66  C   UNL     1      11.793  13.945  -9.976  1.00  0.00     0.020 A 
ATOM     67  C   UNL     1      13.786  13.103 -11.082  1.00  0.00     0.020 A 
ATOM     68  C   UNL     1      12.602  13.842 -11.112  1.00  0.00     0.054 A 
BRANCH  68  69
ATOM     69  S   UNL     1      12.104  14.724 -12.617  1.00  0.00     0.124 S 
ATOM     70  O   UNL     1      10.954  13.940 -13.061  1.00  0.00    -0.237 OA
ATOM     71  O   UNL     1      11.796  16.061 -12.117  1.00  0.00    -0.237 OA
ATOM     72  O   UNL     1      13.283  14.640 -13.476  1.00  0.00    -0.744 OA
ENDBRANCH  68  69
ENDBRANCH  49  63
BRANCH  50  73
ATOM     73  C   UNL     1      15.981   8.060  -0.202  1.00  0.00    -0.014 A 
ATOM     74  C   UNL     1      15.923   8.728   1.034  1.00  0.00     0.010 A 
ATOM     75  C   UNL     1      16.494   6.750  -0.242  1.00  0.00     0.010 A 
ATOM     76  C   UNL     1      16.404   8.115   2.196  1.00  0.00     0.020 A 
ATOM     77  C   UNL     1      16.942   6.120   0.922  1.00  0.00     0.020 A 
ATOM     78  C   UNL     1      16.915   6.815   2.131  1.00  0.00     0.054 A 
BRANCH  78  79
ATOM     79  S   UNL     1      17.530   6.033   3.648  1.00  0.00     0.124 S 
ATOM     80  O   UNL     1      18.807   6.714   3.842  1.00  0.00    -0.237 OA
ATOM     81  O   UNL     1      16.487   6.356   4.618  1.00  0.00    -0.237 OA
ATOM     82  O   UNL     1      17.622   4.620   3.290  1.00  0.00    -0.744 OA
ENDBRANCH  78  79
ENDBRANCH  50  73
BRANCH  62  83
ATOM     83  C   UNL     1      18.496  13.486  -3.785  1.00  0.00    -0.014 A 
ATOM     84  C   UNL     1      19.834  13.072  -3.910  1.00  0.00     0.010 A 
ATOM     85  C   UNL     1      18.220  14.828  -3.466  1.00  0.00     0.010 A 
ATOM     86  C   UNL     1      20.876  13.976  -3.687  1.00  0.00     0.020 A 
ATOM     87  C   UNL     1      19.259  15.742  -3.270  1.00  0.00     0.020 A 
ATOM     88  C   UNL     1      20.581  15.306  -3.368  1.00  0.00     0.054 A 
BRANCH  88  89
ATOM     89  S   UNL     1      21.951  16.470  -3.126  1.00  0.00     0.124 S 
ATOM     90  O   UNL     1      22.471  16.060  -1.824  1.00  0.00    -0.237 OA
ATOM     91  O   UNL     1      22.818  16.187  -4.267  1.00  0.00    -0.237 OA
ATOM     92  O   UNL     1      21.302  17.779  -3.154  1.00  0.00    -0.744 OA
ENDBRANCH  88  89
ENDBRANCH  62  83
ENDBRANCH  36  37
ENDBRANCH  29  31
ENDBRANCH  28  29
ENDBRANCH  27  28
ENDBRANCH   1  27
TORSDOF 18
