REMARK SMILES Cc1cc(C(=O)OCCOC(=O)c2ccc(-c3c4nc(c(-c5ccc(S(=O)(=O)[O-])cc5)c5ccc([nH]5)c(-c5ccc(S(=O)(=O)[O-])cc5)c5nc(c(-c6ccc(S(=O)(=O)[O-])cc6)c6ccc3[nH]6)C=C5)C=C4)cc2)ccc1NS(=O)(=O)c1c(F)cccc1F
REMARK SMILES IDX 8 1 7 2 5 3 6 4 4 5 1 6 2 7 3 8 75 9 74 10 73 11 76 12 77 14
REMARK SMILES IDX 78 15 79 16 80 17 81 18 86 19 82 20 83 21 85 22 87 23 84 24
REMARK SMILES IDX 9 25 10 26 11 27 12 28 13 29 14 30 72 31 15 32 71 33 16 34
REMARK SMILES IDX 17 35 18 36 65 37 19 38 70 39 64 40 66 41 20 42 69 43 63 44
REMARK SMILES IDX 62 45 21 47 51 48 32 49 50 50 33 51 36 52 49 53 67 54 34 55
REMARK SMILES IDX 35 56 48 58 68 59 37 60 22 61 23 62 31 63 24 64 30 65 25 66
REMARK SMILES IDX 26 67 27 68 28 69 29 70 52 71 53 72 61 73 54 74 60 75 55 76
REMARK SMILES IDX 56 77 57 78 58 79 59 80 38 81 39 82 47 83 40 84 46 85 41 86
REMARK SMILES IDX 42 87 43 88 44 89 45 90
REMARK H PARENT 76 13 66 46 36 57
REMARK Flexibility Score: inf
ROOT
ATOM      1  C   UNL     1      -4.185  -2.448  -1.870  1.00  0.00     0.275 C 
ENDROOT
BRANCH   1   2
ATOM      2  O   UNL     1      -2.997  -1.669  -1.639  1.00  0.00    -0.458 OA
BRANCH   2   3
ATOM      3  C   UNL     1      -3.150  -0.761  -0.642  1.00  0.00     0.338 C 
ATOM      4  O   UNL     1      -4.234  -0.446  -0.164  1.00  0.00    -0.246 OA
BRANCH   3   5
ATOM      5  C   UNL     1      -1.888  -0.109  -0.185  1.00  0.00     0.060 A 
ATOM      6  C   UNL     1       1.838   0.173  -0.792  1.00  0.00     0.046 C 
ATOM      7  C   UNL     1       0.422   0.567  -0.463  1.00  0.00    -0.026 A 
ATOM      8  C   UNL     1      -0.640  -0.291  -0.789  1.00  0.00     0.021 A 
ATOM      9  C   UNL     1       0.132   1.708   0.296  1.00  0.00     0.052 A 
ATOM     10  C   UNL     1      -0.954   1.691   1.158  1.00  0.00     0.028 A 
ATOM     11  C   UNL     1      -1.981   0.785   0.897  1.00  0.00     0.018 A 
BRANCH   9  12
ATOM     12  N   UNL     1       0.836   2.915  -0.013  1.00  0.00    -0.279 N 
ATOM     13  H   UNL     1       1.799   2.863  -0.212  1.00  0.00     0.180 HD
BRANCH  12  14
ATOM     14  S   UNL     1       0.076   4.438  -0.051  1.00  0.00     0.267 S 
ATOM     15  O   UNL     1       0.257   4.975   1.287  1.00  0.00    -0.201 OA
ATOM     16  O   UNL     1       0.633   5.129  -1.194  1.00  0.00    -0.201 OA
BRANCH  14  17
ATOM     17  C   UNL     1      -1.656   4.305  -0.340  1.00  0.00     0.158 A 
ATOM     18  C   UNL     1      -2.513   5.121   0.393  1.00  0.00     0.146 A 
ATOM     19  C   UNL     1      -2.207   3.334  -1.161  1.00  0.00     0.146 A 
ATOM     20  F   UNL     1      -2.055   6.177   1.078  1.00  0.00    -0.205 F 
ATOM     21  C   UNL     1      -3.887   4.880   0.424  1.00  0.00     0.041 A 
ATOM     22  C   UNL     1      -3.579   3.057  -1.110  1.00  0.00     0.041 A 
ATOM     23  F   UNL     1      -1.443   2.595  -1.974  1.00  0.00    -0.205 F 
ATOM     24  C   UNL     1      -4.418   3.811  -0.290  1.00  0.00     0.006 A 
ENDBRANCH  14  17
ENDBRANCH  12  14
ENDBRANCH   9  12
ENDBRANCH   3   5
ENDBRANCH   2   3
ENDBRANCH   1   2
BRANCH   1  25
ATOM     25  C   UNL     1      -4.026  -3.601  -2.889  1.00  0.00     0.275 C 
BRANCH  25  26
ATOM     26  O   UNL     1      -2.954  -4.559  -2.760  1.00  0.00    -0.458 OA
BRANCH  26  27
ATOM     27  C   UNL     1      -1.769  -4.096  -2.271  1.00  0.00     0.338 C 
ATOM     28  O   UNL     1      -0.997  -3.417  -2.918  1.00  0.00    -0.246 OA
BRANCH  27  29
ATOM     29  C   UNL     1      -1.810  -4.245  -0.786  1.00  0.00     0.060 A 
ATOM     30  C   UNL     1      -0.968  -3.450   0.000  1.00  0.00     0.016 A 
ATOM     31  C   UNL     1      -2.939  -4.853  -0.229  1.00  0.00     0.016 A 
ATOM     32  C   UNL     1      -1.331  -3.139   1.307  1.00  0.00     0.010 A 
ATOM     33  C   UNL     1      -3.382  -4.422   0.992  1.00  0.00     0.010 A 
ATOM     34  C   UNL     1      -2.564  -3.595   1.771  1.00  0.00    -0.014 A 
BRANCH  34  35
ATOM     35  C   UNL     1      -2.953  -3.596   3.167  1.00  0.00     0.031 A 
ATOM     36  C   UNL     1      -3.562  -2.425   3.821  1.00  0.00     0.074 A 
ATOM     37  C   UNL     1      -2.780  -4.821   3.711  1.00  0.00     0.049 A 
ATOM     38  N   UNL     1      -3.543  -2.214   5.088  1.00  0.00    -0.248 NA
ATOM     39  C   UNL     1      -4.225  -1.345   3.092  1.00  0.00     0.031 C 
ATOM     40  C   UNL     1      -3.215  -5.393   4.968  1.00  0.00     0.029 A 
ATOM     41  N   UNL     1      -2.006  -5.848   3.186  1.00  0.00    -0.354 N 
ATOM     42  C   UNL     1      -4.444  -1.198   5.357  1.00  0.00     0.074 A 
ATOM     43  C   UNL     1      -4.714  -0.586   4.083  1.00  0.00     0.031 C 
ATOM     44  C   UNL     1      -2.425  -6.457   5.238  1.00  0.00     0.029 A 
ATOM     45  C   UNL     1      -1.376  -6.505   4.216  1.00  0.00     0.049 A 
ATOM     46  H   UNL     1      -1.921  -6.070   2.230  1.00  0.00     0.167 HD
ATOM     47  C   UNL     1      -5.006  -1.135   6.599  1.00  0.00     0.031 A 
ATOM     48  C   UNL     1      -0.044  -6.267   4.434  1.00  0.00     0.031 A 
ATOM     49  C   UNL     1      -4.430  -2.183   7.438  1.00  0.00     0.049 A 
ATOM     50  C   UNL     1       0.118  -5.519   5.740  1.00  0.00     0.074 A 
ATOM     51  C   UNL     1      -4.859  -3.473   7.703  1.00  0.00     0.029 A 
ATOM     52  N   UNL     1      -3.080  -2.131   7.758  1.00  0.00    -0.354 N 
ATOM     53  N   UNL     1      -0.707  -4.603   6.179  1.00  0.00    -0.248 NA
ATOM     54  C   UNL     1       1.143  -5.881   6.712  1.00  0.00     0.031 C 
ATOM     55  C   UNL     1      -3.710  -4.237   8.045  1.00  0.00     0.029 A 
ATOM     56  C   UNL     1      -2.602  -3.405   8.004  1.00  0.00     0.049 A 
ATOM     57  H   UNL     1      -2.543  -1.308   7.803  1.00  0.00     0.167 HD
ATOM     58  C   UNL     1      -0.430  -4.360   7.500  1.00  0.00     0.074 A 
ATOM     59  C   UNL     1       0.761  -5.152   7.772  1.00  0.00     0.031 C 
ATOM     60  C   UNL     1      -1.202  -3.605   8.336  1.00  0.00     0.031 A 
BRANCH  47  61
ATOM     61  C   UNL     1      -6.271  -0.391   6.982  1.00  0.00    -0.014 A 
ATOM     62  C   UNL     1      -6.973  -0.809   8.136  1.00  0.00     0.010 A 
ATOM     63  C   UNL     1      -6.854   0.668   6.259  1.00  0.00     0.010 A 
ATOM     64  C   UNL     1      -8.208  -0.262   8.512  1.00  0.00     0.020 A 
ATOM     65  C   UNL     1      -8.099   1.224   6.621  1.00  0.00     0.020 A 
ATOM     66  C   UNL     1      -8.775   0.745   7.740  1.00  0.00     0.054 A 
BRANCH  66  67
ATOM     67  S   UNL     1     -10.389   1.413   8.229  1.00  0.00     0.124 S 
ATOM     68  O   UNL     1     -11.257   0.243   8.120  1.00  0.00    -0.237 OA
ATOM     69  O   UNL     1     -10.138   1.885   9.588  1.00  0.00    -0.237 OA
ATOM     70  O   UNL     1     -10.644   2.463   7.245  1.00  0.00    -0.744 OA
ENDBRANCH  66  67
ENDBRANCH  47  61
BRANCH  48  71
ATOM     71  C   UNL     1       0.809  -6.093   3.200  1.00  0.00    -0.014 A 
ATOM     72  C   UNL     1       0.763  -7.118   2.222  1.00  0.00     0.010 A 
ATOM     73  C   UNL     1       1.446  -4.891   2.845  1.00  0.00     0.010 A 
ATOM     74  C   UNL     1       1.208  -6.910   0.909  1.00  0.00     0.020 A 
ATOM     75  C   UNL     1       1.921  -4.684   1.528  1.00  0.00     0.020 A 
ATOM     76  C   UNL     1       1.764  -5.682   0.560  1.00  0.00     0.054 A 
BRANCH  76  77
ATOM     77  S   UNL     1       2.068  -5.351  -1.209  1.00  0.00     0.124 S 
ATOM     78  O   UNL     1       3.314  -6.071  -1.451  1.00  0.00    -0.237 OA
ATOM     79  O   UNL     1       0.878  -5.926  -1.834  1.00  0.00    -0.237 OA
ATOM     80  O   UNL     1       2.163  -3.894  -1.266  1.00  0.00    -0.744 OA
ENDBRANCH  76  77
ENDBRANCH  48  71
BRANCH  60  81
ATOM     81  C   UNL     1      -0.716  -3.054   9.649  1.00  0.00    -0.014 A 
ATOM     82  C   UNL     1       0.642  -2.858   9.932  1.00  0.00     0.010 A 
ATOM     83  C   UNL     1      -1.655  -2.553  10.583  1.00  0.00     0.010 A 
ATOM     84  C   UNL     1       1.052  -2.287  11.136  1.00  0.00     0.020 A 
ATOM     85  C   UNL     1      -1.256  -1.918  11.757  1.00  0.00     0.020 A 
ATOM     86  C   UNL     1       0.100  -1.828  12.044  1.00  0.00     0.054 A 
BRANCH  86  87
ATOM     87  S   UNL     1       0.649  -1.072  13.587  1.00  0.00     0.124 S 
ATOM     88  O   UNL     1       0.855  -2.245  14.432  1.00  0.00    -0.237 OA
ATOM     89  O   UNL     1       1.865  -0.366  13.189  1.00  0.00    -0.237 OA
ATOM     90  O   UNL     1      -0.468  -0.212  13.965  1.00  0.00    -0.744 OA
ENDBRANCH  86  87
ENDBRANCH  60  81
ENDBRANCH  34  35
ENDBRANCH  27  29
ENDBRANCH  26  27
ENDBRANCH  25  26
ENDBRANCH   1  25
TORSDOF 17
