REMARK SMILES O=C(NC(=S)Nc1ccccc1C(=O)OCCOC(=O)c1ccc(-c2c3nc(c(-c4ccc(S(=O)(=O)[O-])cc4)c4ccc([nH]4)c(-c4ccc(S(=O)(=O)[O-])cc4)c4nc(c(-c5ccc(S(=O)(=O)[O-])cc5)c5ccc2[nH]5)C=C4)C=C3)cc1)c1ccc2ccccc2c1
REMARK SMILES IDX 16 1 15 2 13 3 14 4 12 5 7 6 8 7 9 8 11 9 10 10 6 11 4 13
REMARK SMILES IDX 5 14 3 15 1 16 2 17 81 19 82 20 90 21 83 22 89 23 84 24
REMARK SMILES IDX 88 25 85 26 87 27 86 28 17 29 18 30 19 31 20 32 21 33 22 34
REMARK SMILES IDX 80 35 23 36 79 37 24 38 25 39 26 40 73 41 27 42 78 43 72 44
REMARK SMILES IDX 74 45 28 46 77 47 71 48 70 49 29 51 59 52 40 53 58 54 41 55
REMARK SMILES IDX 44 56 57 57 75 58 42 59 43 60 56 62 76 63 45 64 30 65 31 66
REMARK SMILES IDX 39 67 32 68 38 69 33 70 34 71 35 72 36 73 37 74 60 75 61 76
REMARK SMILES IDX 69 77 62 78 68 79 63 80 64 81 65 82 66 83 67 84 46 85 47 86
REMARK SMILES IDX 55 87 48 88 54 89 49 90 50 91 51 92 52 93 53 94
REMARK H PARENT 6 12 3 18 74 50 44 61
REMARK Flexibility Score: inf
ROOT
ATOM      1  C   UNL     1       4.048   3.187  -0.764  1.00  0.00     0.275 C 
ENDROOT
BRANCH   1   2
ATOM      2  O   UNL     1       4.668   1.951  -1.210  1.00  0.00    -0.458 OA
BRANCH   2   3
ATOM      3  C   UNL     1       3.751   0.996  -1.466  1.00  0.00     0.340 C 
ATOM      4  O   UNL     1       2.543   1.181  -1.405  1.00  0.00    -0.246 OA
BRANCH   3   5
ATOM      5  C   UNL     1       4.219  -0.407  -1.644  1.00  0.00     0.083 A 
ATOM      6  C   UNL     1       5.056  -1.172  -0.032  1.00  0.00     0.055 A 
ATOM      7  C   UNL     1       4.709  -3.107   0.399  1.00  0.00     0.027 A 
ATOM      8  C   UNL     1       3.532  -3.998  -0.914  1.00  0.00     0.002 A 
ATOM      9  C   UNL     1       3.005  -1.300  -2.921  1.00  0.00     0.018 A 
ATOM     10  C   UNL     1       2.668  -3.239  -2.511  1.00  0.00     0.001 A 
BRANCH   6  11
ATOM     11  N   UNL     1       5.282  -0.321   1.060  1.00  0.00    -0.332 N 
ATOM     12  H   UNL     1       6.194  -0.294   1.431  1.00  0.00     0.169 HD
BRANCH  11  13
ATOM     13  C   UNL     1       4.350   0.468   1.645  1.00  0.00     0.177 C 
ATOM     14  S   UNL     1       4.873   1.657   2.703  1.00  0.00    -0.040 S 
BRANCH  13  15
ATOM     15  N   UNL     1       2.983   0.300   1.464  1.00  0.00    -0.299 N 
ATOM     16  O   UNL     1       0.808  -0.322   1.224  1.00  0.00    -0.269 OA
ATOM     17  C   UNL     1       1.972  -0.501   0.854  1.00  0.00     0.257 C 
ATOM     18  H   UNL     1       2.530   1.025   1.952  1.00  0.00     0.172 HD
BRANCH  17  19
ATOM     19  C   UNL     1       2.149  -1.575  -0.172  1.00  0.00     0.040 A 
ATOM     20  C   UNL     1       3.367  -1.976  -0.278  1.00  0.00     0.014 A 
ATOM     21  C   UNL     1       2.917  -1.922  -1.195  1.00  0.00     0.022 A 
ATOM     22  C   UNL     1       5.010  -2.550  -1.343  1.00  0.00     0.009 A 
ATOM     23  C   UNL     1       4.415  -2.466  -2.524  1.00  0.00    -0.018 A 
ATOM     24  C   UNL     1       5.613  -2.848  -2.414  1.00  0.00    -0.018 A 
ATOM     25  C   UNL     1       4.618  -2.645  -4.140  1.00  0.00     0.009 A 
ATOM     26  C   UNL     1       6.339  -4.018  -2.857  1.00  0.00     0.009 A 
ATOM     27  C   UNL     1       5.582  -3.369  -4.915  1.00  0.00     0.001 A 
ATOM     28  C   UNL     1       6.408  -4.196  -4.206  1.00  0.00     0.001 A 
ENDBRANCH  17  19
ENDBRANCH  13  15
ENDBRANCH  11  13
ENDBRANCH   6  11
ENDBRANCH   3   5
ENDBRANCH   2   3
ENDBRANCH   1   2
BRANCH   1  29
ATOM     29  C   UNL     1       3.625   4.138  -1.895  1.00  0.00     0.275 C 
BRANCH  29  30
ATOM     30  O   UNL     1       2.509   3.647  -2.662  1.00  0.00    -0.458 OA
BRANCH  30  31
ATOM     31  C   UNL     1       2.857   2.946  -3.764  1.00  0.00     0.338 C 
ATOM     32  O   UNL     1       3.990   2.732  -4.167  1.00  0.00    -0.246 OA
BRANCH  31  33
ATOM     33  C   UNL     1       1.680   2.411  -4.466  1.00  0.00     0.060 A 
ATOM     34  C   UNL     1       1.028   1.285  -3.973  1.00  0.00     0.016 A 
ATOM     35  C   UNL     1       1.399   2.867  -5.750  1.00  0.00     0.016 A 
ATOM     36  C   UNL     1       0.242   0.508  -4.811  1.00  0.00     0.010 A 
ATOM     37  C   UNL     1       0.473   2.175  -6.534  1.00  0.00     0.010 A 
ATOM     38  C   UNL     1      -0.075   0.958  -6.091  1.00  0.00    -0.014 A 
BRANCH  38  39
ATOM     39  C   UNL     1      -0.967   0.162  -6.972  1.00  0.00     0.031 A 
ATOM     40  C   UNL     1      -0.515  -0.190  -8.363  1.00  0.00     0.074 A 
ATOM     41  C   UNL     1      -2.190  -0.204  -6.538  1.00  0.00     0.049 A 
ATOM     42  N   UNL     1      -1.224  -0.600  -9.380  1.00  0.00    -0.248 NA
ATOM     43  C   UNL     1       0.921  -0.033  -8.656  1.00  0.00     0.031 C 
ATOM     44  C   UNL     1      -2.718   0.004  -5.185  1.00  0.00     0.029 A 
ATOM     45  N   UNL     1      -3.225  -0.815  -7.200  1.00  0.00    -0.354 N 
ATOM     46  C   UNL     1      -0.340  -0.677 -10.451  1.00  0.00     0.074 A 
ATOM     47  C   UNL     1       0.958  -0.269  -9.960  1.00  0.00     0.031 C 
ATOM     48  C   UNL     1      -3.962  -0.486  -5.113  1.00  0.00     0.029 A 
ATOM     49  C   UNL     1      -4.367  -0.923  -6.439  1.00  0.00     0.049 A 
ATOM     50  H   UNL     1      -3.158  -1.143  -8.126  1.00  0.00     0.167 HD
ATOM     51  C   UNL     1      -0.601  -1.044 -11.728  1.00  0.00     0.031 A 
ATOM     52  C   UNL     1      -5.624  -1.258  -6.782  1.00  0.00     0.031 A 
ATOM     53  C   UNL     1      -1.901  -1.467 -12.179  1.00  0.00     0.049 A 
ATOM     54  C   UNL     1      -5.907  -1.583  -8.219  1.00  0.00     0.074 A 
ATOM     55  C   UNL     1      -2.282  -1.877 -13.444  1.00  0.00     0.029 A 
ATOM     56  N   UNL     1      -3.032  -1.539 -11.377  1.00  0.00    -0.354 N 
ATOM     57  N   UNL     1      -5.077  -1.610  -9.234  1.00  0.00    -0.248 NA
ATOM     58  C   UNL     1      -7.295  -1.913  -8.559  1.00  0.00     0.031 C 
ATOM     59  C   UNL     1      -3.657  -2.130 -13.422  1.00  0.00     0.029 A 
ATOM     60  C   UNL     1      -4.117  -1.960 -12.125  1.00  0.00     0.049 A 
ATOM     61  H   UNL     1      -3.058  -1.322 -10.417  1.00  0.00     0.167 HD
ATOM     62  C   UNL     1      -5.837  -1.995 -10.331  1.00  0.00     0.074 A 
ATOM     63  C   UNL     1      -7.189  -2.201  -9.849  1.00  0.00     0.031 C 
ATOM     64  C   UNL     1      -5.452  -2.167 -11.619  1.00  0.00     0.031 A 
BRANCH  51  65
ATOM     65  C   UNL     1       0.518  -0.951 -12.735  1.00  0.00    -0.014 A 
ATOM     66  C   UNL     1       1.638  -1.800 -12.682  1.00  0.00     0.010 A 
ATOM     67  C   UNL     1       0.424  -0.015 -13.784  1.00  0.00     0.010 A 
ATOM     68  C   UNL     1       2.657  -1.689 -13.634  1.00  0.00     0.020 A 
ATOM     69  C   UNL     1       1.423   0.075 -14.757  1.00  0.00     0.020 A 
ATOM     70  C   UNL     1       2.542  -0.753 -14.666  1.00  0.00     0.054 A 
BRANCH  70  71
ATOM     71  S   UNL     1       3.866  -0.655 -15.902  1.00  0.00     0.124 S 
ATOM     72  O   UNL     1       4.968  -0.100 -15.120  1.00  0.00    -0.237 OA
ATOM     73  O   UNL     1       4.025  -2.049 -16.308  1.00  0.00    -0.237 OA
ATOM     74  O   UNL     1       3.322   0.233 -16.927  1.00  0.00    -0.744 OA
ENDBRANCH  70  71
ENDBRANCH  51  65
BRANCH  52  75
ATOM     75  C   UNL     1      -6.704  -1.241  -5.757  1.00  0.00    -0.014 A 
ATOM     76  C   UNL     1      -7.328  -2.435  -5.360  1.00  0.00     0.010 A 
ATOM     77  C   UNL     1      -7.096  -0.032  -5.149  1.00  0.00     0.010 A 
ATOM     78  C   UNL     1      -8.334  -2.420  -4.390  1.00  0.00     0.020 A 
ATOM     79  C   UNL     1      -8.074  -0.017  -4.150  1.00  0.00     0.020 A 
ATOM     80  C   UNL     1      -8.696  -1.211  -3.787  1.00  0.00     0.054 A 
BRANCH  80  81
ATOM     81  S   UNL     1      -9.974  -1.229  -2.501  1.00  0.00     0.124 S 
ATOM     82  O   UNL     1     -11.175  -1.536  -3.271  1.00  0.00    -0.237 OA
ATOM     83  O   UNL     1      -9.506  -2.287  -1.609  1.00  0.00    -0.237 OA
ATOM     84  O   UNL     1      -9.917   0.120  -1.941  1.00  0.00    -0.744 OA
ENDBRANCH  80  81
ENDBRANCH  52  75
BRANCH  64  85
ATOM     85  C   UNL     1      -6.491  -2.662 -12.588  1.00  0.00    -0.014 A 
ATOM     86  C   UNL     1      -7.551  -1.842 -13.013  1.00  0.00     0.010 A 
ATOM     87  C   UNL     1      -6.359  -3.954 -13.130  1.00  0.00     0.010 A 
ATOM     88  C   UNL     1      -8.474  -2.317 -13.947  1.00  0.00     0.020 A 
ATOM     89  C   UNL     1      -7.258  -4.418 -14.090  1.00  0.00     0.020 A 
ATOM     90  C   UNL     1      -8.317  -3.599 -14.485  1.00  0.00     0.054 A 
BRANCH  90  91
ATOM     91  S   UNL     1      -9.491  -4.163 -15.745  1.00  0.00     0.124 S 
ATOM     92  O   UNL     1     -10.713  -4.340 -14.966  1.00  0.00    -0.237 OA
ATOM     93  O   UNL     1      -9.502  -3.049 -16.690  1.00  0.00    -0.237 OA
ATOM     94  O   UNL     1      -8.892  -5.396 -16.251  1.00  0.00    -0.744 OA
ENDBRANCH  90  91
ENDBRANCH  64  85
ENDBRANCH  38  39
ENDBRANCH  31  33
ENDBRANCH  30  31
ENDBRANCH  29  30
ENDBRANCH   1  29
TORSDOF 18
