REMARK SMILES CCN(CC)C(=O)CC1(C(=O)OCCOC(=O)c2ccc(-c3c4nc(c(-c5ccc(S(=O)(=O)[O-])cc5)c5ccc([nH]5)c(-c5ccc(S(=O)(=O)[O-])cc5)c5nc(c(-c6ccc(S(=O)(=O)[O-])cc6)c6ccc3[nH]6)C=C5)C=C4)cc2)CCCCCCCCCCC1
REMARK SMILES IDX 12 1 10 2 11 3 9 4 8 5 6 6 3 7 7 8 2 9 1 10 4 11 5 12 78 13
REMARK SMILES IDX 79 14 80 15 81 16 82 17 83 18 88 20 87 21 86 22 85 23 84 24
REMARK SMILES IDX 13 26 14 27 15 28 16 29 17 30 18 31 19 32 77 33 20 34 76 35
REMARK SMILES IDX 21 36 22 37 23 38 70 39 24 40 75 41 69 42 71 43 25 44 74 45
REMARK SMILES IDX 68 46 67 47 26 49 56 50 37 51 55 52 38 53 41 54 54 55 72 56
REMARK SMILES IDX 39 57 40 58 53 60 73 61 42 62 27 63 28 64 36 65 29 66 35 67
REMARK SMILES IDX 30 68 31 69 32 70 33 71 34 72 57 73 58 74 66 75 59 76 65 77
REMARK SMILES IDX 60 78 61 79 62 80 63 81 64 82 43 83 44 84 52 85 45 86 51 87
REMARK SMILES IDX 46 88 47 89 48 90 49 91 50 92
REMARK H PARENT 71 48 41 59
REMARK Flexibility Score: 90.00
ROOT
ATOM      1  O   UNL     1       1.375  -1.766   4.202  1.00  0.00    -0.462 OA
ENDROOT
BRANCH   1   2
ATOM      2  C   UNL     1       1.130  -3.118   4.214  1.00  0.00     0.312 C 
ATOM      3  O   UNL     1       0.071  -3.626   4.567  1.00  0.00    -0.252 OA
BRANCH   2   4
ATOM      4  C   UNL     1       2.274  -3.905   3.503  1.00  0.00     0.077 C 
BRANCH   4   5
ATOM      5  C   UNL     1       1.759  -4.048   2.031  1.00  0.00     0.119 C 
BRANCH   5   6
ATOM      6  C   UNL     1       0.871  -2.946   1.469  1.00  0.00     0.223 C 
ATOM      7  N   UNL     1      -0.253  -3.188   0.712  1.00  0.00    -0.343 N 
ATOM      8  O   UNL     1       1.248  -1.812   1.642  1.00  0.00    -0.275 OA
BRANCH   7   9
ATOM      9  C   UNL     1      -0.666  -2.217  -0.322  1.00  0.00     0.116 C 
ATOM     10  C   UNL     1      -1.212  -0.873   0.137  1.00  0.00     0.027 C 
ENDBRANCH   7   9
BRANCH   7  11
ATOM     11  C   UNL     1      -1.007  -4.425   0.770  1.00  0.00     0.116 C 
ATOM     12  C   UNL     1      -0.524  -5.399  -0.287  1.00  0.00     0.027 C 
ENDBRANCH   7  11
ENDBRANCH   5   6
ENDBRANCH   4   5
BRANCH   4  13
ATOM     13  C   UNL     1       2.403  -5.394   4.046  1.00  0.00     0.019 C 
BRANCH  13  14
ATOM     14  C   UNL     1       3.565  -6.280   3.470  1.00  0.00     0.001 C 
BRANCH  14  15
ATOM     15  C   UNL     1       3.433  -6.808   2.031  1.00  0.00     0.000 C 
BRANCH  15  16
ATOM     16  C   UNL     1       4.741  -7.337   1.402  1.00  0.00     0.000 C 
BRANCH  16  17
ATOM     17  C   UNL     1       5.910  -6.343   1.297  1.00  0.00     0.000 C 
BRANCH  17  18
ATOM     18  C   UNL     1       5.661  -5.148   0.370  1.00  0.00     0.000 CG0
ATOM     19  G   UNL     1       6.603  -3.963   0.661  1.00  0.00     0.000 G0
ENDBRANCH  17  18
ENDBRANCH  16  17
ENDBRANCH  15  16
ENDBRANCH  14  15
ENDBRANCH  13  14
ENDBRANCH   4  13
BRANCH   4  20
ATOM     20  C   UNL     1       3.641  -3.214   3.918  1.00  0.00     0.019 C 
BRANCH  20  21
ATOM     21  C   UNL     1       4.283  -2.055   3.159  1.00  0.00     0.001 C 
BRANCH  21  22
ATOM     22  C   UNL     1       5.010  -2.432   1.871  1.00  0.00     0.000 C 
BRANCH  22  23
ATOM     23  C   UNL     1       6.303  -3.234   1.985  1.00  0.00     0.000 C 
BRANCH  23  24
ATOM     24  C   UNL     1       6.603  -3.963   0.661  1.00  0.00     0.000 CG0
ATOM     25  G   UNL     1       5.661  -5.148   0.370  1.00  0.00     0.000 G0
ENDBRANCH  23  24
ENDBRANCH  22  23
ENDBRANCH  21  22
ENDBRANCH  20  21
ENDBRANCH   4  20
ENDBRANCH   2   4
ENDBRANCH   1   2
BRANCH   1  26
ATOM     26  C   UNL     1       0.238  -0.878   4.036  1.00  0.00     0.274 C 
BRANCH  26  27
ATOM     27  C   UNL     1       0.663   0.511   3.450  1.00  0.00     0.275 C 
BRANCH  27  28
ATOM     28  O   UNL     1       0.883   0.543   2.004  1.00  0.00    -0.458 OA
BRANCH  28  29
ATOM     29  C   UNL     1       2.118   0.834   1.496  1.00  0.00     0.338 C 
ATOM     30  O   UNL     1       3.049   1.312   2.126  1.00  0.00    -0.246 OA
BRANCH  29  31
ATOM     31  C   UNL     1       2.265   0.364   0.065  1.00  0.00     0.060 A 
ATOM     32  C   UNL     1       2.854  -0.884  -0.162  1.00  0.00     0.016 A 
ATOM     33  C   UNL     1       1.879   1.086  -1.056  1.00  0.00     0.016 A 
ATOM     34  C   UNL     1       2.967  -1.487  -1.416  1.00  0.00     0.010 A 
ATOM     35  C   UNL     1       2.036   0.518  -2.349  1.00  0.00     0.010 A 
ATOM     36  C   UNL     1       2.565  -0.781  -2.540  1.00  0.00    -0.014 A 
BRANCH  36  37
ATOM     37  C   UNL     1       2.977  -1.287  -3.882  1.00  0.00     0.031 A 
ATOM     38  C   UNL     1       4.211  -0.664  -4.479  1.00  0.00     0.074 A 
ATOM     39  C   UNL     1       2.382  -2.318  -4.520  1.00  0.00     0.049 A 
ATOM     40  N   UNL     1       4.686  -0.739  -5.692  1.00  0.00    -0.248 NA
ATOM     41  C   UNL     1       5.014   0.167  -3.565  1.00  0.00     0.031 C 
ATOM     42  C   UNL     1       1.300  -3.146  -3.987  1.00  0.00     0.029 A 
ATOM     43  N   UNL     1       2.616  -2.857  -5.768  1.00  0.00    -0.354 N 
ATOM     44  C   UNL     1       5.796   0.099  -5.707  1.00  0.00     0.074 A 
ATOM     45  C   UNL     1       5.929   0.659  -4.382  1.00  0.00     0.031 C 
ATOM     46  C   UNL     1       0.959  -4.075  -4.902  1.00  0.00     0.029 A 
ATOM     47  C   UNL     1       1.754  -3.877  -6.113  1.00  0.00     0.049 A 
ATOM     48  H   UNL     1       3.336  -2.541  -6.361  1.00  0.00     0.167 HD
ATOM     49  C   UNL     1       6.622   0.389  -6.739  1.00  0.00     0.031 A 
ATOM     50  C   UNL     1       1.601  -4.542  -7.281  1.00  0.00     0.031 A 
ATOM     51  C   UNL     1       6.494  -0.205  -8.040  1.00  0.00     0.049 A 
ATOM     52  C   UNL     1       2.481  -4.153  -8.450  1.00  0.00     0.074 A 
ATOM     53  C   UNL     1       7.233   0.043  -9.181  1.00  0.00     0.029 A 
ATOM     54  N   UNL     1       5.570  -1.190  -8.362  1.00  0.00    -0.354 N 
ATOM     55  N   UNL     1       3.454  -3.272  -8.492  1.00  0.00    -0.248 NA
ATOM     56  C   UNL     1       2.235  -4.832  -9.732  1.00  0.00     0.031 C 
ATOM     57  C   UNL     1       6.727  -0.764 -10.206  1.00  0.00     0.029 A 
ATOM     58  C   UNL     1       5.715  -1.558  -9.687  1.00  0.00     0.049 A 
ATOM     59  H   UNL     1       4.910  -1.571  -7.740  1.00  0.00     0.167 HD
ATOM     60  C   UNL     1       3.949  -3.307  -9.793  1.00  0.00     0.074 A 
ATOM     61  C   UNL     1       3.181  -4.310 -10.502  1.00  0.00     0.031 C 
ATOM     62  C   UNL     1       4.943  -2.575 -10.356  1.00  0.00     0.031 A 
BRANCH  49  63
ATOM     63  C   UNL     1       7.662   1.452  -6.506  1.00  0.00    -0.014 A 
ATOM     64  C   UNL     1       8.761   1.243  -5.653  1.00  0.00     0.010 A 
ATOM     65  C   UNL     1       7.505   2.708  -7.122  1.00  0.00     0.010 A 
ATOM     66  C   UNL     1       9.647   2.288  -5.373  1.00  0.00     0.020 A 
ATOM     67  C   UNL     1       8.408   3.744  -6.872  1.00  0.00     0.020 A 
ATOM     68  C   UNL     1       9.460   3.534  -5.980  1.00  0.00     0.054 A 
BRANCH  68  69
ATOM     69  S   UNL     1      10.621   4.874  -5.595  1.00  0.00     0.124 S 
ATOM     70  O   UNL     1      10.237   5.222  -4.229  1.00  0.00    -0.237 OA
ATOM     71  O   UNL     1      11.920   4.222  -5.735  1.00  0.00    -0.237 OA
ATOM     72  O   UNL     1      10.325   5.890  -6.603  1.00  0.00    -0.744 OA
ENDBRANCH  68  69
ENDBRANCH  49  63
BRANCH  50  73
ATOM     73  C   UNL     1       0.544  -5.592  -7.446  1.00  0.00    -0.014 A 
ATOM     74  C   UNL     1       0.880  -6.932  -7.719  1.00  0.00     0.010 A 
ATOM     75  C   UNL     1      -0.821  -5.249  -7.372  1.00  0.00     0.010 A 
ATOM     76  C   UNL     1      -0.117  -7.898  -7.922  1.00  0.00     0.020 A 
ATOM     77  C   UNL     1      -1.821  -6.216  -7.542  1.00  0.00     0.020 A 
ATOM     78  C   UNL     1      -1.463  -7.534  -7.825  1.00  0.00     0.054 A 
BRANCH  78  79
ATOM     79  S   UNL     1      -2.740  -8.811  -8.033  1.00  0.00     0.124 S 
ATOM     80  O   UNL     1      -2.664  -9.091  -9.463  1.00  0.00    -0.237 OA
ATOM     81  O   UNL     1      -2.265  -9.875  -7.153  1.00  0.00    -0.237 OA
ATOM     82  O   UNL     1      -3.963  -8.146  -7.589  1.00  0.00    -0.744 OA
ENDBRANCH  78  79
ENDBRANCH  50  73
BRANCH  62  83
ATOM     83  C   UNL     1       5.293  -2.859 -11.792  1.00  0.00    -0.014 A 
ATOM     84  C   UNL     1       4.460  -2.442 -12.844  1.00  0.00     0.010 A 
ATOM     85  C   UNL     1       6.527  -3.467 -12.091  1.00  0.00     0.010 A 
ATOM     86  C   UNL     1       4.848  -2.645 -14.171  1.00  0.00     0.020 A 
ATOM     87  C   UNL     1       6.930  -3.645 -13.415  1.00  0.00     0.020 A 
ATOM     88  C   UNL     1       6.082  -3.241 -14.448  1.00  0.00     0.054 A 
BRANCH  88  89
ATOM     89  S   UNL     1       6.591  -3.430 -16.178  1.00  0.00     0.124 S 
ATOM     90  O   UNL     1       5.723  -4.513 -16.633  1.00  0.00    -0.237 OA
ATOM     91  O   UNL     1       6.304  -2.114 -16.742  1.00  0.00    -0.237 OA
ATOM     92  O   UNL     1       8.011  -3.766 -16.088  1.00  0.00    -0.744 OA
ENDBRANCH  88  89
ENDBRANCH  62  83
ENDBRANCH  36  37
ENDBRANCH  29  31
ENDBRANCH  28  29
ENDBRANCH  27  28
ENDBRANCH  26  27
ENDBRANCH   1  26
TORSDOF 18
