REMARK SMILES C/C(=N\Nc1nc(-c2ccc(Cl)cc2)cs1)c1nnn(-c2ccc(C(=O)OCCOC(=O)c3ccc(-c4c5nc(c(-c6ccc(S(=O)(=O)[O-])cc6)c6ccc([nH]6)c(-c6ccc(S(=O)(=O)[O-])cc6)c6nc(c(-c7ccc(S(=O)(=O)[O-])cc7)c7ccc4[nH]7)C=C6)C=C5)cc3)cc2)c1C
REMARK SMILES IDX 28 1 27 2 25 3 26 4 24 5 21 6 22 7 94 8 23 9 93 10 20 11
REMARK SMILES IDX 17 12 18 13 95 14 19 15 96 16 2 17 1 18 3 19 4 20 5 22 6 23
REMARK SMILES IDX 16 24 7 25 15 26 8 27 9 28 14 29 10 30 13 31 11 32 12 33
REMARK SMILES IDX 29 34 30 35 31 36 32 37 33 38 34 39 92 40 35 41 91 42 36 43
REMARK SMILES IDX 37 44 38 45 85 46 39 47 90 48 84 49 86 50 40 51 89 52 83 53
REMARK SMILES IDX 82 54 41 56 71 57 52 58 70 59 53 60 56 61 69 62 87 63 54 64
REMARK SMILES IDX 55 65 68 67 88 68 57 69 42 70 43 71 51 72 44 73 50 74 45 75
REMARK SMILES IDX 46 76 47 77 48 78 49 79 72 80 73 81 81 82 74 83 80 84 75 85
REMARK SMILES IDX 76 86 77 87 78 88 79 89 58 90 59 91 67 92 60 93 66 94 61 95
REMARK SMILES IDX 62 96 63 97 64 98 65 99
REMARK H PARENT 4 21 86 55 56 66
REMARK Flexibility Score: inf
ROOT
ATOM      1  C   UNL     1       9.350   5.624  -4.674  1.00  0.00     0.275 C 
ENDROOT
BRANCH   1   2
ATOM      2  O   UNL     1       8.112   4.937  -4.431  1.00  0.00    -0.458 OA
BRANCH   2   3
ATOM      3  C   UNL     1       7.132   5.652  -3.819  1.00  0.00     0.338 C 
ATOM      4  O   UNL     1       7.262   6.735  -3.267  1.00  0.00    -0.246 OA
BRANCH   3   5
ATOM      5  C   UNL     1       5.830   4.950  -3.954  1.00  0.00     0.060 A 
ATOM      6  C   UNL     1       3.417   3.586  -3.860  1.00  0.00     0.067 A 
ATOM      7  C   UNL     1       3.416   4.963  -3.633  1.00  0.00     0.029 A 
ATOM      8  C   UNL     1       4.572   2.926  -4.295  1.00  0.00     0.029 A 
ATOM      9  C   UNL     1       4.639   5.641  -3.664  1.00  0.00     0.018 A 
ATOM     10  C   UNL     1       5.779   3.607  -4.339  1.00  0.00     0.018 A 
BRANCH   6  11
ATOM     11  N   UNL     1       2.341   2.802  -3.401  1.00  0.00    -0.217 N 
ATOM     12  C   UNL     1       1.125   1.400  -2.258  1.00  0.00     0.132 A 
ATOM     13  N   UNL     1       0.301   2.168  -3.036  1.00  0.00    -0.128 NA
ATOM     14  C   UNL     1       2.438   1.797  -2.451  1.00  0.00     0.071 A 
ATOM     15  N   UNL     1       1.046   3.091  -3.640  1.00  0.00    -0.061 NA
ATOM     16  C   UNL     1       3.693   1.435  -1.736  1.00  0.00     0.069 C 
BRANCH  12  17
ATOM     17  C   UNL     1       0.664   0.419  -1.285  1.00  0.00     0.087 C 
ATOM     18  C   UNL     1       1.196   0.602   0.114  1.00  0.00     0.071 C 
ATOM     19  N   UNL     1      -0.085  -0.541  -1.754  1.00  0.00    -0.176 NA
BRANCH  19  20
ATOM     20  N   UNL     1      -0.472  -1.655  -1.045  1.00  0.00    -0.252 N 
ATOM     21  H   UNL     1      -0.911  -2.351  -1.585  1.00  0.00     0.193 HD
BRANCH  20  22
ATOM     22  C   UNL     1      -0.352  -1.958   0.272  1.00  0.00     0.203 A 
ATOM     23  N   UNL     1      -0.581  -1.146   1.276  1.00  0.00    -0.219 NA
ATOM     24  S   UNL     1       0.229  -3.512   0.763  1.00  0.00    -0.103 S 
ATOM     25  C   UNL     1       0.031  -1.607   2.421  1.00  0.00     0.084 A 
ATOM     26  C   UNL     1       0.531  -2.888   2.339  1.00  0.00     0.097 A 
BRANCH  25  27
ATOM     27  C   UNL     1       0.197  -0.709   3.548  1.00  0.00     0.001 A 
ATOM     28  C   UNL     1      -0.912  -0.011   4.042  1.00  0.00     0.012 A 
ATOM     29  C   UNL     1       1.474  -0.419   4.052  1.00  0.00     0.012 A 
ATOM     30  C   UNL     1      -0.754   0.947   5.047  1.00  0.00     0.021 A 
ATOM     31  C   UNL     1       1.633   0.548   5.048  1.00  0.00     0.021 A 
ATOM     32  C   UNL     1       0.518   1.223   5.545  1.00  0.00     0.041 A 
ATOM     33  Cl  UNL     1       0.717   2.417   6.767  1.00  0.00    -0.084 Cl
ENDBRANCH  25  27
ENDBRANCH  20  22
ENDBRANCH  19  20
ENDBRANCH  12  17
ENDBRANCH   6  11
ENDBRANCH   3   5
ENDBRANCH   2   3
ENDBRANCH   1   2
BRANCH   1  34
ATOM     34  C   UNL     1       9.313   6.343  -6.014  1.00  0.00     0.275 C 
BRANCH  34  35
ATOM     35  O   UNL     1       8.440   7.469  -5.959  1.00  0.00    -0.458 OA
BRANCH  35  36
ATOM     36  C   UNL     1       7.176   7.234  -6.376  1.00  0.00     0.338 C 
ATOM     37  O   UNL     1       6.655   6.150  -6.580  1.00  0.00    -0.246 OA
BRANCH  36  38
ATOM     38  C   UNL     1       6.557   8.505  -6.758  1.00  0.00     0.060 A 
ATOM     39  C   UNL     1       5.212   8.474  -7.135  1.00  0.00     0.016 A 
ATOM     40  C   UNL     1       7.387   9.600  -7.039  1.00  0.00     0.016 A 
ATOM     41  C   UNL     1       4.750   9.462  -7.976  1.00  0.00     0.010 A 
ATOM     42  C   UNL     1       6.929  10.574  -7.889  1.00  0.00     0.010 A 
ATOM     43  C   UNL     1       5.647  10.442  -8.413  1.00  0.00    -0.014 A 
BRANCH  43  44
ATOM     44  C   UNL     1       5.200  11.377  -9.421  1.00  0.00     0.031 A 
ATOM     45  C   UNL     1       4.247  12.386  -8.912  1.00  0.00     0.074 A 
ATOM     46  C   UNL     1       5.724  11.392 -10.660  1.00  0.00     0.049 A 
ATOM     47  N   UNL     1       3.006  12.534  -9.229  1.00  0.00    -0.248 NA
ATOM     48  C   UNL     1       4.693  13.230  -7.792  1.00  0.00     0.031 C 
ATOM     49  C   UNL     1       6.885  10.655 -11.170  1.00  0.00     0.029 A 
ATOM     50  N   UNL     1       5.392  12.195 -11.701  1.00  0.00    -0.354 N 
ATOM     51  C   UNL     1       2.556  13.618  -8.484  1.00  0.00     0.074 A 
ATOM     52  C   UNL     1       3.572  13.888  -7.499  1.00  0.00     0.031 C 
ATOM     53  C   UNL     1       7.305  11.234 -12.318  1.00  0.00     0.029 A 
ATOM     54  C   UNL     1       6.365  12.280 -12.687  1.00  0.00     0.049 A 
ATOM     55  H   UNL     1       4.535  12.676 -11.753  1.00  0.00     0.167 HD
ATOM     56  C   UNL     1       1.486  14.362  -8.873  1.00  0.00     0.031 A 
ATOM     57  C   UNL     1       6.423  13.214 -13.670  1.00  0.00     0.031 A 
ATOM     58  C   UNL     1       0.718  13.702  -9.894  1.00  0.00     0.049 A 
ATOM     59  C   UNL     1       5.066  13.811 -13.787  1.00  0.00     0.074 A 
ATOM     60  C   UNL     1       0.003  12.523  -9.956  1.00  0.00     0.029 A 
ATOM     61  N   UNL     1       0.951  14.081 -11.196  1.00  0.00    -0.354 N 
ATOM     62  N   UNL     1       4.019  13.145 -14.191  1.00  0.00    -0.248 NA
ATOM     63  C   UNL     1       4.775  15.008 -13.009  1.00  0.00     0.031 C 
ATOM     64  C   UNL     1       0.251  12.013 -11.262  1.00  0.00     0.029 A 
ATOM     65  C   UNL     1       1.049  12.936 -11.944  1.00  0.00     0.049 A 
ATOM     66  H   UNL     1       1.032  15.004 -11.530  1.00  0.00     0.167 HD
ATOM     67  C   UNL     1       2.977  13.586 -13.386  1.00  0.00     0.074 A 
ATOM     68  C   UNL     1       3.483  14.796 -12.741  1.00  0.00     0.031 C 
ATOM     69  C   UNL     1       1.910  12.784 -13.100  1.00  0.00     0.031 A 
BRANCH  56  70
ATOM     70  C   UNL     1       1.367  15.839  -8.610  1.00  0.00    -0.014 A 
ATOM     71  C   UNL     1       0.184  16.503  -8.989  1.00  0.00     0.010 A 
ATOM     72  C   UNL     1       2.474  16.642  -8.265  1.00  0.00     0.010 A 
ATOM     73  C   UNL     1       0.140  17.899  -9.091  1.00  0.00     0.020 A 
ATOM     74  C   UNL     1       2.426  18.034  -8.318  1.00  0.00     0.020 A 
ATOM     75  C   UNL     1       1.270  18.653  -8.770  1.00  0.00     0.054 A 
BRANCH  75  76
ATOM     76  S   UNL     1       1.247  20.442  -9.028  1.00  0.00     0.124 S 
ATOM     77  O   UNL     1       1.150  20.533 -10.482  1.00  0.00    -0.237 OA
ATOM     78  O   UNL     1       0.057  20.847  -8.285  1.00  0.00    -0.237 OA
ATOM     79  O   UNL     1       2.515  20.887  -8.455  1.00  0.00    -0.744 OA
ENDBRANCH  75  76
ENDBRANCH  56  70
BRANCH  57  80
ATOM     80  C   UNL     1       7.640  13.858 -14.228  1.00  0.00    -0.014 A 
ATOM     81  C   UNL     1       7.584  14.621 -15.409  1.00  0.00     0.010 A 
ATOM     82  C   UNL     1       8.813  13.950 -13.448  1.00  0.00     0.010 A 
ATOM     83  C   UNL     1       8.636  15.484 -15.766  1.00  0.00     0.020 A 
ATOM     84  C   UNL     1       9.867  14.801 -13.799  1.00  0.00     0.020 A 
ATOM     85  C   UNL     1       9.764  15.583 -14.946  1.00  0.00     0.054 A 
BRANCH  85  86
ATOM     86  S   UNL     1      11.038  16.826 -15.317  1.00  0.00     0.124 S 
ATOM     87  O   UNL     1      11.665  16.282 -16.517  1.00  0.00    -0.237 OA
ATOM     88  O   UNL     1      10.250  18.041 -15.510  1.00  0.00    -0.237 OA
ATOM     89  O   UNL     1      11.880  16.823 -14.122  1.00  0.00    -0.744 OA
ENDBRANCH  85  86
ENDBRANCH  57  80
BRANCH  69  90
ATOM     90  C   UNL     1       1.735  11.501 -13.878  1.00  0.00    -0.014 A 
ATOM     91  C   UNL     1       2.636  10.419 -13.809  1.00  0.00     0.010 A 
ATOM     92  C   UNL     1       0.505  11.311 -14.533  1.00  0.00     0.010 A 
ATOM     93  C   UNL     1       2.310   9.180 -14.384  1.00  0.00     0.020 A 
ATOM     94  C   UNL     1       0.169  10.077 -15.092  1.00  0.00     0.020 A 
ATOM     95  C   UNL     1       1.073   9.017 -15.017  1.00  0.00     0.054 A 
BRANCH  95  96
ATOM     96  S   UNL     1       0.613   7.389 -15.680  1.00  0.00     0.124 S 
ATOM     97  O   UNL     1       1.492   7.260 -16.838  1.00  0.00    -0.237 OA
ATOM     98  O   UNL     1       0.903   6.489 -14.566  1.00  0.00    -0.237 OA
ATOM     99  O   UNL     1      -0.808   7.531 -15.995  1.00  0.00    -0.744 OA
ENDBRANCH  95  96
ENDBRANCH  69  90
ENDBRANCH  43  44
ENDBRANCH  36  38
ENDBRANCH  35  36
ENDBRANCH  34  35
ENDBRANCH   1  34
TORSDOF 19
