REMARK SMILES CCOC(=O)[C@@]1(C)C/C(=N/c2cccc(C(=O)OCCOC(=O)c3ccc(-c4c5nc(c(-c6ccc(S(=O)(=O)[O-])cc6)c6ccc([nH]6)c(-c6ccc(S(=O)(=O)[O-])cc6)c6nc(c(-c7ccc(S(=O)(=O)[O-])cc7)c7ccc4[nH]7)C=C6)C=C5)cc3)c2)C(=O)N1c1ccccc1
REMARK SMILES IDX 19 1 18 2 16 3 17 4 15 5 11 6 12 7 84 8 13 9 14 10 10 11
REMARK SMILES IDX 6 12 7 13 8 14 87 15 9 16 85 17 86 18 4 19 5 20 3 21 2 22
REMARK SMILES IDX 1 23 88 24 89 25 93 26 90 27 92 28 91 29 20 30 21 31 22 32
REMARK SMILES IDX 23 33 24 34 25 35 83 36 26 37 82 38 27 39 28 40 29 41 76 42
REMARK SMILES IDX 30 43 81 44 75 45 77 46 31 47 80 48 74 49 73 50 32 52 62 53
REMARK SMILES IDX 43 54 61 55 44 56 47 57 60 58 78 59 45 60 46 61 59 63 79 64
REMARK SMILES IDX 48 65 33 66 34 67 42 68 35 69 41 70 36 71 37 72 38 73 39 74
REMARK SMILES IDX 40 75 63 76 64 77 72 78 65 79 71 80 66 81 67 82 68 83 69 84
REMARK SMILES IDX 70 85 49 86 50 87 58 88 51 89 57 90 52 91 53 92 54 93 55 94
REMARK SMILES IDX 56 95
REMARK H PARENT 77 51 47 62
REMARK Flexibility Score: inf
ROOT
ATOM      1  C   UNL     1       1.672  -4.892  -9.603  1.00  0.00     0.275 C 
ENDROOT
BRANCH   1   2
ATOM      2  O   UNL     1       2.661  -4.457  -8.650  1.00  0.00    -0.458 OA
BRANCH   2   3
ATOM      3  C   UNL     1       3.484  -5.430  -8.175  1.00  0.00     0.338 C 
ATOM      4  O   UNL     1       3.390  -6.626  -8.396  1.00  0.00    -0.246 OA
BRANCH   3   5
ATOM      5  C   UNL     1       4.587  -4.837  -7.378  1.00  0.00     0.062 A 
ATOM      6  C   UNL     1       5.533  -3.029  -6.059  1.00  0.00     0.064 A 
ATOM      7  C   UNL     1       6.673  -3.800  -5.830  1.00  0.00     0.028 A 
ATOM      8  C   UNL     1       4.512  -3.536  -6.874  1.00  0.00     0.044 A 
ATOM      9  C   UNL     1       6.768  -5.091  -6.355  1.00  0.00     0.003 A 
ATOM     10  C   UNL     1       5.719  -5.616  -7.112  1.00  0.00     0.016 A 
BRANCH   6  11
ATOM     11  N   UNL     1       5.410  -1.751  -5.491  1.00  0.00    -0.248 NA
ATOM     12  C   UNL     1       2.557  -0.487  -4.058  1.00  0.00     0.148 C 
ATOM     13  C   UNL     1       1.984  -0.181  -5.458  1.00  0.00     0.048 C 
ATOM     14  C   UNL     1       4.091  -0.247  -4.089  1.00  0.00     0.103 C 
ATOM     15  N   UNL     1       2.410  -1.924  -3.712  1.00  0.00    -0.290 N 
ATOM     16  C   UNL     1       4.521  -1.587  -4.559  1.00  0.00     0.109 C 
ATOM     17  C   UNL     1       3.601  -2.608  -3.942  1.00  0.00     0.273 C 
ATOM     18  O   UNL     1       3.938  -3.754  -3.734  1.00  0.00    -0.267 OA
BRANCH  12  19
ATOM     19  C   UNL     1       2.019   0.522  -3.023  1.00  0.00     0.332 C 
ATOM     20  O   UNL     1       1.830   1.709  -3.267  1.00  0.00    -0.249 OA
BRANCH  19  21
ATOM     21  O   UNL     1       1.849  -0.039  -1.795  1.00  0.00    -0.464 OA
BRANCH  21  22
ATOM     22  C   UNL     1       1.204   0.804  -0.834  1.00  0.00     0.229 C 
ATOM     23  C   UNL     1       1.111   0.045   0.475  1.00  0.00     0.049 C 
ENDBRANCH  21  22
ENDBRANCH  19  21
ENDBRANCH  12  19
BRANCH  15  24
ATOM     24  C   UNL     1       1.195  -2.556  -3.295  1.00  0.00     0.045 A 
ATOM     25  C   UNL     1       1.194  -3.865  -2.788  1.00  0.00     0.026 A 
ATOM     26  C   UNL     1      -0.048  -1.908  -3.380  1.00  0.00     0.026 A 
ATOM     27  C   UNL     1       0.011  -4.503  -2.397  1.00  0.00     0.002 A 
ATOM     28  C   UNL     1      -1.235  -2.548  -3.000  1.00  0.00     0.002 A 
ATOM     29  C   UNL     1      -1.206  -3.846  -2.508  1.00  0.00     0.000 A 
ENDBRANCH  15  24
ENDBRANCH   6  11
ENDBRANCH   3   5
ENDBRANCH   2   3
ENDBRANCH   1   2
BRANCH   1  30
ATOM     30  C   UNL     1       2.211  -4.737 -11.025  1.00  0.00     0.275 C 
BRANCH  30  31
ATOM     31  O   UNL     1       3.382  -5.552 -11.158  1.00  0.00    -0.458 OA
BRANCH  31  32
ATOM     32  C   UNL     1       3.845  -5.737 -12.413  1.00  0.00     0.338 C 
ATOM     33  O   UNL     1       3.350  -5.289 -13.434  1.00  0.00    -0.246 OA
BRANCH  32  34
ATOM     34  C   UNL     1       5.042  -6.619 -12.365  1.00  0.00     0.060 A 
ATOM     35  C   UNL     1       5.785  -6.789 -11.188  1.00  0.00     0.016 A 
ATOM     36  C   UNL     1       5.424  -7.295 -13.527  1.00  0.00     0.016 A 
ATOM     37  C   UNL     1       6.894  -7.638 -11.170  1.00  0.00     0.010 A 
ATOM     38  C   UNL     1       6.522  -8.160 -13.504  1.00  0.00     0.010 A 
ATOM     39  C   UNL     1       7.263  -8.338 -12.325  1.00  0.00    -0.014 A 
BRANCH  39  40
ATOM     40  C   UNL     1       8.425  -9.258 -12.311  1.00  0.00     0.031 A 
ATOM     41  C   UNL     1       9.703  -8.866 -12.992  1.00  0.00     0.074 A 
ATOM     42  C   UNL     1       8.327 -10.457 -11.707  1.00  0.00     0.049 A 
ATOM     43  N   UNL     1      10.770  -9.588 -13.218  1.00  0.00    -0.248 NA
ATOM     44  C   UNL     1       9.789  -7.484 -13.489  1.00  0.00     0.031 C 
ATOM     45  C   UNL     1       7.151 -10.955 -10.991  1.00  0.00     0.029 A 
ATOM     46  N   UNL     1       9.237 -11.478 -11.607  1.00  0.00    -0.354 N 
ATOM     47  C   UNL     1      11.636  -8.768 -13.928  1.00  0.00     0.074 A 
ATOM     48  C   UNL     1      10.981  -7.483 -14.069  1.00  0.00     0.031 C 
ATOM     49  C   UNL     1       7.415 -12.185 -10.518  1.00  0.00     0.029 A 
ATOM     50  C   UNL     1       8.762 -12.573 -10.926  1.00  0.00     0.049 A 
ATOM     51  H   UNL     1      10.144 -11.431 -11.987  1.00  0.00     0.167 HD
ATOM     52  C   UNL     1      12.857  -9.062 -14.433  1.00  0.00     0.031 A 
ATOM     53  C   UNL     1       9.338 -13.764 -10.678  1.00  0.00     0.031 A 
ATOM     54  C   UNL     1      13.522 -10.326 -14.279  1.00  0.00     0.049 A 
ATOM     55  C   UNL     1      10.712 -14.052 -11.209  1.00  0.00     0.074 A 
ATOM     56  C   UNL     1      14.747 -10.725 -14.785  1.00  0.00     0.029 A 
ATOM     57  N   UNL     1      13.024 -11.392 -13.549  1.00  0.00    -0.354 N 
ATOM     58  N   UNL     1      11.492 -13.284 -11.930  1.00  0.00    -0.248 NA
ATOM     59  C   UNL     1      11.276 -15.375 -10.904  1.00  0.00     0.031 C 
ATOM     60  C   UNL     1      14.989 -12.038 -14.359  1.00  0.00     0.029 A 
ATOM     61  C   UNL     1      13.918 -12.448 -13.581  1.00  0.00     0.049 A 
ATOM     62  H   UNL     1      12.160 -11.398 -13.076  1.00  0.00     0.167 HD
ATOM     63  C   UNL     1      12.632 -14.037 -12.181  1.00  0.00     0.074 A 
ATOM     64  C   UNL     1      12.453 -15.310 -11.514  1.00  0.00     0.031 C 
ATOM     65  C   UNL     1      13.723 -13.706 -12.913  1.00  0.00     0.031 A 
BRANCH  52  66
ATOM     66  C   UNL     1      13.523  -7.991 -15.245  1.00  0.00    -0.014 A 
ATOM     67  C   UNL     1      14.292  -6.991 -14.627  1.00  0.00     0.010 A 
ATOM     68  C   UNL     1      13.364  -7.981 -16.642  1.00  0.00     0.010 A 
ATOM     69  C   UNL     1      14.863  -5.971 -15.393  1.00  0.00     0.020 A 
ATOM     70  C   UNL     1      13.939  -6.967 -17.410  1.00  0.00     0.020 A 
ATOM     71  C   UNL     1      14.668  -5.957 -16.778  1.00  0.00     0.054 A 
BRANCH  71  72
ATOM     72  S   UNL     1      15.398  -4.624 -17.770  1.00  0.00     0.124 S 
ATOM     73  O   UNL     1      14.342  -3.615 -17.737  1.00  0.00    -0.237 OA
ATOM     74  O   UNL     1      16.612  -4.284 -17.031  1.00  0.00    -0.237 OA
ATOM     75  O   UNL     1      15.622  -5.254 -19.069  1.00  0.00    -0.744 OA
ENDBRANCH  71  72
ENDBRANCH  52  66
BRANCH  53  76
ATOM     76  C   UNL     1       8.595 -14.790  -9.909  1.00  0.00    -0.014 A 
ATOM     77  C   UNL     1       8.819 -14.940  -8.530  1.00  0.00     0.010 A 
ATOM     78  C   UNL     1       7.642 -15.602 -10.548  1.00  0.00     0.010 A 
ATOM     79  C   UNL     1       8.102 -15.890  -7.798  1.00  0.00     0.020 A 
ATOM     80  C   UNL     1       6.917 -16.546  -9.817  1.00  0.00     0.020 A 
ATOM     81  C   UNL     1       7.157 -16.690  -8.448  1.00  0.00     0.054 A 
BRANCH  81  82
ATOM     82  S   UNL     1       6.172 -17.881  -7.497  1.00  0.00     0.124 S 
ATOM     83  O   UNL     1       6.911 -19.122  -7.709  1.00  0.00    -0.237 OA
ATOM     84  O   UNL     1       6.218 -17.345  -6.138  1.00  0.00    -0.237 OA
ATOM     85  O   UNL     1       4.862 -17.808  -8.141  1.00  0.00    -0.744 OA
ENDBRANCH  81  82
ENDBRANCH  53  76
BRANCH  65  86
ATOM     86  C   UNL     1      14.799 -14.744 -13.035  1.00  0.00    -0.014 A 
ATOM     87  C   UNL     1      14.718 -15.734 -14.030  1.00  0.00     0.010 A 
ATOM     88  C   UNL     1      15.914 -14.710 -12.180  1.00  0.00     0.010 A 
ATOM     89  C   UNL     1      15.730 -16.688 -14.159  1.00  0.00     0.020 A 
ATOM     90  C   UNL     1      16.930 -15.660 -12.310  1.00  0.00     0.020 A 
ATOM     91  C   UNL     1      16.826 -16.651 -13.292  1.00  0.00     0.054 A 
BRANCH  91  92
ATOM     92  S   UNL     1      18.160 -17.865 -13.487  1.00  0.00     0.124 S 
ATOM     93  O   UNL     1      17.704 -18.956 -12.630  1.00  0.00    -0.237 OA
ATOM     94  O   UNL     1      18.149 -18.147 -14.921  1.00  0.00    -0.237 OA
ATOM     95  O   UNL     1      19.341 -17.147 -13.012  1.00  0.00    -0.744 OA
ENDBRANCH  91  92
ENDBRANCH  65  86
ENDBRANCH  39  40
ENDBRANCH  32  34
ENDBRANCH  31  32
ENDBRANCH  30  31
ENDBRANCH   1  30
TORSDOF 19
