REMARK SMILES O=C(OCCOC(=O)[C@@H]1CC[C@@H](CNC(=O)c2ccno2)O1)c1ccc(-c2c3nc(c(-c4ccc(S(=O)(=O)[O-])cc4)c4ccc([nH]4)c(-c4ccc(S(=O)(=O)[O-])cc4)c4nc(c(-c5ccc(S(=O)(=O)[O-])cc5)c5ccc2[nH]5)C=C4)C=C3)cc1
REMARK SMILES IDX 4 1 3 2 2 3 1 4 23 5 24 6 82 7 25 8 81 9 26 10 27 11 28 12
REMARK SMILES IDX 75 13 29 14 80 15 74 16 76 17 30 18 79 19 73 20 72 21 31 23
REMARK SMILES IDX 61 24 42 25 60 26 43 27 46 28 59 29 77 30 44 31 45 32 58 34
REMARK SMILES IDX 78 35 47 36 32 37 33 38 41 39 34 40 40 41 35 42 36 43 37 44
REMARK SMILES IDX 38 45 39 46 62 47 63 48 71 49 64 50 70 51 65 52 66 53 67 54
REMARK SMILES IDX 68 55 69 56 48 57 49 58 57 59 50 60 56 61 51 62 52 63 53 64
REMARK SMILES IDX 54 65 55 66 5 67 6 68 7 69 8 70 9 71 10 72 22 73 11 74 12 75
REMARK SMILES IDX 13 76 14 77 15 78 16 80 17 81 18 82 21 83 19 84 20 85
REMARK H PARENT 76 22 46 33 14 79
REMARK Flexibility Score: inf
ROOT
ATOM      1  C   UNL     1       4.200   0.532  -1.577  1.00  0.00     0.275 C 
ENDROOT
BRANCH   1   2
ATOM      2  O   UNL     1       3.200  -0.461  -1.288  1.00  0.00    -0.458 OA
BRANCH   2   3
ATOM      3  C   UNL     1       3.124  -1.341  -0.261  1.00  0.00     0.338 C 
ATOM      4  O   UNL     1       2.350  -2.291  -0.369  1.00  0.00    -0.246 OA
BRANCH   3   5
ATOM      5  C   UNL     1       3.786  -1.137   1.072  1.00  0.00     0.060 A 
ATOM      6  C   UNL     1       4.938  -0.392   1.329  1.00  0.00     0.016 A 
ATOM      7  C   UNL     1       3.142  -1.735   2.175  1.00  0.00     0.016 A 
ATOM      8  C   UNL     1       5.385  -0.177   2.637  1.00  0.00     0.010 A 
ATOM      9  C   UNL     1       3.557  -1.491   3.487  1.00  0.00     0.010 A 
ATOM     10  C   UNL     1       4.695  -0.716   3.723  1.00  0.00    -0.014 A 
BRANCH  10  11
ATOM     11  C   UNL     1       5.289  -0.627   5.075  1.00  0.00     0.031 A 
ATOM     12  C   UNL     1       5.942  -1.861   5.633  1.00  0.00     0.074 A 
ATOM     13  C   UNL     1       5.308   0.539   5.749  1.00  0.00     0.049 A 
ATOM     14  N   UNL     1       6.577  -2.023   6.763  1.00  0.00    -0.248 NA
ATOM     15  C   UNL     1       5.867  -3.078   4.805  1.00  0.00     0.031 C 
ATOM     16  C   UNL     1       4.736   1.804   5.280  1.00  0.00     0.029 A 
ATOM     17  N   UNL     1       5.855   0.856   6.967  1.00  0.00    -0.354 N 
ATOM     18  C   UNL     1       6.969  -3.357   6.780  1.00  0.00     0.074 A 
ATOM     19  C   UNL     1       6.450  -3.974   5.583  1.00  0.00     0.031 C 
ATOM     20  C   UNL     1       4.987   2.765   6.188  1.00  0.00     0.029 A 
ATOM     21  C   UNL     1       5.717   2.181   7.311  1.00  0.00     0.049 A 
ATOM     22  H   UNL     1       6.305   0.195   7.542  1.00  0.00     0.167 HD
ATOM     23  C   UNL     1       7.722  -4.006   7.696  1.00  0.00     0.031 A 
ATOM     24  C   UNL     1       6.146   2.843   8.405  1.00  0.00     0.031 A 
ATOM     25  C   UNL     1       8.236  -3.384   8.882  1.00  0.00     0.049 A 
ATOM     26  C   UNL     1       6.936   2.081   9.443  1.00  0.00     0.074 A 
ATOM     27  C   UNL     1       8.997  -3.944   9.890  1.00  0.00     0.029 A 
ATOM     28  N   UNL     1       8.038  -2.051   9.213  1.00  0.00    -0.354 N 
ATOM     29  N   UNL     1       7.317   0.824   9.431  1.00  0.00    -0.248 NA
ATOM     30  C   UNL     1       7.365   2.828  10.634  1.00  0.00     0.031 C 
ATOM     31  C   UNL     1       9.223  -2.957  10.855  1.00  0.00     0.029 A 
ATOM     32  C   UNL     1       8.650  -1.771  10.419  1.00  0.00     0.049 A 
ATOM     33  H   UNL     1       7.536  -1.402   8.669  1.00  0.00     0.167 HD
ATOM     34  C   UNL     1       8.057   0.640  10.596  1.00  0.00     0.074 A 
ATOM     35  C   UNL     1       8.081   1.917  11.280  1.00  0.00     0.031 C 
ATOM     36  C   UNL     1       8.664  -0.481  11.062  1.00  0.00     0.031 A 
BRANCH  23  37
ATOM     37  C   UNL     1       7.994  -5.463   7.442  1.00  0.00    -0.014 A 
ATOM     38  C   UNL     1       8.842  -5.871   6.394  1.00  0.00     0.010 A 
ATOM     39  C   UNL     1       7.359  -6.440   8.228  1.00  0.00     0.010 A 
ATOM     40  C   UNL     1       8.999  -7.227   6.098  1.00  0.00     0.020 A 
ATOM     41  C   UNL     1       7.537  -7.798   7.954  1.00  0.00     0.020 A 
ATOM     42  C   UNL     1       8.336  -8.182   6.874  1.00  0.00     0.054 A 
BRANCH  42  43
ATOM     43  S   UNL     1       8.540  -9.934   6.456  1.00  0.00     0.124 S 
ATOM     44  O   UNL     1       7.732 -10.048   5.244  1.00  0.00    -0.237 OA
ATOM     45  O   UNL     1       9.983 -10.052   6.262  1.00  0.00    -0.237 OA
ATOM     46  O   UNL     1       8.011 -10.633   7.625  1.00  0.00    -0.744 OA
ENDBRANCH  42  43
ENDBRANCH  23  37
BRANCH  24  47
ATOM     47  C   UNL     1       5.853   4.295   8.583  1.00  0.00    -0.014 A 
ATOM     48  C   UNL     1       6.889   5.248   8.577  1.00  0.00     0.010 A 
ATOM     49  C   UNL     1       4.533   4.734   8.796  1.00  0.00     0.010 A 
ATOM     50  C   UNL     1       6.616   6.600   8.820  1.00  0.00     0.020 A 
ATOM     51  C   UNL     1       4.252   6.088   9.010  1.00  0.00     0.020 A 
ATOM     52  C   UNL     1       5.299   7.010   9.042  1.00  0.00     0.054 A 
BRANCH  52  53
ATOM     53  S   UNL     1       4.972   8.766   9.371  1.00  0.00     0.124 S 
ATOM     54  O   UNL     1       5.541   8.933  10.706  1.00  0.00    -0.237 OA
ATOM     55  O   UNL     1       5.694   9.431   8.290  1.00  0.00    -0.237 OA
ATOM     56  O   UNL     1       3.516   8.864   9.300  1.00  0.00    -0.744 OA
ENDBRANCH  52  53
ENDBRANCH  24  47
BRANCH  36  57
ATOM     57  C   UNL     1       9.435  -0.371  12.349  1.00  0.00    -0.014 A 
ATOM     58  C   UNL     1       8.776  -0.263  13.585  1.00  0.00     0.010 A 
ATOM     59  C   UNL     1      10.838  -0.474  12.323  1.00  0.00     0.010 A 
ATOM     60  C   UNL     1       9.509  -0.241  14.774  1.00  0.00     0.020 A 
ATOM     61  C   UNL     1      11.572  -0.481  13.510  1.00  0.00     0.020 A 
ATOM     62  C   UNL     1      10.902  -0.355  14.728  1.00  0.00     0.054 A 
BRANCH  62  63
ATOM     63  S   UNL     1      11.825  -0.397  16.289  1.00  0.00     0.124 S 
ATOM     64  O   UNL     1      11.768   0.999  16.713  1.00  0.00    -0.237 OA
ATOM     65  O   UNL     1      11.046  -1.333  17.096  1.00  0.00    -0.237 OA
ATOM     66  O   UNL     1      13.149  -0.876  15.896  1.00  0.00    -0.744 OA
ENDBRANCH  62  63
ENDBRANCH  36  57
ENDBRANCH  10  11
ENDBRANCH   3   5
ENDBRANCH   2   3
ENDBRANCH   1   2
BRANCH   1  67
ATOM     67  C   UNL     1       3.844   1.921  -1.042  1.00  0.00     0.274 C 
BRANCH  67  68
ATOM     68  O   UNL     1       3.385   1.864   0.316  1.00  0.00    -0.460 OA
BRANCH  68  69
ATOM     69  C   UNL     1       2.059   2.117   0.535  1.00  0.00     0.335 C 
ATOM     70  O   UNL     1       1.257   2.455  -0.326  1.00  0.00    -0.249 OA
BRANCH  69  71
ATOM     71  C   UNL     1       1.707   1.829   2.000  1.00  0.00     0.228 C 
ATOM     72  C   UNL     1       0.715   0.679   2.088  1.00  0.00     0.047 C 
ATOM     73  O   UNL     1       1.097   2.901   2.729  1.00  0.00    -0.361 OA
ATOM     74  C   UNL     1       0.190   0.854   3.486  1.00  0.00     0.037 C 
ATOM     75  C   UNL     1       0.020   2.362   3.529  1.00  0.00     0.138 C 
BRANCH  75  76
ATOM     76  C   UNL     1      -0.010   2.913   4.967  1.00  0.00     0.148 C 
BRANCH  76  77
ATOM     77  N   UNL     1       1.014   3.907   5.225  1.00  0.00    -0.347 N 
ATOM     78  C   UNL     1       0.963   5.259   4.963  1.00  0.00     0.289 C 
ATOM     79  H   UNL     1       1.844   3.577   5.637  1.00  0.00     0.164 HD
ATOM     80  O   UNL     1       2.032   5.847   4.819  1.00  0.00    -0.266 OA
BRANCH  78  81
ATOM     81  C   UNL     1      -0.325   5.901   4.876  1.00  0.00     0.224 A 
ATOM     82  C   UNL     1      -1.487   5.797   5.610  1.00  0.00     0.079 A 
ATOM     83  O   UNL     1      -0.503   6.853   3.914  1.00  0.00    -0.351 OA
ATOM     84  C   UNL     1      -2.370   6.698   4.997  1.00  0.00     0.159 A 
ATOM     85  N   UNL     1      -1.808   7.329   3.965  1.00  0.00    -0.088 NA
ENDBRANCH  78  81
ENDBRANCH  76  77
ENDBRANCH  75  76
ENDBRANCH  69  71
ENDBRANCH  68  69
ENDBRANCH  67  68
ENDBRANCH   1  67
TORSDOF 17
