REMARK SMILES COc1ccc([C@H]2CC(c3ccc(S(C)(=O)=O)cc3)=NN2c2ccc(C(=O)OCCOC(=O)c3ccc(-c4c5nc(c(-c6ccc(S(=O)(=O)[O-])cc6)c6ccc([nH]6)c(-c6ccc(S(=O)(=O)[O-])cc6)c6nc(c(-c7ccc(S(=O)(=O)[O-])cc7)c7ccc4[nH]7)C=C6)C=C5)cc3)cc2)cc1
REMARK SMILES IDX 29 1 28 2 26 3 27 4 25 5 22 6 23 7 95 8 24 9 94 10 21 11
REMARK SMILES IDX 7 12 8 13 9 14 20 15 6 16 3 17 4 18 97 19 5 20 96 21 2 22
REMARK SMILES IDX 1 23 10 24 11 25 19 26 12 27 18 28 13 29 14 30 15 31 16 32
REMARK SMILES IDX 17 33 30 34 31 35 32 36 33 37 34 38 35 39 93 40 36 41 92 42
REMARK SMILES IDX 37 43 38 44 39 45 86 46 40 47 91 48 85 49 87 50 41 51 90 52
REMARK SMILES IDX 84 53 83 54 42 56 72 57 53 58 71 59 54 60 57 61 70 62 88 63
REMARK SMILES IDX 55 64 56 65 69 67 89 68 58 69 43 70 44 71 52 72 45 73 51 74
REMARK SMILES IDX 46 75 47 76 48 77 49 78 50 79 73 80 74 81 82 82 75 83 81 84
REMARK SMILES IDX 76 85 77 86 78 87 79 88 80 89 59 90 60 91 68 92 61 93 67 94
REMARK SMILES IDX 62 95 63 96 64 97 65 98 66 99
REMARK H PARENT 87 55 57 66
REMARK Flexibility Score: inf
ROOT
ATOM      1  C   UNL     1       2.328  10.703  -3.137  1.00  0.00     0.275 C 
ENDROOT
BRANCH   1   2
ATOM      2  O   UNL     1       2.376  10.137  -1.810  1.00  0.00    -0.458 OA
BRANCH   2   3
ATOM      3  C   UNL     1       2.699   8.822  -1.760  1.00  0.00     0.338 C 
ATOM      4  O   UNL     1       2.937   8.097  -2.714  1.00  0.00    -0.246 OA
BRANCH   3   5
ATOM      5  C   UNL     1       2.794   8.342  -0.365  1.00  0.00     0.060 A 
ATOM      6  C   UNL     1       2.946   7.129   2.175  1.00  0.00     0.060 A 
ATOM      7  C   UNL     1       4.010   7.043   1.276  1.00  0.00     0.029 A 
ATOM      8  C   UNL     1       1.818   7.875   1.796  1.00  0.00     0.029 A 
ATOM      9  C   UNL     1       3.917   7.604   0.009  1.00  0.00     0.018 A 
ATOM     10  C   UNL     1       1.746   8.502   0.541  1.00  0.00     0.018 A 
BRANCH   6  11
ATOM     11  N   UNL     1       3.024   6.455   3.383  1.00  0.00    -0.257 N 
ATOM     12  C   UNL     1       2.046   5.473   3.847  1.00  0.00     0.144 C 
ATOM     13  C   UNL     1       2.731   4.873   5.085  1.00  0.00     0.091 C 
ATOM     14  C   UNL     1       4.041   5.607   5.050  1.00  0.00     0.071 C 
ATOM     15  N   UNL     1       4.184   6.467   4.094  1.00  0.00    -0.176 NA
BRANCH  12  16
ATOM     16  C   UNL     1       1.690   4.421   2.804  1.00  0.00    -0.023 A 
ATOM     17  C   UNL     1       0.928   2.420   0.956  1.00  0.00     0.118 A 
ATOM     18  C   UNL     1       0.017   3.394   1.363  1.00  0.00     0.047 A 
ATOM     19  C   UNL     1       2.238   2.477   1.426  1.00  0.00     0.047 A 
ATOM     20  C   UNL     1       0.388   4.380   2.281  1.00  0.00     0.010 A 
ATOM     21  C   UNL     1       2.618   3.476   2.334  1.00  0.00     0.010 A 
BRANCH  17  22
ATOM     22  O   UNL     1       0.432   1.497   0.077  1.00  0.00    -0.497 OA
ATOM     23  C   UNL     1       1.110   0.245   0.035  1.00  0.00     0.278 C 
ENDBRANCH  17  22
ENDBRANCH  12  16
BRANCH  14  24
ATOM     24  C   UNL     1       5.050   5.410   6.099  1.00  0.00    -0.002 A 
ATOM     25  C   UNL     1       5.529   6.541   6.771  1.00  0.00     0.011 A 
ATOM     26  C   UNL     1       5.492   4.131   6.444  1.00  0.00     0.011 A 
ATOM     27  C   UNL     1       6.428   6.391   7.826  1.00  0.00     0.021 A 
ATOM     28  C   UNL     1       6.414   3.981   7.483  1.00  0.00     0.021 A 
ATOM     29  C   UNL     1       6.868   5.110   8.175  1.00  0.00     0.067 A 
BRANCH  29  30
ATOM     30  S   UNL     1       7.963   4.926   9.565  1.00  0.00     0.175 S 
ATOM     31  C   UNL     1       9.440   5.781   9.084  1.00  0.00     0.163 C 
ATOM     32  O   UNL     1       7.351   5.644  10.668  1.00  0.00    -0.224 OA
ATOM     33  O   UNL     1       8.281   3.516   9.688  1.00  0.00    -0.224 OA
ENDBRANCH  29  30
ENDBRANCH  14  24
ENDBRANCH   6  11
ENDBRANCH   3   5
ENDBRANCH   2   3
ENDBRANCH   1   2
BRANCH   1  34
ATOM     34  C   UNL     1       3.606  11.468  -3.481  1.00  0.00     0.275 C 
BRANCH  34  35
ATOM     35  O   UNL     1       4.724  10.569  -3.596  1.00  0.00    -0.458 OA
BRANCH  35  36
ATOM     36  C   UNL     1       5.653  10.680  -2.620  1.00  0.00     0.338 C 
ATOM     37  O   UNL     1       5.660  11.473  -1.694  1.00  0.00    -0.246 OA
BRANCH  36  38
ATOM     38  C   UNL     1       6.693   9.652  -2.778  1.00  0.00     0.060 A 
ATOM     39  C   UNL     1       6.362   8.328  -2.526  1.00  0.00     0.016 A 
ATOM     40  C   UNL     1       8.025  10.010  -2.964  1.00  0.00     0.016 A 
ATOM     41  C   UNL     1       7.362   7.394  -2.273  1.00  0.00     0.010 A 
ATOM     42  C   UNL     1       9.021   9.029  -2.874  1.00  0.00     0.010 A 
ATOM     43  C   UNL     1       8.712   7.718  -2.467  1.00  0.00    -0.014 A 
BRANCH  43  44
ATOM     44  C   UNL     1       9.782   6.699  -2.235  1.00  0.00     0.031 A 
ATOM     45  C   UNL     1      10.956   7.004  -1.333  1.00  0.00     0.074 A 
ATOM     46  C   UNL     1       9.717   5.493  -2.838  1.00  0.00     0.049 A 
ATOM     47  N   UNL     1      12.064   6.327  -1.159  1.00  0.00    -0.248 NA
ATOM     48  C   UNL     1      10.886   8.242  -0.540  1.00  0.00     0.031 C 
ATOM     49  C   UNL     1       8.634   5.036  -3.713  1.00  0.00     0.029 A 
ATOM     50  N   UNL     1      10.582   4.424  -2.807  1.00  0.00    -0.354 N 
ATOM     51  C   UNL     1      12.852   7.093  -0.304  1.00  0.00     0.074 A 
ATOM     52  C   UNL     1      12.094   8.287   0.005  1.00  0.00     0.031 C 
ATOM     53  C   UNL     1       8.873   3.775  -4.095  1.00  0.00     0.029 A 
ATOM     54  C   UNL     1      10.178   3.369  -3.591  1.00  0.00     0.049 A 
ATOM     55  H   UNL     1      11.409   4.415  -2.274  1.00  0.00     0.167 HD
ATOM     56  C   UNL     1      14.095   6.832   0.172  1.00  0.00     0.031 A 
ATOM     57  C   UNL     1      10.799   2.222  -3.929  1.00  0.00     0.031 A 
ATOM     58  C   UNL     1      14.825   5.620  -0.100  1.00  0.00     0.049 A 
ATOM     59  C   UNL     1      12.177   1.954  -3.402  1.00  0.00     0.074 A 
ATOM     60  C   UNL     1      16.070   5.240   0.373  1.00  0.00     0.029 A 
ATOM     61  N   UNL     1      14.377   4.587  -0.911  1.00  0.00    -0.354 N 
ATOM     62  N   UNL     1      12.914   2.702  -2.617  1.00  0.00    -0.248 NA
ATOM     63  C   UNL     1      12.811   0.696  -3.815  1.00  0.00     0.031 C 
ATOM     64  C   UNL     1      16.398   4.005  -0.197  1.00  0.00     0.029 A 
ATOM     65  C   UNL     1      15.331   3.584  -0.974  1.00  0.00     0.049 A 
ATOM     66  H   UNL     1      13.508   4.570  -1.375  1.00  0.00     0.167 HD
ATOM     67  C   UNL     1      14.100   2.002  -2.435  1.00  0.00     0.074 A 
ATOM     68  C   UNL     1      13.970   0.761  -3.174  1.00  0.00     0.031 C 
ATOM     69  C   UNL     1      15.197   2.358  -1.722  1.00  0.00     0.031 A 
BRANCH  56  70
ATOM     70  C   UNL     1      14.773   7.907   0.986  1.00  0.00    -0.014 A 
ATOM     71  C   UNL     1      14.339   8.251   2.279  1.00  0.00     0.010 A 
ATOM     72  C   UNL     1      15.885   8.580   0.442  1.00  0.00     0.010 A 
ATOM     73  C   UNL     1      14.963   9.287   2.984  1.00  0.00     0.020 A 
ATOM     74  C   UNL     1      16.531   9.594   1.155  1.00  0.00     0.020 A 
ATOM     75  C   UNL     1      16.048   9.959   2.412  1.00  0.00     0.054 A 
BRANCH  75  76
ATOM     76  S   UNL     1      16.829  11.308   3.341  1.00  0.00     0.124 S 
ATOM     77  O   UNL     1      15.841  12.376   3.207  1.00  0.00    -0.237 OA
ATOM     78  O   UNL     1      16.963  10.742   4.680  1.00  0.00    -0.237 OA
ATOM     79  O   UNL     1      18.088  11.534   2.634  1.00  0.00    -0.744 OA
ENDBRANCH  75  76
ENDBRANCH  56  70
BRANCH  57  80
ATOM     80  C   UNL     1      10.123   1.280  -4.864  1.00  0.00    -0.014 A 
ATOM     81  C   UNL     1       9.606   0.058  -4.405  1.00  0.00     0.010 A 
ATOM     82  C   UNL     1       9.922   1.647  -6.209  1.00  0.00     0.010 A 
ATOM     83  C   UNL     1       8.886  -0.773  -5.270  1.00  0.00     0.020 A 
ATOM     84  C   UNL     1       9.176   0.836  -7.066  1.00  0.00     0.020 A 
ATOM     85  C   UNL     1       8.665  -0.373  -6.591  1.00  0.00     0.054 A 
BRANCH  85  86
ATOM     86  S   UNL     1       7.636  -1.415  -7.663  1.00  0.00     0.124 S 
ATOM     87  O   UNL     1       8.535  -2.524  -7.962  1.00  0.00    -0.237 OA
ATOM     88  O   UNL     1       6.503  -1.734  -6.798  1.00  0.00    -0.237 OA
ATOM     89  O   UNL     1       7.321  -0.540  -8.790  1.00  0.00    -0.744 OA
ENDBRANCH  85  86
ENDBRANCH  57  80
BRANCH  69  90
ATOM     90  C   UNL     1      16.339   1.379  -1.684  1.00  0.00    -0.014 A 
ATOM     91  C   UNL     1      17.162   1.173  -2.806  1.00  0.00     0.010 A 
ATOM     92  C   UNL     1      16.619   0.688  -0.491  1.00  0.00     0.010 A 
ATOM     93  C   UNL     1      18.225   0.269  -2.744  1.00  0.00     0.020 A 
ATOM     94  C   UNL     1      17.698  -0.196  -0.417  1.00  0.00     0.020 A 
ATOM     95  C   UNL     1      18.486  -0.410  -1.549  1.00  0.00     0.054 A 
BRANCH  95  96
ATOM     96  S   UNL     1      19.897  -1.549  -1.481  1.00  0.00     0.124 S 
ATOM     97  O   UNL     1      19.405  -2.688  -2.251  1.00  0.00    -0.237 OA
ATOM     98  O   UNL     1      20.963  -0.776  -2.113  1.00  0.00    -0.237 OA
ATOM     99  O   UNL     1      20.075  -1.794  -0.052  1.00  0.00    -0.744 OA
ENDBRANCH  95  96
ENDBRANCH  69  90
ENDBRANCH  43  44
ENDBRANCH  36  38
ENDBRANCH  35  36
ENDBRANCH  34  35
ENDBRANCH   1  34
TORSDOF 19
