REMARK SMILES COc1cc(/C=N/c2cccc(F)c2)ccc1OCc1cccc(C(=O)OCCOC(=O)c2ccc(-c3c4nc(c(-c5ccc(S(=O)(=O)[O-])cc5)c5ccc([nH]5)c(-c5ccc(S(=O)(=O)[O-])cc5)c5nc(c(-c6ccc(S(=O)(=O)[O-])cc6)c6ccc3[nH]6)C=C5)C=C4)cc2)c1
REMARK SMILES IDX 28 1 27 2 25 3 26 4 24 5 20 6 21 7 93 8 22 9 23 10 19 11
REMARK SMILES IDX 18 12 17 13 3 14 4 15 5 16 16 17 15 18 2 19 1 20 6 21 7 22
REMARK SMILES IDX 8 23 9 24 14 25 10 26 12 27 11 28 13 29 29 30 30 31 31 32
REMARK SMILES IDX 32 33 33 34 34 35 92 36 35 37 91 38 36 39 37 40 38 41 85 42
REMARK SMILES IDX 39 43 90 44 84 45 86 46 40 47 89 48 83 49 82 50 41 52 71 53
REMARK SMILES IDX 52 54 70 55 53 56 56 57 69 58 87 59 54 60 55 61 68 63 88 64
REMARK SMILES IDX 57 65 42 66 43 67 51 68 44 69 50 70 45 71 46 72 47 73 48 74
REMARK SMILES IDX 49 75 72 76 73 77 81 78 74 79 80 80 75 81 76 82 77 83 78 84
REMARK SMILES IDX 79 85 58 86 59 87 67 88 60 89 66 90 61 91 62 92 63 93 64 94
REMARK SMILES IDX 65 95
REMARK H PARENT 86 51 56 62
REMARK Flexibility Score: inf
ROOT
ATOM      1  C   UNL     1       2.784  -6.642   0.278  1.00  0.00     0.275 C 
ENDROOT
BRANCH   1   2
ATOM      2  O   UNL     1       2.582  -5.216   0.238  1.00  0.00    -0.458 OA
BRANCH   2   3
ATOM      3  C   UNL     1       1.645  -4.803  -0.652  1.00  0.00     0.338 C 
ATOM      4  O   UNL     1       1.013  -5.522  -1.402  1.00  0.00    -0.246 OA
BRANCH   3   5
ATOM      5  C   UNL     1       1.439  -3.331  -0.612  1.00  0.00     0.060 A 
ATOM      6  C   UNL     1       2.190  -1.053  -0.237  1.00  0.00    -0.010 A 
ATOM      7  C   UNL     1       1.042  -0.597  -0.902  1.00  0.00     0.007 A 
ATOM      8  C   UNL     1       2.387  -2.436  -0.097  1.00  0.00     0.023 A 
ATOM      9  C   UNL     1       0.052  -1.473  -1.324  1.00  0.00     0.001 A 
ATOM     10  C   UNL     1       0.262  -2.837  -1.197  1.00  0.00     0.016 A 
BRANCH   6  11
ATOM     11  C   UNL     1       3.197  -0.049   0.282  1.00  0.00     0.265 C 
BRANCH  11  12
ATOM     12  O   UNL     1       3.398  -0.098   1.696  1.00  0.00    -0.485 OA
BRANCH  12  13
ATOM     13  C   UNL     1       2.398   0.281   2.554  1.00  0.00     0.161 A 
ATOM     14  C   UNL     1       1.310   1.134   2.308  1.00  0.00     0.161 A 
ATOM     15  C   UNL     1       0.371   1.359   3.328  1.00  0.00     0.060 A 
ATOM     16  C   UNL     1       0.527   0.780   4.592  1.00  0.00    -0.003 A 
ATOM     17  C   UNL     1       2.555  -0.270   3.838  1.00  0.00     0.051 A 
ATOM     18  C   UNL     1       1.632  -0.022   4.858  1.00  0.00     0.014 A 
BRANCH  14  19
ATOM     19  O   UNL     1       1.248   1.822   1.124  1.00  0.00    -0.493 OA
ATOM     20  C   UNL     1      -0.063   2.127   0.650  1.00  0.00     0.278 C 
ENDBRANCH  14  19
BRANCH  16  21
ATOM     21  C   UNL     1      -0.440   1.088   5.670  1.00  0.00     0.120 C 
ATOM     22  N   UNL     1      -1.511   1.772   5.422  1.00  0.00    -0.256 NA
BRANCH  22  23
ATOM     23  C   UNL     1      -2.336   2.140   6.495  1.00  0.00     0.066 A 
ATOM     24  C   UNL     1      -3.668   1.713   6.532  1.00  0.00     0.028 A 
ATOM     25  C   UNL     1      -1.892   3.055   7.452  1.00  0.00     0.067 A 
ATOM     26  C   UNL     1      -4.547   2.196   7.509  1.00  0.00     0.005 A 
ATOM     27  C   UNL     1      -2.771   3.533   8.418  1.00  0.00     0.125 A 
ATOM     28  C   UNL     1      -4.096   3.118   8.452  1.00  0.00     0.039 A 
ATOM     29  F   UNL     1      -2.335   4.432   9.312  1.00  0.00    -0.207 F 
ENDBRANCH  22  23
ENDBRANCH  16  21
ENDBRANCH  12  13
ENDBRANCH  11  12
ENDBRANCH   6  11
ENDBRANCH   3   5
ENDBRANCH   2   3
ENDBRANCH   1   2
BRANCH   1  30
ATOM     30  C   UNL     1       2.011  -7.290   1.428  1.00  0.00     0.275 C 
BRANCH  30  31
ATOM     31  O   UNL     1       0.587  -7.235   1.212  1.00  0.00    -0.458 OA
BRANCH  31  32
ATOM     32  C   UNL     1      -0.053  -6.257   1.891  1.00  0.00     0.338 C 
ATOM     33  O   UNL     1       0.442  -5.453   2.667  1.00  0.00    -0.246 OA
BRANCH  32  34
ATOM     34  C   UNL     1      -1.474  -6.205   1.521  1.00  0.00     0.060 A 
ATOM     35  C   UNL     1      -1.834  -5.406   0.442  1.00  0.00     0.016 A 
ATOM     36  C   UNL     1      -2.459  -6.748   2.341  1.00  0.00     0.016 A 
ATOM     37  C   UNL     1      -3.163  -5.054   0.236  1.00  0.00     0.010 A 
ATOM     38  C   UNL     1      -3.809  -6.485   2.062  1.00  0.00     0.010 A 
ATOM     39  C   UNL     1      -4.180  -5.602   1.029  1.00  0.00    -0.014 A 
BRANCH  39  40
ATOM     40  C   UNL     1      -5.609  -5.227   0.793  1.00  0.00     0.031 A 
ATOM     41  C   UNL     1      -6.454  -4.678   1.920  1.00  0.00     0.074 A 
ATOM     42  C   UNL     1      -6.160  -5.364  -0.432  1.00  0.00     0.049 A 
ATOM     43  N   UNL     1      -7.747  -4.473   1.961  1.00  0.00    -0.248 NA
ATOM     44  C   UNL     1      -5.757  -4.333   3.169  1.00  0.00     0.031 C 
ATOM     45  C   UNL     1      -5.460  -5.822  -1.635  1.00  0.00     0.029 A 
ATOM     46  N   UNL     1      -7.439  -5.122  -0.875  1.00  0.00    -0.354 N 
ATOM     47  C   UNL     1      -8.026  -4.045   3.256  1.00  0.00     0.074 A 
ATOM     48  C   UNL     1      -6.768  -4.026   3.970  1.00  0.00     0.031 C 
ATOM     49  C   UNL     1      -6.296  -5.776  -2.682  1.00  0.00     0.029 A 
ATOM     50  C   UNL     1      -7.623  -5.403  -2.210  1.00  0.00     0.049 A 
ATOM     51  H   UNL     1      -8.156  -4.780  -0.293  1.00  0.00     0.167 HD
ATOM     52  C   UNL     1      -9.221  -3.705   3.801  1.00  0.00     0.031 A 
ATOM     53  C   UNL     1      -8.736  -5.418  -2.969  1.00  0.00     0.031 A 
ATOM     54  C   UNL     1     -10.464  -3.688   3.071  1.00  0.00     0.049 A 
ATOM     55  C   UNL     1     -10.057  -5.097  -2.333  1.00  0.00     0.074 A 
ATOM     56  C   UNL     1     -11.724  -3.336   3.526  1.00  0.00     0.029 A 
ATOM     57  N   UNL     1     -10.606  -4.029   1.734  1.00  0.00    -0.354 N 
ATOM     58  N   UNL     1     -10.309  -4.742  -1.096  1.00  0.00    -0.248 NA
ATOM     59  C   UNL     1     -11.245  -5.196  -3.189  1.00  0.00     0.031 C 
ATOM     60  C   UNL     1     -12.636  -3.526   2.482  1.00  0.00     0.029 A 
ATOM     61  C   UNL     1     -11.935  -3.924   1.355  1.00  0.00     0.049 A 
ATOM     62  H   UNL     1      -9.870  -4.305   1.141  1.00  0.00     0.167 HD
ATOM     63  C   UNL     1     -11.684  -4.553  -1.031  1.00  0.00     0.074 A 
ATOM     64  C   UNL     1     -12.205  -4.816  -2.357  1.00  0.00     0.031 C 
ATOM     65  C   UNL     1     -12.444  -4.193   0.033  1.00  0.00     0.031 A 
BRANCH  52  66
ATOM     66  C   UNL     1      -9.254  -3.380   5.276  1.00  0.00    -0.014 A 
ATOM     67  C   UNL     1      -8.658  -2.218   5.798  1.00  0.00     0.010 A 
ATOM     68  C   UNL     1      -9.921  -4.254   6.156  1.00  0.00     0.010 A 
ATOM     69  C   UNL     1      -8.679  -1.967   7.174  1.00  0.00     0.020 A 
ATOM     70  C   UNL     1      -9.975  -3.990   7.528  1.00  0.00     0.020 A 
ATOM     71  C   UNL     1      -9.333  -2.858   8.031  1.00  0.00     0.054 A 
BRANCH  71  72
ATOM     72  S   UNL     1      -9.341  -2.509   9.811  1.00  0.00     0.124 S 
ATOM     73  O   UNL     1      -7.955  -2.788  10.179  1.00  0.00    -0.237 OA
ATOM     74  O   UNL     1      -9.730  -1.101   9.859  1.00  0.00    -0.237 OA
ATOM     75  O   UNL     1     -10.328  -3.444  10.345  1.00  0.00    -0.744 OA
ENDBRANCH  71  72
ENDBRANCH  52  66
BRANCH  53  76
ATOM     76  C   UNL     1      -8.645  -5.799  -4.407  1.00  0.00    -0.014 A 
ATOM     77  C   UNL     1      -8.883  -4.849  -5.415  1.00  0.00     0.010 A 
ATOM     78  C   UNL     1      -8.281  -7.109  -4.777  1.00  0.00     0.010 A 
ATOM     79  C   UNL     1      -8.758  -5.201  -6.763  1.00  0.00     0.020 A 
ATOM     80  C   UNL     1      -8.121  -7.455  -6.121  1.00  0.00     0.020 A 
ATOM     81  C   UNL     1      -8.368  -6.499  -7.107  1.00  0.00     0.054 A 
BRANCH  81  82
ATOM     82  S   UNL     1      -8.139  -6.908  -8.859  1.00  0.00     0.124 S 
ATOM     83  O   UNL     1      -9.514  -6.933  -9.348  1.00  0.00    -0.237 OA
ATOM     84  O   UNL     1      -7.317  -5.798  -9.336  1.00  0.00    -0.237 OA
ATOM     85  O   UNL     1      -7.464  -8.203  -8.823  1.00  0.00    -0.744 OA
ENDBRANCH  81  82
ENDBRANCH  53  76
BRANCH  65  86
ATOM     86  C   UNL     1     -13.921  -4.019  -0.203  1.00  0.00    -0.014 A 
ATOM     87  C   UNL     1     -14.763  -5.121  -0.434  1.00  0.00     0.010 A 
ATOM     88  C   UNL     1     -14.480  -2.729  -0.150  1.00  0.00     0.010 A 
ATOM     89  C   UNL     1     -16.133  -4.932  -0.639  1.00  0.00     0.020 A 
ATOM     90  C   UNL     1     -15.853  -2.539  -0.323  1.00  0.00     0.020 A 
ATOM     91  C   UNL     1     -16.669  -3.642  -0.581  1.00  0.00     0.054 A 
BRANCH  91  92
ATOM     92  S   UNL     1     -18.456  -3.429  -0.808  1.00  0.00     0.124 S 
ATOM     93  O   UNL     1     -18.614  -3.686  -2.237  1.00  0.00    -0.237 OA
ATOM     94  O   UNL     1     -19.014  -4.446   0.080  1.00  0.00    -0.237 OA
ATOM     95  O   UNL     1     -18.696  -2.048  -0.393  1.00  0.00    -0.744 OA
ENDBRANCH  91  92
ENDBRANCH  65  86
ENDBRANCH  39  40
ENDBRANCH  32  34
ENDBRANCH  31  32
ENDBRANCH  30  31
ENDBRANCH   1  30
TORSDOF 20
