REMARK SMILES C[NH2+][C@]1(C(=O)OCCOC(=O)c2ccc(-c3c4nc(c(-c5ccc(S(=O)(=O)[O-])cc5)c5ccc([nH]5)c(-c5ccc(S(=O)(=O)[O-])cc5)c5nc(c(-c6ccc(S(=O)(=O)[O-])cc6)c6ccc3[nH]6)C=C5)C=C4)cc2)CC[C@@H](Sc2ccc3c(c2)CCC3)C1
REMARK SMILES IDX 8 1 7 2 6 3 4 4 5 5 3 6 72 7 85 8 73 9 74 10 2 11 1 12 75 15
REMARK SMILES IDX 76 16 77 17 81 18 78 19 80 20 79 21 82 22 84 23 83 24 9 25
REMARK SMILES IDX 10 26 11 27 12 28 13 29 71 30 14 31 70 32 15 33 16 34 17 35
REMARK SMILES IDX 64 36 18 37 69 38 63 39 65 40 19 41 68 42 62 43 61 44 20 46
REMARK SMILES IDX 50 47 31 48 49 49 32 50 35 51 48 52 66 53 33 54 34 55 47 57
REMARK SMILES IDX 67 58 36 59 21 60 22 61 30 62 23 63 29 64 24 65 25 66 26 67
REMARK SMILES IDX 27 68 28 69 51 70 52 71 60 72 53 73 59 74 54 75 55 76 56 77
REMARK SMILES IDX 57 78 58 79 37 80 38 81 46 82 39 83 45 84 40 85 41 86 42 87
REMARK SMILES IDX 43 88 44 89
REMARK H PARENT 2 13 2 14 65 45 35 56
REMARK Flexibility Score: inf
ROOT
ATOM      1  C   UNL     1       2.965  -0.185  -0.218  1.00  0.00     0.275 C 
ENDROOT
BRANCH   1   2
ATOM      2  C   UNL     1       2.256  -0.659  -1.482  1.00  0.00     0.274 C 
BRANCH   2   3
ATOM      3  O   UNL     1       0.831  -0.502  -1.337  1.00  0.00    -0.457 OA
BRANCH   3   4
ATOM      4  C   UNL     1       0.111  -1.643  -1.119  1.00  0.00     0.368 C 
ATOM      5  O   UNL     1       0.600  -2.764  -1.032  1.00  0.00    -0.245 OA
BRANCH   4   6
ATOM      6  C   UNL     1      -1.406  -1.346  -0.981  1.00  0.00     0.195 C 
ATOM      7  C   UNL     1      -1.804  -0.183  -1.917  1.00  0.00     0.082 C 
ATOM      8  C   UNL     1      -2.212  -2.528  -1.577  1.00  0.00     0.096 C 
ATOM      9  C   UNL     1      -3.279  -0.409  -2.208  1.00  0.00     0.022 C 
ATOM     10  C   UNL     1      -3.433  -1.928  -2.277  1.00  0.00     0.059 C 
BRANCH   6  11
ATOM     11  N   UNL     1      -1.707  -0.970   0.423  1.00  0.00    -0.335 N 
ATOM     12  C   UNL     1      -2.388  -1.960   1.241  1.00  0.00     0.331 C 
ATOM     13  H   UNL     1      -0.822  -0.751   0.879  1.00  0.00     0.347 HD
ATOM     14  H   UNL     1      -2.361  -0.190   0.353  1.00  0.00     0.347 HD
ENDBRANCH   6  11
BRANCH  10  15
ATOM     15  S   UNL     1      -3.724  -2.605  -3.967  1.00  0.00    -0.122 SA
BRANCH  15  16
ATOM     16  C   UNL     1      -2.332  -1.992  -4.904  1.00  0.00     0.008 A 
ATOM     17  C   UNL     1      -2.533  -0.937  -5.815  1.00  0.00     0.015 A 
ATOM     18  C   UNL     1      -1.067  -2.584  -4.802  1.00  0.00     0.019 A 
ATOM     19  C   UNL     1      -1.483  -0.451  -6.602  1.00  0.00     0.005 A 
ATOM     20  C   UNL     1      -0.027  -2.077  -5.562  1.00  0.00    -0.044 A 
ATOM     21  C   UNL     1      -0.235  -1.033  -6.465  1.00  0.00    -0.045 A 
ATOM     22  C   UNL     1       1.411  -2.486  -5.536  1.00  0.00     0.036 C 
ATOM     23  C   UNL     1       1.037  -0.683  -7.172  1.00  0.00     0.036 C 
ATOM     24  C   UNL     1       1.895  -1.925  -6.879  1.00  0.00     0.010 C 
ENDBRANCH  15  16
ENDBRANCH  10  15
ENDBRANCH   4   6
ENDBRANCH   3   4
ENDBRANCH   2   3
ENDBRANCH   1   2
BRANCH   1  25
ATOM     25  O   UNL     1       2.547  -1.010   0.879  1.00  0.00    -0.458 OA
BRANCH  25  26
ATOM     26  C   UNL     1       2.205  -0.364   2.014  1.00  0.00     0.338 C 
ATOM     27  O   UNL     1       2.346   0.831   2.250  1.00  0.00    -0.246 OA
BRANCH  26  28
ATOM     28  C   UNL     1       1.639  -1.325   2.980  1.00  0.00     0.060 A 
ATOM     29  C   UNL     1       0.769  -2.330   2.557  1.00  0.00     0.016 A 
ATOM     30  C   UNL     1       1.910  -1.175   4.340  1.00  0.00     0.016 A 
ATOM     31  C   UNL     1       0.109  -3.127   3.493  1.00  0.00     0.010 A 
ATOM     32  C   UNL     1       1.316  -2.038   5.269  1.00  0.00     0.010 A 
ATOM     33  C   UNL     1       0.375  -3.002   4.863  1.00  0.00    -0.014 A 
BRANCH  33  34
ATOM     34  C   UNL     1      -0.368  -3.818   5.870  1.00  0.00     0.031 A 
ATOM     35  C   UNL     1      -1.106  -3.135   6.997  1.00  0.00     0.074 A 
ATOM     36  C   UNL     1      -0.410  -5.165   5.789  1.00  0.00     0.049 A 
ATOM     37  N   UNL     1      -1.599  -3.650   8.096  1.00  0.00    -0.248 NA
ATOM     38  C   UNL     1      -1.297  -1.680   6.882  1.00  0.00     0.031 C 
ATOM     39  C   UNL     1       0.193  -5.978   4.731  1.00  0.00     0.029 A 
ATOM     40  N   UNL     1      -1.003  -6.091   6.615  1.00  0.00    -0.354 N 
ATOM     41  C   UNL     1      -2.074  -2.575   8.840  1.00  0.00     0.074 A 
ATOM     42  C   UNL     1      -1.829  -1.381   8.059  1.00  0.00     0.031 C 
ATOM     43  C   UNL     1      -0.111  -7.269   4.938  1.00  0.00     0.029 A 
ATOM     44  C   UNL     1      -0.835  -7.391   6.198  1.00  0.00     0.049 A 
ATOM     45  H   UNL     1      -1.502  -5.846   7.428  1.00  0.00     0.167 HD
ATOM     46  C   UNL     1      -2.649  -2.580  10.067  1.00  0.00     0.031 A 
ATOM     47  C   UNL     1      -1.175  -8.558   6.780  1.00  0.00     0.031 A 
ATOM     48  C   UNL     1      -2.959  -3.773  10.811  1.00  0.00     0.049 A 
ATOM     49  C   UNL     1      -1.816  -8.545   8.139  1.00  0.00     0.074 A 
ATOM     50  C   UNL     1      -3.540  -3.881  12.063  1.00  0.00     0.029 A 
ATOM     51  N   UNL     1      -2.745  -5.065  10.358  1.00  0.00    -0.354 N 
ATOM     52  N   UNL     1      -2.153  -7.517   8.879  1.00  0.00    -0.248 NA
ATOM     53  C   UNL     1      -2.093  -9.851   8.753  1.00  0.00     0.031 C 
ATOM     54  C   UNL     1      -3.653  -5.240  12.378  1.00  0.00     0.029 A 
ATOM     55  C   UNL     1      -3.181  -5.976  11.304  1.00  0.00     0.049 A 
ATOM     56  H   UNL     1      -2.342  -5.300   9.491  1.00  0.00     0.167 HD
ATOM     57  C   UNL     1      -2.675  -8.052  10.051  1.00  0.00     0.074 A 
ATOM     58  C   UNL     1      -2.639  -9.494   9.908  1.00  0.00     0.031 C 
ATOM     59  C   UNL     1      -3.132  -7.407  11.152  1.00  0.00     0.031 A 
BRANCH  46  60
ATOM     60  C   UNL     1      -2.933  -1.249  10.710  1.00  0.00    -0.014 A 
ATOM     61  C   UNL     1      -4.001  -0.437  10.292  1.00  0.00     0.010 A 
ATOM     62  C   UNL     1      -2.129  -0.823  11.784  1.00  0.00     0.010 A 
ATOM     63  C   UNL     1      -4.236   0.795  10.911  1.00  0.00     0.020 A 
ATOM     64  C   UNL     1      -2.375   0.396  12.422  1.00  0.00     0.020 A 
ATOM     65  C   UNL     1      -3.417   1.206  11.969  1.00  0.00     0.054 A 
BRANCH  65  66
ATOM     66  S   UNL     1      -3.751   2.799  12.771  1.00  0.00     0.124 S 
ATOM     67  O   UNL     1      -3.200   3.744  11.803  1.00  0.00    -0.237 OA
ATOM     68  O   UNL     1      -5.207   2.802  12.891  1.00  0.00    -0.237 OA
ATOM     69  O   UNL     1      -3.026   2.708  14.036  1.00  0.00    -0.744 OA
ENDBRANCH  65  66
ENDBRANCH  46  60
BRANCH  47  70
ATOM     70  C   UNL     1      -0.850  -9.843   6.102  1.00  0.00    -0.014 A 
ATOM     71  C   UNL     1      -1.870 -10.639   5.553  1.00  0.00     0.010 A 
ATOM     72  C   UNL     1       0.488 -10.258   5.971  1.00  0.00     0.010 A 
ATOM     73  C   UNL     1      -1.557 -11.825   4.881  1.00  0.00     0.020 A 
ATOM     74  C   UNL     1       0.806 -11.427   5.276  1.00  0.00     0.020 A 
ATOM     75  C   UNL     1      -0.220 -12.208   4.742  1.00  0.00     0.054 A 
BRANCH  75  76
ATOM     76  S   UNL     1       0.178 -13.701   3.789  1.00  0.00     0.124 S 
ATOM     77  O   UNL     1      -0.067 -14.757   4.766  1.00  0.00    -0.237 OA
ATOM     78  O   UNL     1      -0.768 -13.635   2.678  1.00  0.00    -0.237 OA
ATOM     79  O   UNL     1       1.577 -13.501   3.416  1.00  0.00    -0.744 OA
ENDBRANCH  75  76
ENDBRANCH  47  70
BRANCH  59  80
ATOM     80  C   UNL     1      -3.644  -8.255  12.281  1.00  0.00    -0.014 A 
ATOM     81  C   UNL     1      -2.756  -8.932  13.136  1.00  0.00     0.010 A 
ATOM     82  C   UNL     1      -5.028  -8.347  12.513  1.00  0.00     0.010 A 
ATOM     83  C   UNL     1      -3.246  -9.711  14.188  1.00  0.00     0.020 A 
ATOM     84  C   UNL     1      -5.521  -9.109  13.575  1.00  0.00     0.020 A 
ATOM     85  C   UNL     1      -4.626  -9.799  14.397  1.00  0.00     0.054 A 
BRANCH  85  86
ATOM     86  S   UNL     1      -5.241 -10.791  15.786  1.00  0.00     0.124 S 
ATOM     87  O   UNL     1      -5.105 -12.151  15.270  1.00  0.00    -0.237 OA
ATOM     88  O   UNL     1      -4.326 -10.436  16.868  1.00  0.00    -0.237 OA
ATOM     89  O   UNL     1      -6.614 -10.325  15.962  1.00  0.00    -0.744 OA
ENDBRANCH  85  86
ENDBRANCH  59  80
ENDBRANCH  33  34
ENDBRANCH  26  28
ENDBRANCH  25  26
ENDBRANCH   1  25
TORSDOF 17
