REMARK SMILES CC1(C)NC(=O)N(CCC(=O)N2CCC[C@H]2C(=O)OCCOC(=O)c2ccc(-c3c4nc(c(-c5ccc(S(=O)(=O)[O-])cc5)c5ccc([nH]5)c(-c5ccc(S(=O)(=O)[O-])cc5)c5nc(c(-c6ccc(S(=O)(=O)[O-])cc6)c6ccc3[nH]6)C=C5)C=C4)cc2)C1=O
REMARK SMILES IDX 20 1 19 2 17 3 18 4 16 5 12 6 13 7 14 8 15 9 10 10 11 11
REMARK SMILES IDX 9 12 8 13 7 14 1 15 2 16 3 17 4 18 85 19 5 20 86 22 6 23
REMARK SMILES IDX 21 24 22 25 23 26 24 27 25 28 26 29 84 30 27 31 83 32 28 33
REMARK SMILES IDX 29 34 30 35 77 36 31 37 82 38 76 39 78 40 32 41 81 42 75 43
REMARK SMILES IDX 74 44 33 46 63 47 44 48 62 49 45 50 48 51 61 52 79 53 46 54
REMARK SMILES IDX 47 55 60 57 80 58 49 59 34 60 35 61 43 62 36 63 42 64 37 65
REMARK SMILES IDX 38 66 39 67 40 68 41 69 64 70 65 71 73 72 66 73 72 74 67 75
REMARK SMILES IDX 68 76 69 77 70 78 71 79 50 80 51 81 59 82 52 83 58 84 53 85
REMARK SMILES IDX 54 86 55 87 56 88 57 89
REMARK H PARENT 4 21 78 45 48 56
REMARK Flexibility Score: inf
ROOT
ATOM      1  C   UNL     1       2.664   2.387  -3.573  1.00  0.00     0.274 C 
ENDROOT
BRANCH   1   2
ATOM      2  O   UNL     1       1.319   2.651  -4.051  1.00  0.00    -0.461 OA
BRANCH   2   3
ATOM      3  C   UNL     1       0.533   1.551  -4.260  1.00  0.00     0.328 C 
ATOM      4  O   UNL     1       0.969   0.405  -4.335  1.00  0.00    -0.250 OA
BRANCH   3   5
ATOM      5  C   UNL     1      -0.978   1.866  -4.110  1.00  0.00     0.195 C 
ATOM      6  N   UNL     1      -1.534   3.144  -4.548  1.00  0.00    -0.329 N 
ATOM      7  C   UNL     1      -2.482   2.914  -5.626  1.00  0.00     0.120 C 
ATOM      8  C   UNL     1      -3.111   1.593  -5.227  1.00  0.00     0.024 C 
ATOM      9  C   UNL     1      -1.917   0.800  -4.701  1.00  0.00     0.039 C 
BRANCH   6  10
ATOM     10  C   UNL     1      -1.590   4.312  -3.816  1.00  0.00     0.225 C 
ATOM     11  O   UNL     1      -2.322   5.245  -4.156  1.00  0.00    -0.275 OA
BRANCH  10  12
ATOM     12  C   UNL     1      -0.740   4.456  -2.570  1.00  0.00     0.122 C 
BRANCH  12  13
ATOM     13  C   UNL     1      -1.424   4.013  -1.278  1.00  0.00     0.140 C 
BRANCH  13  14
ATOM     14  N   UNL     1      -1.358   2.596  -0.885  1.00  0.00    -0.262 N 
ATOM     15  C   UNL     1       0.142   0.174   1.012  1.00  0.00     0.045 C 
ATOM     16  C   UNL     1      -0.633   0.405  -0.278  1.00  0.00     0.115 C 
ATOM     17  C   UNL     1      -0.362  -0.704  -1.290  1.00  0.00     0.045 C 
ATOM     18  N   UNL     1      -2.033   0.636  -0.058  1.00  0.00    -0.324 N 
ATOM     19  C   UNL     1      -0.274   1.765  -0.869  1.00  0.00     0.255 C 
ATOM     20  C   UNL     1      -2.432   1.909  -0.404  1.00  0.00     0.325 C 
ATOM     21  H   UNL     1      -2.645  -0.045   0.303  1.00  0.00     0.166 HD
ATOM     22  O   UNL     1       0.838   2.008  -1.314  1.00  0.00    -0.272 OA
ATOM     23  O   UNL     1      -3.578   2.306  -0.305  1.00  0.00    -0.248 OA
ENDBRANCH  13  14
ENDBRANCH  12  13
ENDBRANCH  10  12
ENDBRANCH   6  10
ENDBRANCH   3   5
ENDBRANCH   2   3
ENDBRANCH   1   2
BRANCH   1  24
ATOM     24  C   UNL     1       3.262   3.607  -2.825  1.00  0.00     0.275 C 
BRANCH  24  25
ATOM     25  O   UNL     1       2.734   3.783  -1.482  1.00  0.00    -0.458 OA
BRANCH  25  26
ATOM     26  C   UNL     1       2.900   5.017  -0.925  1.00  0.00     0.338 C 
ATOM     27  O   UNL     1       3.495   5.942  -1.459  1.00  0.00    -0.246 OA
BRANCH  26  28
ATOM     28  C   UNL     1       2.186   5.186   0.390  1.00  0.00     0.060 A 
ATOM     29  C   UNL     1       1.298   4.242   0.885  1.00  0.00     0.016 A 
ATOM     30  C   UNL     1       2.286   6.387   1.095  1.00  0.00     0.016 A 
ATOM     31  C   UNL     1       0.344   4.582   1.864  1.00  0.00     0.010 A 
ATOM     32  C   UNL     1       1.438   6.660   2.194  1.00  0.00     0.010 A 
ATOM     33  C   UNL     1       0.371   5.809   2.540  1.00  0.00    -0.014 A 
BRANCH  33  34
ATOM     34  C   UNL     1      -0.709   6.243   3.519  1.00  0.00     0.031 A 
ATOM     35  C   UNL     1      -1.216   7.685   3.513  1.00  0.00     0.074 A 
ATOM     36  C   UNL     1      -1.300   5.407   4.410  1.00  0.00     0.049 A 
ATOM     37  N   UNL     1      -1.852   8.352   4.448  1.00  0.00    -0.248 NA
ATOM     38  C   UNL     1      -0.951   8.485   2.304  1.00  0.00     0.031 C 
ATOM     39  C   UNL     1      -1.065   3.969   4.546  1.00  0.00     0.029 A 
ATOM     40  N   UNL     1      -2.248   5.661   5.385  1.00  0.00    -0.354 N 
ATOM     41  C   UNL     1      -1.950   9.667   3.991  1.00  0.00     0.074 A 
ATOM     42  C   UNL     1      -1.332   9.698   2.684  1.00  0.00     0.031 C 
ATOM     43  C   UNL     1      -1.890   3.462   5.473  1.00  0.00     0.029 A 
ATOM     44  C   UNL     1      -2.602   4.552   6.124  1.00  0.00     0.049 A 
ATOM     45  H   UNL     1      -2.635   6.553   5.537  1.00  0.00     0.167 HD
ATOM     46  C   UNL     1      -2.488  10.753   4.604  1.00  0.00     0.031 A 
ATOM     47  C   UNL     1      -3.338   4.409   7.247  1.00  0.00     0.031 A 
ATOM     48  C   UNL     1      -3.215  10.715   5.848  1.00  0.00     0.049 A 
ATOM     49  C   UNL     1      -3.893   5.623   7.939  1.00  0.00     0.074 A 
ATOM     50  C   UNL     1      -3.807  11.766   6.532  1.00  0.00     0.029 A 
ATOM     51  N   UNL     1      -3.488   9.569   6.575  1.00  0.00    -0.354 N 
ATOM     52  N   UNL     1      -3.843   6.879   7.569  1.00  0.00    -0.248 NA
ATOM     53  C   UNL     1      -4.574   5.400   9.224  1.00  0.00     0.031 C 
ATOM     54  C   UNL     1      -4.399  11.260   7.695  1.00  0.00     0.029 A 
ATOM     55  C   UNL     1      -4.224   9.888   7.705  1.00  0.00     0.049 A 
ATOM     56  H   UNL     1      -3.202   8.661   6.325  1.00  0.00     0.167 HD
ATOM     57  C   UNL     1      -4.497   7.592   8.570  1.00  0.00     0.074 A 
ATOM     58  C   UNL     1      -4.957   6.627   9.545  1.00  0.00     0.031 C 
ATOM     59  C   UNL     1      -4.687   8.930   8.674  1.00  0.00     0.031 A 
BRANCH  46  60
ATOM     60  C   UNL     1      -2.258  12.110   3.980  1.00  0.00    -0.014 A 
ATOM     61  C   UNL     1      -2.932  12.536   2.823  1.00  0.00     0.010 A 
ATOM     62  C   UNL     1      -1.387  13.009   4.628  1.00  0.00     0.010 A 
ATOM     63  C   UNL     1      -2.710  13.819   2.306  1.00  0.00     0.020 A 
ATOM     64  C   UNL     1      -1.185  14.300   4.133  1.00  0.00     0.020 A 
ATOM     65  C   UNL     1      -1.835  14.692   2.963  1.00  0.00     0.054 A 
BRANCH  65  66
ATOM     66  S   UNL     1      -1.584  16.359   2.290  1.00  0.00     0.124 S 
ATOM     67  O   UNL     1      -0.752  16.088   1.120  1.00  0.00    -0.237 OA
ATOM     68  O   UNL     1      -2.946  16.799   2.004  1.00  0.00    -0.237 OA
ATOM     69  O   UNL     1      -0.916  17.075   3.374  1.00  0.00    -0.744 OA
ENDBRANCH  65  66
ENDBRANCH  46  60
BRANCH  47  70
ATOM     70  C   UNL     1      -3.505   3.061   7.871  1.00  0.00    -0.014 A 
ATOM     71  C   UNL     1      -4.772   2.456   7.954  1.00  0.00     0.010 A 
ATOM     72  C   UNL     1      -2.394   2.387   8.414  1.00  0.00     0.010 A 
ATOM     73  C   UNL     1      -4.925   1.213   8.578  1.00  0.00     0.020 A 
ATOM     74  C   UNL     1      -2.536   1.128   9.001  1.00  0.00     0.020 A 
ATOM     75  C   UNL     1      -3.805   0.555   9.093  1.00  0.00     0.054 A 
BRANCH  75  76
ATOM     76  S   UNL     1      -4.011  -1.081   9.850  1.00  0.00     0.124 S 
ATOM     77  O   UNL     1      -4.567  -0.743  11.156  1.00  0.00    -0.237 OA
ATOM     78  O   UNL     1      -4.923  -1.748   8.925  1.00  0.00    -0.237 OA
ATOM     79  O   UNL     1      -2.652  -1.620   9.866  1.00  0.00    -0.744 OA
ENDBRANCH  75  76
ENDBRANCH  47  70
BRANCH  59  80
ATOM     80  C   UNL     1      -5.472   9.425   9.860  1.00  0.00    -0.014 A 
ATOM     81  C   UNL     1      -4.926   9.410  11.156  1.00  0.00     0.010 A 
ATOM     82  C   UNL     1      -6.777   9.915   9.673  1.00  0.00     0.010 A 
ATOM     83  C   UNL     1      -5.688   9.831  12.250  1.00  0.00     0.020 A 
ATOM     84  C   UNL     1      -7.533  10.363  10.760  1.00  0.00     0.020 A 
ATOM     85  C   UNL     1      -6.990  10.298  12.045  1.00  0.00     0.054 A 
BRANCH  85  86
ATOM     86  S   UNL     1      -7.961  10.844  13.477  1.00  0.00     0.124 S 
ATOM     87  O   UNL     1      -8.337   9.574  14.092  1.00  0.00    -0.237 OA
ATOM     88  O   UNL     1      -7.000  11.647  14.231  1.00  0.00    -0.237 OA
ATOM     89  O   UNL     1      -9.062  11.599  12.882  1.00  0.00    -0.744 OA
ENDBRANCH  85  86
ENDBRANCH  59  80
ENDBRANCH  33  34
ENDBRANCH  26  28
ENDBRANCH  25  26
ENDBRANCH  24  25
ENDBRANCH   1  24
TORSDOF 18
