REMARK SMILES CC(C)(C)c1ccc(CSc2ccnc(C(=O)OCCOC(=O)c3ccc(-c4c5nc(c(-c6ccc(S(=O)(=O)[O-])cc6)c6ccc([nH]6)c(-c6ccc(S(=O)(=O)[O-])cc6)c6nc(c(-c7ccc(S(=O)(=O)[O-])cc7)c7ccc4[nH]7)C=C6)C=C5)cc3)c2)cc1
REMARK SMILES IDX 19 1 18 2 16 3 17 4 15 5 11 6 12 7 84 8 13 9 14 10 10 11
REMARK SMILES IDX 9 12 8 13 5 14 6 15 86 16 7 17 85 18 2 19 1 20 3 21 4 22
REMARK SMILES IDX 20 23 21 24 22 25 23 26 24 27 25 28 83 29 26 30 82 31 27 32
REMARK SMILES IDX 28 33 29 34 76 35 30 36 81 37 75 38 77 39 31 40 80 41 74 42
REMARK SMILES IDX 73 43 32 45 62 46 43 47 61 48 44 49 47 50 60 51 78 52 45 53
REMARK SMILES IDX 46 54 59 56 79 57 48 58 33 59 34 60 42 61 35 62 41 63 36 64
REMARK SMILES IDX 37 65 38 66 39 67 40 68 63 69 64 70 72 71 65 72 71 73 66 74
REMARK SMILES IDX 67 75 68 76 69 77 70 78 49 79 50 80 58 81 51 82 57 83 52 84
REMARK SMILES IDX 53 85 54 86 55 87 56 88
REMARK H PARENT 77 44 47 55
REMARK Flexibility Score: inf
ROOT
ATOM      1  C   UNL     1      -5.938  -2.816   7.843  1.00  0.00     0.275 C 
ENDROOT
BRANCH   1   2
ATOM      2  O   UNL     1      -4.561  -2.423   7.668  1.00  0.00    -0.457 OA
BRANCH   2   3
ATOM      3  C   UNL     1      -4.359  -1.364   6.837  1.00  0.00     0.357 C 
ATOM      4  O   UNL     1      -5.220  -0.813   6.169  1.00  0.00    -0.244 OA
BRANCH   3   5
ATOM      5  C   UNL     1      -2.947  -0.881   6.939  1.00  0.00     0.149 A 
ATOM      6  C   UNL     1      -0.600  -1.179   7.246  1.00  0.00     0.011 A 
ATOM      7  C   UNL     1      -0.470   0.207   7.296  1.00  0.00     0.035 A 
ATOM      8  C   UNL     1      -1.875  -1.740   7.118  1.00  0.00     0.051 A 
ATOM      9  C   UNL     1      -1.585   0.983   7.065  1.00  0.00     0.113 A 
ATOM     10  N   UNL     1      -2.804   0.466   6.848  1.00  0.00    -0.249 NA
BRANCH   6  11
ATOM     11  S   UNL     1       0.812  -2.274   7.322  1.00  0.00    -0.121 SA
BRANCH  11  12
ATOM     12  C   UNL     1       2.117  -1.317   6.454  1.00  0.00     0.110 C 
BRANCH  12  13
ATOM     13  C   UNL     1       1.736  -0.788   5.090  1.00  0.00    -0.038 A 
ATOM     14  C   UNL     1       1.000   0.257   2.536  1.00  0.00    -0.043 A 
ATOM     15  C   UNL     1       0.918  -1.118   2.823  1.00  0.00     0.004 A 
ATOM     16  C   UNL     1       1.460   1.095   3.562  1.00  0.00     0.004 A 
ATOM     17  C   UNL     1       1.290  -1.634   4.072  1.00  0.00     0.005 A 
ATOM     18  C   UNL     1       1.833   0.582   4.811  1.00  0.00     0.005 A 
BRANCH  14  19
ATOM     19  C   UNL     1       0.552   0.805   1.167  1.00  0.00    -0.013 C 
ATOM     20  C   UNL     1       1.098  -0.067   0.013  1.00  0.00     0.016 C 
ATOM     21  C   UNL     1       1.033   2.249   0.893  1.00  0.00     0.016 C 
ATOM     22  C   UNL     1      -0.988   0.801   1.116  1.00  0.00     0.016 C 
ENDBRANCH  14  19
ENDBRANCH  12  13
ENDBRANCH  11  12
ENDBRANCH   6  11
ENDBRANCH   3   5
ENDBRANCH   2   3
ENDBRANCH   1   2
BRANCH   1  23
ATOM     23  C   UNL     1      -6.506  -2.312   9.175  1.00  0.00     0.275 C 
BRANCH  23  24
ATOM     24  O   UNL     1      -6.684  -0.883   9.183  1.00  0.00    -0.458 OA
BRANCH  24  25
ATOM     25  C   UNL     1      -5.670  -0.179   9.739  1.00  0.00     0.338 C 
ATOM     26  O   UNL     1      -4.650  -0.627  10.235  1.00  0.00    -0.246 OA
BRANCH  25  27
ATOM     27  C   UNL     1      -5.920   1.263   9.583  1.00  0.00     0.060 A 
ATOM     28  C   UNL     1      -5.146   1.955   8.656  1.00  0.00     0.016 A 
ATOM     29  C   UNL     1      -6.821   1.952  10.394  1.00  0.00     0.016 A 
ATOM     30  C   UNL     1      -5.229   3.338   8.550  1.00  0.00     0.010 A 
ATOM     31  C   UNL     1      -6.935   3.345  10.262  1.00  0.00     0.010 A 
ATOM     32  C   UNL     1      -6.129   4.050   9.349  1.00  0.00    -0.014 A 
BRANCH  32  33
ATOM     33  C   UNL     1      -6.198   5.528   9.227  1.00  0.00     0.031 A 
ATOM     34  C   UNL     1      -5.717   6.406  10.349  1.00  0.00     0.074 A 
ATOM     35  C   UNL     1      -6.656   6.084   8.087  1.00  0.00     0.049 A 
ATOM     36  N   UNL     1      -5.759   7.710  10.452  1.00  0.00    -0.248 NA
ATOM     37  C   UNL     1      -5.110   5.730  11.506  1.00  0.00     0.031 C 
ATOM     38  C   UNL     1      -7.098   5.342   6.903  1.00  0.00     0.029 A 
ATOM     39  N   UNL     1      -6.816   7.400   7.733  1.00  0.00    -0.354 N 
ATOM     40  C   UNL     1      -5.215   8.010  11.695  1.00  0.00     0.074 A 
ATOM     41  C   UNL     1      -4.858   6.751  12.314  1.00  0.00     0.031 C 
ATOM     42  C   UNL     1      -7.460   6.215   5.949  1.00  0.00     0.029 A 
ATOM     43  C   UNL     1      -7.333   7.572   6.471  1.00  0.00     0.049 A 
ATOM     44  H   UNL     1      -6.582   8.150   8.326  1.00  0.00     0.167 HD
ATOM     45  C   UNL     1      -5.033   9.224  12.269  1.00  0.00     0.031 A 
ATOM     46  C   UNL     1      -7.692   8.692   5.814  1.00  0.00     0.031 A 
ATOM     47  C   UNL     1      -5.379  10.474  11.646  1.00  0.00     0.049 A 
ATOM     48  C   UNL     1      -7.527  10.023   6.491  1.00  0.00     0.074 A 
ATOM     49  C   UNL     1      -5.234  11.756  12.148  1.00  0.00     0.029 A 
ATOM     50  N   UNL     1      -5.935  10.601  10.381  1.00  0.00    -0.354 N 
ATOM     51  N   UNL     1      -7.034  10.287   7.678  1.00  0.00    -0.248 NA
ATOM     52  C   UNL     1      -7.969  11.208   5.743  1.00  0.00     0.031 C 
ATOM     53  C   UNL     1      -5.739  12.656  11.203  1.00  0.00     0.029 A 
ATOM     54  C   UNL     1      -6.154  11.938  10.092  1.00  0.00     0.049 A 
ATOM     55  H   UNL     1      -6.144   9.852   9.778  1.00  0.00     0.167 HD
ATOM     56  C   UNL     1      -7.091  11.669   7.812  1.00  0.00     0.074 A 
ATOM     57  C   UNL     1      -7.653  12.187   6.581  1.00  0.00     0.031 C 
ATOM     58  C   UNL     1      -6.711  12.438   8.861  1.00  0.00     0.031 A 
BRANCH  45  59
ATOM     59  C   UNL     1      -4.470   9.253  13.665  1.00  0.00    -0.014 A 
ATOM     60  C   UNL     1      -3.113   8.985  13.913  1.00  0.00     0.010 A 
ATOM     61  C   UNL     1      -5.312   9.582  14.743  1.00  0.00     0.010 A 
ATOM     62  C   UNL     1      -2.616   9.004  15.220  1.00  0.00     0.020 A 
ATOM     63  C   UNL     1      -4.815   9.624  16.049  1.00  0.00     0.020 A 
ATOM     64  C   UNL     1      -3.473   9.316  16.280  1.00  0.00     0.054 A 
BRANCH  64  65
ATOM     65  S   UNL     1      -2.805   9.340  17.967  1.00  0.00     0.124 S 
ATOM     66  O   UNL     1      -2.693   7.914  18.266  1.00  0.00    -0.237 OA
ATOM     67  O   UNL     1      -1.538  10.048  17.803  1.00  0.00    -0.237 OA
ATOM     68  O   UNL     1      -3.821  10.058  18.732  1.00  0.00    -0.744 OA
ENDBRANCH  64  65
ENDBRANCH  45  59
BRANCH  46  69
ATOM     69  C   UNL     1      -8.274   8.592   4.448  1.00  0.00    -0.014 A 
ATOM     70  C   UNL     1      -7.543   9.016   3.325  1.00  0.00     0.010 A 
ATOM     71  C   UNL     1      -9.558   8.046   4.264  1.00  0.00     0.010 A 
ATOM     72  C   UNL     1      -8.090   8.902   2.043  1.00  0.00     0.020 A 
ATOM     73  C   UNL     1     -10.097   7.907   2.983  1.00  0.00     0.020 A 
ATOM     74  C   UNL     1      -9.363   8.347   1.880  1.00  0.00     0.054 A 
BRANCH  74  75
ATOM     75  S   UNL     1     -10.029   8.150   0.203  1.00  0.00     0.124 S 
ATOM     76  O   UNL     1     -10.447   9.511  -0.118  1.00  0.00    -0.237 OA
ATOM     77  O   UNL     1      -8.876   7.650  -0.542  1.00  0.00    -0.237 OA
ATOM     78  O   UNL     1     -11.113   7.185   0.378  1.00  0.00    -0.744 OA
ENDBRANCH  74  75
ENDBRANCH  46  69
BRANCH  58  79
ATOM     79  C   UNL     1      -6.857  13.928   8.714  1.00  0.00    -0.014 A 
ATOM     80  C   UNL     1      -8.115  14.548   8.808  1.00  0.00     0.010 A 
ATOM     81  C   UNL     1      -5.710  14.722   8.540  1.00  0.00     0.010 A 
ATOM     82  C   UNL     1      -8.225  15.937   8.707  1.00  0.00     0.020 A 
ATOM     83  C   UNL     1      -5.814  16.113   8.460  1.00  0.00     0.020 A 
ATOM     84  C   UNL     1      -7.073  16.711   8.533  1.00  0.00     0.054 A 
BRANCH  84  85
ATOM     85  S   UNL     1      -7.233  18.517   8.458  1.00  0.00     0.124 S 
ATOM     86  O   UNL     1      -7.738  18.721   7.104  1.00  0.00    -0.237 OA
ATOM     87  O   UNL     1      -8.181  18.802   9.532  1.00  0.00    -0.237 OA
ATOM     88  O   UNL     1      -5.872  18.994   8.695  1.00  0.00    -0.744 OA
ENDBRANCH  84  85
ENDBRANCH  58  79
ENDBRANCH  32  33
ENDBRANCH  25  27
ENDBRANCH  24  25
ENDBRANCH  23  24
ENDBRANCH   1  23
TORSDOF 18
