REMARK SMILES COCCOCC[C@@H]1CCC[C@]1([NH3+])C(=O)OCCOC(=O)c1ccc(-c2c3nc(c(-c4ccc(S(=O)(=O)[O-])cc4)c4ccc([nH]4)c(-c4ccc(S(=O)(=O)[O-])cc4)c4nc(c(-c5ccc(S(=O)(=O)[O-])cc5)c5ccc2[nH]5)C=C4)C=C3)cc1
REMARK SMILES IDX 16 1 14 2 15 3 12 4 8 5 9 6 10 7 11 8 7 9 6 10 5 11 4 12
REMARK SMILES IDX 3 13 2 14 1 15 13 16 17 20 18 21 19 22 20 23 21 24 22 25
REMARK SMILES IDX 23 26 81 27 24 28 80 29 25 30 26 31 27 32 74 33 28 34 79 35
REMARK SMILES IDX 73 36 75 37 29 38 78 39 72 40 71 41 30 43 60 44 41 45 59 46
REMARK SMILES IDX 42 47 45 48 58 49 76 50 43 51 44 52 57 54 77 55 46 56 31 57
REMARK SMILES IDX 32 58 40 59 33 60 39 61 34 62 35 63 36 64 37 65 38 66 61 67
REMARK SMILES IDX 62 68 70 69 63 70 69 71 64 72 65 73 66 74 67 75 68 76 47 77
REMARK SMILES IDX 48 78 56 79 49 80 55 81 50 82 51 83 52 84 53 85 54 86
REMARK H PARENT 13 17 13 18 13 19 75 42 45 53
REMARK Flexibility Score: inf
ROOT
ATOM      1  O   UNL     1       1.399   0.580   3.165  1.00  0.00    -0.457 OA
ENDROOT
BRANCH   1   2
ATOM      2  C   UNL     1       0.365   1.282   3.671  1.00  0.00     0.368 C 
ATOM      3  O   UNL     1       0.539   2.096   4.580  1.00  0.00    -0.245 OA
BRANCH   2   4
ATOM      4  C   UNL     1      -1.164   0.921   3.138  1.00  0.00     0.195 C 
ATOM      5  C   UNL     1      -1.838   0.157   1.873  1.00  0.00     0.065 C 
ATOM      6  C   UNL     1      -2.159   1.195   0.775  1.00  0.00     0.011 C 
ATOM      7  C   UNL     1      -1.790   2.536   1.367  1.00  0.00     0.008 C 
ATOM      8  C   UNL     1      -1.798   2.340   2.881  1.00  0.00     0.081 C 
BRANCH   5   9
ATOM      9  C   UNL     1      -1.900  -1.347   1.395  1.00  0.00     0.039 C 
BRANCH   9  10
ATOM     10  C   UNL     1      -0.926  -2.232   0.569  1.00  0.00     0.161 C 
BRANCH  10  11
ATOM     11  O   UNL     1       0.417  -2.426   0.966  1.00  0.00    -0.379 OA
BRANCH  11  12
ATOM     12  C   UNL     1       0.969  -1.271   1.528  1.00  0.00     0.188 C 
BRANCH  12  13
ATOM     13  C   UNL     1       1.132  -0.054   0.587  1.00  0.00     0.188 C 
BRANCH  13  14
ATOM     14  O   UNL     1       0.342  -0.066  -0.586  1.00  0.00    -0.382 OA
ATOM     15  C   UNL     1       1.149  -0.293  -1.725  1.00  0.00     0.195 C 
ENDBRANCH  13  14
ENDBRANCH  12  13
ENDBRANCH  11  12
ENDBRANCH  10  11
ENDBRANCH   9  10
ENDBRANCH   5   9
BRANCH   4  16
ATOM     16  N   UNL     1      -1.784   0.337   4.372  1.00  0.00    -0.343 N 
ATOM     17  H   UNL     1      -2.748   0.069   4.173  1.00  0.00     0.345 HD
ATOM     18  H   UNL     1      -1.772   1.031   5.119  1.00  0.00     0.345 HD
ATOM     19  H   UNL     1      -1.255  -0.485   4.662  1.00  0.00     0.345 HD
ENDBRANCH   4  16
ENDBRANCH   2   4
ENDBRANCH   1   2
BRANCH   1  20
ATOM     20  C   UNL     1       2.776   0.654   3.661  1.00  0.00     0.274 C 
BRANCH  20  21
ATOM     21  C   UNL     1       3.762   0.992   2.522  1.00  0.00     0.275 C 
BRANCH  21  22
ATOM     22  O   UNL     1       3.437   2.311   2.071  1.00  0.00    -0.458 OA
BRANCH  22  23
ATOM     23  C   UNL     1       3.384   2.556   0.738  1.00  0.00     0.338 C 
ATOM     24  O   UNL     1       3.886   1.907  -0.151  1.00  0.00    -0.246 OA
BRANCH  23  25
ATOM     25  C   UNL     1       2.499   3.737   0.558  1.00  0.00     0.060 A 
ATOM     26  C   UNL     1       1.494   3.991   1.495  1.00  0.00     0.016 A 
ATOM     27  C   UNL     1       2.632   4.575  -0.544  1.00  0.00     0.016 A 
ATOM     28  C   UNL     1       0.631   5.069   1.343  1.00  0.00     0.010 A 
ATOM     29  C   UNL     1       1.840   5.731  -0.626  1.00  0.00     0.010 A 
ATOM     30  C   UNL     1       0.849   6.009   0.336  1.00  0.00    -0.014 A 
BRANCH  30  31
ATOM     31  C   UNL     1       0.130   7.317   0.351  1.00  0.00     0.031 A 
ATOM     32  C   UNL     1      -0.531   7.843  -0.895  1.00  0.00     0.074 A 
ATOM     33  C   UNL     1       0.156   8.085   1.464  1.00  0.00     0.049 A 
ATOM     34  N   UNL     1      -0.913   9.063  -1.173  1.00  0.00    -0.248 NA
ATOM     35  C   UNL     1      -0.771   6.877  -1.980  1.00  0.00     0.031 C 
ATOM     36  C   UNL     1       0.714   7.700   2.767  1.00  0.00     0.029 A 
ATOM     37  N   UNL     1      -0.280   9.373   1.676  1.00  0.00    -0.354 N 
ATOM     38  C   UNL     1      -1.375   9.029  -2.484  1.00  0.00     0.074 A 
ATOM     39  C   UNL     1      -1.221   7.666  -2.947  1.00  0.00     0.031 C 
ATOM     40  C   UNL     1       0.570   8.708   3.635  1.00  0.00     0.029 A 
ATOM     41  C   UNL     1       0.027   9.857   2.929  1.00  0.00     0.049 A 
ATOM     42  H   UNL     1      -0.764   9.898   0.998  1.00  0.00     0.167 HD
ATOM     43  C   UNL     1      -1.869  10.046  -3.232  1.00  0.00     0.031 A 
ATOM     44  C   UNL     1      -0.038  11.098   3.447  1.00  0.00     0.031 A 
ATOM     45  C   UNL     1      -2.038  11.394  -2.747  1.00  0.00     0.049 A 
ATOM     46  C   UNL     1      -0.520  12.221   2.577  1.00  0.00     0.074 A 
ATOM     47  C   UNL     1      -2.556  12.489  -3.418  1.00  0.00     0.029 A 
ATOM     48  N   UNL     1      -1.700  11.833  -1.475  1.00  0.00    -0.354 N 
ATOM     49  N   UNL     1      -0.923  12.181   1.329  1.00  0.00    -0.248 NA
ATOM     50  C   UNL     1      -0.551  13.559   3.181  1.00  0.00     0.031 C 
ATOM     51  C   UNL     1      -2.466  13.602  -2.577  1.00  0.00     0.029 A 
ATOM     52  C   UNL     1      -1.972  13.186  -1.352  1.00  0.00     0.049 A 
ATOM     53  H   UNL     1      -1.322  11.266  -0.764  1.00  0.00     0.167 HD
ATOM     54  C   UNL     1      -1.289  13.483   1.012  1.00  0.00     0.074 A 
ATOM     55  C   UNL     1      -1.075  14.281   2.201  1.00  0.00     0.031 C 
ATOM     56  C   UNL     1      -1.762  13.971  -0.161  1.00  0.00     0.031 A 
BRANCH  43  57
ATOM     57  C   UNL     1      -2.225   9.763  -4.671  1.00  0.00    -0.014 A 
ATOM     58  C   UNL     1      -3.318   8.950  -5.018  1.00  0.00     0.010 A 
ATOM     59  C   UNL     1      -1.487  10.383  -5.699  1.00  0.00     0.010 A 
ATOM     60  C   UNL     1      -3.644   8.735  -6.361  1.00  0.00     0.020 A 
ATOM     61  C   UNL     1      -1.829  10.198  -7.042  1.00  0.00     0.020 A 
ATOM     62  C   UNL     1      -2.899   9.362  -7.365  1.00  0.00     0.054 A 
BRANCH  62  63
ATOM     63  S   UNL     1      -3.369   9.091  -9.096  1.00  0.00     0.124 S 
ATOM     64  O   UNL     1      -3.009   7.689  -9.290  1.00  0.00    -0.237 OA
ATOM     65  O   UNL     1      -4.801   9.376  -9.085  1.00  0.00    -0.237 OA
ATOM     66  O   UNL     1      -2.551  10.050  -9.834  1.00  0.00    -0.744 OA
ENDBRANCH  62  63
ENDBRANCH  43  57
BRANCH  44  67
ATOM     67  C   UNL     1       0.419  11.351   4.843  1.00  0.00    -0.014 A 
ATOM     68  C   UNL     1      -0.497  11.745   5.834  1.00  0.00     0.010 A 
ATOM     69  C   UNL     1       1.774  11.191   5.194  1.00  0.00     0.010 A 
ATOM     70  C   UNL     1      -0.065  11.995   7.139  1.00  0.00     0.020 A 
ATOM     71  C   UNL     1       2.203  11.399   6.508  1.00  0.00     0.020 A 
ATOM     72  C   UNL     1       1.281  11.816   7.469  1.00  0.00     0.054 A 
BRANCH  72  73
ATOM     73  S   UNL     1       1.806  12.106   9.181  1.00  0.00     0.124 S 
ATOM     74  O   UNL     1       1.688  13.557   9.292  1.00  0.00    -0.237 OA
ATOM     75  O   UNL     1       0.831  11.331   9.944  1.00  0.00    -0.237 OA
ATOM     76  O   UNL     1       3.171  11.585   9.215  1.00  0.00    -0.744 OA
ENDBRANCH  72  73
ENDBRANCH  44  67
BRANCH  56  77
ATOM     77  C   UNL     1      -2.145  15.427  -0.199  1.00  0.00    -0.014 A 
ATOM     78  C   UNL     1      -1.179  16.447  -0.139  1.00  0.00     0.010 A 
ATOM     79  C   UNL     1      -3.502  15.776  -0.339  1.00  0.00     0.010 A 
ATOM     80  C   UNL     1      -1.567  17.789  -0.184  1.00  0.00     0.020 A 
ATOM     81  C   UNL     1      -3.889  17.115  -0.423  1.00  0.00     0.020 A 
ATOM     82  C   UNL     1      -2.919  18.114  -0.330  1.00  0.00     0.054 A 
BRANCH  82  83
ATOM     83  S   UNL     1      -3.389  19.862  -0.436  1.00  0.00     0.124 S 
ATOM     84  O   UNL     1      -3.142  20.328   0.926  1.00  0.00    -0.237 OA
ATOM     85  O   UNL     1      -2.474  20.376  -1.452  1.00  0.00    -0.237 OA
ATOM     86  O   UNL     1      -4.794  19.821  -0.835  1.00  0.00    -0.744 OA
ENDBRANCH  82  83
ENDBRANCH  56  77
ENDBRANCH  30  31
ENDBRANCH  23  25
ENDBRANCH  22  23
ENDBRANCH  21  22
ENDBRANCH  20  21
ENDBRANCH   1  20
TORSDOF 21
