REMARK SMILES CC(C)(C)OC(=O)N[C@H](c1ccccc1)[C@@H](O)CC(=O)OCCOC(=O)c1ccc(-c2c3nc(c(-c4ccc(S(=O)(=O)[O-])cc4)c4ccc([nH]4)c(-c4ccc(S(=O)(=O)[O-])cc4)c4nc(c(-c5ccc(S(=O)(=O)[O-])cc5)c5ccc2[nH]5)C=C4)C=C3)cc1
REMARK SMILES IDX 22 1 21 2 19 3 20 4 18 5 16 6 9 7 8 8 6 9 7 10 5 12 2 13
REMARK SMILES IDX 1 14 3 15 4 16 10 17 11 18 15 19 12 20 14 21 13 22 17 23
REMARK SMILES IDX 23 25 24 26 25 27 26 28 27 29 28 30 86 31 29 32 85 33 30 34
REMARK SMILES IDX 31 35 32 36 79 37 33 38 84 39 78 40 80 41 34 42 83 43 77 44
REMARK SMILES IDX 76 45 35 47 65 48 46 49 64 50 47 51 50 52 63 53 81 54 48 55
REMARK SMILES IDX 49 56 62 58 82 59 51 60 36 61 37 62 45 63 38 64 44 65 39 66
REMARK SMILES IDX 40 67 41 68 42 69 43 70 66 71 67 72 75 73 68 74 74 75 69 76
REMARK SMILES IDX 70 77 71 78 72 79 73 80 52 81 53 82 61 83 54 84 60 85 55 86
REMARK SMILES IDX 56 87 57 88 58 89 59 90
REMARK H PARENT 8 11 17 24 80 46 50 57
REMARK Flexibility Score: inf
ROOT
ATOM      1  C   UNL     1       5.763  -2.974   6.417  1.00  0.00     0.274 C 
ENDROOT
BRANCH   1   2
ATOM      2  O   UNL     1       4.575  -2.836   5.609  1.00  0.00    -0.462 OA
BRANCH   2   3
ATOM      3  C   UNL     1       3.781  -3.908   5.412  1.00  0.00     0.308 C 
ATOM      4  O   UNL     1       4.024  -5.031   5.834  1.00  0.00    -0.252 OA
BRANCH   3   5
ATOM      5  C   UNL     1       2.586  -3.586   4.540  1.00  0.00     0.157 C 
BRANCH   5   6
ATOM      6  C   UNL     1       1.619  -2.498   5.047  1.00  0.00     0.152 C 
BRANCH   6   7
ATOM      7  C   UNL     1       1.962  -1.048   4.541  1.00  0.00     0.145 C 
BRANCH   7   8
ATOM      8  N   UNL     1       3.231  -0.608   5.105  1.00  0.00    -0.312 N 
ATOM      9  C   UNL     1       4.394  -0.326   4.467  1.00  0.00     0.408 C 
ATOM     10  O   UNL     1       5.377   0.051   5.095  1.00  0.00    -0.225 OA
ATOM     11  H   UNL     1       3.246  -0.500   6.084  1.00  0.00     0.167 HD
BRANCH   9  12
ATOM     12  O   UNL     1       4.351  -0.579   3.140  1.00  0.00    -0.444 OA
BRANCH  12  13
ATOM     13  C   UNL     1       5.569  -0.549   2.354  1.00  0.00     0.106 C 
ATOM     14  C   UNL     1       5.112  -0.804   0.912  1.00  0.00     0.056 C 
ATOM     15  C   UNL     1       6.512  -1.683   2.775  1.00  0.00     0.056 C 
ATOM     16  C   UNL     1       6.264   0.817   2.416  1.00  0.00     0.056 C 
ENDBRANCH  12  13
ENDBRANCH   9  12
ENDBRANCH   7   8
BRANCH   7  17
ATOM     17  C   UNL     1       0.883   0.008   4.849  1.00  0.00    -0.023 A 
ATOM     18  C   UNL     1       1.126   1.112   5.693  1.00  0.00     0.006 A 
ATOM     19  C   UNL     1      -0.379  -0.063   4.234  1.00  0.00     0.006 A 
ATOM     20  C   UNL     1       0.147   2.079   5.933  1.00  0.00     0.000 A 
ATOM     21  C   UNL     1      -1.368   0.892   4.493  1.00  0.00     0.000 A 
ATOM     22  C   UNL     1      -1.105   1.963   5.342  1.00  0.00     0.000 A 
ENDBRANCH   7  17
ENDBRANCH   6   7
BRANCH   6  23
ATOM     23  O   UNL     1       0.312  -2.915   4.602  1.00  0.00    -0.390 OA
ATOM     24  H   UNL     1       0.303  -2.973   3.634  1.00  0.00     0.211 HD
ENDBRANCH   6  23
ENDBRANCH   5   6
ENDBRANCH   3   5
ENDBRANCH   2   3
ENDBRANCH   1   2
BRANCH   1  25
ATOM     25  C   UNL     1       5.541  -2.393   7.813  1.00  0.00     0.275 C 
BRANCH  25  26
ATOM     26  O   UNL     1       4.764  -3.306   8.606  1.00  0.00    -0.458 OA
BRANCH  26  27
ATOM     27  C   UNL     1       3.426  -3.122   8.541  1.00  0.00     0.338 C 
ATOM     28  O   UNL     1       2.840  -2.193   8.011  1.00  0.00    -0.246 OA
BRANCH  27  29
ATOM     29  C   UNL     1       2.761  -4.319   9.083  1.00  0.00     0.060 A 
ATOM     30  C   UNL     1       1.871  -5.026   8.268  1.00  0.00     0.016 A 
ATOM     31  C   UNL     1       2.991  -4.719  10.399  1.00  0.00     0.016 A 
ATOM     32  C   UNL     1       1.184  -6.125   8.776  1.00  0.00     0.010 A 
ATOM     33  C   UNL     1       2.306  -5.824  10.906  1.00  0.00     0.010 A 
ATOM     34  C   UNL     1       1.378  -6.515  10.107  1.00  0.00    -0.014 A 
BRANCH  34  35
ATOM     35  C   UNL     1       0.518  -7.564  10.704  1.00  0.00     0.031 A 
ATOM     36  C   UNL     1      -0.563  -7.156  11.665  1.00  0.00     0.074 A 
ATOM     37  C   UNL     1       0.688  -8.857  10.376  1.00  0.00     0.049 A 
ATOM     38  N   UNL     1      -1.401  -7.902  12.337  1.00  0.00    -0.248 NA
ATOM     39  C   UNL     1      -0.715  -5.712  11.906  1.00  0.00     0.031 C 
ATOM     40  C   UNL     1       1.666  -9.365   9.413  1.00  0.00     0.029 A 
ATOM     41  N   UNL     1       0.033  -9.979  10.814  1.00  0.00    -0.354 N 
ATOM     42  C   UNL     1      -2.169  -7.021  13.090  1.00  0.00     0.074 A 
ATOM     43  C   UNL     1      -1.667  -5.690  12.825  1.00  0.00     0.031 C 
ATOM     44  C   UNL     1       1.532 -10.699   9.320  1.00  0.00     0.029 A 
ATOM     45  C   UNL     1       0.495 -11.143  10.248  1.00  0.00     0.049 A 
ATOM     46  H   UNL     1      -0.699  -9.953  11.472  1.00  0.00     0.167 HD
ATOM     47  C   UNL     1      -3.207  -7.293  13.918  1.00  0.00     0.031 A 
ATOM     48  C   UNL     1       0.127 -12.421  10.462  1.00  0.00     0.031 A 
ATOM     49  C   UNL     1      -3.684  -8.623  14.191  1.00  0.00     0.049 A 
ATOM     50  C   UNL     1      -0.968 -12.709  11.455  1.00  0.00     0.074 A 
ATOM     51  C   UNL     1      -4.720  -9.015  15.020  1.00  0.00     0.029 A 
ATOM     52  N   UNL     1      -3.152  -9.781  13.640  1.00  0.00    -0.354 N 
ATOM     53  N   UNL     1      -1.683 -11.868  12.166  1.00  0.00    -0.248 NA
ATOM     54  C   UNL     1      -1.312 -14.121  11.667  1.00  0.00     0.031 C 
ATOM     55  C   UNL     1      -4.776 -10.414  15.015  1.00  0.00     0.029 A 
ATOM     56  C   UNL     1      -3.825 -10.890  14.125  1.00  0.00     0.049 A 
ATOM     57  H   UNL     1      -2.406  -9.810  12.998  1.00  0.00     0.167 HD
ATOM     58  C   UNL     1      -2.591 -12.647  12.876  1.00  0.00     0.074 A 
ATOM     59  C   UNL     1      -2.336 -14.024  12.505  1.00  0.00     0.031 C 
ATOM     60  C   UNL     1      -3.558 -12.256  13.745  1.00  0.00     0.031 A 
BRANCH  47  61
ATOM     61  C   UNL     1      -3.852  -6.122  14.616  1.00  0.00    -0.014 A 
ATOM     62  C   UNL     1      -4.578  -5.152  13.900  1.00  0.00     0.010 A 
ATOM     63  C   UNL     1      -3.714  -5.978  16.008  1.00  0.00     0.010 A 
ATOM     64  C   UNL     1      -5.090  -4.025  14.550  1.00  0.00     0.020 A 
ATOM     65  C   UNL     1      -4.256  -4.871  16.669  1.00  0.00     0.020 A 
ATOM     66  C   UNL     1      -4.916  -3.888  15.930  1.00  0.00     0.054 A 
BRANCH  66  67
ATOM     67  S   UNL     1      -5.566  -2.403  16.745  1.00  0.00     0.124 S 
ATOM     68  O   UNL     1      -4.635  -1.376  16.283  1.00  0.00    -0.237 OA
ATOM     69  O   UNL     1      -6.921  -2.309  16.208  1.00  0.00    -0.237 OA
ATOM     70  O   UNL     1      -5.483  -2.723  18.168  1.00  0.00    -0.744 OA
ENDBRANCH  66  67
ENDBRANCH  47  61
BRANCH  48  71
ATOM     71  C   UNL     1       0.785 -13.521   9.705  1.00  0.00    -0.014 A 
ATOM     72  C   UNL     1       0.068 -14.242   8.733  1.00  0.00     0.010 A 
ATOM     73  C   UNL     1       2.135 -13.843   9.934  1.00  0.00     0.010 A 
ATOM     74  C   UNL     1       0.684 -15.270   8.014  1.00  0.00     0.020 A 
ATOM     75  C   UNL     1       2.764 -14.850   9.196  1.00  0.00     0.020 A 
ATOM     76  C   UNL     1       2.031 -15.563   8.245  1.00  0.00     0.054 A 
BRANCH  76  77
ATOM     77  S   UNL     1       2.824 -16.859   7.253  1.00  0.00     0.124 S 
ATOM     78  O   UNL     1       2.195 -18.069   7.774  1.00  0.00    -0.237 OA
ATOM     79  O   UNL     1       2.448 -16.486   5.891  1.00  0.00    -0.237 OA
ATOM     80  O   UNL     1       4.244 -16.709   7.563  1.00  0.00    -0.744 OA
ENDBRANCH  76  77
ENDBRANCH  48  71
BRANCH  60  81
ATOM     81  C   UNL     1      -4.455 -13.328  14.310  1.00  0.00    -0.014 A 
ATOM     82  C   UNL     1      -3.986 -14.274  15.239  1.00  0.00     0.010 A 
ATOM     83  C   UNL     1      -5.810 -13.357  13.930  1.00  0.00     0.010 A 
ATOM     84  C   UNL     1      -4.846 -15.254  15.744  1.00  0.00     0.020 A 
ATOM     85  C   UNL     1      -6.680 -14.313  14.458  1.00  0.00     0.020 A 
ATOM     86  C   UNL     1      -6.188 -15.267  15.349  1.00  0.00     0.054 A 
BRANCH  86  87
ATOM     87  S   UNL     1      -7.291 -16.529  16.043  1.00  0.00     0.124 S 
ATOM     88  O   UNL     1      -6.841 -17.737  15.357  1.00  0.00    -0.237 OA
ATOM     89  O   UNL     1      -6.989 -16.468  17.471  1.00  0.00    -0.237 OA
ATOM     90  O   UNL     1      -8.626 -16.064  15.674  1.00  0.00    -0.744 OA
ENDBRANCH  86  87
ENDBRANCH  60  81
ENDBRANCH  34  35
ENDBRANCH  27  29
ENDBRANCH  26  27
ENDBRANCH  25  26
ENDBRANCH   1  25
TORSDOF 21
