REMARK SMILES O=C(CCC(=O)OCCOC(=O)c1ccc(-c2c3nc(c(-c4ccc(S(=O)(=O)[O-])cc4)c4ccc([nH]4)c(-c4ccc(S(=O)(=O)[O-])cc4)c4nc(c(-c5ccc(S(=O)(=O)[O-])cc5)c5ccc2[nH]5)C=C4)C=C3)cc1)Nc1ccccc1C(=O)N1CCN(c2ccc(Cl)cc2)CC1
REMARK SMILES IDX 8 1 7 2 5 3 6 4 4 5 3 6 2 7 1 8 73 9 74 11 75 12 79 13 76 14
REMARK SMILES IDX 78 15 77 16 80 17 81 18 82 19 83 20 94 21 84 22 93 23 85 24
REMARK SMILES IDX 86 25 87 26 92 27 88 28 91 29 89 30 90 31 9 32 10 33 11 34
REMARK SMILES IDX 12 35 13 36 14 37 72 38 15 39 71 40 16 41 17 42 18 43 65 44
REMARK SMILES IDX 19 45 70 46 64 47 66 48 20 49 69 50 63 51 62 52 21 54 51 55
REMARK SMILES IDX 32 56 50 57 33 58 36 59 49 60 67 61 34 62 35 63 48 65 68 66
REMARK SMILES IDX 37 67 22 68 23 69 31 70 24 71 30 72 25 73 26 74 27 75 28 76
REMARK SMILES IDX 29 77 52 78 53 79 61 80 54 81 60 82 55 83 56 84 57 85 58 86
REMARK SMILES IDX 59 87 38 88 39 89 47 90 40 91 46 92 41 93 42 94 43 95 44 96
REMARK SMILES IDX 45 97
REMARK H PARENT 73 10 66 53 36 64
REMARK Flexibility Score: inf
ROOT
ATOM      1  C   UNL     1       6.207  -2.082   2.018  1.00  0.00     0.274 C 
ENDROOT
BRANCH   1   2
ATOM      2  O   UNL     1       5.005  -1.282   2.113  1.00  0.00    -0.462 OA
BRANCH   2   3
ATOM      3  C   UNL     1       5.125  -0.066   2.718  1.00  0.00     0.306 C 
ATOM      4  O   UNL     1       6.183   0.428   3.078  1.00  0.00    -0.252 OA
BRANCH   3   5
ATOM      5  C   UNL     1       3.775   0.578   2.955  1.00  0.00     0.132 C 
BRANCH   5   6
ATOM      6  C   UNL     1       3.021   0.943   1.686  1.00  0.00     0.112 C 
BRANCH   6   7
ATOM      7  C   UNL     1       2.050  -0.140   1.243  1.00  0.00     0.224 C 
ATOM      8  O   UNL     1       0.846  -0.040   1.453  1.00  0.00    -0.275 OA
ATOM      9  N   UNL     1       2.676  -1.229   0.674  1.00  0.00    -0.325 N 
ATOM     10  H   UNL     1       3.651  -1.179   0.553  1.00  0.00     0.169 HD
BRANCH   9  11
ATOM     11  C   UNL     1       2.030  -2.407   0.254  1.00  0.00     0.054 A 
ATOM     12  C   UNL     1       2.588  -3.592   0.768  1.00  0.00     0.027 A 
ATOM     13  C   UNL     1       0.901  -2.485  -0.579  1.00  0.00     0.063 A 
ATOM     14  C   UNL     1       2.001  -4.833   0.524  1.00  0.00     0.002 A 
ATOM     15  C   UNL     1       0.337  -3.751  -0.840  1.00  0.00     0.016 A 
ATOM     16  C   UNL     1       0.875  -4.914  -0.285  1.00  0.00     0.001 A 
BRANCH  13  17
ATOM     17  C   UNL     1       0.184  -1.332  -1.185  1.00  0.00     0.256 C 
ATOM     18  O   UNL     1      -1.048  -1.352  -1.125  1.00  0.00    -0.269 OA
ATOM     19  N   UNL     1       0.865  -0.298  -1.814  1.00  0.00    -0.335 N 
ATOM     20  C   UNL     1       0.171   0.973  -2.010  1.00  0.00     0.141 C 
ATOM     21  C   UNL     1       2.172  -0.367  -2.474  1.00  0.00     0.141 C 
ATOM     22  C   UNL     1       1.031   2.140  -1.509  1.00  0.00     0.138 C 
ATOM     23  C   UNL     1       3.075   0.842  -2.153  1.00  0.00     0.138 C 
ATOM     24  N   UNL     1       2.361   2.137  -2.149  1.00  0.00    -0.368 N 
BRANCH  24  25
ATOM     25  C   UNL     1       3.171   3.267  -1.986  1.00  0.00     0.037 A 
ATOM     26  C   UNL     1       3.078   4.113  -0.868  1.00  0.00     0.027 A 
ATOM     27  C   UNL     1       4.108   3.607  -2.974  1.00  0.00     0.027 A 
ATOM     28  C   UNL     1       3.865   5.264  -0.754  1.00  0.00     0.022 A 
ATOM     29  C   UNL     1       4.889   4.765  -2.875  1.00  0.00     0.022 A 
ATOM     30  C   UNL     1       4.756   5.594  -1.767  1.00  0.00     0.041 A 
ATOM     31  Cl  UNL     1       5.682   7.036  -1.646  1.00  0.00    -0.084 Cl
ENDBRANCH  24  25
ENDBRANCH  13  17
ENDBRANCH   9  11
ENDBRANCH   6   7
ENDBRANCH   5   6
ENDBRANCH   3   5
ENDBRANCH   2   3
ENDBRANCH   1   2
BRANCH   1  32
ATOM     32  C   UNL     1       6.837  -2.058   0.620  1.00  0.00     0.275 C 
BRANCH  32  33
ATOM     33  O   UNL     1       7.481  -0.803   0.343  1.00  0.00    -0.458 OA
BRANCH  33  34
ATOM     34  C   UNL     1       6.659   0.135  -0.178  1.00  0.00     0.338 C 
ATOM     35  O   UNL     1       5.481  -0.040  -0.458  1.00  0.00    -0.246 OA
BRANCH  34  36
ATOM     36  C   UNL     1       7.325   1.448  -0.240  1.00  0.00     0.060 A 
ATOM     37  C   UNL     1       6.646   2.557   0.275  1.00  0.00     0.016 A 
ATOM     38  C   UNL     1       8.589   1.601  -0.815  1.00  0.00     0.016 A 
ATOM     39  C   UNL     1       7.237   3.818   0.234  1.00  0.00     0.010 A 
ATOM     40  C   UNL     1       9.180   2.869  -0.853  1.00  0.00     0.010 A 
ATOM     41  C   UNL     1       8.510   3.986  -0.327  1.00  0.00    -0.014 A 
BRANCH  41  42
ATOM     42  C   UNL     1       9.151   5.324  -0.330  1.00  0.00     0.031 A 
ATOM     43  C   UNL     1       9.291   6.103  -1.607  1.00  0.00     0.074 A 
ATOM     44  C   UNL     1       9.613   5.835   0.827  1.00  0.00     0.049 A 
ATOM     45  N   UNL     1       9.850   7.270  -1.804  1.00  0.00    -0.248 NA
ATOM     46  C   UNL     1       8.728   5.493  -2.822  1.00  0.00     0.031 C 
ATOM     47  C   UNL     1       9.516   5.184   2.136  1.00  0.00     0.029 A 
ATOM     48  N   UNL     1      10.264   7.014   1.089  1.00  0.00    -0.354 N 
ATOM     49  C   UNL     1       9.692   7.544  -3.157  1.00  0.00     0.074 A 
ATOM     50  C   UNL     1       9.014   6.406  -3.741  1.00  0.00     0.031 C 
ATOM     51  C   UNL     1      10.090   5.972   3.060  1.00  0.00     0.029 A 
ATOM     52  C   UNL     1      10.633   7.159   2.406  1.00  0.00     0.049 A 
ATOM     53  H   UNL     1      10.450   7.692   0.400  1.00  0.00     0.167 HD
ATOM     54  C   UNL     1      10.074   8.645  -3.848  1.00  0.00     0.031 A 
ATOM     55  C   UNL     1      11.351   8.122   3.015  1.00  0.00     0.031 A 
ATOM     56  C   UNL     1      10.783   9.758  -3.271  1.00  0.00     0.049 A 
ATOM     57  C   UNL     1      11.854   9.285   2.204  1.00  0.00     0.074 A 
ATOM     58  C   UNL     1      11.220  10.916  -3.892  1.00  0.00     0.029 A 
ATOM     59  N   UNL     1      11.173   9.847  -1.943  1.00  0.00    -0.354 N 
ATOM     60  N   UNL     1      11.675   9.539   0.930  1.00  0.00    -0.248 NA
ATOM     61  C   UNL     1      12.654  10.292   2.914  1.00  0.00     0.031 C 
ATOM     62  C   UNL     1      11.927  11.677  -2.954  1.00  0.00     0.029 A 
ATOM     63  C   UNL     1      11.876  11.022  -1.733  1.00  0.00     0.049 A 
ATOM     64  H   UNL     1      10.978   9.175  -1.251  1.00  0.00     0.167 HD
ATOM     65  C   UNL     1      12.320  10.747   0.691  1.00  0.00     0.074 A 
ATOM     66  C   UNL     1      12.881  11.179   1.955  1.00  0.00     0.031 C 
ATOM     67  C   UNL     1      12.436  11.437  -0.471  1.00  0.00     0.031 A 
BRANCH  54  68
ATOM     68  C   UNL     1       9.769   8.682  -5.322  1.00  0.00    -0.014 A 
ATOM     69  C   UNL     1       8.458   8.885  -5.789  1.00  0.00     0.010 A 
ATOM     70  C   UNL     1      10.816   8.557  -6.254  1.00  0.00     0.010 A 
ATOM     71  C   UNL     1       8.195   8.928  -7.161  1.00  0.00     0.020 A 
ATOM     72  C   UNL     1      10.560   8.622  -7.626  1.00  0.00     0.020 A 
ATOM     73  C   UNL     1       9.248   8.791  -8.072  1.00  0.00     0.054 A 
BRANCH  73  74
ATOM     74  S   UNL     1       8.881   8.861  -9.847  1.00  0.00     0.124 S 
ATOM     75  O   UNL     1       8.217   7.578 -10.068  1.00  0.00    -0.237 OA
ATOM     76  O   UNL     1       8.023  10.038  -9.952  1.00  0.00    -0.237 OA
ATOM     77  O   UNL     1      10.196   8.995 -10.469  1.00  0.00    -0.744 OA
ENDBRANCH  73  74
ENDBRANCH  54  68
BRANCH  55  78
ATOM     78  C   UNL     1      11.665   8.008   4.465  1.00  0.00    -0.014 A 
ATOM     79  C   UNL     1      11.083   8.881   5.399  1.00  0.00     0.010 A 
ATOM     80  C   UNL     1      12.549   7.011   4.919  1.00  0.00     0.010 A 
ATOM     81  C   UNL     1      11.391   8.770   6.759  1.00  0.00     0.020 A 
ATOM     82  C   UNL     1      12.837   6.879   6.280  1.00  0.00     0.020 A 
ATOM     83  C   UNL     1      12.265   7.768   7.190  1.00  0.00     0.054 A 
BRANCH  83  84
ATOM     84  S   UNL     1      12.612   7.609   8.964  1.00  0.00     0.124 S 
ATOM     85  O   UNL     1      13.509   8.736   9.200  1.00  0.00    -0.237 OA
ATOM     86  O   UNL     1      11.282   7.723   9.559  1.00  0.00    -0.237 OA
ATOM     87  O   UNL     1      13.223   6.287   9.076  1.00  0.00    -0.744 OA
ENDBRANCH  83  84
ENDBRANCH  55  78
BRANCH  67  88
ATOM     88  C   UNL     1      13.175  12.748  -0.425  1.00  0.00    -0.014 A 
ATOM     89  C   UNL     1      14.574  12.791  -0.288  1.00  0.00     0.010 A 
ATOM     90  C   UNL     1      12.463  13.952  -0.568  1.00  0.00     0.010 A 
ATOM     91  C   UNL     1      15.243  14.017  -0.264  1.00  0.00     0.020 A 
ATOM     92  C   UNL     1      13.131  15.179  -0.572  1.00  0.00     0.020 A 
ATOM     93  C   UNL     1      14.517  15.204  -0.405  1.00  0.00     0.054 A 
BRANCH  93  94
ATOM     94  S   UNL     1      15.413  16.782  -0.413  1.00  0.00     0.124 S 
ATOM     95  O   UNL     1      15.750  16.947   0.998  1.00  0.00    -0.237 OA
ATOM     96  O   UNL     1      16.541  16.506  -1.300  1.00  0.00    -0.237 OA
ATOM     97  O   UNL     1      14.435  17.733  -0.937  1.00  0.00    -0.744 OA
ENDBRANCH  93  94
ENDBRANCH  67  88
ENDBRANCH  41  42
ENDBRANCH  34  36
ENDBRANCH  33  34
ENDBRANCH  32  33
ENDBRANCH   1  32
TORSDOF 19
