REMARK SMILES O=C(C[C@H]1CN(C(=O)CSc2ccccc2F)CCO1)OCCOC(=O)c1ccc(-c2c3nc(c(-c4ccc(S(=O)(=O)[O-])cc4)c4ccc([nH]4)c(-c4ccc(S(=O)(=O)[O-])cc4)c4nc(c(-c5ccc(S(=O)(=O)[O-])cc5)c5ccc2[nH]5)C=C4)C=C3)cc1
REMARK SMILES IDX 22 1 21 2 2 3 1 4 3 5 4 6 5 7 20 8 6 9 19 10 18 11 7 12 8 13
REMARK SMILES IDX 9 14 10 15 11 16 12 17 16 18 13 19 15 20 17 21 14 22 23 23
REMARK SMILES IDX 24 24 25 25 26 26 27 27 28 28 86 29 29 30 85 31 30 32 31 33
REMARK SMILES IDX 32 34 79 35 33 36 84 37 78 38 80 39 34 40 83 41 77 42 76 43
REMARK SMILES IDX 35 45 65 46 46 47 64 48 47 49 50 50 63 51 81 52 48 53 49 54
REMARK SMILES IDX 62 56 82 57 51 58 36 59 37 60 45 61 38 62 44 63 39 64 40 65
REMARK SMILES IDX 41 66 42 67 43 68 66 69 67 70 75 71 68 72 74 73 69 74 70 75
REMARK SMILES IDX 71 76 72 77 73 78 52 79 53 80 61 81 54 82 60 83 55 84 56 85
REMARK SMILES IDX 57 86 58 87 59 88
REMARK H PARENT 80 44 50 55
REMARK Flexibility Score: inf
ROOT
ATOM      1  C   UNL     1       4.437   0.628  -1.054  1.00  0.00     0.274 C 
ENDROOT
BRANCH   1   2
ATOM      2  O   UNL     1       4.926   1.849  -0.465  1.00  0.00    -0.462 OA
BRANCH   2   3
ATOM      3  C   UNL     1       4.867   2.158   0.852  1.00  0.00     0.308 C 
ATOM      4  O   UNL     1       4.922   3.330   1.211  1.00  0.00    -0.252 OA
BRANCH   3   5
ATOM      5  C   UNL     1       4.800   1.034   1.855  1.00  0.00     0.156 C 
BRANCH   5   6
ATOM      6  C   UNL     1       3.384   0.782   2.377  1.00  0.00     0.148 C 
ATOM      7  C   UNL     1       3.005  -0.714   2.303  1.00  0.00     0.152 C 
ATOM      8  O   UNL     1       3.203   1.268   3.719  1.00  0.00    -0.374 OA
ATOM      9  N   UNL     1       3.731  -1.507   3.292  1.00  0.00    -0.337 N 
ATOM     10  C   UNL     1       3.924   0.516   4.711  1.00  0.00     0.182 C 
ATOM     11  C   UNL     1       3.615  -0.983   4.656  1.00  0.00     0.148 C 
BRANCH   9  12
ATOM     12  C   UNL     1       4.277  -2.766   3.095  1.00  0.00     0.233 C 
ATOM     13  O   UNL     1       4.776  -3.410   4.022  1.00  0.00    -0.274 OA
BRANCH  12  14
ATOM     14  C   UNL     1       4.319  -3.352   1.692  1.00  0.00     0.175 C 
BRANCH  14  15
ATOM     15  S   UNL     1       2.708  -3.962   1.102  1.00  0.00    -0.113 SA
BRANCH  15  16
ATOM     16  C   UNL     1       2.302  -5.084   2.428  1.00  0.00     0.044 A 
ATOM     17  C   UNL     1       2.697  -6.424   2.361  1.00  0.00     0.018 A 
ATOM     18  C   UNL     1       1.565  -4.649   3.534  1.00  0.00     0.136 A 
ATOM     19  C   UNL     1       2.371  -7.304   3.397  1.00  0.00     0.001 A 
ATOM     20  C   UNL     1       1.246  -5.518   4.572  1.00  0.00     0.040 A 
ATOM     21  F   UNL     1       1.153  -3.374   3.616  1.00  0.00    -0.206 F 
ATOM     22  C   UNL     1       1.650  -6.850   4.504  1.00  0.00     0.003 A 
ENDBRANCH  15  16
ENDBRANCH  14  15
ENDBRANCH  12  14
ENDBRANCH   9  12
ENDBRANCH   5   6
ENDBRANCH   3   5
ENDBRANCH   2   3
ENDBRANCH   1   2
BRANCH   1  23
ATOM     23  C   UNL     1       5.571  -0.271  -1.552  1.00  0.00     0.275 C 
BRANCH  23  24
ATOM     24  O   UNL     1       6.265  -0.882  -0.448  1.00  0.00    -0.458 OA
BRANCH  24  25
ATOM     25  C   UNL     1       7.417  -0.271  -0.064  1.00  0.00     0.338 C 
ATOM     26  O   UNL     1       7.957   0.666  -0.625  1.00  0.00    -0.246 OA
BRANCH  25  27
ATOM     27  C   UNL     1       7.824  -0.781   1.269  1.00  0.00     0.060 A 
ATOM     28  C   UNL     1       8.370   0.130   2.179  1.00  0.00     0.016 A 
ATOM     29  C   UNL     1       7.635  -2.114   1.650  1.00  0.00     0.016 A 
ATOM     30  C   UNL     1       8.743  -0.292   3.458  1.00  0.00     0.010 A 
ATOM     31  C   UNL     1       7.985  -2.529   2.942  1.00  0.00     0.010 A 
ATOM     32  C   UNL     1       8.570  -1.628   3.847  1.00  0.00    -0.014 A 
BRANCH  32  33
ATOM     33  C   UNL     1       9.111  -2.092   5.153  1.00  0.00     0.031 A 
ATOM     34  C   UNL     1      10.391  -2.885   5.184  1.00  0.00     0.074 A 
ATOM     35  C   UNL     1       8.503  -1.776   6.313  1.00  0.00     0.049 A 
ATOM     36  N   UNL     1      11.084  -3.294   6.217  1.00  0.00    -0.248 NA
ATOM     37  C   UNL     1      10.969  -3.262   3.884  1.00  0.00     0.031 C 
ATOM     38  C   UNL     1       7.253  -1.028   6.434  1.00  0.00     0.029 A 
ATOM     39  N   UNL     1       8.859  -2.042   7.613  1.00  0.00    -0.354 N 
ATOM     40  C   UNL     1      12.188  -3.954   5.693  1.00  0.00     0.074 A 
ATOM     41  C   UNL     1      12.042  -3.945   4.253  1.00  0.00     0.031 C 
ATOM     42  C   UNL     1       6.943  -0.897   7.736  1.00  0.00     0.029 A 
ATOM     43  C   UNL     1       7.970  -1.555   8.542  1.00  0.00     0.049 A 
ATOM     44  H   UNL     1       9.675  -2.536   7.856  1.00  0.00     0.167 HD
ATOM     45  C   UNL     1      13.246  -4.495   6.343  1.00  0.00     0.031 A 
ATOM     46  C   UNL     1       7.981  -1.627   9.888  1.00  0.00     0.031 A 
ATOM     47  C   UNL     1      13.393  -4.534   7.773  1.00  0.00     0.049 A 
ATOM     48  C   UNL     1       9.143  -2.281  10.591  1.00  0.00     0.074 A 
ATOM     49  C   UNL     1      14.441  -5.049   8.517  1.00  0.00     0.029 A 
ATOM     50  N   UNL     1      12.464  -4.046   8.678  1.00  0.00    -0.354 N 
ATOM     51  N   UNL     1      10.213  -2.837  10.075  1.00  0.00    -0.248 NA
ATOM     52  C   UNL     1       9.110  -2.291  12.061  1.00  0.00     0.031 C 
ATOM     53  C   UNL     1      14.125  -4.913   9.873  1.00  0.00     0.029 A 
ATOM     54  C   UNL     1      12.905  -4.266   9.973  1.00  0.00     0.049 A 
ATOM     55  H   UNL     1      11.616  -3.609   8.437  1.00  0.00     0.167 HD
ATOM     56  C   UNL     1      10.991  -3.237  11.158  1.00  0.00     0.074 A 
ATOM     57  C   UNL     1      10.279  -2.841  12.355  1.00  0.00     0.031 C 
ATOM     58  C   UNL     1      12.188  -3.875  11.160  1.00  0.00     0.031 A 
BRANCH  45  59
ATOM     59  C   UNL     1      14.341  -5.086   5.497  1.00  0.00    -0.014 A 
ATOM     60  C   UNL     1      15.209  -4.253   4.768  1.00  0.00     0.010 A 
ATOM     61  C   UNL     1      14.530  -6.478   5.458  1.00  0.00     0.010 A 
ATOM     62  C   UNL     1      16.226  -4.803   3.986  1.00  0.00     0.020 A 
ATOM     63  C   UNL     1      15.563  -7.032   4.697  1.00  0.00     0.020 A 
ATOM     64  C   UNL     1      16.395  -6.191   3.954  1.00  0.00     0.054 A 
BRANCH  64  65
ATOM     65  S   UNL     1      17.741  -6.877   2.950  1.00  0.00     0.124 S 
ATOM     66  O   UNL     1      17.229  -6.693   1.595  1.00  0.00    -0.237 OA
ATOM     67  O   UNL     1      18.875  -6.030   3.313  1.00  0.00    -0.237 OA
ATOM     68  O   UNL     1      17.835  -8.264   3.398  1.00  0.00    -0.744 OA
ENDBRANCH  64  65
ENDBRANCH  45  59
BRANCH  46  69
ATOM     69  C   UNL     1       6.851  -1.062  10.678  1.00  0.00    -0.014 A 
ATOM     70  C   UNL     1       7.026   0.089  11.467  1.00  0.00     0.010 A 
ATOM     71  C   UNL     1       5.600  -1.704  10.673  1.00  0.00     0.010 A 
ATOM     72  C   UNL     1       5.980   0.567  12.263  1.00  0.00     0.020 A 
ATOM     73  C   UNL     1       4.545  -1.215  11.448  1.00  0.00     0.020 A 
ATOM     74  C   UNL     1       4.747  -0.091  12.252  1.00  0.00     0.054 A 
BRANCH  74  75
ATOM     75  S   UNL     1       3.395   0.556  13.275  1.00  0.00     0.124 S 
ATOM     76  O   UNL     1       3.790   0.119  14.610  1.00  0.00    -0.237 OA
ATOM     77  O   UNL     1       3.472   1.994  13.030  1.00  0.00    -0.237 OA
ATOM     78  O   UNL     1       2.210  -0.099  12.726  1.00  0.00    -0.744 OA
ENDBRANCH  74  75
ENDBRANCH  46  69
BRANCH  58  79
ATOM     79  C   UNL     1      12.819  -4.160  12.499  1.00  0.00    -0.014 A 
ATOM     80  C   UNL     1      12.289  -5.135  13.363  1.00  0.00     0.010 A 
ATOM     81  C   UNL     1      13.974  -3.457  12.889  1.00  0.00     0.010 A 
ATOM     82  C   UNL     1      12.873  -5.367  14.612  1.00  0.00     0.020 A 
ATOM     83  C   UNL     1      14.577  -3.705  14.124  1.00  0.00     0.020 A 
ATOM     84  C   UNL     1      14.010  -4.645  14.988  1.00  0.00     0.054 A 
BRANCH  84  85
ATOM     85  S   UNL     1      14.759  -4.970  16.608  1.00  0.00     0.124 S 
ATOM     86  O   UNL     1      13.843  -4.277  17.510  1.00  0.00    -0.237 OA
ATOM     87  O   UNL     1      14.736  -6.429  16.688  1.00  0.00    -0.237 OA
ATOM     88  O   UNL     1      16.091  -4.380  16.498  1.00  0.00    -0.744 OA
ENDBRANCH  84  85
ENDBRANCH  58  79
ENDBRANCH  32  33
ENDBRANCH  25  27
ENDBRANCH  24  25
ENDBRANCH  23  24
ENDBRANCH   1  23
TORSDOF 19
