REMARK SMILES CC(C)(C)n1ccnc(N(CC(=O)OCCOC(=O)c2ccc(-c3c4nc(c(-c5ccc(S(=O)(=O)[O-])cc5)c5ccc([nH]5)c(-c5ccc(S(=O)(=O)[O-])cc5)c5nc(c(-c6ccc(S(=O)(=O)[O-])cc6)c6ccc3[nH]6)C=C5)C=C4)cc2)CC(F)(F)F)c1=O
REMARK SMILES IDX 15 1 14 2 12 3 13 4 11 5 10 6 9 7 5 8 6 9 85 10 7 11 86 12
REMARK SMILES IDX 8 13 2 14 1 15 3 16 4 17 80 18 81 19 82 20 83 21 84 22 16 23
REMARK SMILES IDX 17 24 18 25 19 26 20 27 21 28 79 29 22 30 78 31 23 32 24 33
REMARK SMILES IDX 25 34 72 35 26 36 77 37 71 38 73 39 27 40 76 41 70 42 69 43
REMARK SMILES IDX 28 45 58 46 39 47 57 48 40 49 43 50 56 51 74 52 41 53 42 54
REMARK SMILES IDX 55 56 75 57 44 58 29 59 30 60 38 61 31 62 37 63 32 64 33 65
REMARK SMILES IDX 34 66 35 67 36 68 59 69 60 70 68 71 61 72 67 73 62 74 63 75
REMARK SMILES IDX 64 76 65 77 66 78 45 79 46 80 54 81 47 82 53 83 48 84 49 85
REMARK SMILES IDX 50 86 51 87 52 88
REMARK H PARENT 73 44 43 55
REMARK Flexibility Score: inf
ROOT
ATOM      1  C   UNL     1       6.825   5.276  -2.189  1.00  0.00     0.274 C 
ENDROOT
BRANCH   1   2
ATOM      2  O   UNL     1       5.560   4.705  -2.576  1.00  0.00    -0.461 OA
BRANCH   2   3
ATOM      3  C   UNL     1       4.920   5.311  -3.608  1.00  0.00     0.325 C 
ATOM      4  O   UNL     1       5.328   6.316  -4.183  1.00  0.00    -0.250 OA
BRANCH   3   5
ATOM      5  C   UNL     1       3.633   4.613  -4.028  1.00  0.00     0.241 C 
BRANCH   5   6
ATOM      6  N   UNL     1       3.387   3.275  -3.448  1.00  0.00    -0.332 N 
BRANCH   6   7
ATOM      7  C   UNL     1       2.181   3.043  -2.771  1.00  0.00     0.196 A 
ATOM      8  N   UNL     1       0.489   1.460  -1.769  1.00  0.00    -0.306 N 
ATOM      9  C   UNL     1      -0.083   2.618  -1.268  1.00  0.00     0.110 A 
ATOM     10  C   UNL     1       1.590   1.594  -2.627  1.00  0.00     0.294 A 
ATOM     11  C   UNL     1       0.405   3.827  -1.554  1.00  0.00     0.131 A 
ATOM     12  O   UNL     1       2.104   0.692  -3.277  1.00  0.00    -0.265 OA
ATOM     13  N   UNL     1       1.537   4.068  -2.270  1.00  0.00    -0.233 NA
BRANCH   8  14
ATOM     14  C   UNL     1       0.016   0.120  -1.271  1.00  0.00     0.039 C 
ATOM     15  C   UNL     1       0.611  -0.102   0.136  1.00  0.00     0.034 C 
ATOM     16  C   UNL     1       0.443  -1.082  -2.147  1.00  0.00     0.034 C 
ATOM     17  C   UNL     1      -1.528   0.046  -1.189  1.00  0.00     0.034 C 
ENDBRANCH   8  14
ENDBRANCH   6   7
BRANCH   6  18
ATOM     18  C   UNL     1       4.331   2.190  -3.835  1.00  0.00     0.234 C 
BRANCH  18  19
ATOM     19  C   UNL     1       4.992   1.411  -2.677  1.00  0.00     0.405 C 
ATOM     20  F   UNL     1       4.127   1.069  -1.694  1.00  0.00    -0.169 F 
ATOM     21  F   UNL     1       5.555   0.265  -3.128  1.00  0.00    -0.169 F 
ATOM     22  F   UNL     1       5.973   2.129  -2.081  1.00  0.00    -0.169 F 
ENDBRANCH  18  19
ENDBRANCH   6  18
ENDBRANCH   5   6
ENDBRANCH   3   5
ENDBRANCH   2   3
ENDBRANCH   1   2
BRANCH   1  23
ATOM     23  C   UNL     1       7.989   4.506  -2.814  1.00  0.00     0.275 C 
BRANCH  23  24
ATOM     24  O   UNL     1       7.931   4.589  -4.249  1.00  0.00    -0.458 OA
BRANCH  24  25
ATOM     25  C   UNL     1       7.794   3.416  -4.907  1.00  0.00     0.338 C 
ATOM     26  O   UNL     1       7.720   2.295  -4.437  1.00  0.00    -0.246 OA
BRANCH  25  27
ATOM     27  C   UNL     1       7.670   3.686  -6.344  1.00  0.00     0.060 A 
ATOM     28  C   UNL     1       8.740   3.408  -7.192  1.00  0.00     0.016 A 
ATOM     29  C   UNL     1       6.450   4.133  -6.855  1.00  0.00     0.016 A 
ATOM     30  C   UNL     1       8.592   3.621  -8.563  1.00  0.00     0.010 A 
ATOM     31  C   UNL     1       6.288   4.298  -8.229  1.00  0.00     0.010 A 
ATOM     32  C   UNL     1       7.366   4.064  -9.091  1.00  0.00    -0.014 A 
BRANCH  32  33
ATOM     33  C   UNL     1       7.216   4.275 -10.550  1.00  0.00     0.031 A 
ATOM     34  C   UNL     1       7.107   5.665 -11.109  1.00  0.00     0.074 A 
ATOM     35  C   UNL     1       7.196   3.208 -11.371  1.00  0.00     0.049 A 
ATOM     36  N   UNL     1       7.099   6.044 -12.361  1.00  0.00    -0.248 NA
ATOM     37  C   UNL     1       6.985   6.771 -10.145  1.00  0.00     0.031 C 
ATOM     38  C   UNL     1       7.249   1.811 -10.934  1.00  0.00     0.029 A 
ATOM     39  N   UNL     1       7.150   3.128 -12.740  1.00  0.00    -0.354 N 
ATOM     40  C   UNL     1       6.996   7.429 -12.335  1.00  0.00     0.074 A 
ATOM     41  C   UNL     1       6.879   7.821 -10.948  1.00  0.00     0.031 C 
ATOM     42  C   UNL     1       7.286   1.016 -12.014  1.00  0.00     0.029 A 
ATOM     43  C   UNL     1       7.239   1.842 -13.219  1.00  0.00     0.049 A 
ATOM     44  H   UNL     1       7.063   3.917 -13.324  1.00  0.00     0.167 HD
ATOM     45  C   UNL     1       7.030   8.296 -13.373  1.00  0.00     0.031 A 
ATOM     46  C   UNL     1       7.303   1.378 -14.483  1.00  0.00     0.031 A 
ATOM     47  C   UNL     1       7.140   7.896 -14.750  1.00  0.00     0.049 A 
ATOM     48  C   UNL     1       7.319   2.357 -15.623  1.00  0.00     0.074 A 
ATOM     49  C   UNL     1       7.217   8.701 -15.872  1.00  0.00     0.029 A 
ATOM     50  N   UNL     1       7.188   6.582 -15.193  1.00  0.00    -0.354 N 
ATOM     51  N   UNL     1       7.292   3.667 -15.577  1.00  0.00    -0.248 NA
ATOM     52  C   UNL     1       7.386   1.802 -16.982  1.00  0.00     0.031 C 
ATOM     53  C   UNL     1       7.260   7.875 -16.998  1.00  0.00     0.029 A 
ATOM     54  C   UNL     1       7.268   6.554 -16.574  1.00  0.00     0.049 A 
ATOM     55  H   UNL     1       7.168   5.788 -14.612  1.00  0.00     0.167 HD
ATOM     56  C   UNL     1       7.349   4.095 -16.898  1.00  0.00     0.074 A 
ATOM     57  C   UNL     1       7.428   2.905 -17.720  1.00  0.00     0.031 C 
ATOM     58  C   UNL     1       7.336   5.361 -17.381  1.00  0.00     0.031 A 
BRANCH  45  59
ATOM     59  C   UNL     1       6.977   9.768 -13.067  1.00  0.00    -0.014 A 
ATOM     60  C   UNL     1       5.855  10.530 -13.438  1.00  0.00     0.010 A 
ATOM     61  C   UNL     1       8.087  10.417 -12.495  1.00  0.00     0.010 A 
ATOM     62  C   UNL     1       5.850  11.916 -13.261  1.00  0.00     0.020 A 
ATOM     63  C   UNL     1       8.076  11.800 -12.295  1.00  0.00     0.020 A 
ATOM     64  C   UNL     1       6.965  12.544 -12.698  1.00  0.00     0.054 A 
BRANCH  64  65
ATOM     65  S   UNL     1       6.946  14.345 -12.478  1.00  0.00     0.124 S 
ATOM     66  O   UNL     1       7.229  14.823 -13.827  1.00  0.00    -0.237 OA
ATOM     67  O   UNL     1       5.592  14.595 -11.990  1.00  0.00    -0.237 OA
ATOM     68  O   UNL     1       8.003  14.578 -11.496  1.00  0.00    -0.744 OA
ENDBRANCH  64  65
ENDBRANCH  45  59
BRANCH  46  69
ATOM     69  C   UNL     1       7.427  -0.087 -14.706  1.00  0.00    -0.014 A 
ATOM     70  C   UNL     1       6.340  -0.942 -14.443  1.00  0.00     0.010 A 
ATOM     71  C   UNL     1       8.662  -0.645 -15.077  1.00  0.00     0.010 A 
ATOM     72  C   UNL     1       6.501  -2.329 -14.495  1.00  0.00     0.020 A 
ATOM     73  C   UNL     1       8.821  -2.033 -15.153  1.00  0.00     0.020 A 
ATOM     74  C   UNL     1       7.747  -2.865 -14.831  1.00  0.00     0.054 A 
BRANCH  74  75
ATOM     75  S   UNL     1       7.954  -4.668 -14.828  1.00  0.00     0.124 S 
ATOM     76  O   UNL     1       8.084  -4.951 -13.401  1.00  0.00    -0.237 OA
ATOM     77  O   UNL     1       6.718  -5.135 -15.451  1.00  0.00    -0.237 OA
ATOM     78  O   UNL     1       9.163  -4.874 -15.621  1.00  0.00    -0.744 OA
ENDBRANCH  74  75
ENDBRANCH  46  69
BRANCH  58  79
ATOM     79  C   UNL     1       7.388   5.554 -18.872  1.00  0.00    -0.014 A 
ATOM     80  C   UNL     1       8.539   6.108 -19.465  1.00  0.00     0.010 A 
ATOM     81  C   UNL     1       6.244   5.339 -19.659  1.00  0.00     0.010 A 
ATOM     82  C   UNL     1       8.530   6.484 -20.810  1.00  0.00     0.020 A 
ATOM     83  C   UNL     1       6.239   5.693 -21.011  1.00  0.00     0.020 A 
ATOM     84  C   UNL     1       7.373   6.289 -21.570  1.00  0.00     0.054 A 
BRANCH  84  85
ATOM     85  S   UNL     1       7.358   6.836 -23.300  1.00  0.00     0.124 S 
ATOM     86  O   UNL     1       7.164   8.276 -23.164  1.00  0.00    -0.237 OA
ATOM     87  O   UNL     1       8.674   6.421 -23.781  1.00  0.00    -0.237 OA
ATOM     88  O   UNL     1       6.234   6.105 -23.879  1.00  0.00    -0.744 OA
ENDBRANCH  84  85
ENDBRANCH  58  79
ENDBRANCH  32  33
ENDBRANCH  25  27
ENDBRANCH  24  25
ENDBRANCH  23  24
ENDBRANCH   1  23
TORSDOF 19
