REMARK SMILES COc1ncnc(N2CCCC[C@H]2CC(=O)OCCOC(=O)c2ccc(-c3c4nc(c(-c5ccc(S(=O)(=O)[O-])cc5)c5ccc([nH]5)c(-c5ccc(S(=O)(=O)[O-])cc5)c5nc(c(-c6ccc(S(=O)(=O)[O-])cc6)c6ccc3[nH]6)C=C5)C=C4)cc2)c1[N+](=O)[O-]
REMARK SMILES IDX 18 1 17 2 15 3 16 4 14 5 13 6 8 7 9 8 10 9 12 10 11 11 7 12
REMARK SMILES IDX 3 13 4 14 83 15 5 16 6 17 2 18 1 19 84 20 85 21 86 22 19 23
REMARK SMILES IDX 20 24 21 25 22 26 23 27 24 28 82 29 25 30 81 31 26 32 27 33
REMARK SMILES IDX 28 34 75 35 29 36 80 37 74 38 76 39 30 40 79 41 73 42 72 43
REMARK SMILES IDX 31 45 61 46 42 47 60 48 43 49 46 50 59 51 77 52 44 53 45 54
REMARK SMILES IDX 58 56 78 57 47 58 32 59 33 60 41 61 34 62 40 63 35 64 36 65
REMARK SMILES IDX 37 66 38 67 39 68 62 69 63 70 71 71 64 72 70 73 65 74 66 75
REMARK SMILES IDX 67 76 68 77 69 78 48 79 49 80 57 81 50 82 56 83 51 84 52 85
REMARK SMILES IDX 53 86 54 87 55 88
REMARK H PARENT 76 44 46 55
REMARK Flexibility Score: inf
ROOT
ATOM      1  C   UNL     1       5.559   1.630  -1.385  1.00  0.00     0.274 C 
ENDROOT
BRANCH   1   2
ATOM      2  O   UNL     1       5.251   0.560  -2.304  1.00  0.00    -0.462 OA
BRANCH   2   3
ATOM      3  C   UNL     1       6.264  -0.299  -2.562  1.00  0.00     0.307 C 
ATOM      4  O   UNL     1       7.400  -0.184  -2.111  1.00  0.00    -0.252 OA
BRANCH   3   5
ATOM      5  C   UNL     1       5.918  -1.369  -3.562  1.00  0.00     0.147 C 
BRANCH   5   6
ATOM      6  C   UNL     1       4.662  -2.248  -3.332  1.00  0.00     0.095 C 
ATOM      7  N   UNL     1       3.435  -1.708  -3.983  1.00  0.00    -0.347 N 
ATOM      8  C   UNL     1       3.530  -1.569  -5.453  1.00  0.00     0.118 C 
ATOM      9  C   UNL     1       3.929  -2.885  -6.135  1.00  0.00     0.022 C 
ATOM     10  C   UNL     1       4.928  -3.651  -3.944  1.00  0.00     0.026 C 
ATOM     11  C   UNL     1       5.112  -3.579  -5.462  1.00  0.00     0.004 C 
BRANCH   7  12
ATOM     12  C   UNL     1       2.172  -2.117  -3.520  1.00  0.00     0.215 A 
ATOM     13  C   UNL     1       0.313  -2.268  -2.019  1.00  0.00     0.299 A 
ATOM     14  N   UNL     1      -0.433  -2.935  -2.914  1.00  0.00    -0.196 NA
ATOM     15  C   UNL     1       1.623  -1.876  -2.268  1.00  0.00     0.372 A 
ATOM     16  C   UNL     1       0.163  -3.167  -4.080  1.00  0.00     0.228 A 
ATOM     17  N   UNL     1       1.400  -2.776  -4.422  1.00  0.00    -0.212 NA
BRANCH  13  18
ATOM     18  O   UNL     1      -0.345  -2.067  -0.832  1.00  0.00    -0.476 OA
ATOM     19  C   UNL     1      -0.631  -0.695  -0.562  1.00  0.00     0.280 C 
ENDBRANCH  13  18
BRANCH  15  20
ATOM     20  N   UNL     1       2.258  -1.109  -1.254  1.00  0.00     0.072 N 
ATOM     21  O   UNL     1       2.449   0.093  -1.495  1.00  0.00    -0.258 OA
ATOM     22  O   UNL     1       2.372  -1.647  -0.141  1.00  0.00    -0.258 OA
ENDBRANCH  15  20
ENDBRANCH   7  12
ENDBRANCH   5   6
ENDBRANCH   3   5
ENDBRANCH   2   3
ENDBRANCH   1   2
BRANCH   1  23
ATOM     23  C   UNL     1       5.250   1.315   0.091  1.00  0.00     0.275 C 
BRANCH  23  24
ATOM     24  O   UNL     1       6.122   0.340   0.702  1.00  0.00    -0.458 OA
BRANCH  24  25
ATOM     25  C   UNL     1       5.784  -0.932   0.403  1.00  0.00     0.338 C 
ATOM     26  O   UNL     1       4.897  -1.281  -0.355  1.00  0.00    -0.246 OA
BRANCH  25  27
ATOM     27  C   UNL     1       6.656  -1.958   0.959  1.00  0.00     0.060 A 
ATOM     28  C   UNL     1       7.100  -2.930   0.054  1.00  0.00     0.016 A 
ATOM     29  C   UNL     1       6.871  -2.092   2.329  1.00  0.00     0.016 A 
ATOM     30  C   UNL     1       7.766  -4.049   0.517  1.00  0.00     0.010 A 
ATOM     31  C   UNL     1       7.569  -3.210   2.793  1.00  0.00     0.010 A 
ATOM     32  C   UNL     1       8.021  -4.185   1.888  1.00  0.00    -0.014 A 
BRANCH  32  33
ATOM     33  C   UNL     1       8.880  -5.305   2.315  1.00  0.00     0.031 A 
ATOM     34  C   UNL     1       8.305  -6.523   2.966  1.00  0.00     0.074 A 
ATOM     35  C   UNL     1      10.191  -5.213   2.024  1.00  0.00     0.049 A 
ATOM     36  N   UNL     1       8.922  -7.614   3.338  1.00  0.00    -0.248 NA
ATOM     37  C   UNL     1       6.859  -6.522   3.236  1.00  0.00     0.031 C 
ATOM     38  C   UNL     1      10.826  -4.062   1.373  1.00  0.00     0.029 A 
ATOM     39  N   UNL     1      11.215  -6.099   2.209  1.00  0.00    -0.354 N 
ATOM     40  C   UNL     1       7.949  -8.422   3.911  1.00  0.00     0.074 A 
ATOM     41  C   UNL     1       6.698  -7.697   3.835  1.00  0.00     0.031 C 
ATOM     42  C   UNL     1      12.127  -4.327   1.185  1.00  0.00     0.029 A 
ATOM     43  C   UNL     1      12.422  -5.641   1.740  1.00  0.00     0.049 A 
ATOM     44  H   UNL     1      11.099  -6.979   2.635  1.00  0.00     0.167 HD
ATOM     45  C   UNL     1       8.101  -9.652   4.458  1.00  0.00     0.031 A 
ATOM     46  C   UNL     1      13.638  -6.213   1.768  1.00  0.00     0.031 A 
ATOM     47  C   UNL     1       9.359 -10.353   4.520  1.00  0.00     0.049 A 
ATOM     48  C   UNL     1      13.769  -7.580   2.368  1.00  0.00     0.074 A 
ATOM     49  C   UNL     1       9.620 -11.612   5.033  1.00  0.00     0.029 A 
ATOM     50  N   UNL     1      10.568  -9.853   4.056  1.00  0.00    -0.354 N 
ATOM     51  N   UNL     1      12.833  -8.340   2.887  1.00  0.00    -0.248 NA
ATOM     52  C   UNL     1      15.112  -8.167   2.385  1.00  0.00     0.031 C 
ATOM     53  C   UNL     1      10.994 -11.855   4.917  1.00  0.00     0.029 A 
ATOM     54  C   UNL     1      11.582 -10.766   4.293  1.00  0.00     0.049 A 
ATOM     55  H   UNL     1      10.687  -8.977   3.623  1.00  0.00     0.167 HD
ATOM     56  C   UNL     1      13.477  -9.496   3.303  1.00  0.00     0.074 A 
ATOM     57  C   UNL     1      14.874  -9.349   2.938  1.00  0.00     0.031 C 
ATOM     58  C   UNL     1      12.966 -10.578   3.940  1.00  0.00     0.031 A 
BRANCH  45  59
ATOM     59  C   UNL     1       6.892 -10.300   5.075  1.00  0.00    -0.014 A 
ATOM     60  C   UNL     1       5.886 -10.881   4.283  1.00  0.00     0.010 A 
ATOM     61  C   UNL     1       6.793 -10.382   6.476  1.00  0.00     0.010 A 
ATOM     62  C   UNL     1       4.792 -11.513   4.882  1.00  0.00     0.020 A 
ATOM     63  C   UNL     1       5.709 -11.028   7.079  1.00  0.00     0.020 A 
ATOM     64  C   UNL     1       4.709 -11.581   6.277  1.00  0.00     0.054 A 
BRANCH  64  65
ATOM     65  S   UNL     1       3.300 -12.442   7.032  1.00  0.00     0.124 S 
ATOM     66  O   UNL     1       2.224 -11.470   6.857  1.00  0.00    -0.237 OA
ATOM     67  O   UNL     1       3.191 -13.653   6.222  1.00  0.00    -0.237 OA
ATOM     68  O   UNL     1       3.726 -12.658   8.413  1.00  0.00    -0.744 OA
ENDBRANCH  64  65
ENDBRANCH  45  59
BRANCH  46  69
ATOM     69  C   UNL     1      14.812  -5.471   1.242  1.00  0.00    -0.014 A 
ATOM     70  C   UNL     1      15.432  -5.857   0.043  1.00  0.00     0.010 A 
ATOM     71  C   UNL     1      15.286  -4.336   1.927  1.00  0.00     0.010 A 
ATOM     72  C   UNL     1      16.517  -5.128  -0.456  1.00  0.00     0.020 A 
ATOM     73  C   UNL     1      16.351  -3.591   1.418  1.00  0.00     0.020 A 
ATOM     74  C   UNL     1      16.969  -3.999   0.235  1.00  0.00     0.054 A 
BRANCH  74  75
ATOM     75  S   UNL     1      18.336  -3.027  -0.455  1.00  0.00     0.124 S 
ATOM     76  O   UNL     1      19.499  -3.800  -0.034  1.00  0.00    -0.237 OA
ATOM     77  O   UNL     1      18.050  -3.042  -1.888  1.00  0.00    -0.237 OA
ATOM     78  O   UNL     1      18.181  -1.723   0.187  1.00  0.00    -0.744 OA
ENDBRANCH  74  75
ENDBRANCH  46  69
BRANCH  58  79
ATOM     79  C   UNL     1      13.940 -11.668   4.284  1.00  0.00    -0.014 A 
ATOM     80  C   UNL     1      14.855 -11.506   5.339  1.00  0.00     0.010 A 
ATOM     81  C   UNL     1      13.943 -12.863   3.543  1.00  0.00     0.010 A 
ATOM     82  C   UNL     1      15.792 -12.502   5.617  1.00  0.00     0.020 A 
ATOM     83  C   UNL     1      14.865 -13.870   3.833  1.00  0.00     0.020 A 
ATOM     84  C   UNL     1      15.798 -13.673   4.855  1.00  0.00     0.054 A 
BRANCH  84  85
ATOM     85  S   UNL     1      17.022 -14.958   5.229  1.00  0.00     0.124 S 
ATOM     86  O   UNL     1      18.216 -14.438   4.568  1.00  0.00    -0.237 OA
ATOM     87  O   UNL     1      17.061 -14.955   6.690  1.00  0.00    -0.237 OA
ATOM     88  O   UNL     1      16.450 -16.162   4.631  1.00  0.00    -0.744 OA
ENDBRANCH  84  85
ENDBRANCH  58  79
ENDBRANCH  32  33
ENDBRANCH  25  27
ENDBRANCH  24  25
ENDBRANCH  23  24
ENDBRANCH   1  23
TORSDOF 18
