REMARK SMILES CC1(C)[C@](C)(C(=O)OCCOC(=O)c2ccc(-c3c4nc(c(-c5ccc(S(=O)(=O)[O-])cc5)c5ccc([nH]5)c(-c5ccc(S(=O)(=O)[O-])cc5)c5nc(c(-c6ccc(S(=O)(=O)[O-])cc6)c6ccc3[nH]6)C=C5)C=C4)cc2)CC[C@@]1(C)C(=O)N1CCc2ccccc2C1
REMARK SMILES IDX 10 1 9 2 8 3 6 4 7 5 4 6 1 7 2 8 3 9 76 10 74 11 5 12 75 13
REMARK SMILES IDX 77 14 78 15 79 16 80 17 81 18 89 19 82 20 88 21 83 22 87 23
REMARK SMILES IDX 84 24 86 25 85 26 11 27 12 28 13 29 14 30 15 31 73 32 16 33
REMARK SMILES IDX 72 34 17 35 18 36 19 37 66 38 20 39 71 40 65 41 67 42 21 43
REMARK SMILES IDX 70 44 64 45 63 46 22 48 52 49 33 50 51 51 34 52 37 53 50 54
REMARK SMILES IDX 68 55 35 56 36 57 49 59 69 60 38 61 23 62 24 63 32 64 25 65
REMARK SMILES IDX 31 66 26 67 27 68 28 69 29 70 30 71 53 72 54 73 62 74 55 75
REMARK SMILES IDX 61 76 56 77 57 78 58 79 59 80 60 81 39 82 40 83 48 84 41 85
REMARK SMILES IDX 47 86 42 87 43 88 44 89 45 90 46 91
REMARK H PARENT 67 47 37 58
REMARK Flexibility Score: inf
ROOT
ATOM      1  C   UNL     1      -0.389  -5.792   0.269  1.00  0.00     0.275 C 
ENDROOT
BRANCH   1   2
ATOM      2  C   UNL     1      -1.037  -4.511  -0.254  1.00  0.00     0.274 C 
BRANCH   2   3
ATOM      3  O   UNL     1      -0.194  -3.393   0.058  1.00  0.00    -0.462 OA
BRANCH   3   4
ATOM      4  C   UNL     1      -0.432  -2.808   1.264  1.00  0.00     0.312 C 
ATOM      5  O   UNL     1      -1.411  -3.038   1.966  1.00  0.00    -0.252 OA
BRANCH   4   6
ATOM      6  C   UNL     1       0.645  -1.776   1.593  1.00  0.00     0.071 C 
ATOM      7  C   UNL     1       0.581  -0.231  -0.524  1.00  0.00     0.013 C 
ATOM      8  C   UNL     1       0.245  -0.386   0.978  1.00  0.00    -0.005 C 
ATOM      9  C   UNL     1      -1.306  -0.186   1.029  1.00  0.00     0.013 C 
ATOM     10  C   UNL     1       0.996   0.667   1.908  1.00  0.00     0.053 C 
ATOM     11  C   UNL     1       0.689  -1.467   3.104  1.00  0.00     0.020 C 
ATOM     12  C   UNL     1       2.015  -2.390   1.225  1.00  0.00     0.024 C 
ATOM     13  C   UNL     1       1.258  -0.065   3.244  1.00  0.00     0.018 C 
ATOM     14  C   UNL     1       0.098   1.888   2.235  1.00  0.00     0.022 C 
BRANCH  10  15
ATOM     15  C   UNL     1       2.378   1.017   1.239  1.00  0.00     0.229 C 
ATOM     16  O   UNL     1       3.139   0.164   0.783  1.00  0.00    -0.274 OA
BRANCH  15  17
ATOM     17  N   UNL     1       2.753   2.334   1.171  1.00  0.00    -0.338 N 
ATOM     18  C   UNL     1       3.650   2.798   0.111  1.00  0.00     0.124 C 
ATOM     19  C   UNL     1       2.796   3.026   2.421  1.00  0.00     0.155 C 
ATOM     20  C   UNL     1       3.758   4.338   0.061  1.00  0.00     0.057 C 
ATOM     21  C   UNL     1       3.865   4.064   2.542  1.00  0.00    -0.025 A 
ATOM     22  C   UNL     1       3.960   4.924   1.441  1.00  0.00    -0.041 A 
ATOM     23  C   UNL     1       4.179   4.455   3.841  1.00  0.00     0.006 A 
ATOM     24  C   UNL     1       3.996   6.283   1.718  1.00  0.00     0.004 A 
ATOM     25  C   UNL     1       4.215   5.807   4.104  1.00  0.00     0.000 A 
ATOM     26  C   UNL     1       4.050   6.715   3.053  1.00  0.00     0.000 A 
ENDBRANCH  15  17
ENDBRANCH  10  15
ENDBRANCH   4   6
ENDBRANCH   3   4
ENDBRANCH   2   3
ENDBRANCH   1   2
BRANCH   1  27
ATOM     27  O   UNL     1      -0.285  -5.735   1.706  1.00  0.00    -0.458 OA
BRANCH  27  28
ATOM     28  C   UNL     1       0.895  -6.135   2.236  1.00  0.00     0.338 C 
ATOM     29  O   UNL     1       1.838  -6.618   1.631  1.00  0.00    -0.246 OA
BRANCH  28  30
ATOM     30  C   UNL     1       0.914  -5.901   3.698  1.00  0.00     0.060 A 
ATOM     31  C   UNL     1       0.480  -4.692   4.234  1.00  0.00     0.016 A 
ATOM     32  C   UNL     1       1.478  -6.851   4.544  1.00  0.00     0.016 A 
ATOM     33  C   UNL     1       0.703  -4.379   5.576  1.00  0.00     0.010 A 
ATOM     34  C   UNL     1       1.582  -6.588   5.917  1.00  0.00     0.010 A 
ATOM     35  C   UNL     1       1.230  -5.333   6.451  1.00  0.00    -0.014 A 
BRANCH  35  36
ATOM     36  C   UNL     1       1.441  -5.034   7.900  1.00  0.00     0.031 A 
ATOM     37  C   UNL     1       2.791  -5.286   8.529  1.00  0.00     0.074 A 
ATOM     38  C   UNL     1       0.441  -4.560   8.675  1.00  0.00     0.049 A 
ATOM     39  N   UNL     1       3.112  -5.380   9.795  1.00  0.00    -0.248 NA
ATOM     40  C   UNL     1       3.924  -5.479   7.609  1.00  0.00     0.031 C 
ATOM     41  C   UNL     1      -0.900  -4.189   8.216  1.00  0.00     0.029 A 
ATOM     42  N   UNL     1       0.398  -4.317  10.029  1.00  0.00    -0.354 N 
ATOM     43  C   UNL     1       4.460  -5.724   9.820  1.00  0.00     0.074 A 
ATOM     44  C   UNL     1       4.898  -5.813   8.444  1.00  0.00     0.031 C 
ATOM     45  C   UNL     1      -1.618  -3.739   9.256  1.00  0.00     0.029 A 
ATOM     46  C   UNL     1      -0.834  -3.894  10.474  1.00  0.00     0.049 A 
ATOM     47  H   UNL     1       1.174  -4.434  10.623  1.00  0.00     0.167 HD
ATOM     48  C   UNL     1       5.256  -5.955  10.893  1.00  0.00     0.031 A 
ATOM     49  C   UNL     1      -1.313  -3.713  11.721  1.00  0.00     0.031 A 
ATOM     50  C   UNL     1       4.830  -5.812  12.261  1.00  0.00     0.049 A 
ATOM     51  C   UNL     1      -0.431  -4.019  12.898  1.00  0.00     0.074 A 
ATOM     52  C   UNL     1       5.562  -6.018  13.418  1.00  0.00     0.029 A 
ATOM     53  N   UNL     1       3.564  -5.406  12.657  1.00  0.00    -0.354 N 
ATOM     54  N   UNL     1       0.815  -4.428  12.909  1.00  0.00    -0.248 NA
ATOM     55  C   UNL     1      -1.026  -3.859  14.232  1.00  0.00     0.031 C 
ATOM     56  C   UNL     1       4.727  -5.775  14.514  1.00  0.00     0.029 A 
ATOM     57  C   UNL     1       3.492  -5.365  14.039  1.00  0.00     0.049 A 
ATOM     58  H   UNL     1       2.826  -5.181  12.046  1.00  0.00     0.167 HD
ATOM     59  C   UNL     1       1.158  -4.558  14.250  1.00  0.00     0.074 A 
ATOM     60  C   UNL     1      -0.005  -4.167  15.020  1.00  0.00     0.031 C 
ATOM     61  C   UNL     1       2.330  -4.969  14.793  1.00  0.00     0.031 A 
BRANCH  48  62
ATOM     62  C   UNL     1       6.660  -6.440  10.632  1.00  0.00    -0.014 A 
ATOM     63  C   UNL     1       7.653  -5.592  10.113  1.00  0.00     0.010 A 
ATOM     64  C   UNL     1       6.995  -7.771  10.948  1.00  0.00     0.010 A 
ATOM     65  C   UNL     1       8.943  -6.077   9.875  1.00  0.00     0.020 A 
ATOM     66  C   UNL     1       8.290  -8.252  10.739  1.00  0.00     0.020 A 
ATOM     67  C   UNL     1       9.252  -7.406  10.185  1.00  0.00     0.054 A 
BRANCH  67  68
ATOM     68  S   UNL     1      10.937  -8.007   9.881  1.00  0.00     0.124 S 
ATOM     69  O   UNL     1      10.952  -8.138   8.426  1.00  0.00    -0.237 OA
ATOM     70  O   UNL     1      11.765  -6.931  10.422  1.00  0.00    -0.237 OA
ATOM     71  O   UNL     1      10.996  -9.265  10.620  1.00  0.00    -0.744 OA
ENDBRANCH  67  68
ENDBRANCH  48  62
BRANCH  49  72
ATOM     72  C   UNL     1      -2.726  -3.281  11.919  1.00  0.00    -0.014 A 
ATOM     73  C   UNL     1      -3.020  -2.005  12.430  1.00  0.00     0.010 A 
ATOM     74  C   UNL     1      -3.788  -4.142  11.581  1.00  0.00     0.010 A 
ATOM     75  C   UNL     1      -4.347  -1.600  12.605  1.00  0.00     0.020 A 
ATOM     76  C   UNL     1      -5.115  -3.729  11.723  1.00  0.00     0.020 A 
ATOM     77  C   UNL     1      -5.386  -2.463  12.245  1.00  0.00     0.054 A 
BRANCH  77  78
ATOM     78  S   UNL     1      -7.100  -1.893  12.418  1.00  0.00     0.124 S 
ATOM     79  O   UNL     1      -7.307  -1.986  13.860  1.00  0.00    -0.237 OA
ATOM     80  O   UNL     1      -7.040  -0.539  11.873  1.00  0.00    -0.237 OA
ATOM     81  O   UNL     1      -7.860  -2.846  11.612  1.00  0.00    -0.744 OA
ENDBRANCH  77  78
ENDBRANCH  49  72
BRANCH  61  82
ATOM     82  C   UNL     1       2.431  -4.971  16.294  1.00  0.00    -0.014 A 
ATOM     83  C   UNL     1       1.780  -5.946  17.069  1.00  0.00     0.010 A 
ATOM     84  C   UNL     1       3.229  -4.005  16.934  1.00  0.00     0.010 A 
ATOM     85  C   UNL     1       1.901  -5.937  18.462  1.00  0.00     0.020 A 
ATOM     86  C   UNL     1       3.373  -4.008  18.323  1.00  0.00     0.020 A 
ATOM     87  C   UNL     1       2.695  -4.966  19.080  1.00  0.00     0.054 A 
BRANCH  87  88
ATOM     88  S   UNL     1       2.870  -4.998  20.885  1.00  0.00     0.124 S 
ATOM     89  O   UNL     1       1.580  -4.473  21.324  1.00  0.00    -0.237 OA
ATOM     90  O   UNL     1       3.100  -6.414  21.161  1.00  0.00    -0.237 OA
ATOM     91  O   UNL     1       4.016  -4.126  21.137  1.00  0.00    -0.744 OA
ENDBRANCH  87  88
ENDBRANCH  61  82
ENDBRANCH  35  36
ENDBRANCH  28  30
ENDBRANCH  27  28
ENDBRANCH   1  27
TORSDOF 16
