REMARK SMILES O=C(C[C@H]1C[C@H]2CC[C@@H](C1)[N@H+]2C[C@@H]1CCCOC1)OCCOC(=O)c1ccc(-c2c3nc(c(-c4ccc(S(=O)(=O)[O-])cc4)c4ccc([nH]4)c(-c4ccc(S(=O)(=O)[O-])cc4)c4nc(c(-c5ccc(S(=O)(=O)[O-])cc5)c5ccc2[nH]5)C=C4)C=C3)cc1
REMARK SMILES IDX 20 1 19 2 2 3 1 4 3 5 4 6 5 7 10 8 6 9 9 10 7 11 11 12 8 13
REMARK SMILES IDX 12 15 13 16 14 17 18 18 15 19 17 20 16 21 21 22 22 23 23 24
REMARK SMILES IDX 24 25 25 26 26 27 84 28 27 29 83 30 28 31 29 32 30 33 77 34
REMARK SMILES IDX 31 35 82 36 76 37 78 38 32 39 81 40 75 41 74 42 33 44 63 45
REMARK SMILES IDX 44 46 62 47 45 48 48 49 61 50 79 51 46 52 47 53 60 55 80 56
REMARK SMILES IDX 49 57 34 58 35 59 43 60 36 61 42 62 37 63 38 64 39 65 40 66
REMARK SMILES IDX 41 67 64 68 65 69 73 70 66 71 72 72 67 73 68 74 69 75 70 76
REMARK SMILES IDX 71 77 50 78 51 79 59 80 52 81 58 82 53 83 54 84 55 85 56 86
REMARK SMILES IDX 57 87
REMARK H PARENT 11 14 78 43 48 54
REMARK Flexibility Score: inf
ROOT
ATOM      1  C   UNL     1       3.129   1.213  -1.507  1.00  0.00     0.274 C 
ENDROOT
BRANCH   1   2
ATOM      2  O   UNL     1       2.044   0.329  -1.200  1.00  0.00    -0.462 OA
BRANCH   2   3
ATOM      3  C   UNL     1       2.414  -0.814  -0.564  1.00  0.00     0.306 C 
ATOM      4  O   UNL     1       2.562  -1.879  -1.149  1.00  0.00    -0.252 OA
BRANCH   3   5
ATOM      5  C   UNL     1       2.505  -0.660   0.936  1.00  0.00     0.126 C 
BRANCH   5   6
ATOM      6  C   UNL     1       3.902  -0.891   1.517  1.00  0.00     0.012 C 
ATOM      7  C   UNL     1       4.838   0.341   1.389  1.00  0.00     0.069 C 
ATOM      8  C   UNL     1       3.806  -1.457   2.949  1.00  0.00     0.069 C 
ATOM      9  C   UNL     1       5.948   0.437   2.444  1.00  0.00     0.184 C 
ATOM     10  C   UNL     1       5.057  -1.213   3.817  1.00  0.00     0.184 C 
ATOM     11  C   UNL     1       5.443   1.187   3.683  1.00  0.00     0.071 C 
ATOM     12  N   UNL     1       6.197  -0.867   3.000  1.00  0.00    -0.330 N 
ATOM     13  C   UNL     1       4.866   0.103   4.593  1.00  0.00     0.071 C 
ATOM     14  H   UNL     1       7.079  -1.215   3.377  1.00  0.00     0.348 HD
BRANCH  12  15
ATOM     15  C   UNL     1       7.300  -1.715   2.619  1.00  0.00     0.268 C 
BRANCH  15  16
ATOM     16  C   UNL     1       7.131  -2.897   1.626  1.00  0.00     0.070 C 
ATOM     17  C   UNL     1       6.793  -2.471   0.187  1.00  0.00     0.014 C 
ATOM     18  C   UNL     1       6.268  -4.022   2.198  1.00  0.00     0.169 C 
ATOM     19  C   UNL     1       6.037  -3.502  -0.651  1.00  0.00     0.029 C 
ATOM     20  O   UNL     1       5.931  -4.996   1.212  1.00  0.00    -0.381 OA
ATOM     21  C   UNL     1       5.149  -4.414   0.174  1.00  0.00     0.160 C 
ENDBRANCH  15  16
ENDBRANCH  12  15
ENDBRANCH   5   6
ENDBRANCH   3   5
ENDBRANCH   2   3
ENDBRANCH   1   2
BRANCH   1  22
ATOM     22  C   UNL     1       2.850   2.645  -1.038  1.00  0.00     0.275 C 
BRANCH  22  23
ATOM     23  O   UNL     1       2.545   2.697   0.368  1.00  0.00    -0.458 OA
BRANCH  23  24
ATOM     24  C   UNL     1       1.221   2.688   0.690  1.00  0.00     0.338 C 
ATOM     25  O   UNL     1       0.290   2.749  -0.085  1.00  0.00    -0.246 OA
BRANCH  24  26
ATOM     26  C   UNL     1       1.074   2.386   2.142  1.00  0.00     0.060 A 
ATOM     27  C   UNL     1       0.034   1.534   2.539  1.00  0.00     0.016 A 
ATOM     28  C   UNL     1       1.989   2.846   3.092  1.00  0.00     0.016 A 
ATOM     29  C   UNL     1      -0.104   1.160   3.882  1.00  0.00     0.010 A 
ATOM     30  C   UNL     1       1.859   2.457   4.431  1.00  0.00     0.010 A 
ATOM     31  C   UNL     1       0.794   1.636   4.847  1.00  0.00    -0.014 A 
BRANCH  31  32
ATOM     32  C   UNL     1       0.526   1.427   6.300  1.00  0.00     0.031 A 
ATOM     33  C   UNL     1       0.071   2.607   7.125  1.00  0.00     0.074 A 
ATOM     34  C   UNL     1       0.673   0.229   6.901  1.00  0.00     0.049 A 
ATOM     35  N   UNL     1      -0.247   2.659   8.394  1.00  0.00    -0.248 NA
ATOM     36  C   UNL     1      -0.014   3.902   6.431  1.00  0.00     0.031 C 
ATOM     37  C   UNL     1       1.132  -1.001   6.259  1.00  0.00     0.029 A 
ATOM     38  N   UNL     1       0.450  -0.145   8.207  1.00  0.00    -0.354 N 
ATOM     39  C   UNL     1      -0.553   3.991   8.649  1.00  0.00     0.074 A 
ATOM     40  C   UNL     1      -0.318   4.722   7.424  1.00  0.00     0.031 C 
ATOM     41  C   UNL     1       1.155  -1.992   7.170  1.00  0.00     0.029 A 
ATOM     42  C   UNL     1       0.708  -1.472   8.461  1.00  0.00     0.049 A 
ATOM     43  H   UNL     1       0.133   0.482   8.897  1.00  0.00     0.167 HD
ATOM     44  C   UNL     1      -1.026   4.562   9.783  1.00  0.00     0.031 A 
ATOM     45  C   UNL     1       0.582  -2.192   9.596  1.00  0.00     0.031 A 
ATOM     46  C   UNL     1      -1.302   3.853  10.999  1.00  0.00     0.049 A 
ATOM     47  C   UNL     1       0.039  -1.543  10.847  1.00  0.00     0.074 A 
ATOM     48  C   UNL     1      -1.848   4.341  12.173  1.00  0.00     0.029 A 
ATOM     49  N   UNL     1      -1.061   2.504  11.197  1.00  0.00    -0.354 N 
ATOM     50  N   UNL     1      -0.339  -0.302  11.037  1.00  0.00    -0.248 NA
ATOM     51  C   UNL     1      -0.123  -2.405  12.030  1.00  0.00     0.031 C 
ATOM     52  C   UNL     1      -1.909   3.291  13.095  1.00  0.00     0.029 A 
ATOM     53  C   UNL     1      -1.438   2.143  12.478  1.00  0.00     0.049 A 
ATOM     54  H   UNL     1      -0.677   1.894  10.527  1.00  0.00     0.167 HD
ATOM     55  C   UNL     1      -0.822  -0.247  12.343  1.00  0.00     0.074 A 
ATOM     56  C   UNL     1      -0.690  -1.577  12.897  1.00  0.00     0.031 C 
ATOM     57  C   UNL     1      -1.333   0.811  13.017  1.00  0.00     0.031 A 
BRANCH  44  58
ATOM     58  C   UNL     1      -1.287   6.042   9.736  1.00  0.00    -0.014 A 
ATOM     59  C   UNL     1      -2.359   6.557   8.985  1.00  0.00     0.010 A 
ATOM     60  C   UNL     1      -0.444   6.925  10.432  1.00  0.00     0.010 A 
ATOM     61  C   UNL     1      -2.542   7.936   8.873  1.00  0.00     0.020 A 
ATOM     62  C   UNL     1      -0.643   8.306  10.346  1.00  0.00     0.020 A 
ATOM     63  C   UNL     1      -1.674   8.802   9.544  1.00  0.00     0.054 A 
BRANCH  63  64
ATOM     64  S   UNL     1      -1.917  10.589   9.362  1.00  0.00     0.124 S 
ATOM     65  O   UNL     1      -1.353  10.832   8.037  1.00  0.00    -0.237 OA
ATOM     66  O   UNL     1      -3.367  10.730   9.462  1.00  0.00    -0.237 OA
ATOM     67  O   UNL     1      -1.160  11.155  10.476  1.00  0.00    -0.744 OA
ENDBRANCH  63  64
ENDBRANCH  44  58
BRANCH  45  68
ATOM     68  C   UNL     1       0.935  -3.639   9.614  1.00  0.00    -0.014 A 
ATOM     69  C   UNL     1      -0.076  -4.616   9.671  1.00  0.00     0.010 A 
ATOM     70  C   UNL     1       2.280  -4.045   9.626  1.00  0.00     0.010 A 
ATOM     71  C   UNL     1       0.252  -5.971   9.775  1.00  0.00     0.020 A 
ATOM     72  C   UNL     1       2.613  -5.402   9.708  1.00  0.00     0.020 A 
ATOM     73  C   UNL     1       1.596  -6.355   9.799  1.00  0.00     0.054 A 
BRANCH  73  74
ATOM     74  S   UNL     1       1.998  -8.121   9.922  1.00  0.00     0.124 S 
ATOM     75  O   UNL     1       1.704  -8.401  11.324  1.00  0.00    -0.237 OA
ATOM     76  O   UNL     1       1.087  -8.721   8.952  1.00  0.00    -0.237 OA
ATOM     77  O   UNL     1       3.412  -8.173   9.555  1.00  0.00    -0.744 OA
ENDBRANCH  73  74
ENDBRANCH  45  68
BRANCH  57  78
ATOM     78  C   UNL     1      -1.849   0.587  14.415  1.00  0.00    -0.014 A 
ATOM     79  C   UNL     1      -0.972   0.415  15.499  1.00  0.00     0.010 A 
ATOM     80  C   UNL     1      -3.234   0.649  14.657  1.00  0.00     0.010 A 
ATOM     81  C   UNL     1      -1.472   0.297  16.800  1.00  0.00     0.020 A 
ATOM     82  C   UNL     1      -3.736   0.554  15.958  1.00  0.00     0.020 A 
ATOM     83  C   UNL     1      -2.851   0.372  17.022  1.00  0.00     0.054 A 
BRANCH  83  84
ATOM     84  S   UNL     1      -3.471   0.299  18.726  1.00  0.00     0.124 S 
ATOM     85  O   UNL     1      -3.356  -1.124  19.032  1.00  0.00    -0.237 OA
ATOM     86  O   UNL     1      -2.545   1.173  19.444  1.00  0.00    -0.237 OA
ATOM     87  O   UNL     1      -4.837   0.806  18.619  1.00  0.00    -0.744 OA
ENDBRANCH  83  84
ENDBRANCH  57  78
ENDBRANCH  31  32
ENDBRANCH  24  26
ENDBRANCH  23  24
ENDBRANCH  22  23
ENDBRANCH   1  22
TORSDOF 17
