REMARK SMILES CC(C)c1cc2c(cc1Cl)C=C(C(=O)OCCOC(=O)c1ccc(-c3c4nc(c(-c5ccc(S(=O)(=O)[O-])cc5)c5ccc([nH]5)c(-c5ccc(S(=O)(=O)[O-])cc5)c5nc(c(-c6ccc(S(=O)(=O)[O-])cc6)c6ccc3[nH]6)C=C5)C=C4)cc1)[C@@H](C(F)(F)F)O2
REMARK SMILES IDX 17 1 16 2 15 3 13 4 14 5 12 6 4 7 5 8 9 9 6 10 8 11 10 12
REMARK SMILES IDX 7 13 86 14 11 15 81 16 2 17 1 18 3 19 82 20 83 21 84 22
REMARK SMILES IDX 85 23 18 24 19 25 20 26 21 27 22 28 80 29 23 30 79 31 24 32
REMARK SMILES IDX 25 33 26 34 73 35 27 36 78 37 72 38 74 39 28 40 77 41 71 42
REMARK SMILES IDX 70 43 29 45 59 46 40 47 58 48 41 49 44 50 57 51 75 52 42 53
REMARK SMILES IDX 43 54 56 56 76 57 45 58 30 59 31 60 39 61 32 62 38 63 33 64
REMARK SMILES IDX 34 65 35 66 36 67 37 68 60 69 61 70 69 71 62 72 68 73 63 74
REMARK SMILES IDX 64 75 65 76 66 77 67 78 46 79 47 80 55 81 48 82 54 83 49 84
REMARK SMILES IDX 50 85 51 86 52 87 53 88
REMARK H PARENT 74 44 44 55
REMARK Flexibility Score: inf
ROOT
ATOM      1  C   UNL     1      -9.989  -1.553  -0.294  1.00  0.00     0.275 C 
ENDROOT
BRANCH   1   2
ATOM      2  C   UNL     1      -9.310  -2.309  -1.438  1.00  0.00     0.275 C 
BRANCH   2   3
ATOM      3  O   UNL     1      -7.872  -2.308  -1.300  1.00  0.00    -0.459 OA
BRANCH   3   4
ATOM      4  C   UNL     1      -7.206  -1.482  -2.141  1.00  0.00     0.338 C 
ATOM      5  O   UNL     1      -7.702  -0.770  -3.000  1.00  0.00    -0.246 OA
BRANCH   4   6
ATOM      6  C   UNL     1      -5.756  -1.508  -1.863  1.00  0.00     0.087 C 
ATOM      7  C   UNL     1      -0.883  -0.269  -1.482  1.00  0.00    -0.023 A 
ATOM      8  C   UNL     1      -1.598  -1.488  -1.466  1.00  0.00     0.052 A 
ATOM      9  C   UNL     1      -1.621   0.930  -1.511  1.00  0.00     0.045 A 
ATOM     10  C   UNL     1      -2.992  -1.514  -1.548  1.00  0.00     0.128 A 
ATOM     11  C   UNL     1      -3.013   0.903  -1.580  1.00  0.00     0.032 A 
ATOM     12  Cl  UNL     1      -0.875   2.490  -1.476  1.00  0.00    -0.084 Cl
ATOM     13  C   UNL     1      -3.690  -0.317  -1.626  1.00  0.00     0.019 A 
ATOM     14  O   UNL     1      -3.600  -2.740  -1.538  1.00  0.00    -0.475 OA
ATOM     15  C   UNL     1      -5.123  -0.333  -1.790  1.00  0.00     0.027 C 
ATOM     16  C   UNL     1      -5.030  -2.821  -1.827  1.00  0.00     0.316 C 
BRANCH   7  17
ATOM     17  C   UNL     1       0.640  -0.247  -1.451  1.00  0.00     0.014 C 
ATOM     18  C   UNL     1       1.142  -0.130  -0.011  1.00  0.00     0.012 C 
ATOM     19  C   UNL     1       1.299  -1.437  -2.156  1.00  0.00     0.012 C 
ENDBRANCH   7  17
BRANCH  16  20
ATOM     20  C   UNL     1      -5.223  -3.583  -3.149  1.00  0.00     0.430 C 
ATOM     21  F   UNL     1      -4.559  -4.765  -3.139  1.00  0.00    -0.167 F 
ATOM     22  F   UNL     1      -6.527  -3.880  -3.369  1.00  0.00    -0.167 F 
ATOM     23  F   UNL     1      -4.782  -2.880  -4.216  1.00  0.00    -0.167 F 
ENDBRANCH  16  20
ENDBRANCH   4   6
ENDBRANCH   3   4
ENDBRANCH   2   3
ENDBRANCH   1   2
BRANCH   1  24
ATOM     24  O   UNL     1      -9.727  -0.142  -0.386  1.00  0.00    -0.458 OA
BRANCH  24  25
ATOM     25  C   UNL     1      -8.785   0.326   0.464  1.00  0.00     0.338 C 
ATOM     26  O   UNL     1      -8.167  -0.305   1.304  1.00  0.00    -0.246 OA
BRANCH  25  27
ATOM     27  C   UNL     1      -8.489   1.729   0.144  1.00  0.00     0.060 A 
ATOM     28  C   UNL     1      -8.892   2.779   0.958  1.00  0.00     0.016 A 
ATOM     29  C   UNL     1      -7.644   1.972  -0.929  1.00  0.00     0.016 A 
ATOM     30  C   UNL     1      -8.445   4.076   0.662  1.00  0.00     0.010 A 
ATOM     31  C   UNL     1      -7.060   3.219  -1.108  1.00  0.00     0.010 A 
ATOM     32  C   UNL     1      -7.491   4.311  -0.351  1.00  0.00    -0.014 A 
BRANCH  32  33
ATOM     33  C   UNL     1      -6.964   5.677  -0.652  1.00  0.00     0.031 A 
ATOM     34  C   UNL     1      -7.010   6.230  -2.064  1.00  0.00     0.074 A 
ATOM     35  C   UNL     1      -6.407   6.416   0.331  1.00  0.00     0.049 A 
ATOM     36  N   UNL     1      -6.591   7.390  -2.506  1.00  0.00    -0.248 NA
ATOM     37  C   UNL     1      -7.554   5.364  -3.127  1.00  0.00     0.031 C 
ATOM     38  C   UNL     1      -6.212   5.974   1.714  1.00  0.00     0.029 A 
ATOM     39  N   UNL     1      -5.920   7.703   0.329  1.00  0.00    -0.354 N 
ATOM     40  C   UNL     1      -6.798   7.373  -3.883  1.00  0.00     0.074 A 
ATOM     41  C   UNL     1      -7.293   6.062  -4.221  1.00  0.00     0.031 C 
ATOM     42  C   UNL     1      -5.736   6.994   2.442  1.00  0.00     0.029 A 
ATOM     43  C   UNL     1      -5.531   8.149   1.573  1.00  0.00     0.049 A 
ATOM     44  H   UNL     1      -5.856   8.253  -0.484  1.00  0.00     0.167 HD
ATOM     45  C   UNL     1      -6.649   8.374  -4.782  1.00  0.00     0.031 A 
ATOM     46  C   UNL     1      -5.078   9.354   1.981  1.00  0.00     0.031 A 
ATOM     47  C   UNL     1      -6.233   9.704  -4.429  1.00  0.00     0.049 A 
ATOM     48  C   UNL     1      -4.961  10.467   0.976  1.00  0.00     0.074 A 
ATOM     49  C   UNL     1      -6.137  10.813  -5.250  1.00  0.00     0.029 A 
ATOM     50  N   UNL     1      -5.869  10.112  -3.155  1.00  0.00    -0.354 N 
ATOM     51  N   UNL     1      -5.246  10.449  -0.304  1.00  0.00    -0.248 NA
ATOM     52  C   UNL     1      -4.478  11.766   1.466  1.00  0.00     0.031 C 
ATOM     53  C   UNL     1      -5.655  11.876  -4.487  1.00  0.00     0.029 A 
ATOM     54  C   UNL     1      -5.527  11.452  -3.173  1.00  0.00     0.049 A 
ATOM     55  H   UNL     1      -5.856   9.534  -2.358  1.00  0.00     0.167 HD
ATOM     56  C   UNL     1      -4.995  11.736  -0.768  1.00  0.00     0.074 A 
ATOM     57  C   UNL     1      -4.556  12.514   0.371  1.00  0.00     0.031 C 
ATOM     58  C   UNL     1      -5.111  12.222  -2.027  1.00  0.00     0.031 A 
BRANCH  45  59
ATOM     59  C   UNL     1      -7.003   8.113  -6.227  1.00  0.00    -0.014 A 
ATOM     60  C   UNL     1      -6.019   8.228  -7.227  1.00  0.00     0.010 A 
ATOM     61  C   UNL     1      -8.339   7.894  -6.610  1.00  0.00     0.010 A 
ATOM     62  C   UNL     1      -6.370   8.172  -8.580  1.00  0.00     0.020 A 
ATOM     63  C   UNL     1      -8.689   7.801  -7.960  1.00  0.00     0.020 A 
ATOM     64  C   UNL     1      -7.706   7.971  -8.937  1.00  0.00     0.054 A 
BRANCH  64  65
ATOM     65  S   UNL     1      -8.153   7.960 -10.695  1.00  0.00     0.124 S 
ATOM     66  O   UNL     1      -8.039   9.371 -11.051  1.00  0.00    -0.237 OA
ATOM     67  O   UNL     1      -7.144   7.078 -11.276  1.00  0.00    -0.237 OA
ATOM     68  O   UNL     1      -9.513   7.423 -10.699  1.00  0.00    -0.744 OA
ENDBRANCH  64  65
ENDBRANCH  45  59
BRANCH  46  69
ATOM     69  C   UNL     1      -4.780   9.570   3.427  1.00  0.00    -0.014 A 
ATOM     70  C   UNL     1      -3.721   8.885   4.054  1.00  0.00     0.010 A 
ATOM     71  C   UNL     1      -5.612  10.392   4.209  1.00  0.00     0.010 A 
ATOM     72  C   UNL     1      -3.540   8.966   5.438  1.00  0.00     0.020 A 
ATOM     73  C   UNL     1      -5.412  10.504   5.589  1.00  0.00     0.020 A 
ATOM     74  C   UNL     1      -4.397   9.764   6.199  1.00  0.00     0.054 A 
BRANCH  74  75
ATOM     75  S   UNL     1      -4.182   9.804   8.000  1.00  0.00     0.124 S 
ATOM     76  O   UNL     1      -4.712   8.501   8.394  1.00  0.00    -0.237 OA
ATOM     77  O   UNL     1      -2.737   9.966   8.145  1.00  0.00    -0.237 OA
ATOM     78  O   UNL     1      -4.980  10.954   8.416  1.00  0.00    -0.744 OA
ENDBRANCH  74  75
ENDBRANCH  46  69
BRANCH  58  79
ATOM     79  C   UNL     1      -4.772  13.668  -2.279  1.00  0.00    -0.014 A 
ATOM     80  C   UNL     1      -5.783  14.555  -2.698  1.00  0.00     0.010 A 
ATOM     81  C   UNL     1      -3.435  14.098  -2.285  1.00  0.00     0.010 A 
ATOM     82  C   UNL     1      -5.456  15.825  -3.177  1.00  0.00     0.020 A 
ATOM     83  C   UNL     1      -3.108  15.381  -2.733  1.00  0.00     0.020 A 
ATOM     84  C   UNL     1      -4.118  16.223  -3.207  1.00  0.00     0.054 A 
BRANCH  84  85
ATOM     85  S   UNL     1      -3.706  17.844  -3.907  1.00  0.00     0.124 S 
ATOM     86  O   UNL     1      -3.900  17.620  -5.337  1.00  0.00    -0.237 OA
ATOM     87  O   UNL     1      -4.683  18.725  -3.270  1.00  0.00    -0.237 OA
ATOM     88  O   UNL     1      -2.322  18.057  -3.491  1.00  0.00    -0.744 OA
ENDBRANCH  84  85
ENDBRANCH  58  79
ENDBRANCH  32  33
ENDBRANCH  25  27
ENDBRANCH  24  25
ENDBRANCH   1  24
TORSDOF 16
