REMARK SMILES C[C@@H](C(=O)OCCOC(=O)c1ccc(-c2c3nc(c(-c4ccc(S(=O)(=O)[O-])cc4)c4ccc([nH]4)c(-c4ccc(S(=O)(=O)[O-])cc4)c4nc(c(-c5ccc(S(=O)(=O)[O-])cc5)c5ccc2[nH]5)C=C4)C=C3)cc1)N1C(=O)/C(=C/c2ccc(-c3ccc([N+](=O)[O-])cc3Cl)o2)SC1=S
REMARK SMILES IDX 6 1 5 2 3 3 4 4 2 5 1 6 71 7 72 8 92 9 73 10 74 11 91 12
REMARK SMILES IDX 93 13 75 14 76 15 77 16 90 17 78 18 79 19 80 20 81 21 88 22
REMARK SMILES IDX 82 23 87 24 89 25 83 26 84 27 85 28 86 29 7 30 8 31 9 32
REMARK SMILES IDX 10 33 11 34 12 35 70 36 13 37 69 38 14 39 15 40 16 41 63 42
REMARK SMILES IDX 17 43 68 44 62 45 64 46 18 47 67 48 61 49 60 50 19 52 49 53
REMARK SMILES IDX 30 54 48 55 31 56 34 57 47 58 65 59 32 60 33 61 46 63 66 64
REMARK SMILES IDX 35 65 20 66 21 67 29 68 22 69 28 70 23 71 24 72 25 73 26 74
REMARK SMILES IDX 27 75 50 76 51 77 59 78 52 79 58 80 53 81 54 82 55 83 56 84
REMARK SMILES IDX 57 85 36 86 37 87 45 88 38 89 44 90 39 91 40 92 41 93 42 94
REMARK SMILES IDX 43 95
REMARK H PARENT 64 51 34 62
REMARK Flexibility Score: inf
ROOT
ATOM      1  C   UNL     1       2.653   1.435   3.324  1.00  0.00     0.274 C 
ENDROOT
BRANCH   1   2
ATOM      2  O   UNL     1       2.223   0.761   2.120  1.00  0.00    -0.461 OA
BRANCH   2   3
ATOM      3  C   UNL     1       1.120  -0.032   2.229  1.00  0.00     0.329 C 
ATOM      4  O   UNL     1       0.478  -0.173   3.264  1.00  0.00    -0.250 OA
BRANCH   3   5
ATOM      5  C   UNL     1       0.783  -0.783   0.931  1.00  0.00     0.199 C 
ATOM      6  C   UNL     1       1.779  -0.555  -0.207  1.00  0.00     0.044 C 
BRANCH   5   7
ATOM      7  N   UNL     1      -0.656  -0.646   0.574  1.00  0.00    -0.279 N 
ATOM      8  C   UNL     1      -1.544  -1.579   1.110  1.00  0.00     0.267 C 
ATOM      9  C   UNL     1      -1.233   0.346  -0.192  1.00  0.00     0.149 C 
ATOM     10  O   UNL     1      -1.233  -2.532   1.812  1.00  0.00    -0.268 OA
ATOM     11  C   UNL     1      -2.951  -1.299   0.689  1.00  0.00     0.084 C 
ATOM     12  S   UNL     1      -2.952   0.044  -0.376  1.00  0.00    -0.054 SA
ATOM     13  S   UNL     1      -0.542   1.678  -0.914  1.00  0.00    -0.052 S 
ATOM     14  C   UNL     1      -3.986  -2.023   1.148  1.00  0.00     0.068 C 
BRANCH  14  15
ATOM     15  C   UNL     1      -5.370  -1.853   0.822  1.00  0.00     0.128 A 
ATOM     16  C   UNL     1      -6.014  -1.180  -0.212  1.00  0.00     0.051 A 
ATOM     17  O   UNL     1      -6.372  -2.435   1.589  1.00  0.00    -0.457 OA
ATOM     18  C   UNL     1      -7.408  -1.296  -0.029  1.00  0.00     0.051 A 
ATOM     19  C   UNL     1      -7.588  -2.054   1.103  1.00  0.00     0.136 A 
BRANCH  19  20
ATOM     20  C   UNL     1      -8.800  -2.460   1.815  1.00  0.00     0.036 A 
ATOM     21  C   UNL     1      -9.940  -2.778   1.044  1.00  0.00     0.020 A 
ATOM     22  C   UNL     1      -8.938  -2.426   3.213  1.00  0.00     0.058 A 
ATOM     23  C   UNL     1     -11.195  -2.972   1.631  1.00  0.00     0.086 A 
ATOM     24  C   UNL     1     -10.193  -2.627   3.807  1.00  0.00     0.106 A 
ATOM     25  Cl  UNL     1      -7.617  -2.097   4.279  1.00  0.00    -0.083 Cl
ATOM     26  C   UNL     1     -11.319  -2.856   3.014  1.00  0.00     0.270 A 
BRANCH  26  27
ATOM     27  N   UNL     1     -12.639  -2.958   3.643  1.00  0.00     0.062 N 
ATOM     28  O   UNL     1     -13.542  -3.497   2.989  1.00  0.00    -0.258 OA
ATOM     29  O   UNL     1     -12.761  -2.516   4.794  1.00  0.00    -0.258 OA
ENDBRANCH  26  27
ENDBRANCH  19  20
ENDBRANCH  14  15
ENDBRANCH   5   7
ENDBRANCH   3   5
ENDBRANCH   2   3
ENDBRANCH   1   2
BRANCH   1  30
ATOM     30  C   UNL     1       2.158   2.878   3.357  1.00  0.00     0.275 C 
BRANCH  30  31
ATOM     31  O   UNL     1       0.725   2.875   3.405  1.00  0.00    -0.458 OA
BRANCH  31  32
ATOM     32  C   UNL     1       0.098   3.611   2.460  1.00  0.00     0.338 C 
ATOM     33  O   UNL     1       0.617   4.346   1.640  1.00  0.00    -0.246 OA
BRANCH  32  34
ATOM     34  C   UNL     1      -1.360   3.406   2.572  1.00  0.00     0.060 A 
ATOM     35  C   UNL     1      -1.896   2.135   2.790  1.00  0.00     0.016 A 
ATOM     36  C   UNL     1      -2.208   4.497   2.384  1.00  0.00     0.016 A 
ATOM     37  C   UNL     1      -3.273   1.938   2.747  1.00  0.00     0.010 A 
ATOM     38  C   UNL     1      -3.591   4.311   2.427  1.00  0.00     0.010 A 
ATOM     39  C   UNL     1      -4.137   3.025   2.572  1.00  0.00    -0.014 A 
BRANCH  39  40
ATOM     40  C   UNL     1      -5.607   2.817   2.519  1.00  0.00     0.031 A 
ATOM     41  C   UNL     1      -6.370   3.218   1.284  1.00  0.00     0.074 A 
ATOM     42  C   UNL     1      -6.248   2.303   3.589  1.00  0.00     0.049 A 
ATOM     43  N   UNL     1      -7.662   3.276   1.095  1.00  0.00    -0.248 NA
ATOM     44  C   UNL     1      -5.577   3.639   0.115  1.00  0.00     0.031 C 
ATOM     45  C   UNL     1      -5.600   1.865   4.829  1.00  0.00     0.029 A 
ATOM     46  N   UNL     1      -7.580   2.058   3.813  1.00  0.00    -0.354 N 
ATOM     47  C   UNL     1      -7.836   3.829  -0.170  1.00  0.00     0.074 A 
ATOM     48  C   UNL     1      -6.518   4.063  -0.716  1.00  0.00     0.031 C 
ATOM     49  C   UNL     1      -6.527   1.372   5.663  1.00  0.00     0.029 A 
ATOM     50  C   UNL     1      -7.843   1.524   5.056  1.00  0.00     0.049 A 
ATOM     51  H   UNL     1      -8.282   2.247   3.148  1.00  0.00     0.167 HD
ATOM     52  C   UNL     1      -8.995   4.133  -0.800  1.00  0.00     0.031 A 
ATOM     53  C   UNL     1      -9.012   1.203   5.647  1.00  0.00     0.031 A 
ATOM     54  C   UNL     1     -10.293   3.835  -0.253  1.00  0.00     0.049 A 
ATOM     55  C   UNL     1     -10.277   1.411   4.859  1.00  0.00     0.074 A 
ATOM     56  C   UNL     1     -11.538   4.083  -0.803  1.00  0.00     0.029 A 
ATOM     57  N   UNL     1     -10.509   3.204   0.965  1.00  0.00    -0.354 N 
ATOM     58  N   UNL     1     -10.421   1.923   3.657  1.00  0.00    -0.248 NA
ATOM     59  C   UNL     1     -11.536   0.994   5.489  1.00  0.00     0.031 C 
ATOM     60  C   UNL     1     -12.508   3.623   0.095  1.00  0.00     0.029 A 
ATOM     61  C   UNL     1     -11.866   3.049   1.183  1.00  0.00     0.049 A 
ATOM     62  H   UNL     1      -9.801   2.910   1.582  1.00  0.00     0.167 HD
ATOM     63  C   UNL     1     -11.786   1.913   3.399  1.00  0.00     0.074 A 
ATOM     64  C   UNL     1     -12.419   1.284   4.541  1.00  0.00     0.031 C 
ATOM     65  C   UNL     1     -12.460   2.409   2.331  1.00  0.00     0.031 A 
BRANCH  52  66
ATOM     66  C   UNL     1      -8.915   4.868  -2.113  1.00  0.00    -0.014 A 
ATOM     67  C   UNL     1      -8.498   4.233  -3.296  1.00  0.00     0.010 A 
ATOM     68  C   UNL     1      -9.298   6.222  -2.167  1.00  0.00     0.010 A 
ATOM     69  C   UNL     1      -8.432   4.947  -4.498  1.00  0.00     0.020 A 
ATOM     70  C   UNL     1      -9.256   6.934  -3.370  1.00  0.00     0.020 A 
ATOM     71  C   UNL     1      -8.806   6.295  -4.527  1.00  0.00     0.054 A 
BRANCH  71  72
ATOM     72  S   UNL     1      -8.732   7.194  -6.102  1.00  0.00     0.124 S 
ATOM     73  O   UNL     1      -7.298   7.423  -6.251  1.00  0.00    -0.237 OA
ATOM     74  O   UNL     1      -9.316   6.241  -7.044  1.00  0.00    -0.237 OA
ATOM     75  O   UNL     1      -9.533   8.390  -5.857  1.00  0.00    -0.744 OA
ENDBRANCH  71  72
ENDBRANCH  52  66
BRANCH  53  76
ATOM     76  C   UNL     1      -9.010   0.616   7.023  1.00  0.00    -0.014 A 
ATOM     77  C   UNL     1      -9.379  -0.723   7.221  1.00  0.00     0.010 A 
ATOM     78  C   UNL     1      -8.553   1.347   8.135  1.00  0.00     0.010 A 
ATOM     79  C   UNL     1      -9.268  -1.336   8.472  1.00  0.00     0.020 A 
ATOM     80  C   UNL     1      -8.417   0.737   9.391  1.00  0.00     0.020 A 
ATOM     81  C   UNL     1      -8.774  -0.604   9.550  1.00  0.00     0.054 A 
BRANCH  81  82
ATOM     82  S   UNL     1      -8.529  -1.452  11.135  1.00  0.00     0.124 S 
ATOM     83  O   UNL     1      -9.894  -1.553  11.641  1.00  0.00    -0.237 OA
ATOM     84  O   UNL     1      -7.911  -2.713  10.730  1.00  0.00    -0.237 OA
ATOM     85  O   UNL     1      -7.651  -0.547  11.873  1.00  0.00    -0.744 OA
ENDBRANCH  81  82
ENDBRANCH  53  76
BRANCH  65  86
ATOM     86  C   UNL     1     -13.960   2.301   2.356  1.00  0.00    -0.014 A 
ATOM     87  C   UNL     1     -14.723   3.147   3.181  1.00  0.00     0.010 A 
ATOM     88  C   UNL     1     -14.615   1.414   1.484  1.00  0.00     0.010 A 
ATOM     89  C   UNL     1     -16.117   3.090   3.152  1.00  0.00     0.020 A 
ATOM     90  C   UNL     1     -16.011   1.370   1.437  1.00  0.00     0.020 A 
ATOM     91  C   UNL     1     -16.753   2.202   2.280  1.00  0.00     0.054 A 
BRANCH  91  92
ATOM     92  S   UNL     1     -18.566   2.193   2.208  1.00  0.00     0.124 S 
ATOM     93  O   UNL     1     -18.913   1.421   3.397  1.00  0.00    -0.237 OA
ATOM     94  O   UNL     1     -18.899   3.615   2.261  1.00  0.00    -0.237 OA
ATOM     95  O   UNL     1     -18.855   1.541   0.932  1.00  0.00    -0.744 OA
ENDBRANCH  91  92
ENDBRANCH  65  86
ENDBRANCH  39  40
ENDBRANCH  32  34
ENDBRANCH  31  32
ENDBRANCH  30  31
ENDBRANCH   1  30
TORSDOF 18
