REMARK SMILES COc1cc2c(cc1OC)[C@@H](CC(=O)OCCOC(=O)c1ccc(-c3c4nc(c(-c5ccc(S(=O)(=O)[O-])cc5)c5ccc([nH]5)c(-c5ccc(S(=O)(=O)[O-])cc5)c5nc(c(-c6ccc(S(=O)(=O)[O-])cc6)c6ccc3[nH]6)C=C5)C=C4)cc1)N(C(=O)Nc1ccc(Cl)cc1)CC2
REMARK SMILES IDX 16 1 15 2 13 3 14 4 12 5 11 6 3 7 4 8 8 9 5 10 7 11 6 12
REMARK SMILES IDX 93 13 92 14 81 15 2 16 1 17 9 18 10 19 82 20 83 21 84 22
REMARK SMILES IDX 85 24 86 25 91 26 87 27 90 28 88 29 89 30 17 31 18 32 19 33
REMARK SMILES IDX 20 34 21 35 22 36 80 37 23 38 79 39 24 40 25 41 26 42 73 43
REMARK SMILES IDX 27 44 78 45 72 46 74 47 28 48 77 49 71 50 70 51 29 53 59 54
REMARK SMILES IDX 40 55 58 56 41 57 44 58 57 59 75 60 42 61 43 62 56 64 76 65
REMARK SMILES IDX 45 66 30 67 31 68 39 69 32 70 38 71 33 72 34 73 35 74 36 75
REMARK SMILES IDX 37 76 60 77 61 78 69 79 62 80 68 81 63 82 64 83 65 84 66 85
REMARK SMILES IDX 67 86 46 87 47 88 55 89 48 90 54 91 49 92 50 93 51 94 52 95
REMARK SMILES IDX 53 96
REMARK H PARENT 84 23 74 52 44 63
REMARK Flexibility Score: inf
ROOT
ATOM      1  C   UNL     1       3.549  -2.111 -10.272  1.00  0.00     0.274 C 
ENDROOT
BRANCH   1   2
ATOM      2  O   UNL     1       3.120  -2.151  -8.898  1.00  0.00    -0.462 OA
BRANCH   2   3
ATOM      3  C   UNL     1       4.087  -2.063  -7.955  1.00  0.00     0.308 C 
ATOM      4  O   UNL     1       5.273  -1.863  -8.202  1.00  0.00    -0.252 OA
BRANCH   3   5
ATOM      5  C   UNL     1       3.605  -2.224  -6.527  1.00  0.00     0.152 C 
BRANCH   5   6
ATOM      6  C   UNL     1       2.096  -2.102  -6.210  1.00  0.00     0.128 C 
ATOM      7  C   UNL     1       1.162  -1.169  -2.015  1.00  0.00     0.161 A 
ATOM      8  C   UNL     1       0.162  -1.439  -2.944  1.00  0.00     0.054 A 
ATOM      9  C   UNL     1       2.503  -1.147  -2.418  1.00  0.00     0.161 A 
ATOM     10  C   UNL     1       0.491  -1.709  -4.277  1.00  0.00    -0.037 A 
ATOM     11  C   UNL     1       2.822  -1.432  -3.761  1.00  0.00     0.056 A 
ATOM     12  C   UNL     1       1.830  -1.736  -4.715  1.00  0.00    -0.018 A 
ATOM     13  C   UNL     1      -0.568  -2.096  -5.260  1.00  0.00     0.057 C 
ATOM     14  C   UNL     1      -0.079  -3.375  -5.923  1.00  0.00     0.127 C 
ATOM     15  N   UNL     1       1.186  -3.230  -6.658  1.00  0.00    -0.317 N 
BRANCH   7  16
ATOM     16  O   UNL     1       0.729  -1.066  -0.717  1.00  0.00    -0.493 OA
ATOM     17  C   UNL     1       1.117   0.147  -0.079  1.00  0.00     0.278 C 
ENDBRANCH   7  16
BRANCH   9  18
ATOM     18  O   UNL     1       3.443  -0.921  -1.447  1.00  0.00    -0.493 OA
ATOM     19  C   UNL     1       4.743  -0.530  -1.875  1.00  0.00     0.278 C 
ENDBRANCH   9  18
BRANCH  15  20
ATOM     20  C   UNL     1       1.621  -4.159  -7.570  1.00  0.00     0.322 C 
ATOM     21  O   UNL     1       2.800  -4.518  -7.650  1.00  0.00    -0.248 OA
ATOM     22  N   UNL     1       0.812  -4.719  -8.512  1.00  0.00    -0.308 N 
ATOM     23  H   UNL     1       1.235  -4.863  -9.390  1.00  0.00     0.171 HD
BRANCH  22  24
ATOM     24  C   UNL     1      -0.519  -5.120  -8.430  1.00  0.00     0.042 A 
ATOM     25  C   UNL     1      -0.759  -6.454  -8.092  1.00  0.00     0.028 A 
ATOM     26  C   UNL     1      -1.580  -4.255  -8.704  1.00  0.00     0.028 A 
ATOM     27  C   UNL     1      -2.064  -6.901  -7.914  1.00  0.00     0.022 A 
ATOM     28  C   UNL     1      -2.892  -4.704  -8.519  1.00  0.00     0.022 A 
ATOM     29  C   UNL     1      -3.125  -6.018  -8.107  1.00  0.00     0.041 A 
ATOM     30  Cl  UNL     1      -4.733  -6.556  -7.817  1.00  0.00    -0.084 Cl
ENDBRANCH  22  24
ENDBRANCH  15  20
ENDBRANCH   5   6
ENDBRANCH   3   5
ENDBRANCH   2   3
ENDBRANCH   1   2
BRANCH   1  31
ATOM     31  C   UNL     1       3.013  -0.861 -10.966  1.00  0.00     0.275 C 
BRANCH  31  32
ATOM     32  O   UNL     1       3.585   0.328 -10.394  1.00  0.00    -0.458 OA
BRANCH  32  33
ATOM     33  C   UNL     1       2.934   0.797  -9.307  1.00  0.00     0.338 C 
ATOM     34  O   UNL     1       1.880   0.384  -8.836  1.00  0.00    -0.246 OA
BRANCH  33  35
ATOM     35  C   UNL     1       3.746   1.822  -8.642  1.00  0.00     0.060 A 
ATOM     36  C   UNL     1       4.003   1.667  -7.276  1.00  0.00     0.016 A 
ATOM     37  C   UNL     1       4.166   2.965  -9.325  1.00  0.00     0.016 A 
ATOM     38  C   UNL     1       4.652   2.675  -6.574  1.00  0.00     0.010 A 
ATOM     39  C   UNL     1       4.812   3.980  -8.617  1.00  0.00     0.010 A 
ATOM     40  C   UNL     1       5.029   3.852  -7.233  1.00  0.00    -0.014 A 
BRANCH  40  41
ATOM     41  C   UNL     1       5.527   4.998  -6.443  1.00  0.00     0.031 A 
ATOM     42  C   UNL     1       4.591   6.133  -6.134  1.00  0.00     0.074 A 
ATOM     43  C   UNL     1       6.788   5.004  -5.976  1.00  0.00     0.049 A 
ATOM     44  N   UNL     1       4.826   7.248  -5.494  1.00  0.00    -0.248 NA
ATOM     45  C   UNL     1       3.205   5.992  -6.613  1.00  0.00     0.031 C 
ATOM     46  C   UNL     1       7.768   3.936  -6.174  1.00  0.00     0.029 A 
ATOM     47  N   UNL     1       7.457   5.944  -5.236  1.00  0.00    -0.354 N 
ATOM     48  C   UNL     1       3.626   7.951  -5.508  1.00  0.00     0.074 A 
ATOM     49  C   UNL     1       2.671   7.145  -6.237  1.00  0.00     0.031 C 
ATOM     50  C   UNL     1       8.916   4.281  -5.566  1.00  0.00     0.029 A 
ATOM     51  C   UNL     1       8.761   5.605  -4.969  1.00  0.00     0.049 A 
ATOM     52  H   UNL     1       7.042   6.781  -4.925  1.00  0.00     0.167 HD
ATOM     53  C   UNL     1       3.347   9.159  -4.963  1.00  0.00     0.031 A 
ATOM     54  C   UNL     1       9.725   6.296  -4.330  1.00  0.00     0.031 A 
ATOM     55  C   UNL     1       4.304   9.958  -4.245  1.00  0.00     0.049 A 
ATOM     56  C   UNL     1       9.400   7.652  -3.764  1.00  0.00     0.074 A 
ATOM     57  C   UNL     1       4.127  11.200  -3.662  1.00  0.00     0.029 A 
ATOM     58  N   UNL     1       5.620   9.588  -4.008  1.00  0.00    -0.354 N 
ATOM     59  N   UNL     1       8.265   8.310  -3.797  1.00  0.00    -0.248 NA
ATOM     60  C   UNL     1      10.484   8.352  -3.063  1.00  0.00     0.031 C 
ATOM     61  C   UNL     1       5.347  11.597  -3.102  1.00  0.00     0.029 A 
ATOM     62  C   UNL     1       6.269  10.579  -3.294  1.00  0.00     0.049 A 
ATOM     63  H   UNL     1       6.031   8.744  -4.305  1.00  0.00     0.167 HD
ATOM     64  C   UNL     1       8.491   9.490  -3.098  1.00  0.00     0.074 A 
ATOM     65  C   UNL     1       9.867   9.449  -2.644  1.00  0.00     0.031 C 
ATOM     66  C   UNL     1       7.639  10.516  -2.851  1.00  0.00     0.031 A 
BRANCH  53  67
ATOM     67  C   UNL     1       1.957   9.700  -5.163  1.00  0.00    -0.014 A 
ATOM     68  C   UNL     1       0.857   9.156  -4.475  1.00  0.00     0.010 A 
ATOM     69  C   UNL     1       1.750  10.774  -6.047  1.00  0.00     0.010 A 
ATOM     70  C   UNL     1      -0.432   9.650  -4.701  1.00  0.00     0.020 A 
ATOM     71  C   UNL     1       0.466  11.287  -6.256  1.00  0.00     0.020 A 
ATOM     72  C   UNL     1      -0.619  10.707  -5.597  1.00  0.00     0.054 A 
BRANCH  72  73
ATOM     73  S   UNL     1      -2.300  11.333  -5.870  1.00  0.00     0.124 S 
ATOM     74  O   UNL     1      -2.873  10.292  -6.720  1.00  0.00    -0.237 OA
ATOM     75  O   UNL     1      -2.842  11.407  -4.516  1.00  0.00    -0.237 OA
ATOM     76  O   UNL     1      -2.087  12.623  -6.523  1.00  0.00    -0.744 OA
ENDBRANCH  72  73
ENDBRANCH  53  67
BRANCH  54  77
ATOM     77  C   UNL     1      11.089   5.718  -4.199  1.00  0.00    -0.014 A 
ATOM     78  C   UNL     1      11.564   5.275  -2.953  1.00  0.00     0.010 A 
ATOM     79  C   UNL     1      11.919   5.602  -5.329  1.00  0.00     0.010 A 
ATOM     80  C   UNL     1      12.851   4.742  -2.835  1.00  0.00     0.020 A 
ATOM     81  C   UNL     1      13.196   5.046  -5.220  1.00  0.00     0.020 A 
ATOM     82  C   UNL     1      13.659   4.630  -3.970  1.00  0.00     0.054 A 
BRANCH  82  83
ATOM     83  S   UNL     1      15.306   3.888  -3.805  1.00  0.00     0.124 S 
ATOM     84  O   UNL     1      16.068   4.973  -3.197  1.00  0.00    -0.237 OA
ATOM     85  O   UNL     1      15.050   2.734  -2.946  1.00  0.00    -0.237 OA
ATOM     86  O   UNL     1      15.670   3.559  -5.182  1.00  0.00    -0.744 OA
ENDBRANCH  82  83
ENDBRANCH  54  77
BRANCH  66  87
ATOM     87  C   UNL     1       8.159  11.652  -2.013  1.00  0.00    -0.014 A 
ATOM     88  C   UNL     1       9.081  12.580  -2.528  1.00  0.00     0.010 A 
ATOM     89  C   UNL     1       7.697  11.802  -0.692  1.00  0.00     0.010 A 
ATOM     90  C   UNL     1       9.568  13.611  -1.721  1.00  0.00     0.020 A 
ATOM     91  C   UNL     1       8.163  12.846   0.109  1.00  0.00     0.020 A 
ATOM     92  C   UNL     1       9.112  13.733  -0.404  1.00  0.00     0.054 A 
BRANCH  92  93
ATOM     93  S   UNL     1       9.746  15.086   0.624  1.00  0.00     0.124 S 
ATOM     94  O   UNL     1      11.062  14.582   1.008  1.00  0.00    -0.237 OA
ATOM     95  O   UNL     1       9.750  16.219  -0.298  1.00  0.00    -0.237 OA
ATOM     96  O   UNL     1       8.772  15.179   1.710  1.00  0.00    -0.744 OA
ENDBRANCH  92  93
ENDBRANCH  66  87
ENDBRANCH  40  41
ENDBRANCH  33  35
ENDBRANCH  32  33
ENDBRANCH  31  32
ENDBRANCH   1  31
TORSDOF 19
