REMARK SMILES CC(C)(C)c1nnsc1C(=O)N[C@](C)(C(=O)OCCOC(=O)c1ccc(-c2c3nc(c(-c4ccc(S(=O)(=O)[O-])cc4)c4ccc([nH]4)c(-c4ccc(S(=O)(=O)[O-])cc4)c4nc(c(-c5ccc(S(=O)(=O)[O-])cc5)c5ccc2[nH]5)C=C4)C=C3)cc1)C(F)(F)F
REMARK SMILES IDX 18 1 17 2 15 3 16 4 13 5 14 6 12 7 10 8 11 9 9 11 5 12 6 13
REMARK SMILES IDX 7 14 8 15 2 16 1 17 3 18 4 19 83 20 84 21 85 22 86 23 19 24
REMARK SMILES IDX 20 25 21 26 22 27 23 28 24 29 82 30 25 31 81 32 26 33 27 34
REMARK SMILES IDX 28 35 75 36 29 37 80 38 74 39 76 40 30 41 79 42 73 43 72 44
REMARK SMILES IDX 31 46 61 47 42 48 60 49 43 50 46 51 59 52 77 53 44 54 45 55
REMARK SMILES IDX 58 57 78 58 47 59 32 60 33 61 41 62 34 63 40 64 35 65 36 66
REMARK SMILES IDX 37 67 38 68 39 69 62 70 63 71 71 72 64 73 70 74 65 75 66 76
REMARK SMILES IDX 67 77 68 78 69 79 48 80 49 81 57 82 50 83 56 84 51 85 52 86
REMARK SMILES IDX 53 87 54 88 55 89
REMARK H PARENT 12 10 76 45 46 56
REMARK Flexibility Score: inf
ROOT
ATOM      1  C   UNL     1      -1.596  -1.588  -3.697  1.00  0.00     0.274 C 
ENDROOT
BRANCH   1   2
ATOM      2  O   UNL     1      -1.520  -0.527  -2.704  1.00  0.00    -0.460 OA
BRANCH   2   3
ATOM      3  C   UNL     1      -1.026  -0.902  -1.487  1.00  0.00     0.341 C 
ATOM      4  O   UNL     1      -0.726  -2.064  -1.231  1.00  0.00    -0.249 OA
BRANCH   3   5
ATOM      5  C   UNL     1      -0.927   0.233  -0.455  1.00  0.00     0.231 C 
ATOM      6  C   UNL     1      -1.266   1.670  -0.896  1.00  0.00     0.058 C 
BRANCH   5   7
ATOM      7  N   UNL     1      -1.564  -0.127   0.893  1.00  0.00    -0.328 N 
ATOM      8  C   UNL     1      -2.649  -0.364   1.683  1.00  0.00     0.266 C 
ATOM      9  O   UNL     1      -2.229  -0.467   2.851  1.00  0.00    -0.268 OA
ATOM     10  H   UNL     1      -0.796  -0.248   1.497  1.00  0.00     0.165 HD
BRANCH   8  11
ATOM     11  C   UNL     1      -4.083  -0.520   1.426  1.00  0.00     0.137 A 
ATOM     12  C   UNL     1      -5.054  -0.549   0.410  1.00  0.00     0.094 A 
ATOM     13  N   UNL     1      -6.363  -0.808   0.832  1.00  0.00    -0.142 NA
ATOM     14  N   UNL     1      -6.457  -0.993   2.125  1.00  0.00    -0.090 NA
ATOM     15  S   UNL     1      -5.004  -0.854   2.896  1.00  0.00    -0.006 S 
BRANCH  12  16
ATOM     16  C   UNL     1      -4.904  -0.431  -1.083  1.00  0.00     0.008 C 
ATOM     17  C   UNL     1      -4.295   0.930  -1.412  1.00  0.00     0.018 C 
ATOM     18  C   UNL     1      -6.225  -0.475  -1.887  1.00  0.00     0.018 C 
ATOM     19  C   UNL     1      -4.127  -1.668  -1.530  1.00  0.00     0.018 C 
ENDBRANCH  12  16
ENDBRANCH   8  11
ENDBRANCH   5   7
BRANCH   5  20
ATOM     20  C   UNL     1       0.626   0.251  -0.254  1.00  0.00     0.422 C 
ATOM     21  F   UNL     1       1.289   0.534  -1.395  1.00  0.00    -0.168 F 
ATOM     22  F   UNL     1       0.956   1.212   0.651  1.00  0.00    -0.168 F 
ATOM     23  F   UNL     1       1.109  -0.904   0.246  1.00  0.00    -0.168 F 
ENDBRANCH   5  20
ENDBRANCH   3   5
ENDBRANCH   2   3
ENDBRANCH   1   2
BRANCH   1  24
ATOM     24  C   UNL     1      -2.533  -1.208  -4.862  1.00  0.00     0.275 C 
BRANCH  24  25
ATOM     25  O   UNL     1      -1.815  -0.421  -5.820  1.00  0.00    -0.458 OA
BRANCH  25  26
ATOM     26  C   UNL     1      -1.714   0.886  -5.489  1.00  0.00     0.338 C 
ATOM     27  O   UNL     1      -2.502   1.553  -4.832  1.00  0.00    -0.246 OA
BRANCH  26  28
ATOM     28  C   UNL     1      -0.292   1.192  -5.650  1.00  0.00     0.060 A 
ATOM     29  C   UNL     1       0.452   1.251  -4.467  1.00  0.00     0.016 A 
ATOM     30  C   UNL     1       0.321   1.263  -6.898  1.00  0.00     0.016 A 
ATOM     31  C   UNL     1       1.828   1.347  -4.513  1.00  0.00     0.010 A 
ATOM     32  C   UNL     1       1.706   1.398  -6.946  1.00  0.00     0.010 A 
ATOM     33  C   UNL     1       2.456   1.433  -5.754  1.00  0.00    -0.014 A 
BRANCH  33  34
ATOM     34  C   UNL     1       3.896   1.721  -5.804  1.00  0.00     0.031 A 
ATOM     35  C   UNL     1       4.301   3.121  -6.133  1.00  0.00     0.074 A 
ATOM     36  C   UNL     1       4.795   0.755  -5.551  1.00  0.00     0.049 A 
ATOM     37  N   UNL     1       5.453   3.574  -6.535  1.00  0.00    -0.248 NA
ATOM     38  C   UNL     1       3.249   4.147  -6.011  1.00  0.00     0.031 C 
ATOM     39  C   UNL     1       4.481  -0.602  -5.096  1.00  0.00     0.029 A 
ATOM     40  N   UNL     1       6.159   0.768  -5.653  1.00  0.00    -0.354 N 
ATOM     41  C   UNL     1       5.250   4.926  -6.782  1.00  0.00     0.074 A 
ATOM     42  C   UNL     1       3.873   5.224  -6.464  1.00  0.00     0.031 C 
ATOM     43  C   UNL     1       5.625  -1.298  -4.977  1.00  0.00     0.029 A 
ATOM     44  C   UNL     1       6.732  -0.459  -5.421  1.00  0.00     0.049 A 
ATOM     45  H   UNL     1       6.678   1.576  -5.871  1.00  0.00     0.167 HD
ATOM     46  C   UNL     1       6.144   5.819  -7.263  1.00  0.00     0.031 A 
ATOM     47  C   UNL     1       8.002  -0.863  -5.616  1.00  0.00     0.031 A 
ATOM     48  C   UNL     1       7.504   5.467  -7.561  1.00  0.00     0.049 A 
ATOM     49  C   UNL     1       8.972   0.135  -6.191  1.00  0.00     0.074 A 
ATOM     50  C   UNL     1       8.506   6.244  -8.108  1.00  0.00     0.029 A 
ATOM     51  N   UNL     1       8.054   4.215  -7.309  1.00  0.00    -0.354 N 
ATOM     52  N   UNL     1       8.756   1.383  -6.541  1.00  0.00    -0.248 NA
ATOM     53  C   UNL     1      10.345  -0.329  -6.416  1.00  0.00     0.031 C 
ATOM     54  C   UNL     1       9.658   5.453  -8.206  1.00  0.00     0.029 A 
ATOM     55  C   UNL     1       9.384   4.198  -7.679  1.00  0.00     0.049 A 
ATOM     56  H   UNL     1       7.567   3.452  -6.923  1.00  0.00     0.167 HD
ATOM     57  C   UNL     1       9.969   1.859  -7.019  1.00  0.00     0.074 A 
ATOM     58  C   UNL     1      10.918   0.768  -6.894  1.00  0.00     0.031 C 
ATOM     59  C   UNL     1      10.280   3.080  -7.524  1.00  0.00     0.031 A 
BRANCH  46  60
ATOM     60  C   UNL     1       5.641   7.206  -7.555  1.00  0.00    -0.014 A 
ATOM     61  C   UNL     1       5.305   8.100  -6.522  1.00  0.00     0.010 A 
ATOM     62  C   UNL     1       5.467   7.611  -8.891  1.00  0.00     0.010 A 
ATOM     63  C   UNL     1       4.761   9.353  -6.820  1.00  0.00     0.020 A 
ATOM     64  C   UNL     1       4.947   8.873  -9.194  1.00  0.00     0.020 A 
ATOM     65  C   UNL     1       4.577   9.728  -8.154  1.00  0.00     0.054 A 
BRANCH  65  66
ATOM     66  S   UNL     1       3.864  11.357  -8.516  1.00  0.00     0.124 S 
ATOM     67  O   UNL     1       2.451  11.141  -8.210  1.00  0.00    -0.237 OA
ATOM     68  O   UNL     1       4.578  12.234  -7.592  1.00  0.00    -0.237 OA
ATOM     69  O   UNL     1       4.171  11.563  -9.929  1.00  0.00    -0.744 OA
ENDBRANCH  65  66
ENDBRANCH  46  60
BRANCH  47  70
ATOM     70  C   UNL     1       8.394  -2.272  -5.340  1.00  0.00    -0.014 A 
ATOM     71  C   UNL     1       9.249  -2.584  -4.269  1.00  0.00     0.010 A 
ATOM     72  C   UNL     1       7.891  -3.320  -6.135  1.00  0.00     0.010 A 
ATOM     73  C   UNL     1       9.599  -3.913  -4.002  1.00  0.00     0.020 A 
ATOM     74  C   UNL     1       8.216  -4.651  -5.855  1.00  0.00     0.020 A 
ATOM     75  C   UNL     1       9.077  -4.939  -4.795  1.00  0.00     0.054 A 
BRANCH  75  76
ATOM     76  S   UNL     1       9.490  -6.661  -4.394  1.00  0.00     0.124 S 
ATOM     77  O   UNL     1      10.848  -6.777  -4.917  1.00  0.00    -0.237 OA
ATOM     78  O   UNL     1       9.367  -6.686  -2.938  1.00  0.00    -0.237 OA
ATOM     79  O   UNL     1       8.474  -7.429  -5.109  1.00  0.00    -0.744 OA
ENDBRANCH  75  76
ENDBRANCH  47  70
BRANCH  59  80
ATOM     80  C   UNL     1      11.709   3.294  -7.927  1.00  0.00    -0.014 A 
ATOM     81  C   UNL     1      12.205   2.774  -9.134  1.00  0.00     0.010 A 
ATOM     82  C   UNL     1      12.543   4.074  -7.108  1.00  0.00     0.010 A 
ATOM     83  C   UNL     1      13.530   3.009  -9.502  1.00  0.00     0.020 A 
ATOM     84  C   UNL     1      13.861   4.328  -7.484  1.00  0.00     0.020 A 
ATOM     85  C   UNL     1      14.350   3.782  -8.674  1.00  0.00     0.054 A 
BRANCH  85  86
ATOM     86  S   UNL     1      16.055   4.112  -9.192  1.00  0.00     0.124 S 
ATOM     87  O   UNL     1      16.718   2.851  -8.871  1.00  0.00    -0.237 OA
ATOM     88  O   UNL     1      15.909   4.402 -10.617  1.00  0.00    -0.237 OA
ATOM     89  O   UNL     1      16.451   5.253  -8.369  1.00  0.00    -0.744 OA
ENDBRANCH  85  86
ENDBRANCH  59  80
ENDBRANCH  33  34
ENDBRANCH  26  28
ENDBRANCH  25  26
ENDBRANCH  24  25
ENDBRANCH   1  24
TORSDOF 18
