REMARK SMILES O=C1CC[C@H](CNC(=O)N[C@@H]2C=C[C@@H](C(=O)OCCOC(=O)c3ccc(-c4c5nc(c(-c6ccc(S(=O)(=O)[O-])cc6)c6ccc([nH]6)c(-c6ccc(S(=O)(=O)[O-])cc6)c6nc(c(-c7ccc(S(=O)(=O)[O-])cc7)c7ccc4[nH]7)C=C6)C=C5)cc3)C2)N1
REMARK SMILES IDX 18 1 17 2 15 3 16 4 14 5 11 6 12 7 83 8 13 9 10 10 7 11 8 12
REMARK SMILES IDX 9 14 6 16 5 17 1 18 2 19 3 20 84 21 4 22 19 24 20 25 21 26
REMARK SMILES IDX 22 27 23 28 24 29 82 30 25 31 81 32 26 33 27 34 28 35 75 36
REMARK SMILES IDX 29 37 80 38 74 39 76 40 30 41 79 42 73 43 72 44 31 46 61 47
REMARK SMILES IDX 42 48 60 49 43 50 46 51 59 52 77 53 44 54 45 55 58 57 78 58
REMARK SMILES IDX 47 59 32 60 33 61 41 62 34 63 40 64 35 65 36 66 37 67 38 68
REMARK SMILES IDX 39 69 62 70 63 71 71 72 64 73 70 74 65 75 66 76 67 77 68 78
REMARK SMILES IDX 69 79 48 80 49 81 57 82 50 83 56 84 51 85 52 86 53 87 54 88
REMARK SMILES IDX 55 89
REMARK H PARENT 7 13 10 15 84 23 76 45 46 56
REMARK Flexibility Score: inf
ROOT
ATOM      1  C   UNL     1      -2.518  -6.006   6.837  1.00  0.00     0.274 C 
ENDROOT
BRANCH   1   2
ATOM      2  O   UNL     1      -2.397  -5.214   5.643  1.00  0.00    -0.462 OA
BRANCH   2   3
ATOM      3  C   UNL     1      -1.379  -4.322   5.555  1.00  0.00     0.312 C 
ATOM      4  O   UNL     1      -0.681  -3.971   6.499  1.00  0.00    -0.252 OA
BRANCH   3   5
ATOM      5  C   UNL     1      -1.150  -3.848   4.114  1.00  0.00     0.124 C 
ATOM      6  C   UNL     1      -2.718  -3.352   2.248  1.00  0.00     0.107 C 
ATOM      7  C   UNL     1      -2.151  -2.118   2.869  1.00  0.00    -0.006 C 
ATOM      8  C   UNL     1      -2.071  -4.472   3.059  1.00  0.00     0.048 C 
ATOM      9  C   UNL     1      -1.346  -2.380   3.906  1.00  0.00    -0.014 C 
BRANCH   6  10
ATOM     10  N   UNL     1      -2.383  -3.424   0.844  1.00  0.00    -0.332 N 
ATOM     11  N   UNL     1      -3.582  -5.307   0.021  1.00  0.00    -0.336 N 
ATOM     12  C   UNL     1      -2.785  -4.235  -0.151  1.00  0.00     0.315 C 
ATOM     13  H   UNL     1      -3.916  -5.697  -0.819  1.00  0.00     0.165 HD
ATOM     14  O   UNL     1      -2.400  -3.985  -1.294  1.00  0.00    -0.249 OA
ATOM     15  H   UNL     1      -1.731  -2.744   0.559  1.00  0.00     0.165 HD
BRANCH  11  16
ATOM     16  C   UNL     1      -4.039  -5.993   1.214  1.00  0.00     0.142 C 
BRANCH  16  17
ATOM     17  C   UNL     1      -5.285  -6.878   1.044  1.00  0.00     0.101 C 
ATOM     18  O   UNL     1      -5.929  -8.541   4.074  1.00  0.00    -0.275 OA
ATOM     19  C   UNL     1      -5.615  -8.240   2.939  1.00  0.00     0.220 C 
ATOM     20  C   UNL     1      -4.798  -9.060   1.973  1.00  0.00     0.102 C 
ATOM     21  N   UNL     1      -5.944  -7.052   2.319  1.00  0.00    -0.352 N 
ATOM     22  C   UNL     1      -4.975  -8.317   0.646  1.00  0.00     0.036 C 
ATOM     23  H   UNL     1      -6.563  -6.391   2.705  1.00  0.00     0.163 HD
ENDBRANCH  16  17
ENDBRANCH  11  16
ENDBRANCH   6  10
ENDBRANCH   3   5
ENDBRANCH   2   3
ENDBRANCH   1   2
BRANCH   1  24
ATOM     24  C   UNL     1      -2.657  -7.480   6.438  1.00  0.00     0.275 C 
BRANCH  24  25
ATOM     25  O   UNL     1      -1.455  -7.949   5.787  1.00  0.00    -0.458 OA
BRANCH  25  26
ATOM     26  C   UNL     1      -1.484  -7.906   4.435  1.00  0.00     0.338 C 
ATOM     27  O   UNL     1      -2.411  -7.546   3.727  1.00  0.00    -0.246 OA
BRANCH  26  28
ATOM     28  C   UNL     1      -0.166  -8.240   3.877  1.00  0.00     0.060 A 
ATOM     29  C   UNL     1       0.524  -7.242   3.187  1.00  0.00     0.016 A 
ATOM     30  C   UNL     1       0.341  -9.537   3.934  1.00  0.00     0.016 A 
ATOM     31  C   UNL     1       1.720  -7.531   2.539  1.00  0.00     0.010 A 
ATOM     32  C   UNL     1       1.556  -9.825   3.299  1.00  0.00     0.010 A 
ATOM     33  C   UNL     1       2.250  -8.824   2.596  1.00  0.00    -0.014 A 
BRANCH  33  34
ATOM     34  C   UNL     1       3.545  -9.106   1.933  1.00  0.00     0.031 A 
ATOM     35  C   UNL     1       3.595  -9.908   0.665  1.00  0.00     0.074 A 
ATOM     36  C   UNL     1       4.676  -8.615   2.475  1.00  0.00     0.049 A 
ATOM     37  N   UNL     1       4.639 -10.302  -0.015  1.00  0.00    -0.248 NA
ATOM     38  C   UNL     1       2.307 -10.322   0.087  1.00  0.00     0.031 C 
ATOM     39  C   UNL     1       4.745  -7.792   3.686  1.00  0.00     0.029 A 
ATOM     40  N   UNL     1       5.984  -8.740   2.083  1.00  0.00    -0.354 N 
ATOM     41  C   UNL     1       4.141 -11.031  -1.088  1.00  0.00     0.074 A 
ATOM     42  C   UNL     1       2.699 -11.029  -0.966  1.00  0.00     0.031 C 
ATOM     43  C   UNL     1       6.028  -7.490   3.939  1.00  0.00     0.029 A 
ATOM     44  C   UNL     1       6.874  -8.135   2.940  1.00  0.00     0.049 A 
ATOM     45  H   UNL     1       6.260  -9.217   1.268  1.00  0.00     0.167 HD
ATOM     46  C   UNL     1       4.828 -11.647  -2.080  1.00  0.00     0.031 A 
ATOM     47  C   UNL     1       8.220  -8.129   2.941  1.00  0.00     0.031 A 
ATOM     48  C   UNL     1       6.262 -11.635  -2.199  1.00  0.00     0.049 A 
ATOM     49  C   UNL     1       8.956  -8.858   1.851  1.00  0.00     0.074 A 
ATOM     50  C   UNL     1       7.046 -12.208  -3.187  1.00  0.00     0.029 A 
ATOM     51  N   UNL     1       7.128 -11.024  -1.306  1.00  0.00    -0.354 N 
ATOM     52  N   UNL     1       8.466  -9.526   0.834  1.00  0.00    -0.248 NA
ATOM     53  C   UNL     1      10.424  -8.833   1.909  1.00  0.00     0.031 C 
ATOM     54  C   UNL     1       8.389 -11.985  -2.863  1.00  0.00     0.029 A 
ATOM     55  C   UNL     1       8.439 -11.230  -1.702  1.00  0.00     0.049 A 
ATOM     56  H   UNL     1       6.852 -10.520  -0.507  1.00  0.00     0.167 HD
ATOM     57  C   UNL     1       9.567  -9.986   0.121  1.00  0.00     0.074 A 
ATOM     58  C   UNL     1      10.746  -9.504   0.812  1.00  0.00     0.031 C 
ATOM     59  C   UNL     1       9.600 -10.742  -1.004  1.00  0.00     0.031 A 
BRANCH  46  60
ATOM     60  C   UNL     1       4.044 -12.423  -3.103  1.00  0.00    -0.014 A 
ATOM     61  C   UNL     1       3.330 -11.773  -4.124  1.00  0.00     0.010 A 
ATOM     62  C   UNL     1       4.093 -13.830  -3.087  1.00  0.00     0.010 A 
ATOM     63  C   UNL     1       2.664 -12.518  -5.102  1.00  0.00     0.020 A 
ATOM     64  C   UNL     1       3.444 -14.577  -4.074  1.00  0.00     0.020 A 
ATOM     65  C   UNL     1       2.725 -13.915  -5.071  1.00  0.00     0.054 A 
BRANCH  65  66
ATOM     66  S   UNL     1       1.891 -14.856  -6.379  1.00  0.00     0.124 S 
ATOM     67  O   UNL     1       0.486 -14.713  -6.003  1.00  0.00    -0.237 OA
ATOM     68  O   UNL     1       2.291 -14.146  -7.591  1.00  0.00    -0.237 OA
ATOM     69  O   UNL     1       2.438 -16.203  -6.240  1.00  0.00    -0.744 OA
ENDBRANCH  65  66
ENDBRANCH  46  60
BRANCH  47  70
ATOM     70  C   UNL     1       8.960  -7.454   4.041  1.00  0.00    -0.014 A 
ATOM     71  C   UNL     1       9.704  -6.286   3.802  1.00  0.00     0.010 A 
ATOM     72  C   UNL     1       8.929  -7.992   5.341  1.00  0.00     0.010 A 
ATOM     73  C   UNL     1      10.426  -5.684   4.837  1.00  0.00     0.020 A 
ATOM     74  C   UNL     1       9.627  -7.378   6.384  1.00  0.00     0.020 A 
ATOM     75  C   UNL     1      10.386  -6.237   6.120  1.00  0.00     0.054 A 
BRANCH  75  76
ATOM     76  S   UNL     1      11.306  -5.428   7.458  1.00  0.00     0.124 S 
ATOM     77  O   UNL     1      12.672  -5.866   7.192  1.00  0.00    -0.237 OA
ATOM     78  O   UNL     1      11.037  -4.012   7.220  1.00  0.00    -0.237 OA
ATOM     79  O   UNL     1      10.696  -5.974   8.668  1.00  0.00    -0.744 OA
ENDBRANCH  75  76
ENDBRANCH  47  70
BRANCH  59  80
ATOM     80  C   UNL     1      10.952 -11.071  -1.574  1.00  0.00    -0.014 A 
ATOM     81  C   UNL     1      11.783 -12.026  -0.964  1.00  0.00     0.010 A 
ATOM     82  C   UNL     1      11.373 -10.451  -2.764  1.00  0.00     0.010 A 
ATOM     83  C   UNL     1      13.027 -12.336  -1.520  1.00  0.00     0.020 A 
ATOM     84  C   UNL     1      12.605 -10.776  -3.336  1.00  0.00     0.020 A 
ATOM     85  C   UNL     1      13.431 -11.707  -2.702  1.00  0.00     0.054 A 
BRANCH  85  86
ATOM     86  S   UNL     1      15.030 -12.157  -3.430  1.00  0.00     0.124 S 
ATOM     87  O   UNL     1      15.968 -11.447  -2.565  1.00  0.00    -0.237 OA
ATOM     88  O   UNL     1      15.042 -13.613  -3.309  1.00  0.00    -0.237 OA
ATOM     89  O   UNL     1      14.940 -11.654  -4.799  1.00  0.00    -0.744 OA
ENDBRANCH  85  86
ENDBRANCH  59  80
ENDBRANCH  33  34
ENDBRANCH  26  28
ENDBRANCH  25  26
ENDBRANCH  24  25
ENDBRANCH   1  24
TORSDOF 17
