REMARK SMILES CCOc1cc(/C=C2/SC(=S)N([C@H](CC)C(=O)OCCOC(=O)c3ccc(-c4c5nc(c(-c6ccc(S(=O)(=O)[O-])cc6)c6ccc([nH]6)c(-c6ccc(S(=O)(=O)[O-])cc6)c6nc(c(-c7ccc(S(=O)(=O)[O-])cc7)c7ccc4[nH]7)C=C6)C=C5)cc3)C2=O)ccc1O
REMARK SMILES IDX 19 1 18 2 16 3 17 4 13 5 12 6 7 7 8 8 9 9 84 10 10 11 85 12
REMARK SMILES IDX 11 13 6 14 4 15 5 16 88 17 87 18 86 19 3 20 2 21 1 22 89 23
REMARK SMILES IDX 14 25 15 26 20 27 21 28 22 29 23 30 24 31 25 32 83 33 26 34
REMARK SMILES IDX 82 35 27 36 28 37 29 38 76 39 30 40 81 41 75 42 77 43 31 44
REMARK SMILES IDX 80 45 74 46 73 47 32 49 62 50 43 51 61 52 44 53 47 54 60 55
REMARK SMILES IDX 78 56 45 57 46 58 59 60 79 61 48 62 33 63 34 64 42 65 35 66
REMARK SMILES IDX 41 67 36 68 37 69 38 70 39 71 40 72 63 73 64 74 72 75 65 76
REMARK SMILES IDX 71 77 66 78 67 79 68 80 69 81 70 82 49 83 50 84 58 85 51 86
REMARK SMILES IDX 57 87 52 88 53 89 54 90 55 91 56 92
REMARK H PARENT 89 24 77 48 47 59
REMARK Flexibility Score: inf
ROOT
ATOM      1  C   UNL     1       2.907  -3.288   5.032  1.00  0.00     0.274 C 
ENDROOT
BRANCH   1   2
ATOM      2  O   UNL     1       3.966  -3.712   4.156  1.00  0.00    -0.461 OA
BRANCH   2   3
ATOM      3  C   UNL     1       5.210  -3.812   4.694  1.00  0.00     0.329 C 
ATOM      4  O   UNL     1       5.503  -3.480   5.838  1.00  0.00    -0.250 OA
BRANCH   3   5
ATOM      5  C   UNL     1       6.217  -4.447   3.726  1.00  0.00     0.201 C 
BRANCH   5   6
ATOM      6  N   UNL     1       7.523  -3.763   3.735  1.00  0.00    -0.278 N 
ATOM      7  C   UNL     1      10.997  -4.214   2.997  1.00  0.00     0.029 C 
ATOM      8  C   UNL     1       9.865  -3.752   3.545  1.00  0.00     0.081 C 
ATOM      9  S   UNL     1       9.475  -2.078   3.643  1.00  0.00    -0.054 SA
ATOM     10  C   UNL     1       8.655  -4.553   3.873  1.00  0.00     0.266 C 
ATOM     11  C   UNL     1       7.745  -2.423   3.504  1.00  0.00     0.149 C 
ATOM     12  O   UNL     1       8.672  -5.733   4.173  1.00  0.00    -0.268 OA
ATOM     13  S   UNL     1       6.641  -1.234   3.115  1.00  0.00    -0.052 S 
BRANCH   7  14
ATOM     14  C   UNL     1      11.123  -5.573   2.459  1.00  0.00    -0.020 A 
ATOM     15  C   UNL     1      11.941  -7.874   2.577  1.00  0.00     0.161 A 
ATOM     16  C   UNL     1      11.845  -6.575   3.113  1.00  0.00     0.058 A 
ATOM     17  C   UNL     1      11.304  -8.139   1.361  1.00  0.00     0.157 A 
ATOM     18  C   UNL     1      10.560  -7.152   0.715  1.00  0.00     0.051 A 
ATOM     19  C   UNL     1      10.482  -5.870   1.251  1.00  0.00     0.012 A 
BRANCH  15  20
ATOM     20  O   UNL     1      12.685  -8.706   3.361  1.00  0.00    -0.490 OA
BRANCH  20  21
ATOM     21  C   UNL     1      12.690 -10.121   3.205  1.00  0.00     0.226 C 
ATOM     22  C   UNL     1      11.374 -10.788   3.563  1.00  0.00     0.049 C 
ENDBRANCH  20  21
ENDBRANCH  15  20
BRANCH  17  23
ATOM     23  O   UNL     1      11.376  -9.320   0.683  1.00  0.00    -0.504 OA
ATOM     24  H   UNL     1      11.856 -10.040   1.044  1.00  0.00     0.293 HD
ENDBRANCH  17  23
ENDBRANCH   7  14
ENDBRANCH   5   6
BRANCH   5  25
ATOM     25  C   UNL     1       5.730  -4.822   2.315  1.00  0.00     0.034 C 
ATOM     26  C   UNL     1       6.491  -6.026   1.756  1.00  0.00     0.007 C 
ENDBRANCH   5  25
ENDBRANCH   3   5
ENDBRANCH   2   3
ENDBRANCH   1   2
BRANCH   1  27
ATOM     27  C   UNL     1       1.973  -4.456   5.365  1.00  0.00     0.275 C 
BRANCH  27  28
ATOM     28  O   UNL     1       2.616  -5.450   6.188  1.00  0.00    -0.458 OA
BRANCH  28  29
ATOM     29  C   UNL     1       3.250  -6.433   5.504  1.00  0.00     0.338 C 
ATOM     30  O   UNL     1       3.322  -6.550   4.291  1.00  0.00    -0.246 OA
BRANCH  29  31
ATOM     31  C   UNL     1       4.004  -7.301   6.424  1.00  0.00     0.060 A 
ATOM     32  C   UNL     1       5.386  -7.360   6.252  1.00  0.00     0.016 A 
ATOM     33  C   UNL     1       3.378  -8.124   7.361  1.00  0.00     0.016 A 
ATOM     34  C   UNL     1       6.154  -8.249   6.988  1.00  0.00     0.010 A 
ATOM     35  C   UNL     1       4.156  -9.013   8.119  1.00  0.00     0.010 A 
ATOM     36  C   UNL     1       5.548  -9.089   7.926  1.00  0.00    -0.014 A 
BRANCH  36  37
ATOM     37  C   UNL     1       6.405 -10.049   8.662  1.00  0.00     0.031 A 
ATOM     38  C   UNL     1       6.345 -11.517   8.347  1.00  0.00     0.074 A 
ATOM     39  C   UNL     1       7.296  -9.582   9.558  1.00  0.00     0.049 A 
ATOM     40  N   UNL     1       7.033 -12.499   8.871  1.00  0.00    -0.248 NA
ATOM     41  C   UNL     1       5.390 -11.940   7.310  1.00  0.00     0.031 C 
ATOM     42  C   UNL     1       7.471  -8.172   9.919  1.00  0.00     0.029 A 
ATOM     43  N   UNL     1       8.236 -10.237  10.312  1.00  0.00    -0.354 N 
ATOM     44  C   UNL     1       6.573 -13.657   8.256  1.00  0.00     0.074 A 
ATOM     45  C   UNL     1       5.543 -13.258   7.321  1.00  0.00     0.031 C 
ATOM     46  C   UNL     1       8.469  -8.068  10.811  1.00  0.00     0.029 A 
ATOM     47  C   UNL     1       8.975  -9.402  11.116  1.00  0.00     0.049 A 
ATOM     48  H   UNL     1       8.369 -11.212  10.280  1.00  0.00     0.167 HD
ATOM     49  C   UNL     1       6.973 -14.935   8.456  1.00  0.00     0.031 A 
ATOM     50  C   UNL     1       9.940  -9.680  12.014  1.00  0.00     0.031 A 
ATOM     51  C   UNL     1       8.020 -15.324   9.365  1.00  0.00     0.049 A 
ATOM     52  C   UNL     1      10.358 -11.109  12.217  1.00  0.00     0.074 A 
ATOM     53  C   UNL     1       8.521 -16.591   9.607  1.00  0.00     0.029 A 
ATOM     54  N   UNL     1       8.726 -14.453  10.180  1.00  0.00    -0.354 N 
ATOM     55  N   UNL     1       9.921 -12.188  11.614  1.00  0.00    -0.248 NA
ATOM     56  C   UNL     1      11.400 -11.356  13.222  1.00  0.00     0.031 C 
ATOM     57  C   UNL     1       9.500 -16.493  10.602  1.00  0.00     0.029 A 
ATOM     58  C   UNL     1       9.640 -15.158  10.945  1.00  0.00     0.049 A 
ATOM     59  H   UNL     1       8.598 -13.477  10.211  1.00  0.00     0.167 HD
ATOM     60  C   UNL     1      10.638 -13.244  12.164  1.00  0.00     0.074 A 
ATOM     61  C   UNL     1      11.559 -12.669  13.124  1.00  0.00     0.031 C 
ATOM     62  C   UNL     1      10.539 -14.571  11.905  1.00  0.00     0.031 A 
BRANCH  49  63
ATOM     63  C   UNL     1       6.251 -16.022   7.708  1.00  0.00    -0.014 A 
ATOM     64  C   UNL     1       6.490 -16.259   6.343  1.00  0.00     0.010 A 
ATOM     65  C   UNL     1       5.367 -16.866   8.406  1.00  0.00     0.010 A 
ATOM     66  C   UNL     1       5.844 -17.310   5.686  1.00  0.00     0.020 A 
ATOM     67  C   UNL     1       4.734 -17.929   7.758  1.00  0.00     0.020 A 
ATOM     68  C   UNL     1       4.969 -18.139   6.398  1.00  0.00     0.054 A 
BRANCH  68  69
ATOM     69  S   UNL     1       4.181 -19.526   5.535  1.00  0.00     0.124 S 
ATOM     70  O   UNL     1       3.163 -18.846   4.738  1.00  0.00    -0.237 OA
ATOM     71  O   UNL     1       5.287 -20.105   4.777  1.00  0.00    -0.237 OA
ATOM     72  O   UNL     1       3.668 -20.362   6.618  1.00  0.00    -0.744 OA
ENDBRANCH  68  69
ENDBRANCH  49  63
BRANCH  50  73
ATOM     73  C   UNL     1      10.539  -8.585  12.823  1.00  0.00    -0.014 A 
ATOM     74  C   UNL     1      11.873  -8.187  12.631  1.00  0.00     0.010 A 
ATOM     75  C   UNL     1       9.765  -7.938  13.804  1.00  0.00     0.010 A 
ATOM     76  C   UNL     1      12.430  -7.178  13.423  1.00  0.00     0.020 A 
ATOM     77  C   UNL     1      10.310  -6.910  14.578  1.00  0.00     0.020 A 
ATOM     78  C   UNL     1      11.645  -6.548  14.394  1.00  0.00     0.054 A 
BRANCH  78  79
ATOM     79  S   UNL     1      12.369  -5.215  15.389  1.00  0.00     0.124 S 
ATOM     80  O   UNL     1      13.132  -5.962  16.384  1.00  0.00    -0.237 OA
ATOM     81  O   UNL     1      13.160  -4.476  14.409  1.00  0.00    -0.237 OA
ATOM     82  O   UNL     1      11.200  -4.501  15.900  1.00  0.00    -0.744 OA
ENDBRANCH  78  79
ENDBRANCH  50  73
BRANCH  62  83
ATOM     83  C   UNL     1      11.458 -15.483  12.668  1.00  0.00    -0.014 A 
ATOM     84  C   UNL     1      11.240 -15.753  14.031  1.00  0.00     0.010 A 
ATOM     85  C   UNL     1      12.544 -16.089  12.012  1.00  0.00     0.010 A 
ATOM     86  C   UNL     1      12.120 -16.577  14.737  1.00  0.00     0.020 A 
ATOM     87  C   UNL     1      13.412 -16.934  12.709  1.00  0.00     0.020 A 
ATOM     88  C   UNL     1      13.206 -17.155  14.072  1.00  0.00     0.054 A 
BRANCH  88  89
ATOM     89  S   UNL     1      14.331 -18.232  15.002  1.00  0.00     0.124 S 
ATOM     90  O   UNL     1      15.157 -17.262  15.716  1.00  0.00    -0.237 OA
ATOM     91  O   UNL     1      13.420 -19.014  15.834  1.00  0.00    -0.237 OA
ATOM     92  O   UNL     1      15.019 -18.991  13.961  1.00  0.00    -0.744 OA
ENDBRANCH  88  89
ENDBRANCH  62  83
ENDBRANCH  36  37
ENDBRANCH  29  31
ENDBRANCH  28  29
ENDBRANCH  27  28
ENDBRANCH   1  27
TORSDOF 20
