REMARK SMILES CCC[N@@H+](C)CC[C@@H]1CCC[C@]1([NH2+]C)C(=O)OCCOC(=O)c1ccc(-c2c3nc(c(-c4ccc(S(=O)(=O)[O-])cc4)c4ccc([nH]4)c(-c4ccc(S(=O)(=O)[O-])cc4)c4nc(c(-c5ccc(S(=O)(=O)[O-])cc5)c5ccc2[nH]5)C=C4)C=C3)cc1
REMARK SMILES IDX 18 1 17 2 15 3 16 4 12 5 8 6 9 7 10 8 11 9 7 10 6 11 4 12
REMARK SMILES IDX 5 13 3 15 2 16 1 17 13 18 14 19 19 22 20 23 21 24 22 25
REMARK SMILES IDX 23 26 24 27 82 28 25 29 81 30 26 31 27 32 28 33 75 34 29 35
REMARK SMILES IDX 80 36 74 37 76 38 30 39 79 40 73 41 72 42 31 44 61 45 42 46
REMARK SMILES IDX 60 47 43 48 46 49 59 50 77 51 44 52 45 53 58 55 78 56 47 57
REMARK SMILES IDX 32 58 33 59 41 60 34 61 40 62 35 63 36 64 37 65 38 66 39 67
REMARK SMILES IDX 62 68 63 69 71 70 64 71 70 72 65 73 66 74 67 75 68 76 69 77
REMARK SMILES IDX 48 78 49 79 57 80 50 81 56 82 51 83 52 84 53 85 54 86 55 87
REMARK H PARENT 4 14 13 20 13 21 76 43 46 54
REMARK Flexibility Score: inf
ROOT
ATOM      1  C   UNL     1       5.888  -0.215  -3.812  1.00  0.00     0.274 C 
ENDROOT
BRANCH   1   2
ATOM      2  O   UNL     1       4.872   0.040  -2.822  1.00  0.00    -0.457 OA
BRANCH   2   3
ATOM      3  C   UNL     1       5.184  -0.297  -1.542  1.00  0.00     0.368 C 
ATOM      4  O   UNL     1       6.270  -0.768  -1.210  1.00  0.00    -0.245 OA
BRANCH   3   5
ATOM      5  C   UNL     1       3.991  -0.126  -0.546  1.00  0.00     0.197 C 
ATOM      6  C   UNL     1       2.950   0.979  -0.886  1.00  0.00     0.068 C 
ATOM      7  C   UNL     1       3.697   2.262  -0.526  1.00  0.00     0.011 C 
ATOM      8  C   UNL     1       4.256   1.925   0.844  1.00  0.00     0.008 C 
ATOM      9  C   UNL     1       4.533   0.415   0.818  1.00  0.00     0.081 C 
BRANCH   6  10
ATOM     10  C   UNL     1       2.276   1.017  -2.258  1.00  0.00     0.072 C 
BRANCH  10  11
ATOM     11  C   UNL     1       0.733   1.134  -2.233  1.00  0.00     0.262 C 
BRANCH  11  12
ATOM     12  N   UNL     1       0.044   2.288  -1.643  1.00  0.00    -0.337 N 
ATOM     13  C   UNL     1       0.481   3.545  -2.256  1.00  0.00     0.332 C 
ATOM     14  H   UNL     1      -0.929   2.091  -1.875  1.00  0.00     0.347 HD
BRANCH  12  15
ATOM     15  C   UNL     1       0.000   2.402  -0.180  1.00  0.00     0.261 C 
BRANCH  15  16
ATOM     16  C   UNL     1      -0.893   1.416   0.598  1.00  0.00     0.058 C 
ATOM     17  C   UNL     1      -0.504  -0.052   0.615  1.00  0.00     0.010 C 
ENDBRANCH  15  16
ENDBRANCH  12  15
ENDBRANCH  11  12
ENDBRANCH  10  11
ENDBRANCH   6  10
BRANCH   5  18
ATOM     18  N   UNL     1       3.289  -1.434  -0.391  1.00  0.00    -0.334 N 
ATOM     19  C   UNL     1       4.162  -2.516   0.065  1.00  0.00     0.331 C 
ATOM     20  H   UNL     1       2.895  -1.697  -1.294  1.00  0.00     0.347 HD
ATOM     21  H   UNL     1       2.573  -1.306   0.323  1.00  0.00     0.347 HD
ENDBRANCH   5  18
ENDBRANCH   3   5
ENDBRANCH   2   3
ENDBRANCH   1   2
BRANCH   1  22
ATOM     22  C   UNL     1       6.650   1.067  -4.132  1.00  0.00     0.275 C 
BRANCH  22  23
ATOM     23  O   UNL     1       7.301   1.528  -2.939  1.00  0.00    -0.458 OA
BRANCH  23  24
ATOM     24  C   UNL     1       7.341   2.870  -2.766  1.00  0.00     0.338 C 
ATOM     25  O   UNL     1       6.998   3.716  -3.574  1.00  0.00    -0.246 OA
BRANCH  24  26
ATOM     26  C   UNL     1       7.837   3.187  -1.405  1.00  0.00     0.060 A 
ATOM     27  C   UNL     1       7.582   2.336  -0.329  1.00  0.00     0.016 A 
ATOM     28  C   UNL     1       8.475   4.405  -1.173  1.00  0.00     0.016 A 
ATOM     29  C   UNL     1       7.862   2.741   0.977  1.00  0.00     0.010 A 
ATOM     30  C   UNL     1       8.843   4.766   0.130  1.00  0.00     0.010 A 
ATOM     31  C   UNL     1       8.497   3.962   1.232  1.00  0.00    -0.014 A 
BRANCH  31  32
ATOM     32  C   UNL     1       8.729   4.439   2.629  1.00  0.00     0.031 A 
ATOM     33  C   UNL     1       8.223   5.801   3.049  1.00  0.00     0.074 A 
ATOM     34  C   UNL     1       9.363   3.676   3.544  1.00  0.00     0.049 A 
ATOM     35  N   UNL     1       8.542   6.516   4.098  1.00  0.00    -0.248 NA
ATOM     36  C   UNL     1       7.245   6.449   2.159  1.00  0.00     0.031 C 
ATOM     37  C   UNL     1       9.845   2.308   3.337  1.00  0.00     0.029 A 
ATOM     38  N   UNL     1       9.705   3.948   4.848  1.00  0.00    -0.354 N 
ATOM     39  C   UNL     1       7.877   7.729   3.948  1.00  0.00     0.074 A 
ATOM     40  C   UNL     1       7.123   7.646   2.715  1.00  0.00     0.031 C 
ATOM     41  C   UNL     1      10.366   1.845   4.484  1.00  0.00     0.029 A 
ATOM     42  C   UNL     1      10.359   2.913   5.475  1.00  0.00     0.049 A 
ATOM     43  H   UNL     1       9.500   4.803   5.291  1.00  0.00     0.167 HD
ATOM     44  C   UNL     1       7.901   8.817   4.756  1.00  0.00     0.031 A 
ATOM     45  C   UNL     1      10.936   2.841   6.691  1.00  0.00     0.031 A 
ATOM     46  C   UNL     1       8.594   8.875   6.016  1.00  0.00     0.049 A 
ATOM     47  C   UNL     1      10.957   4.058   7.572  1.00  0.00     0.074 A 
ATOM     48  C   UNL     1       8.706   9.940   6.894  1.00  0.00     0.029 A 
ATOM     49  N   UNL     1       9.259   7.808   6.599  1.00  0.00    -0.354 N 
ATOM     50  N   UNL     1      10.447   5.245   7.349  1.00  0.00    -0.248 NA
ATOM     51  C   UNL     1      11.654   3.929   8.859  1.00  0.00     0.031 C 
ATOM     52  C   UNL     1       9.452   9.520   8.002  1.00  0.00     0.029 A 
ATOM     53  C   UNL     1       9.770   8.183   7.830  1.00  0.00     0.049 A 
ATOM     54  H   UNL     1       9.354   6.914   6.197  1.00  0.00     0.167 HD
ATOM     55  C   UNL     1      10.756   6.003   8.473  1.00  0.00     0.074 A 
ATOM     56  C   UNL     1      11.473   5.134   9.383  1.00  0.00     0.031 C 
ATOM     57  C   UNL     1      10.479   7.306   8.725  1.00  0.00     0.031 A 
BRANCH  44  58
ATOM     58  C   UNL     1       7.193  10.056   4.275  1.00  0.00    -0.014 A 
ATOM     59  C   UNL     1       5.791  10.158   4.286  1.00  0.00     0.010 A 
ATOM     60  C   UNL     1       7.955  11.152   3.827  1.00  0.00     0.010 A 
ATOM     61  C   UNL     1       5.164  11.317   3.820  1.00  0.00     0.020 A 
ATOM     62  C   UNL     1       7.333  12.322   3.384  1.00  0.00     0.020 A 
ATOM     63  C   UNL     1       5.939  12.389   3.365  1.00  0.00     0.054 A 
BRANCH  63  64
ATOM     64  S   UNL     1       5.104  13.890   2.779  1.00  0.00     0.124 S 
ATOM     65  O   UNL     1       4.660  13.485   1.448  1.00  0.00    -0.237 OA
ATOM     66  O   UNL     1       4.042  14.076   3.765  1.00  0.00    -0.237 OA
ATOM     67  O   UNL     1       6.156  14.903   2.804  1.00  0.00    -0.744 OA
ENDBRANCH  63  64
ENDBRANCH  44  58
BRANCH  45  68
ATOM     68  C   UNL     1      11.599   1.581   7.126  1.00  0.00    -0.014 A 
ATOM     69  C   UNL     1      11.042   0.801   8.155  1.00  0.00     0.010 A 
ATOM     70  C   UNL     1      12.790   1.153   6.510  1.00  0.00     0.010 A 
ATOM     71  C   UNL     1      11.670  -0.378   8.567  1.00  0.00     0.020 A 
ATOM     72  C   UNL     1      13.403  -0.040   6.899  1.00  0.00     0.020 A 
ATOM     73  C   UNL     1      12.845  -0.792   7.935  1.00  0.00     0.054 A 
BRANCH  73  74
ATOM     74  S   UNL     1      13.615  -2.357   8.436  1.00  0.00     0.124 S 
ATOM     75  O   UNL     1      14.342  -1.965   9.639  1.00  0.00    -0.237 OA
ATOM     76  O   UNL     1      12.461  -3.228   8.650  1.00  0.00    -0.237 OA
ATOM     77  O   UNL     1      14.444  -2.710   7.286  1.00  0.00    -0.744 OA
ENDBRANCH  73  74
ENDBRANCH  45  68
BRANCH  57  78
ATOM     78  C   UNL     1      10.915   7.849  10.057  1.00  0.00    -0.014 A 
ATOM     79  C   UNL     1      12.266   8.138  10.319  1.00  0.00     0.010 A 
ATOM     80  C   UNL     1       9.955   8.076  11.059  1.00  0.00     0.010 A 
ATOM     81  C   UNL     1      12.656   8.600  11.579  1.00  0.00     0.020 A 
ATOM     82  C   UNL     1      10.339   8.558  12.313  1.00  0.00     0.020 A 
ATOM     83  C   UNL     1      11.691   8.796  12.571  1.00  0.00     0.054 A 
BRANCH  83  84
ATOM     84  S   UNL     1      12.214   9.397  14.201  1.00  0.00     0.124 S 
ATOM     85  O   UNL     1      12.735   8.181  14.819  1.00  0.00    -0.237 OA
ATOM     86  O   UNL     1      13.213  10.410  13.868  1.00  0.00    -0.237 OA
ATOM     87  O   UNL     1      10.982   9.918  14.788  1.00  0.00    -0.744 OA
ENDBRANCH  83  84
ENDBRANCH  57  78
ENDBRANCH  31  32
ENDBRANCH  24  26
ENDBRANCH  23  24
ENDBRANCH  22  23
ENDBRANCH   1  22
TORSDOF 20
