REMARK SMILES CC(=O)O[C@H]1C[C@@H](C(=O)OCCOC(=O)c2ccc(-c3c4nc(c(-c5ccc(S(=O)(=O)[O-])cc5)c5ccc([nH]5)c(-c5ccc(S(=O)(=O)[O-])cc5)c5nc(c(-c6ccc(S(=O)(=O)[O-])cc6)c6ccc3[nH]6)C=C5)C=C4)cc2)N(S(=O)(=O)c2ccc(F)cc2)C1
REMARK SMILES IDX 12 1 11 2 10 3 8 4 9 5 7 6 5 7 6 8 87 9 76 10 4 11 2 12 1 13
REMARK SMILES IDX 3 14 77 15 78 16 79 17 80 18 81 19 86 20 82 21 85 22 83 23
REMARK SMILES IDX 84 24 13 25 14 26 15 27 16 28 17 29 75 30 18 31 74 32 19 33
REMARK SMILES IDX 20 34 21 35 68 36 22 37 73 38 67 39 69 40 23 41 72 42 66 43
REMARK SMILES IDX 65 44 24 46 54 47 35 48 53 49 36 50 39 51 52 52 70 53 37 54
REMARK SMILES IDX 38 55 51 57 71 58 40 59 25 60 26 61 34 62 27 63 33 64 28 65
REMARK SMILES IDX 29 66 30 67 31 68 32 69 55 70 56 71 64 72 57 73 63 74 58 75
REMARK SMILES IDX 59 76 60 77 61 78 62 79 41 80 42 81 50 82 43 83 49 84 44 85
REMARK SMILES IDX 45 86 46 87 47 88 48 89
REMARK H PARENT 69 45 39 56
REMARK Flexibility Score: inf
ROOT
ATOM      1  C   UNL     1       1.897   9.710  -2.493  1.00  0.00     0.275 C 
ENDROOT
BRANCH   1   2
ATOM      2  C   UNL     1       1.120   8.509  -3.052  1.00  0.00     0.274 C 
BRANCH   2   3
ATOM      3  O   UNL     1       0.431   7.762  -2.027  1.00  0.00    -0.461 OA
BRANCH   3   4
ATOM      4  C   UNL     1       1.169   6.769  -1.494  1.00  0.00     0.324 C 
ATOM      5  O   UNL     1       2.296   6.473  -1.898  1.00  0.00    -0.250 OA
BRANCH   4   6
ATOM      6  C   UNL     1       0.551   5.967  -0.403  1.00  0.00     0.187 C 
ATOM      7  C   UNL     1      -0.063   3.758   0.187  1.00  0.00     0.194 C 
ATOM      8  C   UNL     1       0.216   4.614  -1.027  1.00  0.00     0.079 C 
ATOM      9  C   UNL     1      -0.825   4.736   1.105  1.00  0.00     0.148 C 
ATOM     10  N   UNL     1      -0.523   6.142   0.607  1.00  0.00    -0.180 NA
BRANCH   7  11
ATOM     11  O   UNL     1      -0.891   2.639  -0.168  1.00  0.00    -0.461 OA
BRANCH  11  12
ATOM     12  C   UNL     1      -0.448   1.610  -0.933  1.00  0.00     0.302 C 
ATOM     13  C   UNL     1       1.035   1.380  -1.002  1.00  0.00     0.139 C 
ATOM     14  O   UNL     1      -1.240   0.873  -1.513  1.00  0.00    -0.253 OA
ENDBRANCH  11  12
ENDBRANCH   7  11
BRANCH  10  15
ATOM     15  S   UNL     1      -1.922   7.044   0.262  1.00  0.00     0.243 S 
ATOM     16  O   UNL     1      -2.234   6.842  -1.137  1.00  0.00    -0.207 OA
ATOM     17  O   UNL     1      -2.902   6.718   1.280  1.00  0.00    -0.207 OA
BRANCH  15  18
ATOM     18  C   UNL     1      -1.539   8.757   0.538  1.00  0.00     0.082 A 
ATOM     19  C   UNL     1      -1.378   9.226   1.853  1.00  0.00     0.025 A 
ATOM     20  C   UNL     1      -1.552   9.659  -0.534  1.00  0.00     0.025 A 
ATOM     21  C   UNL     1      -1.163  10.589   2.081  1.00  0.00     0.040 A 
ATOM     22  C   UNL     1      -1.319  11.017  -0.299  1.00  0.00     0.040 A 
ATOM     23  C   UNL     1      -1.119  11.467   1.002  1.00  0.00     0.123 A 
ATOM     24  F   UNL     1      -0.889  12.770   1.218  1.00  0.00    -0.207 F 
ENDBRANCH  15  18
ENDBRANCH  10  15
ENDBRANCH   4   6
ENDBRANCH   3   4
ENDBRANCH   2   3
ENDBRANCH   1   2
BRANCH   1  25
ATOM     25  O   UNL     1       2.901   9.363  -1.517  1.00  0.00    -0.458 OA
BRANCH  25  26
ATOM     26  C   UNL     1       2.430   9.280  -0.255  1.00  0.00     0.338 C 
ATOM     27  O   UNL     1       1.271   9.368   0.102  1.00  0.00    -0.246 OA
BRANCH  26  28
ATOM     28  C   UNL     1       3.461   9.044   0.742  1.00  0.00     0.060 A 
ATOM     29  C   UNL     1       3.841   7.737   1.048  1.00  0.00     0.016 A 
ATOM     30  C   UNL     1       3.875  10.127   1.519  1.00  0.00     0.016 A 
ATOM     31  C   UNL     1       4.681   7.514   2.134  1.00  0.00     0.010 A 
ATOM     32  C   UNL     1       4.755   9.908   2.572  1.00  0.00     0.010 A 
ATOM     33  C   UNL     1       5.179   8.604   2.869  1.00  0.00    -0.014 A 
BRANCH  33  34
ATOM     34  C   UNL     1       6.318   8.412   3.789  1.00  0.00     0.031 A 
ATOM     35  C   UNL     1       6.178   8.568   5.271  1.00  0.00     0.074 A 
ATOM     36  C   UNL     1       7.516   8.178   3.219  1.00  0.00     0.049 A 
ATOM     37  N   UNL     1       7.114   8.528   6.184  1.00  0.00    -0.248 NA
ATOM     38  C   UNL     1       4.826   8.804   5.802  1.00  0.00     0.031 C 
ATOM     39  C   UNL     1       7.747   8.042   1.775  1.00  0.00     0.029 A 
ATOM     40  N   UNL     1       8.759   8.030   3.768  1.00  0.00    -0.354 N 
ATOM     41  C   UNL     1       6.474   8.750   7.396  1.00  0.00     0.074 A 
ATOM     42  C   UNL     1       5.066   8.928   7.103  1.00  0.00     0.031 C 
ATOM     43  C   UNL     1       9.050   7.823   1.556  1.00  0.00     0.029 A 
ATOM     44  C   UNL     1       9.750   7.859   2.831  1.00  0.00     0.049 A 
ATOM     45  H   UNL     1       8.928   8.046   4.738  1.00  0.00     0.167 HD
ATOM     46  C   UNL     1       7.023   8.803   8.633  1.00  0.00     0.031 A 
ATOM     47  C   UNL     1      11.083   7.776   2.977  1.00  0.00     0.031 A 
ATOM     48  C   UNL     1       8.430   8.634   8.897  1.00  0.00     0.049 A 
ATOM     49  C   UNL     1      11.659   7.863   4.356  1.00  0.00     0.074 A 
ATOM     50  C   UNL     1       9.082   8.625  10.119  1.00  0.00     0.029 A 
ATOM     51  N   UNL     1       9.405   8.458   7.925  1.00  0.00    -0.354 N 
ATOM     52  N   UNL     1      11.030   8.024   5.496  1.00  0.00    -0.248 NA
ATOM     53  C   UNL     1      13.117   7.761   4.469  1.00  0.00     0.031 C 
ATOM     54  C   UNL     1      10.454   8.489   9.882  1.00  0.00     0.029 A 
ATOM     55  C   UNL     1      10.653   8.367   8.516  1.00  0.00     0.049 A 
ATOM     56  H   UNL     1       9.233   8.405   6.957  1.00  0.00     0.167 HD
ATOM     57  C   UNL     1      12.019   8.031   6.469  1.00  0.00     0.074 A 
ATOM     58  C   UNL     1      13.283   7.838   5.783  1.00  0.00     0.031 C 
ATOM     59  C   UNL     1      11.895   8.188   7.809  1.00  0.00     0.031 A 
BRANCH  46  60
ATOM     60  C   UNL     1       6.117   9.075   9.803  1.00  0.00    -0.014 A 
ATOM     61  C   UNL     1       5.281   8.070  10.322  1.00  0.00     0.010 A 
ATOM     62  C   UNL     1       6.177  10.320  10.456  1.00  0.00     0.010 A 
ATOM     63  C   UNL     1       4.513   8.310  11.466  1.00  0.00     0.020 A 
ATOM     64  C   UNL     1       5.423  10.558  11.610  1.00  0.00     0.020 A 
ATOM     65  C   UNL     1       4.590   9.553  12.104  1.00  0.00     0.054 A 
BRANCH  65  66
ATOM     66  S   UNL     1       3.628   9.817  13.621  1.00  0.00     0.124 S 
ATOM     67  O   UNL     1       2.273   9.965  13.095  1.00  0.00    -0.237 OA
ATOM     68  O   UNL     1       3.878   8.593  14.377  1.00  0.00    -0.237 OA
ATOM     69  O   UNL     1       4.210  11.029  14.193  1.00  0.00    -0.744 OA
ENDBRANCH  65  66
ENDBRANCH  46  60
BRANCH  47  70
ATOM     70  C   UNL     1      11.946   7.628   1.778  1.00  0.00    -0.014 A 
ATOM     71  C   UNL     1      12.579   6.405   1.504  1.00  0.00     0.010 A 
ATOM     72  C   UNL     1      12.101   8.701   0.882  1.00  0.00     0.010 A 
ATOM     73  C   UNL     1      13.370   6.263   0.361  1.00  0.00     0.020 A 
ATOM     74  C   UNL     1      12.869   8.555  -0.275  1.00  0.00     0.020 A 
ATOM     75  C   UNL     1      13.511   7.340  -0.520  1.00  0.00     0.054 A 
BRANCH  75  76
ATOM     76  S   UNL     1      14.499   7.123  -2.026  1.00  0.00     0.124 S 
ATOM     77  O   UNL     1      15.858   7.282  -1.519  1.00  0.00    -0.237 OA
ATOM     78  O   UNL     1      14.136   5.775  -2.456  1.00  0.00    -0.237 OA
ATOM     79  O   UNL     1      14.023   8.194  -2.899  1.00  0.00    -0.744 OA
ENDBRANCH  75  76
ENDBRANCH  47  70
BRANCH  59  80
ATOM     80  C   UNL     1      13.164   8.138   8.609  1.00  0.00    -0.014 A 
ATOM     81  C   UNL     1      14.058   9.223   8.611  1.00  0.00     0.010 A 
ATOM     82  C   UNL     1      13.457   6.998   9.377  1.00  0.00     0.010 A 
ATOM     83  C   UNL     1      15.246   9.153   9.340  1.00  0.00     0.020 A 
ATOM     84  C   UNL     1      14.633   6.934  10.126  1.00  0.00     0.020 A 
ATOM     85  C   UNL     1      15.529   8.006  10.089  1.00  0.00     0.054 A 
BRANCH  85  86
ATOM     86  S   UNL     1      17.066   7.943  11.049  1.00  0.00     0.124 S 
ATOM     87  O   UNL     1      18.054   7.643  10.017  1.00  0.00    -0.237 OA
ATOM     88  O   UNL     1      17.143   9.285  11.623  1.00  0.00    -0.237 OA
ATOM     89  O   UNL     1      16.825   6.873  12.014  1.00  0.00    -0.744 OA
ENDBRANCH  85  86
ENDBRANCH  59  80
ENDBRANCH  33  34
ENDBRANCH  26  28
ENDBRANCH  25  26
ENDBRANCH   1  25
TORSDOF 18
