REMARK SMILES O=C(CC1(C(=O)OCCOC(=O)c2ccc(-c3c4nc(c(-c5ccc(S(=O)(=O)[O-])cc5)c5ccc([nH]5)c(-c5ccc(S(=O)(=O)[O-])cc5)c5nc(c(-c6ccc(S(=O)(=O)[O-])cc6)c6ccc3[nH]6)C=C5)C=C4)cc2)CCCCC1)Nc1ccc(N2CCOC2=O)cc1
REMARK SMILES IDX 8 1 7 2 5 3 6 4 4 5 73 6 77 7 74 8 76 9 75 10 3 11 2 12 1 13
REMARK SMILES IDX 78 14 79 16 80 17 90 18 81 19 89 20 82 21 83 22 84 23 87 24
REMARK SMILES IDX 85 25 86 26 88 27 9 28 10 29 11 30 12 31 13 32 14 33 72 34
REMARK SMILES IDX 15 35 71 36 16 37 17 38 18 39 65 40 19 41 70 42 64 43 66 44
REMARK SMILES IDX 20 45 69 46 63 47 62 48 21 50 51 51 32 52 50 53 33 54 36 55
REMARK SMILES IDX 49 56 67 57 34 58 35 59 48 61 68 62 37 63 22 64 23 65 31 66
REMARK SMILES IDX 24 67 30 68 25 69 26 70 27 71 28 72 29 73 52 74 53 75 61 76
REMARK SMILES IDX 54 77 60 78 55 79 56 80 57 81 58 82 59 83 38 84 39 85 47 86
REMARK SMILES IDX 40 87 46 88 41 89 42 90 43 91 44 92 45 93
REMARK H PARENT 78 15 66 49 36 60
REMARK Flexibility Score: inf
ROOT
ATOM      1  C   UNL     1       7.458   2.075   0.851  1.00  0.00     0.274 C 
ENDROOT
BRANCH   1   2
ATOM      2  O   UNL     1       6.135   1.835   1.371  1.00  0.00    -0.462 OA
BRANCH   2   3
ATOM      3  C   UNL     1       5.090   2.306   0.648  1.00  0.00     0.312 C 
ATOM      4  O   UNL     1       5.216   2.937  -0.397  1.00  0.00    -0.252 OA
BRANCH   3   5
ATOM      5  C   UNL     1       3.711   2.006   1.279  1.00  0.00     0.077 C 
ATOM      6  C   UNL     1       3.112   3.381   1.659  1.00  0.00     0.019 C 
ATOM      7  C   UNL     1       3.775   1.102   2.533  1.00  0.00     0.019 C 
ATOM      8  C   UNL     1       3.836   4.026   2.838  1.00  0.00     0.001 C 
ATOM      9  C   UNL     1       4.370   1.752   3.782  1.00  0.00     0.001 C 
ATOM     10  C   UNL     1       3.784   3.127   4.064  1.00  0.00     0.000 C 
BRANCH   5  11
ATOM     11  C   UNL     1       2.851   1.387   0.137  1.00  0.00     0.119 C 
BRANCH  11  12
ATOM     12  C   UNL     1       1.980   0.176   0.396  1.00  0.00     0.225 C 
ATOM     13  O   UNL     1       0.758   0.288   0.452  1.00  0.00    -0.275 OA
ATOM     14  N   UNL     1       2.689  -1.002   0.561  1.00  0.00    -0.326 N 
ATOM     15  H   UNL     1       3.672  -0.963   0.548  1.00  0.00     0.169 HD
BRANCH  14  16
ATOM     16  C   UNL     1       2.073  -2.250   0.747  1.00  0.00     0.041 A 
ATOM     17  C   UNL     1       2.563  -3.088   1.748  1.00  0.00     0.028 A 
ATOM     18  C   UNL     1       1.004  -2.665  -0.046  1.00  0.00     0.028 A 
ATOM     19  C   UNL     1       1.908  -4.290   2.033  1.00  0.00     0.028 A 
ATOM     20  C   UNL     1       0.429  -3.921   0.162  1.00  0.00     0.028 A 
ATOM     21  C   UNL     1       0.845  -4.719   1.232  1.00  0.00     0.047 A 
BRANCH  21  22
ATOM     22  N   UNL     1       0.171  -5.916   1.515  1.00  0.00    -0.274 N 
ATOM     23  C   UNL     1      -0.187  -6.333   2.830  1.00  0.00     0.171 C 
ATOM     24  C   UNL     1      -0.270  -6.834   0.582  1.00  0.00     0.414 C 
ATOM     25  C   UNL     1      -1.220  -7.399   2.552  1.00  0.00     0.257 C 
ATOM     26  O   UNL     1      -0.960  -7.832   1.217  1.00  0.00    -0.447 OA
ATOM     27  O   UNL     1      -0.076  -6.811  -0.625  1.00  0.00    -0.224 OA
ENDBRANCH  21  22
ENDBRANCH  14  16
ENDBRANCH  11  12
ENDBRANCH   5  11
ENDBRANCH   3   5
ENDBRANCH   2   3
ENDBRANCH   1   2
BRANCH   1  28
ATOM     28  C   UNL     1       8.072   0.778   0.325  1.00  0.00     0.275 C 
BRANCH  28  29
ATOM     29  O   UNL     1       7.468   0.378  -0.916  1.00  0.00    -0.458 OA
BRANCH  29  30
ATOM     30  C   UNL     1       6.381  -0.411  -0.788  1.00  0.00     0.338 C 
ATOM     31  O   UNL     1       5.859  -0.814   0.242  1.00  0.00    -0.246 OA
BRANCH  30  32
ATOM     32  C   UNL     1       5.762  -0.643  -2.093  1.00  0.00     0.060 A 
ATOM     33  C   UNL     1       4.824   0.287  -2.521  1.00  0.00     0.016 A 
ATOM     34  C   UNL     1       5.877  -1.877  -2.723  1.00  0.00     0.016 A 
ATOM     35  C   UNL     1       3.842  -0.100  -3.417  1.00  0.00     0.010 A 
ATOM     36  C   UNL     1       5.014  -2.176  -3.780  1.00  0.00     0.010 A 
ATOM     37  C   UNL     1       3.950  -1.314  -4.104  1.00  0.00    -0.014 A 
BRANCH  37  38
ATOM     38  C   UNL     1       2.977  -1.662  -5.176  1.00  0.00     0.031 A 
ATOM     39  C   UNL     1       2.291  -3.003  -5.176  1.00  0.00     0.074 A 
ATOM     40  C   UNL     1       2.747  -0.784  -6.176  1.00  0.00     0.049 A 
ATOM     41  N   UNL     1       1.643  -3.597  -6.145  1.00  0.00    -0.248 NA
ATOM     42  C   UNL     1       2.370  -3.792  -3.936  1.00  0.00     0.031 C 
ATOM     43  C   UNL     1       3.309   0.568  -6.273  1.00  0.00     0.029 A 
ATOM     44  N   UNL     1       1.988  -0.898  -7.315  1.00  0.00    -0.354 N 
ATOM     45  C   UNL     1       1.301  -4.856  -5.658  1.00  0.00     0.074 A 
ATOM     46  C   UNL     1       1.821  -4.940  -4.310  1.00  0.00     0.031 C 
ATOM     47  C   UNL     1       2.853   1.165  -7.379  1.00  0.00     0.029 A 
ATOM     48  C   UNL     1       2.082   0.198  -8.142  1.00  0.00     0.049 A 
ATOM     49  H   UNL     1       1.434  -1.686  -7.520  1.00  0.00     0.167 HD
ATOM     50  C   UNL     1       0.626  -5.848  -6.290  1.00  0.00     0.031 A 
ATOM     51  C   UNL     1       1.672   0.390  -9.409  1.00  0.00     0.031 A 
ATOM     52  C   UNL     1       0.096  -5.719  -7.627  1.00  0.00     0.049 A 
ATOM     53  C   UNL     1       0.972  -0.732 -10.110  1.00  0.00     0.074 A 
ATOM     54  C   UNL     1      -0.627  -6.642  -8.362  1.00  0.00     0.029 A 
ATOM     55  N   UNL     1       0.223  -4.588  -8.425  1.00  0.00    -0.354 N 
ATOM     56  N   UNL     1       0.694  -1.931  -9.659  1.00  0.00    -0.248 NA
ATOM     57  C   UNL     1       0.537  -0.482 -11.488  1.00  0.00     0.031 C 
ATOM     58  C   UNL     1      -0.878  -6.096  -9.625  1.00  0.00     0.029 A 
ATOM     59  C   UNL     1      -0.382  -4.801  -9.653  1.00  0.00     0.049 A 
ATOM     60  H   UNL     1       0.678  -3.757  -8.158  1.00  0.00     0.167 HD
ATOM     61  C   UNL     1       0.030  -2.578 -10.691  1.00  0.00     0.074 A 
ATOM     62  C   UNL     1      -0.062  -1.628 -11.785  1.00  0.00     0.031 C 
ATOM     63  C   UNL     1      -0.461  -3.840 -10.729  1.00  0.00     0.031 A 
BRANCH  50  64
ATOM     64  C   UNL     1       0.486  -7.174  -5.575  1.00  0.00    -0.014 A 
ATOM     65  C   UNL     1      -0.265  -7.317  -4.394  1.00  0.00     0.010 A 
ATOM     66  C   UNL     1       1.125  -8.312  -6.105  1.00  0.00     0.010 A 
ATOM     67  C   UNL     1      -0.324  -8.549  -3.728  1.00  0.00     0.020 A 
ATOM     68  C   UNL     1       1.037  -9.553  -5.465  1.00  0.00     0.020 A 
ATOM     69  C   UNL     1       0.332  -9.659  -4.265  1.00  0.00     0.054 A 
BRANCH  69  70
ATOM     70  S   UNL     1       0.234 -11.251  -3.396  1.00  0.00     0.124 S 
ATOM     71  O   UNL     1       1.103 -11.033  -2.242  1.00  0.00    -0.237 OA
ATOM     72  O   UNL     1      -1.190 -11.375  -3.098  1.00  0.00    -0.237 OA
ATOM     73  O   UNL     1       0.742 -12.212  -4.374  1.00  0.00    -0.744 OA
ENDBRANCH  69  70
ENDBRANCH  50  64
BRANCH  51  74
ATOM     74  C   UNL     1       1.992   1.676 -10.090  1.00  0.00    -0.014 A 
ATOM     75  C   UNL     1       0.982   2.607 -10.379  1.00  0.00     0.010 A 
ATOM     76  C   UNL     1       3.332   2.010 -10.374  1.00  0.00     0.010 A 
ATOM     77  C   UNL     1       1.304   3.848 -10.936  1.00  0.00     0.020 A 
ATOM     78  C   UNL     1       3.661   3.263 -10.897  1.00  0.00     0.020 A 
ATOM     79  C   UNL     1       2.642   4.173 -11.181  1.00  0.00     0.054 A 
BRANCH  79  80
ATOM     80  S   UNL     1       3.039   5.822 -11.825  1.00  0.00     0.124 S 
ATOM     81  O   UNL     1       2.552   5.737 -13.198  1.00  0.00    -0.237 OA
ATOM     82  O   UNL     1       2.280   6.698 -10.936  1.00  0.00    -0.237 OA
ATOM     83  O   UNL     1       4.491   5.907 -11.680  1.00  0.00    -0.744 OA
ENDBRANCH  79  80
ENDBRANCH  51  74
BRANCH  63  84
ATOM     84  C   UNL     1      -1.186  -4.256 -11.980  1.00  0.00    -0.014 A 
ATOM     85  C   UNL     1      -0.497  -4.512 -13.178  1.00  0.00     0.010 A 
ATOM     86  C   UNL     1      -2.578  -4.459 -11.930  1.00  0.00     0.010 A 
ATOM     87  C   UNL     1      -1.190  -4.950 -14.309  1.00  0.00     0.020 A 
ATOM     88  C   UNL     1      -3.269  -4.927 -13.049  1.00  0.00     0.020 A 
ATOM     89  C   UNL     1      -2.570  -5.163 -14.235  1.00  0.00     0.054 A 
BRANCH  89  90
ATOM     90  S   UNL     1      -3.432  -5.805 -15.695  1.00  0.00     0.124 S 
ATOM     91  O   UNL     1      -3.401  -4.658 -16.597  1.00  0.00    -0.237 OA
ATOM     92  O   UNL     1      -2.595  -6.936 -16.087  1.00  0.00    -0.237 OA
ATOM     93  O   UNL     1      -4.755  -6.163 -15.189  1.00  0.00    -0.744 OA
ENDBRANCH  89  90
ENDBRANCH  63  84
ENDBRANCH  37  38
ENDBRANCH  30  32
ENDBRANCH  29  30
ENDBRANCH  28  29
ENDBRANCH   1  28
TORSDOF 18
