REMARK SMILES C[C@@H](NC(=O)[C@@H]1CC[C@@H]2CCCC[C@@H]2[NH2+]1)C(=O)OCCOC(=O)c1ccc(-c2c3nc(c(-c4ccc(S(=O)(=O)[O-])cc4)c4ccc([nH]4)c(-c4ccc(S(=O)(=O)[O-])cc4)c4nc(c(-c5ccc(S(=O)(=O)[O-])cc5)c5ccc2[nH]5)C=C4)C=C3)cc1
REMARK SMILES IDX 20 1 19 2 18 3 16 4 17 5 2 6 1 7 3 8 4 9 5 11 6 12 7 13
REMARK SMILES IDX 15 14 8 15 14 16 9 19 13 20 10 21 12 22 11 23 21 24 22 25
REMARK SMILES IDX 23 26 24 27 25 28 83 29 26 30 82 31 27 32 28 33 29 34 76 35
REMARK SMILES IDX 30 36 81 37 75 38 77 39 31 40 80 41 74 42 73 43 32 45 62 46
REMARK SMILES IDX 43 47 61 48 44 49 47 50 60 51 78 52 45 53 46 54 59 56 79 57
REMARK SMILES IDX 48 58 33 59 34 60 42 61 35 62 41 63 36 64 37 65 38 66 39 67
REMARK SMILES IDX 40 68 63 69 64 70 72 71 65 72 71 73 66 74 67 75 68 76 69 77
REMARK SMILES IDX 70 78 49 79 50 80 58 81 51 82 57 83 52 84 53 85 54 86 55 87
REMARK SMILES IDX 56 88
REMARK H PARENT 3 10 15 17 15 18 77 44 47 55
REMARK Flexibility Score: inf
ROOT
ATOM      1  C   UNL     1      -3.430  -0.551   0.798  1.00  0.00     0.275 C 
ENDROOT
BRANCH   1   2
ATOM      2  C   UNL     1      -3.246  -0.293  -0.697  1.00  0.00     0.274 C 
BRANCH   2   3
ATOM      3  O   UNL     1      -1.907  -0.250  -1.256  1.00  0.00    -0.461 OA
BRANCH   3   4
ATOM      4  C   UNL     1      -0.788  -0.281  -0.501  1.00  0.00     0.328 C 
ATOM      5  O   UNL     1      -0.718  -0.618   0.673  1.00  0.00    -0.250 OA
BRANCH   4   6
ATOM      6  C   UNL     1       0.451   0.200  -1.259  1.00  0.00     0.189 C 
ATOM      7  C   UNL     1       1.391  -1.009  -1.300  1.00  0.00     0.043 C 
BRANCH   6   8
ATOM      8  N   UNL     1       0.323   0.777  -2.602  1.00  0.00    -0.338 N 
ATOM      9  C   UNL     1      -0.144   2.015  -2.964  1.00  0.00     0.278 C 
ATOM     10  H   UNL     1       0.610   0.196  -3.343  1.00  0.00     0.164 HD
ATOM     11  O   UNL     1       0.459   2.555  -3.898  1.00  0.00    -0.268 OA
BRANCH   9  12
ATOM     12  C   UNL     1      -1.466   2.598  -2.400  1.00  0.00     0.272 C 
ATOM     13  C   UNL     1      -1.905   3.890  -3.121  1.00  0.00     0.076 C 
ATOM     14  N   UNL     1      -1.542   2.749  -0.946  1.00  0.00    -0.333 N 
ATOM     15  C   UNL     1      -1.335   5.174  -2.511  1.00  0.00     0.016 C 
ATOM     16  C   UNL     1      -0.976   3.942  -0.343  1.00  0.00     0.186 C 
ATOM     17  H   UNL     1      -1.063   1.948  -0.534  1.00  0.00     0.347 HD
ATOM     18  H   UNL     1      -2.541   2.823  -0.755  1.00  0.00     0.347 HD
ATOM     19  C   UNL     1      -1.570   5.195  -0.994  1.00  0.00     0.048 C 
ATOM     20  C   UNL     1       0.559   3.954  -0.326  1.00  0.00     0.065 C 
ATOM     21  C   UNL     1      -1.023   6.452  -0.309  1.00  0.00     0.010 C 
ATOM     22  C   UNL     1       1.098   5.220   0.337  1.00  0.00     0.006 C 
ATOM     23  C   UNL     1       0.502   6.494  -0.257  1.00  0.00     0.001 C 
ENDBRANCH   9  12
ENDBRANCH   6   8
ENDBRANCH   4   6
ENDBRANCH   3   4
ENDBRANCH   2   3
ENDBRANCH   1   2
BRANCH   1  24
ATOM     24  O   UNL     1      -2.949   0.583   1.544  1.00  0.00    -0.458 OA
BRANCH  24  25
ATOM     25  C   UNL     1      -2.532   0.269   2.795  1.00  0.00     0.338 C 
ATOM     26  O   UNL     1      -2.648  -0.802   3.365  1.00  0.00    -0.246 OA
BRANCH  25  27
ATOM     27  C   UNL     1      -1.915   1.447   3.426  1.00  0.00     0.060 A 
ATOM     28  C   UNL     1      -0.605   1.815   3.098  1.00  0.00     0.016 A 
ATOM     29  C   UNL     1      -2.583   2.066   4.485  1.00  0.00     0.016 A 
ATOM     30  C   UNL     1       0.062   2.764   3.877  1.00  0.00     0.010 A 
ATOM     31  C   UNL     1      -1.919   3.025   5.254  1.00  0.00     0.010 A 
ATOM     32  C   UNL     1      -0.575   3.338   4.987  1.00  0.00    -0.014 A 
BRANCH  32  33
ATOM     33  C   UNL     1       0.222   4.093   5.987  1.00  0.00     0.031 A 
ATOM     34  C   UNL     1       0.698   3.373   7.224  1.00  0.00     0.074 A 
ATOM     35  C   UNL     1       0.552   5.382   5.791  1.00  0.00     0.049 A 
ATOM     36  N   UNL     1       1.385   3.830   8.239  1.00  0.00    -0.248 NA
ATOM     37  C   UNL     1       0.361   1.942   7.322  1.00  0.00     0.031 C 
ATOM     38  C   UNL     1       0.209   6.175   4.612  1.00  0.00     0.029 A 
ATOM     39  N   UNL     1       1.261   6.248   6.586  1.00  0.00    -0.354 N 
ATOM     40  C   UNL     1       1.551   2.751   9.101  1.00  0.00     0.074 A 
ATOM     41  C   UNL     1       0.880   1.621   8.497  1.00  0.00     0.031 C 
ATOM     42  C   UNL     1       0.712   7.414   4.760  1.00  0.00     0.029 A 
ATOM     43  C   UNL     1       1.380   7.511   6.058  1.00  0.00     0.049 A 
ATOM     44  H   UNL     1       1.648   5.989   7.454  1.00  0.00     0.167 HD
ATOM     45  C   UNL     1       2.203   2.701  10.287  1.00  0.00     0.031 A 
ATOM     46  C   UNL     1       1.948   8.621   6.570  1.00  0.00     0.031 A 
ATOM     47  C   UNL     1       2.860   3.825  10.897  1.00  0.00     0.049 A 
ATOM     48  C   UNL     1       2.604   8.560   7.926  1.00  0.00     0.074 A 
ATOM     49  C   UNL     1       3.537   3.879  12.103  1.00  0.00     0.029 A 
ATOM     50  N   UNL     1       2.919   5.097  10.349  1.00  0.00    -0.354 N 
ATOM     51  N   UNL     1       2.747   7.533   8.730  1.00  0.00    -0.248 NA
ATOM     52  C   UNL     1       3.181   9.812   8.440  1.00  0.00     0.031 C 
ATOM     53  C   UNL     1       3.969   5.195  12.304  1.00  0.00     0.029 A 
ATOM     54  C   UNL     1       3.606   5.947  11.198  1.00  0.00     0.049 A 
ATOM     55  H   UNL     1       2.530   5.357   9.483  1.00  0.00     0.167 HD
ATOM     56  C   UNL     1       3.460   8.007   9.827  1.00  0.00     0.074 A 
ATOM     57  C   UNL     1       3.724   9.410   9.581  1.00  0.00     0.031 C 
ATOM     58  C   UNL     1       3.866   7.340  10.936  1.00  0.00     0.031 A 
BRANCH  45  59
ATOM     59  C   UNL     1       2.189   1.389  11.025  1.00  0.00    -0.014 A 
ATOM     60  C   UNL     1       2.964   0.298  10.592  1.00  0.00     0.010 A 
ATOM     61  C   UNL     1       1.391   1.250  12.175  1.00  0.00     0.010 A 
ATOM     62  C   UNL     1       2.905  -0.923  11.271  1.00  0.00     0.020 A 
ATOM     63  C   UNL     1       1.348   0.038  12.870  1.00  0.00     0.020 A 
ATOM     64  C   UNL     1       2.091  -1.047  12.401  1.00  0.00     0.054 A 
BRANCH  64  65
ATOM     65  S   UNL     1       2.031  -2.641  13.265  1.00  0.00     0.124 S 
ATOM     66  O   UNL     1       1.199  -3.439  12.368  1.00  0.00    -0.237 OA
ATOM     67  O   UNL     1       3.438  -3.028  13.327  1.00  0.00    -0.237 OA
ATOM     68  O   UNL     1       1.422  -2.314  14.552  1.00  0.00    -0.744 OA
ENDBRANCH  64  65
ENDBRANCH  45  59
BRANCH  46  69
ATOM     69  C   UNL     1       1.912   9.898   5.806  1.00  0.00    -0.014 A 
ATOM     70  C   UNL     1       3.087  10.438   5.255  1.00  0.00     0.010 A 
ATOM     71  C   UNL     1       0.698  10.590   5.641  1.00  0.00     0.010 A 
ATOM     72  C   UNL     1       3.052  11.656   4.568  1.00  0.00     0.020 A 
ATOM     73  C   UNL     1       0.655  11.795   4.934  1.00  0.00     0.020 A 
ATOM     74  C   UNL     1       1.836  12.327   4.412  1.00  0.00     0.054 A 
BRANCH  74  75
ATOM     75  S   UNL     1       1.804  13.884   3.481  1.00  0.00     0.124 S 
ATOM     76  O   UNL     1       2.376  14.823   4.440  1.00  0.00    -0.237 OA
ATOM     77  O   UNL     1       2.637  13.576   2.321  1.00  0.00    -0.237 OA
ATOM     78  O   UNL     1       0.386  14.074   3.185  1.00  0.00    -0.744 OA
ENDBRANCH  74  75
ENDBRANCH  46  69
BRANCH  58  79
ATOM     79  C   UNL     1       4.684   8.103  11.945  1.00  0.00    -0.014 A 
ATOM     80  C   UNL     1       4.100   9.066  12.786  1.00  0.00     0.010 A 
ATOM     81  C   UNL     1       6.055   7.818  12.078  1.00  0.00     0.010 A 
ATOM     82  C   UNL     1       4.881   9.758  13.716  1.00  0.00     0.020 A 
ATOM     83  C   UNL     1       6.834   8.489  13.023  1.00  0.00     0.020 A 
ATOM     84  C   UNL     1       6.245   9.469  13.825  1.00  0.00     0.054 A 
BRANCH  84  85
ATOM     85  S   UNL     1       7.237  10.359  15.056  1.00  0.00     0.124 S 
ATOM     86  O   UNL     1       7.437  11.652  14.407  1.00  0.00    -0.237 OA
ATOM     87  O   UNL     1       6.364  10.372  16.227  1.00  0.00    -0.237 OA
ATOM     88  O   UNL     1       8.437   9.537  15.192  1.00  0.00    -0.744 OA
ENDBRANCH  84  85
ENDBRANCH  58  79
ENDBRANCH  32  33
ENDBRANCH  25  27
ENDBRANCH  24  25
ENDBRANCH   1  24
TORSDOF 16
