REMARK SMILES COc1cc(Cl)c(C)cc1N1C(=O)C[C@H](Nc2cc(C(=O)OCCOC(=O)c3ccc(-c4c5nc(c(-c6ccc(S(=O)(=O)[O-])cc6)c6ccc([nH]6)c(-c6ccc(S(=O)(=O)[O-])cc6)c6nc(c(-c7ccc(S(=O)(=O)[O-])cc7)c7ccc4[nH]7)C=C6)C=C5)cc3)ccc2C)C1=O
REMARK SMILES IDX 23 1 22 2 20 3 21 4 19 5 17 6 18 7 90 8 89 9 91 10 88 11
REMARK SMILES IDX 16 12 15 14 11 15 12 16 92 17 13 18 14 19 93 20 10 21 3 22
REMARK SMILES IDX 4 23 5 24 9 25 6 26 7 27 8 28 2 29 1 30 24 31 25 32 26 33
REMARK SMILES IDX 27 34 28 35 29 36 87 37 30 38 86 39 31 40 32 41 33 42 80 43
REMARK SMILES IDX 34 44 85 45 79 46 81 47 35 48 84 49 78 50 77 51 36 53 66 54
REMARK SMILES IDX 47 55 65 56 48 57 51 58 64 59 82 60 49 61 50 62 63 64 83 65
REMARK SMILES IDX 52 66 37 67 38 68 46 69 39 70 45 71 40 72 41 73 42 74 43 75
REMARK SMILES IDX 44 76 67 77 68 78 76 79 69 80 75 81 70 82 71 83 72 84 73 85
REMARK SMILES IDX 74 86 53 87 54 88 62 89 55 90 61 91 56 92 57 93 58 94 59 95
REMARK SMILES IDX 60 96
REMARK H PARENT 16 13 81 52 51 63
REMARK Flexibility Score: inf
ROOT
ATOM      1  C   UNL     1       3.301  -5.416  -5.273  1.00  0.00     0.275 C 
ENDROOT
BRANCH   1   2
ATOM      2  O   UNL     1       4.181  -4.903  -4.256  1.00  0.00    -0.458 OA
BRANCH   2   3
ATOM      3  C   UNL     1       5.203  -4.134  -4.693  1.00  0.00     0.338 C 
ATOM      4  O   UNL     1       5.415  -3.785  -5.841  1.00  0.00    -0.246 OA
BRANCH   3   5
ATOM      5  C   UNL     1       5.974  -3.654  -3.535  1.00  0.00     0.062 A 
ATOM      6  C   UNL     1       6.277  -1.889  -1.888  1.00  0.00     0.038 A 
ATOM      7  C   UNL     1       5.514  -2.510  -2.883  1.00  0.00     0.041 A 
ATOM      8  C   UNL     1       7.533  -2.437  -1.560  1.00  0.00    -0.028 A 
ATOM      9  C   UNL     1       7.956  -3.631  -2.176  1.00  0.00     0.006 A 
ATOM     10  C   UNL     1       8.435  -1.808  -0.532  1.00  0.00     0.046 C 
ATOM     11  C   UNL     1       7.194  -4.221  -3.185  1.00  0.00     0.016 A 
BRANCH   6  12
ATOM     12  N   UNL     1       5.909  -0.634  -1.407  1.00  0.00    -0.373 N 
ATOM     13  H   UNL     1       6.492   0.144  -1.562  1.00  0.00     0.161 HD
BRANCH  12  14
ATOM     14  C   UNL     1       4.652  -0.473  -0.668  1.00  0.00     0.179 C 
ATOM     15  N   UNL     1       3.252   1.345  -1.184  1.00  0.00    -0.245 N 
ATOM     16  C   UNL     1       4.104   1.798  -0.211  1.00  0.00     0.236 C 
ATOM     17  C   UNL     1       3.516   0.043  -1.541  1.00  0.00     0.256 C 
ATOM     18  O   UNL     1       4.233   2.939   0.212  1.00  0.00    -0.274 OA
ATOM     19  C   UNL     1       4.834   0.624   0.368  1.00  0.00     0.136 C 
ATOM     20  O   UNL     1       3.035  -0.575  -2.482  1.00  0.00    -0.272 OA
BRANCH  15  21
ATOM     21  C   UNL     1       2.269   2.139  -1.823  1.00  0.00     0.094 A 
ATOM     22  C   UNL     1       0.978   1.648  -2.084  1.00  0.00     0.144 A 
ATOM     23  C   UNL     1       0.046   2.421  -2.780  1.00  0.00     0.069 A 
ATOM     24  C   UNL     1       0.386   3.700  -3.220  1.00  0.00     0.047 A 
ATOM     25  C   UNL     1       2.584   3.443  -2.242  1.00  0.00     0.035 A 
ATOM     26  Cl  UNL     1      -0.809   4.609  -4.075  1.00  0.00    -0.084 Cl
ATOM     27  C   UNL     1       1.665   4.220  -2.972  1.00  0.00    -0.030 A 
ATOM     28  C   UNL     1       2.082   5.572  -3.482  1.00  0.00     0.046 C 
BRANCH  22  29
ATOM     29  O   UNL     1       0.552   0.402  -1.703  1.00  0.00    -0.495 OA
ATOM     30  C   UNL     1       0.327   0.309  -0.297  1.00  0.00     0.278 C 
ENDBRANCH  22  29
ENDBRANCH  15  21
ENDBRANCH  12  14
ENDBRANCH   6  12
ENDBRANCH   3   5
ENDBRANCH   2   3
ENDBRANCH   1   2
BRANCH   1  31
ATOM     31  C   UNL     1       3.952  -6.413  -6.262  1.00  0.00     0.275 C 
BRANCH  31  32
ATOM     32  O   UNL     1       4.441  -7.637  -5.677  1.00  0.00    -0.458 OA
BRANCH  32  33
ATOM     33  C   UNL     1       5.485  -7.484  -4.808  1.00  0.00     0.338 C 
ATOM     34  O   UNL     1       6.553  -6.981  -5.102  1.00  0.00    -0.246 OA
BRANCH  33  35
ATOM     35  C   UNL     1       4.928  -7.617  -3.432  1.00  0.00     0.060 A 
ATOM     36  C   UNL     1       5.632  -7.095  -2.335  1.00  0.00     0.016 A 
ATOM     37  C   UNL     1       3.562  -7.891  -3.330  1.00  0.00     0.016 A 
ATOM     38  C   UNL     1       4.944  -6.742  -1.173  1.00  0.00     0.010 A 
ATOM     39  C   UNL     1       2.862  -7.381  -2.273  1.00  0.00     0.010 A 
ATOM     40  C   UNL     1       3.553  -6.864  -1.170  1.00  0.00    -0.014 A 
BRANCH  40  41
ATOM     41  C   UNL     1       2.732  -6.899   0.029  1.00  0.00     0.031 A 
ATOM     42  C   UNL     1       2.132  -5.711   0.647  1.00  0.00     0.074 A 
ATOM     43  C   UNL     1       2.387  -8.171   0.338  1.00  0.00     0.049 A 
ATOM     44  N   UNL     1       1.686  -5.691   1.855  1.00  0.00    -0.248 NA
ATOM     45  C   UNL     1       1.980  -4.429  -0.040  1.00  0.00     0.031 C 
ATOM     46  C   UNL     1       1.339  -8.687   1.193  1.00  0.00     0.029 A 
ATOM     47  N   UNL     1       3.094  -9.320  -0.054  1.00  0.00    -0.354 N 
ATOM     48  C   UNL     1       0.920  -4.553   1.996  1.00  0.00     0.074 A 
ATOM     49  C   UNL     1       1.221  -3.749   0.833  1.00  0.00     0.031 C 
ATOM     50  C   UNL     1       1.661  -9.955   1.522  1.00  0.00     0.029 A 
ATOM     51  C   UNL     1       3.003 -10.216   1.000  1.00  0.00     0.049 A 
ATOM     52  H   UNL     1       3.562  -9.461  -0.908  1.00  0.00     0.167 HD
ATOM     53  C   UNL     1      -0.017  -4.502   2.988  1.00  0.00     0.031 A 
ATOM     54  C   UNL     1       4.120 -10.507   1.732  1.00  0.00     0.031 A 
ATOM     55  C   UNL     1      -0.001  -5.739   3.768  1.00  0.00     0.049 A 
ATOM     56  C   UNL     1       3.939  -9.996   3.141  1.00  0.00     0.074 A 
ATOM     57  C   UNL     1      -0.766  -6.891   3.677  1.00  0.00     0.029 A 
ATOM     58  N   UNL     1       1.120  -6.065   4.522  1.00  0.00    -0.354 N 
ATOM     59  N   UNL     1       3.182  -8.980   3.459  1.00  0.00    -0.248 NA
ATOM     60  C   UNL     1       4.557 -10.627   4.299  1.00  0.00     0.031 C 
ATOM     61  C   UNL     1      -0.019  -7.950   4.257  1.00  0.00     0.029 A 
ATOM     62  C   UNL     1       1.175  -7.431   4.731  1.00  0.00     0.049 A 
ATOM     63  H   UNL     1       1.780  -5.417   4.859  1.00  0.00     0.167 HD
ATOM     64  C   UNL     1       3.107  -8.886   4.819  1.00  0.00     0.074 A 
ATOM     65  C   UNL     1       4.019  -9.912   5.302  1.00  0.00     0.031 C 
ATOM     66  C   UNL     1       2.283  -8.017   5.470  1.00  0.00     0.031 A 
BRANCH  53  67
ATOM     67  C   UNL     1      -1.151  -3.502   3.048  1.00  0.00    -0.014 A 
ATOM     68  C   UNL     1      -2.384  -3.886   3.623  1.00  0.00     0.010 A 
ATOM     69  C   UNL     1      -1.087  -2.191   2.539  1.00  0.00     0.010 A 
ATOM     70  C   UNL     1      -3.512  -3.052   3.610  1.00  0.00     0.020 A 
ATOM     71  C   UNL     1      -2.217  -1.352   2.499  1.00  0.00     0.020 A 
ATOM     72  C   UNL     1      -3.428  -1.794   3.026  1.00  0.00     0.054 A 
BRANCH  72  73
ATOM     73  S   UNL     1      -4.915  -0.756   2.963  1.00  0.00     0.124 S 
ATOM     74  O   UNL     1      -5.871  -1.615   2.270  1.00  0.00    -0.237 OA
ATOM     75  O   UNL     1      -5.191  -0.518   4.377  1.00  0.00    -0.237 OA
ATOM     76  O   UNL     1      -4.481   0.419   2.208  1.00  0.00    -0.744 OA
ENDBRANCH  72  73
ENDBRANCH  53  67
BRANCH  54  77
ATOM     77  C   UNL     1       5.417 -10.507   0.970  1.00  0.00    -0.014 A 
ATOM     78  C   UNL     1       5.542 -11.395  -0.127  1.00  0.00     0.010 A 
ATOM     79  C   UNL     1       6.371  -9.481   1.093  1.00  0.00     0.010 A 
ATOM     80  C   UNL     1       6.515 -11.206  -1.116  1.00  0.00     0.020 A 
ATOM     81  C   UNL     1       7.364  -9.298   0.108  1.00  0.00     0.020 A 
ATOM     82  C   UNL     1       7.410 -10.143  -1.005  1.00  0.00     0.054 A 
BRANCH  82  83
ATOM     83  S   UNL     1       8.490  -9.767  -2.425  1.00  0.00     0.124 S 
ATOM     84  O   UNL     1       9.554 -10.754  -2.271  1.00  0.00    -0.237 OA
ATOM     85  O   UNL     1       7.591  -9.978  -3.558  1.00  0.00    -0.237 OA
ATOM     86  O   UNL     1       8.878  -8.378  -2.191  1.00  0.00    -0.744 OA
ENDBRANCH  82  83
ENDBRANCH  54  77
BRANCH  66  87
ATOM     87  C   UNL     1       2.391  -7.710   6.933  1.00  0.00    -0.014 A 
ATOM     88  C   UNL     1       3.611  -7.753   7.623  1.00  0.00     0.010 A 
ATOM     89  C   UNL     1       1.265  -7.195   7.614  1.00  0.00     0.010 A 
ATOM     90  C   UNL     1       3.690  -7.371   8.963  1.00  0.00     0.020 A 
ATOM     91  C   UNL     1       1.347  -6.761   8.935  1.00  0.00     0.020 A 
ATOM     92  C   UNL     1       2.556  -6.881   9.611  1.00  0.00     0.054 A 
BRANCH  92  93
ATOM     93  S   UNL     1       2.681  -6.335  11.329  1.00  0.00     0.124 S 
ATOM     94  O   UNL     1       2.394  -7.570  12.053  1.00  0.00    -0.237 OA
ATOM     95  O   UNL     1       4.059  -5.859  11.423  1.00  0.00    -0.237 OA
ATOM     96  O   UNL     1       1.661  -5.295  11.428  1.00  0.00    -0.744 OA
ENDBRANCH  92  93
ENDBRANCH  66  87
ENDBRANCH  40  41
ENDBRANCH  33  35
ENDBRANCH  32  33
ENDBRANCH  31  32
ENDBRANCH   1  31
TORSDOF 18
