REMARK SMILES O=C(CC1=c2ccccc2=NC1)OCCOC(=O)c1ccc(-c2c3nc(c(-c4ccc(S(=O)(=O)[O-])cc4)c4ccc([nH]4)c(-c4ccc(S(=O)(=O)[O-])cc4)c4nc(c(-c5ccc(S(=O)(=O)[O-])cc5)c5ccc2[nH]5)C=C4)C=C3)cc1
REMARK SMILES IDX 15 1 14 2 13 3 2 4 1 5 3 6 4 7 5 8 12 9 6 10 10 11 11 12
REMARK SMILES IDX 7 13 9 14 8 15 16 16 17 17 18 18 19 19 20 20 78 21 21 22
REMARK SMILES IDX 77 23 22 24 23 25 24 26 71 27 25 28 76 29 70 30 72 31 26 32
REMARK SMILES IDX 75 33 69 34 68 35 27 37 57 38 38 39 56 40 39 41 42 42 55 43
REMARK SMILES IDX 73 44 40 45 41 46 54 48 74 49 43 50 28 51 29 52 37 53 30 54
REMARK SMILES IDX 36 55 31 56 32 57 33 58 34 59 35 60 58 61 59 62 67 63 60 64
REMARK SMILES IDX 66 65 61 66 62 67 63 68 64 69 65 70 44 71 45 72 53 73 46 74
REMARK SMILES IDX 52 75 47 76 48 77 49 78 50 79 51 80
REMARK H PARENT 72 36 42 47
REMARK Flexibility Score: inf
ROOT
ATOM      1  C   UNL     1       4.324  -0.792  -2.117  1.00  0.00     0.275 C 
ENDROOT
BRANCH   1   2
ATOM      2  C   UNL     1       4.409  -1.049  -0.610  1.00  0.00     0.274 C 
BRANCH   2   3
ATOM      3  O   UNL     1       3.105  -1.056   0.010  1.00  0.00    -0.462 OA
BRANCH   3   4
ATOM      4  C   UNL     1       2.666  -0.093   0.858  1.00  0.00     0.310 C 
ATOM      5  O   UNL     1       1.776  -0.339   1.668  1.00  0.00    -0.252 OA
BRANCH   4   6
ATOM      6  C   UNL     1       3.267   1.296   0.732  1.00  0.00     0.156 C 
BRANCH   6   7
ATOM      7  C   UNL     1       4.103   1.749   1.873  1.00  0.00    -0.028 C 
ATOM      8  C   UNL     1       4.447   3.009   2.120  1.00  0.00     0.001 A 
ATOM      9  C   UNL     1       4.742   0.827   2.861  1.00  0.00     0.175 C 
ATOM     10  C   UNL     1       4.206   4.258   1.475  1.00  0.00     0.010 A 
ATOM     11  C   UNL     1       5.292   2.897   3.317  1.00  0.00     0.065 A 
ATOM     12  N   UNL     1       5.521   1.702   3.773  1.00  0.00    -0.280 NA
ATOM     13  C   UNL     1       4.718   5.372   2.021  1.00  0.00     0.001 A 
ATOM     14  C   UNL     1       5.796   4.171   3.876  1.00  0.00     0.028 A 
ATOM     15  C   UNL     1       5.495   5.322   3.248  1.00  0.00     0.002 A 
ENDBRANCH   6   7
ENDBRANCH   4   6
ENDBRANCH   3   4
ENDBRANCH   2   3
ENDBRANCH   1   2
BRANCH   1  16
ATOM     16  O   UNL     1       3.979   0.580  -2.383  1.00  0.00    -0.458 OA
BRANCH  16  17
ATOM     17  C   UNL     1       2.663   0.829  -2.618  1.00  0.00     0.338 C 
ATOM     18  O   UNL     1       1.786  -0.002  -2.748  1.00  0.00    -0.246 OA
BRANCH  17  19
ATOM     19  C   UNL     1       2.408   2.289  -2.488  1.00  0.00     0.060 A 
ATOM     20  C   UNL     1       3.381   3.250  -2.784  1.00  0.00     0.016 A 
ATOM     21  C   UNL     1       1.159   2.695  -1.998  1.00  0.00     0.016 A 
ATOM     22  C   UNL     1       3.099   4.608  -2.594  1.00  0.00     0.010 A 
ATOM     23  C   UNL     1       0.879   4.052  -1.812  1.00  0.00     0.010 A 
ATOM     24  C   UNL     1       1.844   5.022  -2.114  1.00  0.00    -0.014 A 
BRANCH  24  25
ATOM     25  C   UNL     1       1.500   6.467  -2.076  1.00  0.00     0.031 A 
ATOM     26  C   UNL     1       1.492   7.259  -0.802  1.00  0.00     0.074 A 
ATOM     27  C   UNL     1       1.188   7.080  -3.233  1.00  0.00     0.049 A 
ATOM     28  N   UNL     1       1.446   8.558  -0.654  1.00  0.00    -0.248 NA
ATOM     29  C   UNL     1       1.566   6.514   0.461  1.00  0.00     0.031 C 
ATOM     30  C   UNL     1       1.127   6.423  -4.539  1.00  0.00     0.029 A 
ATOM     31  N   UNL     1       0.864   8.387  -3.498  1.00  0.00    -0.354 N 
ATOM     32  C   UNL     1       1.574   8.792   0.708  1.00  0.00     0.074 A 
ATOM     33  C   UNL     1       1.635   7.497   1.352  1.00  0.00     0.031 C 
ATOM     34  C   UNL     1       0.793   7.331  -5.468  1.00  0.00     0.029 A 
ATOM     35  C   UNL     1       0.599   8.629  -4.823  1.00  0.00     0.049 A 
ATOM     36  H   UNL     1       0.825   9.084  -2.804  1.00  0.00     0.167 HD
ATOM     37  C   UNL     1       1.648   9.978   1.355  1.00  0.00     0.031 A 
ATOM     38  C   UNL     1       0.242   9.762  -5.458  1.00  0.00     0.031 A 
ATOM     39  C   UNL     1       1.446  11.259   0.728  1.00  0.00     0.049 A 
ATOM     40  C   UNL     1       0.158  11.050  -4.690  1.00  0.00     0.074 A 
ATOM     41  C   UNL     1       1.513  12.515   1.307  1.00  0.00     0.029 A 
ATOM     42  N   UNL     1       1.078  11.450  -0.595  1.00  0.00    -0.354 N 
ATOM     43  N   UNL     1       0.438  11.270  -3.428  1.00  0.00    -0.248 NA
ATOM     44  C   UNL     1      -0.270  12.245  -5.430  1.00  0.00     0.031 C 
ATOM     45  C   UNL     1       1.091  13.454   0.362  1.00  0.00     0.029 A 
ATOM     46  C   UNL     1       0.846  12.796  -0.832  1.00  0.00     0.049 A 
ATOM     47  H   UNL     1       0.994  10.736  -1.267  1.00  0.00     0.167 HD
ATOM     48  C   UNL     1       0.245  12.633  -3.228  1.00  0.00     0.074 A 
ATOM     49  C   UNL     1      -0.171  13.187  -4.500  1.00  0.00     0.031 C 
ATOM     50  C   UNL     1       0.411  13.352  -2.091  1.00  0.00     0.031 A 
BRANCH  37  51
ATOM     51  C   UNL     1       1.974   9.970   2.825  1.00  0.00    -0.014 A 
ATOM     52  C   UNL     1       1.015  10.372   3.771  1.00  0.00     0.010 A 
ATOM     53  C   UNL     1       3.291   9.714   3.249  1.00  0.00     0.010 A 
ATOM     54  C   UNL     1       1.374  10.553   5.110  1.00  0.00     0.020 A 
ATOM     55  C   UNL     1       3.650   9.877   4.590  1.00  0.00     0.020 A 
ATOM     56  C   UNL     1       2.693  10.317   5.508  1.00  0.00     0.054 A 
BRANCH  56  57
ATOM     57  S   UNL     1       3.152  10.607   7.239  1.00  0.00     0.124 S 
ATOM     58  O   UNL     1       3.155  12.064   7.319  1.00  0.00    -0.237 OA
ATOM     59  O   UNL     1       2.080   9.934   7.968  1.00  0.00    -0.237 OA
ATOM     60  O   UNL     1       4.464   9.972   7.354  1.00  0.00    -0.744 OA
ENDBRANCH  56  57
ENDBRANCH  37  51
BRANCH  38  61
ATOM     61  C   UNL     1      -0.019   9.705  -6.921  1.00  0.00    -0.014 A 
ATOM     62  C   UNL     1      -1.137   9.002  -7.411  1.00  0.00     0.010 A 
ATOM     63  C   UNL     1       0.900  10.253  -7.831  1.00  0.00     0.010 A 
ATOM     64  C   UNL     1      -1.296   8.792  -8.782  1.00  0.00     0.020 A 
ATOM     65  C   UNL     1       0.729  10.069  -9.206  1.00  0.00     0.020 A 
ATOM     66  C   UNL     1      -0.350   9.311  -9.669  1.00  0.00     0.054 A 
BRANCH  66  67
ATOM     67  S   UNL     1      -0.535   8.961 -11.439  1.00  0.00     0.124 S 
ATOM     68  O   UNL     1      -0.091   7.572 -11.515  1.00  0.00    -0.237 OA
ATOM     69  O   UNL     1      -1.962   9.179 -11.661  1.00  0.00    -0.237 OA
ATOM     70  O   UNL     1       0.348   9.936 -12.074  1.00  0.00    -0.744 OA
ENDBRANCH  66  67
ENDBRANCH  38  61
BRANCH  50  71
ATOM     71  C   UNL     1       0.139  14.835  -2.134  1.00  0.00    -0.014 A 
ATOM     72  C   UNL     1       1.198  15.744  -1.947  1.00  0.00     0.010 A 
ATOM     73  C   UNL     1      -1.175  15.327  -2.223  1.00  0.00     0.010 A 
ATOM     74  C   UNL     1       0.946  17.111  -1.805  1.00  0.00     0.020 A 
ATOM     75  C   UNL     1      -1.428  16.699  -2.113  1.00  0.00     0.020 A 
ATOM     76  C   UNL     1      -0.369  17.578  -1.876  1.00  0.00     0.054 A 
BRANCH  76  77
ATOM     77  S   UNL     1      -0.682  19.351  -1.649  1.00  0.00     0.124 S 
ATOM     78  O   UNL     1      -0.565  19.501  -0.202  1.00  0.00    -0.237 OA
ATOM     79  O   UNL     1       0.384  19.970  -2.435  1.00  0.00    -0.237 OA
ATOM     80  O   UNL     1      -2.027  19.532  -2.190  1.00  0.00    -0.744 OA
ENDBRANCH  76  77
ENDBRANCH  50  71
ENDBRANCH  24  25
ENDBRANCH  17  19
ENDBRANCH  16  17
ENDBRANCH   1  16
TORSDOF 15
