REMARK SMILES O=C(OCCOC(=O)[C@H]1CC2(CC[NH+](C(=O)c3cccc(O)c3)CC2)CN1C(=O)C1CC1)c1ccc(-c2c3nc(c(-c4ccc(S(=O)(=O)[O-])cc4)c4ccc([nH]4)c(-c4ccc(S(=O)(=O)[O-])cc4)c4nc(c(-c5ccc(S(=O)(=O)[O-])cc5)c5ccc2[nH]5)C=C4)C=C3)cc1
REMARK SMILES IDX 4 1 3 2 2 3 1 4 33 5 34 6 92 7 35 8 91 9 36 10 37 11 38 12
REMARK SMILES IDX 85 13 39 14 90 15 84 16 86 17 40 18 89 19 83 20 82 21 41 23
REMARK SMILES IDX 71 24 52 25 70 26 53 27 56 28 69 29 87 30 54 31 55 32 68 34
REMARK SMILES IDX 88 35 57 36 42 37 43 38 51 39 44 40 50 41 45 42 46 43 47 44
REMARK SMILES IDX 48 45 49 46 72 47 73 48 81 49 74 50 80 51 75 52 76 53 77 54
REMARK SMILES IDX 78 55 79 56 58 57 59 58 67 59 60 60 66 61 61 62 62 63 63 64
REMARK SMILES IDX 64 65 65 66 5 67 6 68 7 69 8 70 9 71 10 72 27 73 11 74 26 75
REMARK SMILES IDX 12 76 25 77 13 78 24 79 14 80 28 82 29 83 30 84 31 85 32 86
REMARK SMILES IDX 15 87 16 88 17 89 18 90 23 91 19 92 21 93 20 94 22 95
REMARK H PARENT 86 22 56 33 14 81 22 96
REMARK Flexibility Score: inf
ROOT
ATOM      1  C   UNL     1      -1.859  -1.135   1.059  1.00  0.00     0.275 C 
ENDROOT
BRANCH   1   2
ATOM      2  O   UNL     1      -1.139  -1.440  -0.160  1.00  0.00    -0.458 OA
BRANCH   2   3
ATOM      3  C   UNL     1      -0.113  -0.755  -0.728  1.00  0.00     0.338 C 
ATOM      4  O   UNL     1       0.335  -1.088  -1.820  1.00  0.00    -0.246 OA
BRANCH   3   5
ATOM      5  C   UNL     1       0.596   0.300   0.034  1.00  0.00     0.060 A 
ATOM      6  C   UNL     1      -0.060   1.418   0.544  1.00  0.00     0.016 A 
ATOM      7  C   UNL     1       1.989   0.194   0.172  1.00  0.00     0.016 A 
ATOM      8  C   UNL     1       0.649   2.365   1.283  1.00  0.00     0.010 A 
ATOM      9  C   UNL     1       2.702   1.140   0.916  1.00  0.00     0.010 A 
ATOM     10  C   UNL     1       2.031   2.234   1.476  1.00  0.00    -0.014 A 
BRANCH  10  11
ATOM     11  C   UNL     1       2.760   3.354   2.114  1.00  0.00     0.031 A 
ATOM     12  C   UNL     1       3.420   4.373   1.230  1.00  0.00     0.074 A 
ATOM     13  C   UNL     1       2.723   3.542   3.447  1.00  0.00     0.049 A 
ATOM     14  N   UNL     1       3.884   5.551   1.552  1.00  0.00    -0.248 NA
ATOM     15  C   UNL     1       3.515   4.056  -0.206  1.00  0.00     0.031 C 
ATOM     16  C   UNL     1       2.061   2.673   4.420  1.00  0.00     0.029 A 
ATOM     17  N   UNL     1       3.269   4.537   4.215  1.00  0.00    -0.354 N 
ATOM     18  C   UNL     1       4.204   6.163   0.349  1.00  0.00     0.074 A 
ATOM     19  C   UNL     1       4.006   5.185  -0.697  1.00  0.00     0.031 C 
ATOM     20  C   UNL     1       2.311   3.130   5.662  1.00  0.00     0.029 A 
ATOM     21  C   UNL     1       3.115   4.341   5.567  1.00  0.00     0.049 A 
ATOM     22  H   UNL     1       3.729   5.320   3.834  1.00  0.00     0.167 HD
ATOM     23  C   UNL     1       4.552   7.451   0.129  1.00  0.00     0.031 A 
ATOM     24  C   UNL     1       3.579   5.064   6.603  1.00  0.00     0.031 A 
ATOM     25  C   UNL     1       4.823   8.402   1.170  1.00  0.00     0.049 A 
ATOM     26  C   UNL     1       4.229   6.391   6.338  1.00  0.00     0.074 A 
ATOM     27  C   UNL     1       5.169   9.737   1.054  1.00  0.00     0.029 A 
ATOM     28  N   UNL     1       4.814   8.106   2.523  1.00  0.00    -0.354 N 
ATOM     29  N   UNL     1       4.455   6.983   5.191  1.00  0.00    -0.248 NA
ATOM     30  C   UNL     1       4.619   7.175   7.518  1.00  0.00     0.031 C 
ATOM     31  C   UNL     1       5.422  10.233   2.339  1.00  0.00     0.029 A 
ATOM     32  C   UNL     1       5.185   9.220   3.253  1.00  0.00     0.049 A 
ATOM     33  H   UNL     1       4.579   7.231   2.908  1.00  0.00     0.167 HD
ATOM     34  C   UNL     1       4.963   8.235   5.514  1.00  0.00     0.074 A 
ATOM     35  C   UNL     1       5.038   8.301   6.960  1.00  0.00     0.031 C 
ATOM     36  C   UNL     1       5.293   9.257   4.687  1.00  0.00     0.031 A 
BRANCH  23  37
ATOM     37  C   UNL     1       4.602   7.903  -1.301  1.00  0.00    -0.014 A 
ATOM     38  C   UNL     1       3.402   8.097  -2.014  1.00  0.00     0.010 A 
ATOM     39  C   UNL     1       5.828   8.162  -1.931  1.00  0.00     0.010 A 
ATOM     40  C   UNL     1       3.430   8.518  -3.343  1.00  0.00     0.020 A 
ATOM     41  C   UNL     1       5.859   8.601  -3.259  1.00  0.00     0.020 A 
ATOM     42  C   UNL     1       4.660   8.764  -3.959  1.00  0.00     0.054 A 
BRANCH  42  43
ATOM     43  S   UNL     1       4.665   9.335  -5.680  1.00  0.00     0.124 S 
ATOM     44  O   UNL     1       4.288   8.121  -6.400  1.00  0.00    -0.237 OA
ATOM     45  O   UNL     1       3.659  10.395  -5.668  1.00  0.00    -0.237 OA
ATOM     46  O   UNL     1       6.038   9.785  -5.892  1.00  0.00    -0.744 OA
ENDBRANCH  42  43
ENDBRANCH  23  37
BRANCH  24  47
ATOM     47  C   UNL     1       3.479   4.574   7.999  1.00  0.00    -0.014 A 
ATOM     48  C   UNL     1       2.389   4.904   8.819  1.00  0.00     0.010 A 
ATOM     49  C   UNL     1       4.568   3.872   8.544  1.00  0.00     0.010 A 
ATOM     50  C   UNL     1       2.392   4.539  10.170  1.00  0.00     0.020 A 
ATOM     51  C   UNL     1       4.584   3.533   9.898  1.00  0.00     0.020 A 
ATOM     52  C   UNL     1       3.492   3.861  10.704  1.00  0.00     0.054 A 
BRANCH  52  53
ATOM     53  S   UNL     1       3.464   3.340  12.442  1.00  0.00     0.124 S 
ATOM     54  O   UNL     1       4.048   4.490  13.120  1.00  0.00    -0.237 OA
ATOM     55  O   UNL     1       2.044   3.104  12.688  1.00  0.00    -0.237 OA
ATOM     56  O   UNL     1       4.278   2.122  12.442  1.00  0.00    -0.744 OA
ENDBRANCH  52  53
ENDBRANCH  24  47
BRANCH  36  57
ATOM     57  C   UNL     1       5.721  10.539   5.340  1.00  0.00    -0.014 A 
ATOM     58  C   UNL     1       6.983  10.668   5.944  1.00  0.00     0.010 A 
ATOM     59  C   UNL     1       4.830  11.628   5.358  1.00  0.00     0.010 A 
ATOM     60  C   UNL     1       7.331  11.854   6.595  1.00  0.00     0.020 A 
ATOM     61  C   UNL     1       5.185  12.822   5.985  1.00  0.00     0.020 A 
ATOM     62  C   UNL     1       6.426  12.920   6.618  1.00  0.00     0.054 A 
BRANCH  62  63
ATOM     63  S   UNL     1       6.899  14.456   7.458  1.00  0.00     0.124 S 
ATOM     64  O   UNL     1       6.688  14.111   8.861  1.00  0.00    -0.237 OA
ATOM     65  O   UNL     1       8.292  14.630   7.055  1.00  0.00    -0.237 OA
ATOM     66  O   UNL     1       5.972  15.445   6.913  1.00  0.00    -0.744 OA
ENDBRANCH  62  63
ENDBRANCH  36  57
ENDBRANCH  10  11
ENDBRANCH   3   5
ENDBRANCH   2   3
ENDBRANCH   1   2
BRANCH   1  67
ATOM     67  C   UNL     1      -1.298  -1.831   2.300  1.00  0.00     0.274 C 
BRANCH  67  68
ATOM     68  O   UNL     1       0.083  -1.500   2.484  1.00  0.00    -0.461 OA
BRANCH  68  69
ATOM     69  C   UNL     1       0.848  -2.450   3.119  1.00  0.00     0.328 C 
ATOM     70  O   UNL     1       0.418  -3.445   3.671  1.00  0.00    -0.250 OA
BRANCH  69  71
ATOM     71  C   UNL     1       2.321  -2.033   3.012  1.00  0.00     0.195 C 
ATOM     72  C   UNL     1       2.691  -1.212   4.253  1.00  0.00     0.046 C 
ATOM     73  N   UNL     1       3.366  -3.039   2.889  1.00  0.00    -0.328 N 
ATOM     74  C   UNL     1       4.150  -1.571   4.621  1.00  0.00     0.001 C 
ATOM     75  C   UNL     1       4.570  -2.590   3.556  1.00  0.00     0.128 C 
ATOM     76  C   UNL     1       4.221  -2.220   6.025  1.00  0.00     0.071 C 
ATOM     77  C   UNL     1       5.085  -0.336   4.565  1.00  0.00     0.071 C 
ATOM     78  C   UNL     1       4.008  -1.205   7.145  1.00  0.00     0.271 C 
ATOM     79  C   UNL     1       4.912   0.607   5.754  1.00  0.00     0.271 C 
ATOM     80  N   UNL     1       4.981  -0.127   7.005  1.00  0.00    -0.267 N 
ATOM     81  H   UNL     1       4.686  -0.776   7.684  1.00  0.00     0.357 HD
BRANCH  73  82
ATOM     82  C   UNL     1       3.534  -3.985   1.889  1.00  0.00     0.226 C 
ATOM     83  O   UNL     1       4.626  -4.503   1.666  1.00  0.00    -0.275 OA
BRANCH  82  84
ATOM     84  C   UNL     1       2.382  -4.489   1.098  1.00  0.00     0.079 C 
ATOM     85  C   UNL     1       1.312  -3.708   0.398  1.00  0.00     0.014 C 
ATOM     86  C   UNL     1       2.441  -4.253  -0.407  1.00  0.00     0.014 C 
ENDBRANCH  82  84
ENDBRANCH  73  82
BRANCH  80  87
ATOM     87  C   UNL     1       5.934   0.228   7.952  1.00  0.00     0.344 C 
ATOM     88  O   UNL     1       6.754   1.129   7.804  1.00  0.00    -0.226 OA
BRANCH  87  89
ATOM     89  C   UNL     1       5.991  -0.555   9.197  1.00  0.00     0.083 A 
ATOM     90  C   UNL     1       6.718  -1.749   9.224  1.00  0.00     0.018 A 
ATOM     91  C   UNL     1       5.321  -0.095  10.328  1.00  0.00     0.064 A 
ATOM     92  C   UNL     1       6.753  -2.499  10.399  1.00  0.00     0.005 A 
ATOM     93  C   UNL     1       5.395  -0.832  11.500  1.00  0.00     0.116 A 
ATOM     94  C   UNL     1       6.089  -2.038  11.539  1.00  0.00     0.046 A 
BRANCH  93  95
ATOM     95  O   UNL     1       4.797  -0.400  12.647  1.00  0.00    -0.508 OA
ATOM     96  H   UNL     1       4.858  -0.912  13.429  1.00  0.00     0.293 HD
ENDBRANCH  93  95
ENDBRANCH  87  89
ENDBRANCH  80  87
ENDBRANCH  69  71
ENDBRANCH  68  69
ENDBRANCH  67  68
ENDBRANCH   1  67
TORSDOF 19
