REMARK SMILES O=C(OCCOC(=O)c1cccc(Br)c1O[C@@H]1CCOC2(CCC2)C1)c1ccc(-c2c3nc(c(-c4ccc(S(=O)(=O)[O-])cc4)c4ccc([nH]4)c(-c4ccc(S(=O)(=O)[O-])cc4)c4nc(c(-c5ccc(S(=O)(=O)[O-])cc5)c5ccc2[nH]5)C=C4)C=C3)cc1
REMARK SMILES IDX 4 1 3 2 2 3 1 4 26 5 27 6 85 7 28 8 84 9 29 10 30 11 31 12
REMARK SMILES IDX 78 13 32 14 83 15 77 16 79 17 33 18 82 19 76 20 75 21 34 23
REMARK SMILES IDX 64 24 45 25 63 26 46 27 49 28 62 29 80 30 47 31 48 32 61 34
REMARK SMILES IDX 81 35 50 36 35 37 36 38 44 39 37 40 43 41 38 42 39 43 40 44
REMARK SMILES IDX 41 45 42 46 65 47 66 48 74 49 67 50 73 51 68 52 69 53 70 54
REMARK SMILES IDX 71 55 72 56 51 57 52 58 60 59 53 60 59 61 54 62 55 63 56 64
REMARK SMILES IDX 57 65 58 66 5 67 6 68 7 69 8 70 9 71 10 72 15 73 11 74 13 75
REMARK SMILES IDX 12 76 14 77 16 78 17 79 18 80 25 81 19 82 21 83 20 84 22 85
REMARK SMILES IDX 24 86 23 87
REMARK H PARENT 79 22 49 33
REMARK Flexibility Score: inf
ROOT
ATOM      1  C   UNL     1       4.380  -0.624  -1.968  1.00  0.00     0.275 C 
ENDROOT
BRANCH   1   2
ATOM      2  O   UNL     1       3.472  -1.259  -1.061  1.00  0.00    -0.458 OA
BRANCH   2   3
ATOM      3  C   UNL     1       3.428  -1.179   0.288  1.00  0.00     0.338 C 
ATOM      4  O   UNL     1       2.735  -2.000   0.890  1.00  0.00    -0.246 OA
BRANCH   3   5
ATOM      5  C   UNL     1       4.088  -0.098   1.099  1.00  0.00     0.060 A 
ATOM      6  C   UNL     1       5.181   0.704   0.753  1.00  0.00     0.016 A 
ATOM      7  C   UNL     1       3.534   0.112   2.366  1.00  0.00     0.016 A 
ATOM      8  C   UNL     1       5.680   1.692   1.620  1.00  0.00     0.010 A 
ATOM      9  C   UNL     1       4.006   1.116   3.215  1.00  0.00     0.010 A 
ATOM     10  C   UNL     1       5.100   1.913   2.868  1.00  0.00    -0.014 A 
BRANCH  10  11
ATOM     11  C   UNL     1       5.739   2.829   3.858  1.00  0.00     0.031 A 
ATOM     12  C   UNL     1       6.231   2.254   5.166  1.00  0.00     0.074 A 
ATOM     13  C   UNL     1       5.912   4.144   3.600  1.00  0.00     0.049 A 
ATOM     14  N   UNL     1       6.819   2.854   6.169  1.00  0.00    -0.248 NA
ATOM     15  C   UNL     1       5.992   0.818   5.394  1.00  0.00     0.031 C 
ATOM     16  C   UNL     1       5.457   4.845   2.397  1.00  0.00     0.029 A 
ATOM     17  N   UNL     1       6.542   5.127   4.328  1.00  0.00    -0.354 N 
ATOM     18  C   UNL     1       6.973   1.878   7.149  1.00  0.00     0.074 A 
ATOM     19  C   UNL     1       6.324   0.683   6.666  1.00  0.00     0.031 C 
ATOM     20  C   UNL     1       5.864   6.127   2.447  1.00  0.00     0.029 A 
ATOM     21  C   UNL     1       6.597   6.348   3.689  1.00  0.00     0.049 A 
ATOM     22  H   UNL     1       6.919   4.973   5.224  1.00  0.00     0.167 HD
ATOM     23  C   UNL     1       7.653   1.934   8.318  1.00  0.00     0.031 A 
ATOM     24  C   UNL     1       7.199   7.501   4.052  1.00  0.00     0.031 A 
ATOM     25  C   UNL     1       8.380   3.089   8.756  1.00  0.00     0.049 A 
ATOM     26  C   UNL     1       7.987   7.535   5.338  1.00  0.00     0.074 A 
ATOM     27  C   UNL     1       9.168   3.237   9.882  1.00  0.00     0.029 A 
ATOM     28  N   UNL     1       8.429   4.290   8.065  1.00  0.00    -0.354 N 
ATOM     29  N   UNL     1       8.175   6.578   6.217  1.00  0.00    -0.248 NA
ATOM     30  C   UNL     1       8.672   8.794   5.666  1.00  0.00     0.031 C 
ATOM     31  C   UNL     1       9.674   4.541   9.885  1.00  0.00     0.029 A 
ATOM     32  C   UNL     1       9.238   5.185   8.737  1.00  0.00     0.049 A 
ATOM     33  H   UNL     1       7.957   4.476   7.221  1.00  0.00     0.167 HD
ATOM     34  C   UNL     1       9.038   7.105   7.173  1.00  0.00     0.074 A 
ATOM     35  C   UNL     1       9.339   8.461   6.763  1.00  0.00     0.031 C 
ATOM     36  C   UNL     1       9.542   6.520   8.288  1.00  0.00     0.031 A 
BRANCH  23  37
ATOM     37  C   UNL     1       7.652   0.691   9.169  1.00  0.00    -0.014 A 
ATOM     38  C   UNL     1       8.298  -0.485   8.740  1.00  0.00     0.010 A 
ATOM     39  C   UNL     1       6.961   0.682  10.393  1.00  0.00     0.010 A 
ATOM     40  C   UNL     1       8.181  -1.667   9.473  1.00  0.00     0.020 A 
ATOM     41  C   UNL     1       6.875  -0.490  11.151  1.00  0.00     0.020 A 
ATOM     42  C   UNL     1       7.460  -1.664  10.670  1.00  0.00     0.054 A 
BRANCH  42  43
ATOM     43  S   UNL     1       7.307  -3.217  11.594  1.00  0.00     0.124 S 
ATOM     44  O   UNL     1       6.329  -3.947  10.791  1.00  0.00    -0.237 OA
ATOM     45  O   UNL     1       8.667  -3.747  11.559  1.00  0.00    -0.237 OA
ATOM     46  O   UNL     1       6.840  -2.791  12.911  1.00  0.00    -0.744 OA
ENDBRANCH  42  43
ENDBRANCH  23  37
BRANCH  24  47
ATOM     47  C   UNL     1       7.150   8.702   3.164  1.00  0.00    -0.014 A 
ATOM     48  C   UNL     1       8.310   9.150   2.503  1.00  0.00     0.010 A 
ATOM     49  C   UNL     1       5.955   9.425   2.997  1.00  0.00     0.010 A 
ATOM     50  C   UNL     1       8.285  10.310   1.721  1.00  0.00     0.020 A 
ATOM     51  C   UNL     1       5.919  10.572   2.194  1.00  0.00     0.020 A 
ATOM     52  C   UNL     1       7.088  11.016   1.572  1.00  0.00     0.054 A 
BRANCH  52  53
ATOM     53  S   UNL     1       7.074  12.502   0.528  1.00  0.00     0.124 S 
ATOM     54  O   UNL     1       7.818  13.456   1.344  1.00  0.00    -0.237 OA
ATOM     55  O   UNL     1       7.749  12.041  -0.683  1.00  0.00    -0.237 OA
ATOM     56  O   UNL     1       5.650  12.791   0.367  1.00  0.00    -0.744 OA
ENDBRANCH  52  53
ENDBRANCH  24  47
BRANCH  36  57
ATOM     57  C   UNL     1      10.525   7.311   9.108  1.00  0.00    -0.014 A 
ATOM     58  C   UNL     1      10.114   8.395   9.901  1.00  0.00     0.010 A 
ATOM     59  C   UNL     1      11.873   6.906   9.139  1.00  0.00     0.010 A 
ATOM     60  C   UNL     1      11.042   9.081  10.688  1.00  0.00     0.020 A 
ATOM     61  C   UNL     1      12.796   7.570   9.947  1.00  0.00     0.020 A 
ATOM     62  C   UNL     1      12.377   8.664  10.707  1.00  0.00     0.054 A 
BRANCH  62  63
ATOM     63  S   UNL     1      13.551   9.538  11.776  1.00  0.00     0.124 S 
ATOM     64  O   UNL     1      13.764  10.781  11.040  1.00  0.00    -0.237 OA
ATOM     65  O   UNL     1      12.810   9.668  13.028  1.00  0.00    -0.237 OA
ATOM     66  O   UNL     1      14.703   8.641  11.832  1.00  0.00    -0.744 OA
ENDBRANCH  62  63
ENDBRANCH  36  57
ENDBRANCH  10  11
ENDBRANCH   3   5
ENDBRANCH   2   3
ENDBRANCH   1   2
BRANCH   1  67
ATOM     67  C   UNL     1       3.904   0.746  -2.452  1.00  0.00     0.275 C 
BRANCH  67  68
ATOM     68  O   UNL     1       3.416   1.581  -1.390  1.00  0.00    -0.458 OA
BRANCH  68  69
ATOM     69  C   UNL     1       2.066   1.583  -1.208  1.00  0.00     0.342 C 
ATOM     70  O   UNL     1       1.253   0.991  -1.895  1.00  0.00    -0.246 OA
BRANCH  69  71
ATOM     71  C   UNL     1       1.716   2.470  -0.065  1.00  0.00     0.103 A 
ATOM     72  C   UNL     1       2.336   3.710   0.021  1.00  0.00     0.020 A 
ATOM     73  C   UNL     1       0.683   2.126   0.846  1.00  0.00     0.148 A 
ATOM     74  C   UNL     1       1.913   4.609   0.981  1.00  0.00     0.002 A 
ATOM     75  C   UNL     1       0.111   3.025   1.882  1.00  0.00     0.060 A 
ATOM     76  C   UNL     1       0.848   4.301   1.855  1.00  0.00     0.019 A 
ATOM     77  Br  UNL     1      -1.948   2.336   3.299  1.00  0.00    -0.047 Br
BRANCH  73  78
ATOM     78  O   UNL     1       0.186   0.864   0.722  1.00  0.00    -0.488 OA
BRANCH  78  79
ATOM     79  C   UNL     1      -0.800   1.064   1.677  1.00  0.00     0.178 C 
ATOM     80  C   UNL     1      -1.832   2.533   0.921  1.00  0.00     0.074 C 
ATOM     81  C   UNL     1       0.216   1.320   3.317  1.00  0.00     0.080 C 
ATOM     82  C   UNL     1      -1.769   4.221   1.835  1.00  0.00     0.165 C 
ATOM     83  C   UNL     1       0.192   3.055   4.122  1.00  0.00     0.072 C 
ATOM     84  O   UNL     1      -0.864   4.346   3.414  1.00  0.00    -0.375 OA
ATOM     85  C   UNL     1      -0.061   2.958   5.697  1.00  0.00     0.036 C 
ATOM     86  C   UNL     1       1.642   3.506   4.575  1.00  0.00     0.036 C 
ATOM     87  C   UNL     1       1.025   4.032   5.869  1.00  0.00     0.006 C 
ENDBRANCH  78  79
ENDBRANCH  73  78
ENDBRANCH  69  71
ENDBRANCH  68  69
ENDBRANCH  67  68
ENDBRANCH   1  67
TORSDOF 16
