REMARK SMILES O=C(OCCOC(=O)[C@H]1CC2(CC[NH+](C(=O)C3CC3)CC2)CN1C(=O)CCn1cccn1)c1ccc(-c2c3nc(c(-c4ccc(S(=O)(=O)[O-])cc4)c4ccc([nH]4)c(-c4ccc(S(=O)(=O)[O-])cc4)c4nc(c(-c5ccc(S(=O)(=O)[O-])cc5)c5ccc2[nH]5)C=C4)C=C3)cc1
REMARK SMILES IDX 5 1 4 2 3 3 2 4 1 5 33 6 34 7 92 8 35 9 91 10 36 11 37 12
REMARK SMILES IDX 38 13 85 14 39 15 90 16 84 17 86 18 40 19 89 20 83 21 82 22
REMARK SMILES IDX 41 24 71 25 52 26 70 27 53 28 56 29 69 30 87 31 54 32 55 33
REMARK SMILES IDX 68 35 88 36 57 37 42 38 43 39 51 40 44 41 50 42 45 43 46 44
REMARK SMILES IDX 47 45 48 46 49 47 72 48 73 49 81 50 74 51 80 52 75 53 76 54
REMARK SMILES IDX 77 55 78 56 79 57 58 58 59 59 67 60 60 61 66 62 61 63 62 64
REMARK SMILES IDX 63 65 64 66 65 67 6 68 7 69 8 70 9 71 10 72 23 73 11 74
REMARK SMILES IDX 22 75 12 76 21 77 13 78 20 79 14 80 24 82 25 83 26 84 27 85
REMARK SMILES IDX 28 86 29 87 32 88 30 89 31 90 15 91 16 92 17 93 18 94 19 95
REMARK H PARENT 86 23 56 34 14 81
REMARK Flexibility Score: inf
ROOT
ATOM      1  C   UNL     1       0.677  -1.516  -5.607  1.00  0.00     0.274 C 
ENDROOT
BRANCH   1   2
ATOM      2  C   UNL     1       0.707  -0.158  -7.033  1.00  0.00     0.275 C 
BRANCH   2   3
ATOM      3  O   UNL     1       0.766   1.634  -6.415  1.00  0.00    -0.458 OA
BRANCH   3   4
ATOM      4  C   UNL     1       1.054   2.056  -4.644  1.00  0.00     0.338 C 
ATOM      5  O   UNL     1       1.731   3.103  -4.722  1.00  0.00    -0.246 OA
BRANCH   4   6
ATOM      6  C   UNL     1      -0.031   1.153  -3.146  1.00  0.00     0.060 A 
ATOM      7  C   UNL     1      -1.482   0.769  -3.179  1.00  0.00     0.016 A 
ATOM      8  C   UNL     1       0.074   1.103  -1.741  1.00  0.00     0.016 A 
ATOM      9  C   UNL     1      -2.486   1.433  -2.466  1.00  0.00     0.010 A 
ATOM     10  C   UNL     1      -0.847   1.806  -0.944  1.00  0.00     0.010 A 
ATOM     11  C   UNL     1      -2.042   2.259  -1.495  1.00  0.00    -0.014 A 
BRANCH  11  12
ATOM     12  C   UNL     1      -2.822   3.346  -0.919  1.00  0.00     0.031 A 
ATOM     13  C   UNL     1      -2.508   3.554   0.498  1.00  0.00     0.074 A 
ATOM     14  C   UNL     1      -3.548   4.352  -1.454  1.00  0.00     0.049 A 
ATOM     15  N   UNL     1      -2.945   2.805   1.448  1.00  0.00    -0.248 NA
ATOM     16  C   UNL     1      -1.379   4.427   0.848  1.00  0.00     0.031 C 
ATOM     17  C   UNL     1      -3.675   4.864  -2.815  1.00  0.00     0.029 A 
ATOM     18  N   UNL     1      -4.302   5.234  -0.732  1.00  0.00    -0.354 N 
ATOM     19  C   UNL     1      -2.294   3.248   2.575  1.00  0.00     0.074 A 
ATOM     20  C   UNL     1      -1.162   4.011   2.099  1.00  0.00     0.031 C 
ATOM     21  C   UNL     1      -4.296   6.076  -2.779  1.00  0.00     0.029 A 
ATOM     22  C   UNL     1      -4.745   6.348  -1.420  1.00  0.00     0.049 A 
ATOM     23  H   UNL     1      -4.516   5.085   0.217  1.00  0.00     0.167 HD
ATOM     24  C   UNL     1      -2.871   3.156   3.801  1.00  0.00     0.031 A 
ATOM     25  C   UNL     1      -5.383   7.404  -0.853  1.00  0.00     0.031 A 
ATOM     26  C   UNL     1      -4.192   2.563   3.722  1.00  0.00     0.049 A 
ATOM     27  C   UNL     1      -5.915   6.949   0.464  1.00  0.00     0.074 A 
ATOM     28  C   UNL     1      -4.707   1.363   3.265  1.00  0.00     0.029 A 
ATOM     29  N   UNL     1      -5.255   3.447   3.720  1.00  0.00    -0.354 N 
ATOM     30  N   UNL     1      -6.853   6.052   0.597  1.00  0.00    -0.248 NA
ATOM     31  C   UNL     1      -5.146   7.212   1.672  1.00  0.00     0.031 C 
ATOM     32  C   UNL     1      -5.916   1.706   2.583  1.00  0.00     0.029 A 
ATOM     33  C   UNL     1      -6.098   3.086   2.696  1.00  0.00     0.049 A 
ATOM     34  H   UNL     1      -5.384   4.199   4.341  1.00  0.00     0.167 HD
ATOM     35  C   UNL     1      -6.521   5.346   1.744  1.00  0.00     0.074 A 
ATOM     36  C   UNL     1      -5.544   6.186   2.430  1.00  0.00     0.031 C 
ATOM     37  C   UNL     1      -6.851   4.026   1.882  1.00  0.00     0.031 A 
BRANCH  24  38
ATOM     38  C   UNL     1      -2.421   3.945   4.992  1.00  0.00    -0.014 A 
ATOM     39  C   UNL     1      -2.986   3.647   6.245  1.00  0.00     0.010 A 
ATOM     40  C   UNL     1      -1.605   5.090   4.908  1.00  0.00     0.010 A 
ATOM     41  C   UNL     1      -2.787   4.490   7.342  1.00  0.00     0.020 A 
ATOM     42  C   UNL     1      -1.353   5.905   6.006  1.00  0.00     0.020 A 
ATOM     43  C   UNL     1      -1.979   5.620   7.208  1.00  0.00     0.054 A 
BRANCH  43  44
ATOM     44  S   UNL     1      -1.812   6.764   8.593  1.00  0.00     0.124 S 
ATOM     45  O   UNL     1      -3.148   7.348   8.657  1.00  0.00    -0.237 OA
ATOM     46  O   UNL     1      -1.454   5.871   9.691  1.00  0.00    -0.237 OA
ATOM     47  O   UNL     1      -0.750   7.670   8.161  1.00  0.00    -0.744 OA
ENDBRANCH  43  44
ENDBRANCH  24  38
BRANCH  25  48
ATOM     48  C   UNL     1      -5.418   8.838  -1.231  1.00  0.00    -0.014 A 
ATOM     49  C   UNL     1      -6.386   9.695  -0.669  1.00  0.00     0.010 A 
ATOM     50  C   UNL     1      -4.329   9.427  -1.900  1.00  0.00     0.010 A 
ATOM     51  C   UNL     1      -6.231  11.089  -0.704  1.00  0.00     0.020 A 
ATOM     52  C   UNL     1      -4.172  10.821  -1.947  1.00  0.00     0.020 A 
ATOM     53  C   UNL     1      -5.110  11.644  -1.323  1.00  0.00     0.054 A 
BRANCH  53  54
ATOM     54  S   UNL     1      -4.819  13.434  -1.187  1.00  0.00     0.124 S 
ATOM     55  O   UNL     1      -5.852  13.985  -2.059  1.00  0.00    -0.237 OA
ATOM     56  O   UNL     1      -5.004  13.678   0.242  1.00  0.00    -0.237 OA
ATOM     57  O   UNL     1      -3.448  13.599  -1.666  1.00  0.00    -0.744 OA
ENDBRANCH  53  54
ENDBRANCH  25  48
BRANCH  37  58
ATOM     58  C   UNL     1      -7.881   3.444   0.934  1.00  0.00    -0.014 A 
ATOM     59  C   UNL     1      -7.762   3.472  -0.470  1.00  0.00     0.010 A 
ATOM     60  C   UNL     1      -8.962   2.737   1.492  1.00  0.00     0.010 A 
ATOM     61  C   UNL     1      -8.710   2.843  -1.290  1.00  0.00     0.020 A 
ATOM     62  C   UNL     1      -9.900   2.089   0.682  1.00  0.00     0.020 A 
ATOM     63  C   UNL     1      -9.774   2.151  -0.706  1.00  0.00     0.054 A 
BRANCH  63  64
ATOM     64  S   UNL     1     -10.957   1.281  -1.773  1.00  0.00     0.124 S 
ATOM     65  O   UNL     1     -11.687   2.378  -2.401  1.00  0.00    -0.237 OA
ATOM     66  O   UNL     1     -10.087   0.514  -2.663  1.00  0.00    -0.237 OA
ATOM     67  O   UNL     1     -11.739   0.472  -0.839  1.00  0.00    -0.744 OA
ENDBRANCH  63  64
ENDBRANCH  37  58
ENDBRANCH  11  12
ENDBRANCH   4   6
ENDBRANCH   3   4
ENDBRANCH   2   3
ENDBRANCH   1   2
BRANCH   1  68
ATOM     68  O   UNL     1       1.228  -1.056  -3.884  1.00  0.00    -0.461 OA
BRANCH  68  69
ATOM     69  C   UNL     1       2.351  -0.301  -3.143  1.00  0.00     0.328 C 
ATOM     70  O   UNL     1       3.307  -0.981  -2.739  1.00  0.00    -0.250 OA
BRANCH  69  71
ATOM     71  C   UNL     1       2.394   1.532  -2.694  1.00  0.00     0.195 C 
ATOM     72  C   UNL     1       3.713   2.343  -2.798  1.00  0.00     0.046 C 
ATOM     73  N   UNL     1       1.316   2.944  -2.559  1.00  0.00    -0.328 N 
ATOM     74  C   UNL     1       3.521   3.626  -1.862  1.00  0.00     0.001 C 
ATOM     75  C   UNL     1       1.980   3.874  -1.674  1.00  0.00     0.128 C 
ATOM     76  C   UNL     1       4.104   4.909  -2.499  1.00  0.00     0.071 C 
ATOM     77  C   UNL     1       4.237   3.403  -0.498  1.00  0.00     0.071 C 
ATOM     78  C   UNL     1       5.619   4.888  -2.581  1.00  0.00     0.270 C 
ATOM     79  C   UNL     1       5.772   3.473  -0.598  1.00  0.00     0.270 C 
ATOM     80  N   UNL     1       6.204   4.702  -1.265  1.00  0.00    -0.272 N 
ATOM     81  H   UNL     1       6.169   3.723  -1.170  1.00  0.00     0.356 HD
BRANCH  73  82
ATOM     82  C   UNL     1      -0.049   3.488  -3.375  1.00  0.00     0.225 C 
ATOM     83  O   UNL     1      -0.520   4.591  -3.083  1.00  0.00    -0.275 OA
BRANCH  82  84
ATOM     84  C   UNL     1      -0.838   2.429  -4.804  1.00  0.00     0.124 C 
BRANCH  84  85
ATOM     85  C   UNL     1      -0.051   0.593  -5.171  1.00  0.00     0.154 C 
BRANCH  85  86
ATOM     86  N   UNL     1       1.918   0.387  -5.425  1.00  0.00    -0.272 N 
ATOM     87  C   UNL     1       3.006   1.342  -5.970  1.00  0.00     0.108 A 
ATOM     88  N   UNL     1       2.700  -0.830  -5.655  1.00  0.00    -0.182 NA
ATOM     89  C   UNL     1       4.247   0.776  -5.954  1.00  0.00     0.042 A 
ATOM     90  C   UNL     1       3.983  -0.561  -5.827  1.00  0.00     0.135 A 
ENDBRANCH  85  86
ENDBRANCH  84  85
ENDBRANCH  82  84
ENDBRANCH  73  82
BRANCH  80  91
ATOM     91  C   UNL     1       7.199   5.468  -0.657  1.00  0.00     0.315 C 
ATOM     92  O   UNL     1       7.867   5.001   0.267  1.00  0.00    -0.231 OA
BRANCH  91  93
ATOM     93  C   UNL     1       7.481   6.905  -0.978  1.00  0.00     0.119 C 
ATOM     94  C   UNL     1       7.223   7.784  -2.167  1.00  0.00     0.019 C 
ATOM     95  C   UNL     1       6.332   7.894  -0.966  1.00  0.00     0.019 C 
ENDBRANCH  91  93
ENDBRANCH  80  91
ENDBRANCH  69  71
ENDBRANCH  68  69
ENDBRANCH   1  68
TORSDOF 20
