REMARK SMILES O=C(Cc1ccc(F)cc1F)Nc1sccc1C(=O)OCCOC(=O)c1ccc(-c2c3nc(c(-c4ccc(S(=O)(=O)[O-])cc4)c4ccc([nH]4)c(-c4ccc(S(=O)(=O)[O-])cc4)c4nc(c(-c5ccc(S(=O)(=O)[O-])cc5)c5ccc2[nH]5)C=C4)C=C3)cc1
REMARK SMILES IDX 21 1 20 2 18 3 19 4 17 5 13 6 14 7 15 8 16 9 12 10 1 11 2 12
REMARK SMILES IDX 3 14 4 15 5 16 10 17 6 18 9 19 11 20 7 21 8 22 22 23 23 24
REMARK SMILES IDX 24 25 25 26 26 27 27 28 85 29 28 30 84 31 29 32 30 33 31 34
REMARK SMILES IDX 78 35 32 36 83 37 77 38 79 39 33 40 82 41 76 42 75 43 34 45
REMARK SMILES IDX 64 46 45 47 63 48 46 49 49 50 62 51 80 52 47 53 48 54 61 56
REMARK SMILES IDX 81 57 50 58 35 59 36 60 44 61 37 62 43 63 38 64 39 65 40 66
REMARK SMILES IDX 41 67 42 68 65 69 66 70 74 71 67 72 73 73 68 74 69 75 70 76
REMARK SMILES IDX 71 77 72 78 51 79 52 80 60 81 53 82 59 83 54 84 55 85 56 86
REMARK SMILES IDX 57 87 58 88
REMARK H PARENT 12 13 79 44 49 55
REMARK Flexibility Score: inf
ROOT
ATOM      1  C   UNL     1      -0.201  -1.828   1.952  1.00  0.00     0.275 C 
ENDROOT
BRANCH   1   2
ATOM      2  O   UNL     1       0.689  -0.700   1.990  1.00  0.00    -0.458 OA
BRANCH   2   3
ATOM      3  C   UNL     1       0.110   0.542   1.980  1.00  0.00     0.341 C 
ATOM      4  O   UNL     1      -1.091   0.744   2.048  1.00  0.00    -0.246 OA
BRANCH   3   5
ATOM      5  C   UNL     1       1.095   1.621   2.056  1.00  0.00     0.094 A 
ATOM      6  C   UNL     1       2.386   1.608   1.571  1.00  0.00     0.110 A 
ATOM      7  S   UNL     1       3.334   2.901   2.155  1.00  0.00    -0.126 S 
ATOM      8  C   UNL     1       1.969   3.661   2.841  1.00  0.00     0.068 A 
ATOM      9  C   UNL     1       0.838   2.888   2.699  1.00  0.00     0.029 A 
BRANCH   6  10
ATOM     10  N   UNL     1       3.094   0.810   0.701  1.00  0.00    -0.317 N 
ATOM     11  O   UNL     1       1.291   0.064  -0.580  1.00  0.00    -0.274 OA
ATOM     12  C   UNL     1       2.492   0.106  -0.326  1.00  0.00     0.229 C 
ATOM     13  H   UNL     1       4.069   0.737   0.816  1.00  0.00     0.170 HD
BRANCH  12  14
ATOM     14  C   UNL     1       3.491  -0.619  -1.204  1.00  0.00     0.139 C 
BRANCH  14  15
ATOM     15  C   UNL     1       4.242   0.219  -2.217  1.00  0.00    -0.003 A 
ATOM     16  C   UNL     1       5.209  -0.423  -3.011  1.00  0.00     0.010 A 
ATOM     17  C   UNL     1       4.033   1.591  -2.420  1.00  0.00     0.129 A 
ATOM     18  C   UNL     1       5.942   0.293  -3.960  1.00  0.00     0.040 A 
ATOM     19  C   UNL     1       4.764   2.311  -3.359  1.00  0.00     0.078 A 
ATOM     20  F   UNL     1       3.124   2.262  -1.704  1.00  0.00    -0.207 F 
ATOM     21  C   UNL     1       5.715   1.654  -4.121  1.00  0.00     0.126 A 
ATOM     22  F   UNL     1       6.426   2.338  -5.026  1.00  0.00    -0.207 F 
ENDBRANCH  14  15
ENDBRANCH  12  14
ENDBRANCH   6  10
ENDBRANCH   3   5
ENDBRANCH   2   3
ENDBRANCH   1   2
BRANCH   1  23
ATOM     23  C   UNL     1      -0.060  -2.666   3.223  1.00  0.00     0.275 C 
BRANCH  23  24
ATOM     24  O   UNL     1      -0.554  -1.939   4.362  1.00  0.00    -0.458 OA
BRANCH  24  25
ATOM     25  C   UNL     1       0.393  -1.294   5.083  1.00  0.00     0.338 C 
ATOM     26  O   UNL     1       1.603  -1.365   4.949  1.00  0.00    -0.246 OA
BRANCH  25  27
ATOM     27  C   UNL     1      -0.265  -0.314   5.961  1.00  0.00     0.060 A 
ATOM     28  C   UNL     1       0.008   1.033   5.721  1.00  0.00     0.016 A 
ATOM     29  C   UNL     1      -1.095  -0.693   7.017  1.00  0.00     0.016 A 
ATOM     30  C   UNL     1      -0.556   2.016   6.526  1.00  0.00     0.010 A 
ATOM     31  C   UNL     1      -1.652   0.297   7.839  1.00  0.00     0.010 A 
ATOM     32  C   UNL     1      -1.377   1.656   7.603  1.00  0.00    -0.014 A 
BRANCH  32  33
ATOM     33  C   UNL     1      -1.862   2.721   8.514  1.00  0.00     0.031 A 
ATOM     34  C   UNL     1      -1.188   2.928   9.842  1.00  0.00     0.074 A 
ATOM     35  C   UNL     1      -2.838   3.558   8.115  1.00  0.00     0.049 A 
ATOM     36  N   UNL     1      -1.426   3.832  10.758  1.00  0.00    -0.248 NA
ATOM     37  C   UNL     1      -0.099   1.998  10.180  1.00  0.00     0.031 C 
ATOM     38  C   UNL     1      -3.535   3.491   6.830  1.00  0.00     0.029 A 
ATOM     39  N   UNL     1      -3.391   4.647   8.741  1.00  0.00    -0.354 N 
ATOM     40  C   UNL     1      -0.531   3.570  11.789  1.00  0.00     0.074 A 
ATOM     41  C   UNL     1       0.244   2.413  11.391  1.00  0.00     0.031 C 
ATOM     42  C   UNL     1      -4.401   4.516   6.750  1.00  0.00     0.029 A 
ATOM     43  C   UNL     1      -4.343   5.290   7.987  1.00  0.00     0.049 A 
ATOM     44  H   UNL     1      -3.130   4.940   9.644  1.00  0.00     0.167 HD
ATOM     45  C   UNL     1      -0.367   4.232  12.959  1.00  0.00     0.031 A 
ATOM     46  C   UNL     1      -5.085   6.381   8.262  1.00  0.00     0.031 A 
ATOM     47  C   UNL     1      -1.137   5.381  13.357  1.00  0.00     0.049 A 
ATOM     48  C   UNL     1      -4.902   7.084   9.579  1.00  0.00     0.074 A 
ATOM     49  C   UNL     1      -1.057   6.110  14.531  1.00  0.00     0.029 A 
ATOM     50  N   UNL     1      -2.125   5.975  12.586  1.00  0.00    -0.354 N 
ATOM     51  N   UNL     1      -4.069   6.806  10.554  1.00  0.00    -0.248 NA
ATOM     52  C   UNL     1      -5.757   8.253   9.829  1.00  0.00     0.031 C 
ATOM     53  C   UNL     1      -2.021   7.125  14.484  1.00  0.00     0.029 A 
ATOM     54  C   UNL     1      -2.670   7.055  13.261  1.00  0.00     0.049 A 
ATOM     55  H   UNL     1      -2.400   5.673  11.691  1.00  0.00     0.167 HD
ATOM     56  C   UNL     1      -4.294   7.770  11.530  1.00  0.00     0.074 A 
ATOM     57  C   UNL     1      -5.323   8.653  11.016  1.00  0.00     0.031 C 
ATOM     58  C   UNL     1      -3.705   7.912  12.743  1.00  0.00     0.031 A 
BRANCH  45  59
ATOM     59  C   UNL     1       0.664   3.689  13.911  1.00  0.00    -0.014 A 
ATOM     60  C   UNL     1       2.039   3.854  13.669  1.00  0.00     0.010 A 
ATOM     61  C   UNL     1       0.247   2.999  15.064  1.00  0.00     0.010 A 
ATOM     62  C   UNL     1       2.981   3.295  14.538  1.00  0.00     0.020 A 
ATOM     63  C   UNL     1       1.186   2.459  15.947  1.00  0.00     0.020 A 
ATOM     64  C   UNL     1       2.548   2.591  15.666  1.00  0.00     0.054 A 
BRANCH  64  65
ATOM     65  S   UNL     1       3.785   1.866  16.776  1.00  0.00     0.124 S 
ATOM     66  O   UNL     1       4.192   0.675  16.034  1.00  0.00    -0.237 OA
ATOM     67  O   UNL     1       4.793   2.919  16.872  1.00  0.00    -0.237 OA
ATOM     68  O   UNL     1       3.039   1.609  18.006  1.00  0.00    -0.744 OA
ENDBRANCH  64  65
ENDBRANCH  45  59
BRANCH  46  69
ATOM     69  C   UNL     1      -6.072   6.875   7.265  1.00  0.00    -0.014 A 
ATOM     70  C   UNL     1      -5.836   8.063   6.552  1.00  0.00     0.010 A 
ATOM     71  C   UNL     1      -7.248   6.147   7.013  1.00  0.00     0.010 A 
ATOM     72  C   UNL     1      -6.763   8.518   5.609  1.00  0.00     0.020 A 
ATOM     73  C   UNL     1      -8.166   6.586   6.055  1.00  0.00     0.020 A 
ATOM     74  C   UNL     1      -7.921   7.775   5.365  1.00  0.00     0.054 A 
BRANCH  74  75
ATOM     75  S   UNL     1      -9.081   8.342   4.089  1.00  0.00     0.124 S 
ATOM     76  O   UNL     1      -9.803   9.401   4.785  1.00  0.00    -0.237 OA
ATOM     77  O   UNL     1      -8.188   8.783   3.019  1.00  0.00    -0.237 OA
ATOM     78  O   UNL     1      -9.861   7.145   3.783  1.00  0.00    -0.744 OA
ENDBRANCH  74  75
ENDBRANCH  46  69
BRANCH  58  79
ATOM     79  C   UNL     1      -4.154   9.075  13.586  1.00  0.00    -0.014 A 
ATOM     80  C   UNL     1      -5.406   9.068  14.225  1.00  0.00     0.010 A 
ATOM     81  C   UNL     1      -3.308  10.188  13.744  1.00  0.00     0.010 A 
ATOM     82  C   UNL     1      -5.827  10.175  14.967  1.00  0.00     0.020 A 
ATOM     83  C   UNL     1      -3.716  11.287  14.504  1.00  0.00     0.020 A 
ATOM     84  C   UNL     1      -4.983  11.283  15.092  1.00  0.00     0.054 A 
BRANCH  84  85
ATOM     85  S   UNL     1      -5.544  12.711  16.060  1.00  0.00     0.124 S 
ATOM     86  O   UNL     1      -6.421  13.392  15.112  1.00  0.00    -0.237 OA
ATOM     87  O   UNL     1      -6.212  12.090  17.201  1.00  0.00    -0.237 OA
ATOM     88  O   UNL     1      -4.305  13.416  16.382  1.00  0.00    -0.744 OA
ENDBRANCH  84  85
ENDBRANCH  58  79
ENDBRANCH  32  33
ENDBRANCH  25  27
ENDBRANCH  24  25
ENDBRANCH  23  24
ENDBRANCH   1  23
TORSDOF 17
