REMARK SMILES O=C(OCCOC(=O)[C@H]1CCN1C(=O)OCC1c2ccccc2-c2ccccc21)c1ccc(-c2c3nc(c(-c4ccc(S(=O)(=O)[O-])cc4)c4ccc([nH]4)c(-c4ccc(S(=O)(=O)[O-])cc4)c4nc(c(-c5ccc(S(=O)(=O)[O-])cc5)c5ccc2[nH]5)C=C4)C=C3)cc1
REMARK SMILES IDX 5 1 4 2 3 3 2 4 1 5 30 6 31 7 89 8 32 9 88 10 33 11 34 12
REMARK SMILES IDX 35 13 82 14 36 15 87 16 81 17 83 18 37 19 86 20 80 21 79 22
REMARK SMILES IDX 38 24 68 25 49 26 67 27 50 28 53 29 66 30 84 31 51 32 52 33
REMARK SMILES IDX 65 35 85 36 54 37 39 38 40 39 48 40 41 41 47 42 42 43 43 44
REMARK SMILES IDX 44 45 45 46 46 47 69 48 70 49 78 50 71 51 77 52 72 53 73 54
REMARK SMILES IDX 74 55 75 56 76 57 55 58 56 59 64 60 57 61 63 62 58 63 59 64
REMARK SMILES IDX 60 65 61 66 62 67 6 68 7 69 8 70 9 71 10 72 12 73 11 74
REMARK SMILES IDX 13 75 14 76 15 77 16 78 17 79 18 80 29 81 19 82 23 83 24 84
REMARK SMILES IDX 28 85 20 86 22 87 25 88 27 89 21 90 26 91
REMARK H PARENT 83 23 53 34
REMARK Flexibility Score: inf
ROOT
ATOM      1  C   UNL     1      -0.708   0.744   0.861  1.00  0.00     0.274 C 
ENDROOT
BRANCH   1   2
ATOM      2  C   UNL     1      -1.665   1.161   1.988  1.00  0.00     0.275 C 
BRANCH   2   3
ATOM      3  O   UNL     1      -1.258   2.309   2.738  1.00  0.00    -0.458 OA
BRANCH   3   4
ATOM      4  C   UNL     1      -0.342   2.391   3.729  1.00  0.00     0.338 C 
ATOM      5  O   UNL     1      -0.182   3.482   4.275  1.00  0.00    -0.246 OA
BRANCH   4   6
ATOM      6  C   UNL     1       0.572   1.264   4.114  1.00  0.00     0.060 A 
ATOM      7  C   UNL     1       0.397  -0.101   3.856  1.00  0.00     0.016 A 
ATOM      8  C   UNL     1       1.749   1.640   4.763  1.00  0.00     0.016 A 
ATOM      9  C   UNL     1       1.402  -1.040   4.119  1.00  0.00     0.010 A 
ATOM     10  C   UNL     1       2.758   0.707   5.006  1.00  0.00     0.010 A 
ATOM     11  C   UNL     1       2.617  -0.644   4.661  1.00  0.00    -0.014 A 
BRANCH  11  12
ATOM     12  C   UNL     1       3.692  -1.634   4.959  1.00  0.00     0.031 A 
ATOM     13  C   UNL     1       4.258  -1.665   6.355  1.00  0.00     0.074 A 
ATOM     14  C   UNL     1       4.216  -2.427   3.994  1.00  0.00     0.049 A 
ATOM     15  N   UNL     1       5.306  -2.299   6.813  1.00  0.00    -0.248 NA
ATOM     16  C   UNL     1       3.580  -0.825   7.361  1.00  0.00     0.031 C 
ATOM     17  C   UNL     1       3.848  -2.407   2.572  1.00  0.00     0.029 A 
ATOM     18  N   UNL     1       5.248  -3.340   4.043  1.00  0.00    -0.354 N 
ATOM     19  C   UNL     1       5.410  -1.910   8.144  1.00  0.00     0.074 A 
ATOM     20  C   UNL     1       4.428  -0.878   8.371  1.00  0.00     0.031 C 
ATOM     21  C   UNL     1       4.691  -3.198   1.881  1.00  0.00     0.029 A 
ATOM     22  C   UNL     1       5.663  -3.778   2.801  1.00  0.00     0.049 A 
ATOM     23  H   UNL     1       5.651  -3.651   4.886  1.00  0.00     0.167 HD
ATOM     24  C   UNL     1       6.173  -2.433   9.131  1.00  0.00     0.031 A 
ATOM     25  C   UNL     1       6.752  -4.492   2.444  1.00  0.00     0.031 A 
ATOM     26  C   UNL     1       7.124  -3.480   8.914  1.00  0.00     0.049 A 
ATOM     27  C   UNL     1       7.643  -5.043   3.532  1.00  0.00     0.074 A 
ATOM     28  C   UNL     1       7.949  -4.106   9.827  1.00  0.00     0.029 A 
ATOM     29  N   UNL     1       7.374  -4.053   7.675  1.00  0.00    -0.354 N 
ATOM     30  N   UNL     1       7.507  -4.944   4.834  1.00  0.00    -0.248 NA
ATOM     31  C   UNL     1       8.839  -5.785   3.111  1.00  0.00     0.031 C 
ATOM     32  C   UNL     1       8.732  -5.033   9.129  1.00  0.00     0.029 A 
ATOM     33  C   UNL     1       8.379  -4.995   7.786  1.00  0.00     0.049 A 
ATOM     34  H   UNL     1       6.905  -3.823   6.841  1.00  0.00     0.167 HD
ATOM     35  C   UNL     1       8.588  -5.624   5.385  1.00  0.00     0.074 A 
ATOM     36  C   UNL     1       9.339  -6.178   4.276  1.00  0.00     0.031 C 
ATOM     37  C   UNL     1       8.980  -5.701   6.682  1.00  0.00     0.031 A 
BRANCH  24  38
ATOM     38  C   UNL     1       5.913  -1.908  10.519  1.00  0.00    -0.014 A 
ATOM     39  C   UNL     1       4.668  -2.156  11.136  1.00  0.00     0.010 A 
ATOM     40  C   UNL     1       6.854  -1.106  11.183  1.00  0.00     0.010 A 
ATOM     41  C   UNL     1       4.339  -1.550  12.348  1.00  0.00     0.020 A 
ATOM     42  C   UNL     1       6.543  -0.528  12.421  1.00  0.00     0.020 A 
ATOM     43  C   UNL     1       5.277  -0.733  12.980  1.00  0.00     0.054 A 
BRANCH  43  44
ATOM     44  S   UNL     1       4.817   0.042  14.554  1.00  0.00     0.124 S 
ATOM     45  O   UNL     1       3.888   1.083  14.119  1.00  0.00    -0.237 OA
ATOM     46  O   UNL     1       4.214  -1.066  15.291  1.00  0.00    -0.237 OA
ATOM     47  O   UNL     1       6.088   0.523  15.089  1.00  0.00    -0.744 OA
ENDBRANCH  43  44
ENDBRANCH  24  38
BRANCH  25  48
ATOM     48  C   UNL     1       7.161  -4.609   1.009  1.00  0.00    -0.014 A 
ATOM     49  C   UNL     1       7.162  -5.843   0.338  1.00  0.00     0.010 A 
ATOM     50  C   UNL     1       7.647  -3.474   0.327  1.00  0.00     0.010 A 
ATOM     51  C   UNL     1       7.659  -5.943  -0.970  1.00  0.00     0.020 A 
ATOM     52  C   UNL     1       8.124  -3.563  -0.986  1.00  0.00     0.020 A 
ATOM     53  C   UNL     1       8.136  -4.802  -1.624  1.00  0.00     0.054 A 
BRANCH  53  54
ATOM     54  S   UNL     1       8.758  -4.957  -3.324  1.00  0.00     0.124 S 
ATOM     55  O   UNL     1       9.946  -5.784  -3.142  1.00  0.00    -0.237 OA
ATOM     56  O   UNL     1       7.636  -5.600  -4.005  1.00  0.00    -0.237 OA
ATOM     57  O   UNL     1       9.012  -3.575  -3.725  1.00  0.00    -0.744 OA
ENDBRANCH  53  54
ENDBRANCH  25  48
BRANCH  37  58
ATOM     58  C   UNL     1      10.175  -6.550   7.000  1.00  0.00    -0.014 A 
ATOM     59  C   UNL     1      11.480  -6.108   6.722  1.00  0.00     0.010 A 
ATOM     60  C   UNL     1       9.985  -7.761   7.690  1.00  0.00     0.010 A 
ATOM     61  C   UNL     1      12.578  -6.883   7.103  1.00  0.00     0.020 A 
ATOM     62  C   UNL     1      11.081  -8.521   8.100  1.00  0.00     0.020 A 
ATOM     63  C   UNL     1      12.370  -8.084   7.790  1.00  0.00     0.054 A 
BRANCH  63  64
ATOM     64  S   UNL     1      13.811  -9.052   8.310  1.00  0.00     0.124 S 
ATOM     65  O   UNL     1      14.278  -9.604   7.042  1.00  0.00    -0.237 OA
ATOM     66  O   UNL     1      14.675  -8.042   8.915  1.00  0.00    -0.237 OA
ATOM     67  O   UNL     1      13.253 -10.027   9.246  1.00  0.00    -0.744 OA
ENDBRANCH  63  64
ENDBRANCH  37  58
ENDBRANCH  11  12
ENDBRANCH   4   6
ENDBRANCH   3   4
ENDBRANCH   2   3
ENDBRANCH   1   2
BRANCH   1  68
ATOM     68  O   UNL     1       0.703   0.971   1.109  1.00  0.00    -0.461 OA
BRANCH  68  69
ATOM     69  C   UNL     1       1.196   2.152   0.604  1.00  0.00     0.329 C 
ATOM     70  O   UNL     1       0.443   2.963   0.052  1.00  0.00    -0.250 OA
BRANCH  69  71
ATOM     71  C   UNL     1       2.775   2.373   0.728  1.00  0.00     0.200 C 
ATOM     72  C   UNL     1       3.101   3.902   0.806  1.00  0.00     0.059 C 
ATOM     73  N   UNL     1       3.465   2.324   2.024  1.00  0.00    -0.294 N 
ATOM     74  C   UNL     1       3.182   3.725   2.325  1.00  0.00     0.127 C 
BRANCH  73  75
ATOM     75  C   UNL     1       4.557   1.688   2.575  1.00  0.00     0.410 C 
ATOM     76  O   UNL     1       4.921   1.961   3.707  1.00  0.00    -0.224 OA
BRANCH  75  77
ATOM     77  O   UNL     1       5.217   0.804   1.766  1.00  0.00    -0.448 OA
BRANCH  77  78
ATOM     78  C   UNL     1       6.190  -0.008   2.486  1.00  0.00     0.248 C 
BRANCH  78  79
ATOM     79  C   UNL     1       7.643   0.499   2.681  1.00  0.00     0.088 C 
ATOM     80  C   UNL     1       7.792   1.934   3.162  1.00  0.00    -0.029 A 
ATOM     81  C   UNL     1       8.320  -0.259   3.841  1.00  0.00    -0.029 A 
ATOM     82  C   UNL     1       7.438   3.100   2.504  1.00  0.00     0.005 A 
ATOM     83  C   UNL     1       8.345   1.972   4.460  1.00  0.00    -0.014 A 
ATOM     84  C   UNL     1       8.684   0.633   4.871  1.00  0.00    -0.014 A 
ATOM     85  C   UNL     1       8.569  -1.610   3.983  1.00  0.00     0.005 A 
ATOM     86  C   UNL     1       7.553   4.304   3.199  1.00  0.00     0.000 A 
ATOM     87  C   UNL     1       8.479   3.167   5.142  1.00  0.00     0.009 A 
ATOM     88  C   UNL     1       9.274   0.186   6.047  1.00  0.00     0.009 A 
ATOM     89  C   UNL     1       9.165  -2.059   5.166  1.00  0.00     0.000 A 
ATOM     90  C   UNL     1       8.059   4.336   4.510  1.00  0.00     0.001 A 
ATOM     91  C   UNL     1       9.504  -1.178   6.198  1.00  0.00     0.001 A 
ENDBRANCH  78  79
ENDBRANCH  77  78
ENDBRANCH  75  77
ENDBRANCH  73  75
ENDBRANCH  69  71
ENDBRANCH  68  69
ENDBRANCH   1  68
TORSDOF 18
