REMARK SMILES C=CC[N@@H+]1C[C@@H](C(=O)OCCOC(=O)c2ccc(-c3c4nc(c(-c5ccc(S(=O)(=O)[O-])cc5)c5ccc([nH]5)c(-c5ccc(S(=O)(=O)[O-])cc5)c5nc(c(-c6ccc(S(=O)(=O)[O-])cc6)c6ccc3[nH]6)C=C5)C=C4)cc2)C2(CC[NH+](C)CC2)C1
REMARK SMILES IDX 11 1 10 2 9 3 7 4 8 5 6 6 4 7 5 8 82 9 75 11 76 12 81 13
REMARK SMILES IDX 77 14 80 15 78 16 79 17 3 19 2 20 1 21 12 22 13 23 14 24
REMARK SMILES IDX 15 25 16 26 74 27 17 28 73 29 18 30 19 31 20 32 67 33 21 34
REMARK SMILES IDX 72 35 66 36 68 37 22 38 71 39 65 40 64 41 23 43 53 44 34 45
REMARK SMILES IDX 52 46 35 47 38 48 51 49 69 50 36 51 37 52 50 54 70 55 39 56
REMARK SMILES IDX 24 57 25 58 33 59 26 60 32 61 27 62 28 63 29 64 30 65 31 66
REMARK SMILES IDX 54 67 55 68 63 69 56 70 62 71 57 72 58 73 59 74 60 75 61 76
REMARK SMILES IDX 40 77 41 78 49 79 42 80 48 81 43 82 44 83 45 84 46 85 47 86
REMARK H PARENT 4 10 78 18 68 42 38 53
REMARK Flexibility Score: inf
ROOT
ATOM      1  C   UNL     1      -4.531   0.739   6.526  1.00  0.00     0.275 C 
ENDROOT
BRANCH   1   2
ATOM      2  C   UNL     1      -4.130   0.147   5.175  1.00  0.00     0.274 C 
BRANCH   2   3
ATOM      3  O   UNL     1      -3.108   0.944   4.543  1.00  0.00    -0.462 OA
BRANCH   3   4
ATOM      4  C   UNL     1      -3.576   1.886   3.692  1.00  0.00     0.315 C 
ATOM      5  O   UNL     1      -4.765   2.027   3.412  1.00  0.00    -0.252 OA
BRANCH   4   6
ATOM      6  C   UNL     1      -2.526   2.782   3.066  1.00  0.00     0.166 C 
ATOM      7  N   UNL     1      -1.400   1.409   1.519  1.00  0.00    -0.330 N 
ATOM      8  C   UNL     1      -2.484   2.386   1.587  1.00  0.00     0.278 C 
ATOM      9  C   UNL     1      -0.447   1.649   2.595  1.00  0.00     0.271 C 
ATOM     10  H   UNL     1      -1.732   0.468   1.730  1.00  0.00     0.348 HD
ATOM     11  C   UNL     1      -1.029   2.785   3.463  1.00  0.00     0.049 C 
ATOM     12  C   UNL     1      -0.647   2.588   4.945  1.00  0.00     0.075 C 
ATOM     13  C   UNL     1      -0.384   4.141   3.011  1.00  0.00     0.075 C 
ATOM     14  C   UNL     1      -0.961   3.800   5.822  1.00  0.00     0.262 C 
ATOM     15  C   UNL     1      -0.712   5.310   3.948  1.00  0.00     0.262 C 
ATOM     16  N   UNL     1      -0.368   5.051   5.346  1.00  0.00    -0.337 N 
ATOM     17  C   UNL     1       1.070   5.123   5.591  1.00  0.00     0.332 C 
ATOM     18  H   UNL     1      -0.781   5.802   5.899  1.00  0.00     0.347 HD
BRANCH   7  19
ATOM     19  C   UNL     1      -0.943   1.129   0.167  1.00  0.00     0.290 C 
BRANCH  19  20
ATOM     20  C   UNL     1       0.505   0.762   0.015  1.00  0.00     0.025 C 
ATOM     21  C   UNL     1       0.973  -0.472  -0.211  1.00  0.00     0.010 C 
ENDBRANCH  19  20
ENDBRANCH   7  19
ENDBRANCH   4   6
ENDBRANCH   3   4
ENDBRANCH   2   3
ENDBRANCH   1   2
BRANCH   1  22
ATOM     22  O   UNL     1      -4.875   2.128   6.379  1.00  0.00    -0.458 OA
BRANCH  22  23
ATOM     23  C   UNL     1      -4.348   2.964   7.304  1.00  0.00     0.338 C 
ATOM     24  O   UNL     1      -3.688   2.642   8.278  1.00  0.00    -0.246 OA
BRANCH  23  25
ATOM     25  C   UNL     1      -4.674   4.373   6.983  1.00  0.00     0.060 A 
ATOM     26  C   UNL     1      -4.708   4.841   5.665  1.00  0.00     0.016 A 
ATOM     27  C   UNL     1      -4.860   5.268   8.038  1.00  0.00     0.016 A 
ATOM     28  C   UNL     1      -4.875   6.203   5.405  1.00  0.00     0.010 A 
ATOM     29  C   UNL     1      -5.109   6.617   7.773  1.00  0.00     0.010 A 
ATOM     30  C   UNL     1      -5.106   7.103   6.455  1.00  0.00    -0.014 A 
BRANCH  30  31
ATOM     31  C   UNL     1      -5.379   8.543   6.198  1.00  0.00     0.031 A 
ATOM     32  C   UNL     1      -4.484   9.607   6.776  1.00  0.00     0.074 A 
ATOM     33  C   UNL     1      -6.477   8.904   5.503  1.00  0.00     0.049 A 
ATOM     34  N   UNL     1      -4.685  10.898   6.859  1.00  0.00    -0.248 NA
ATOM     35  C   UNL     1      -3.204   9.158   7.348  1.00  0.00     0.031 C 
ATOM     36  C   UNL     1      -7.419   7.983   4.864  1.00  0.00     0.029 A 
ATOM     37  N   UNL     1      -6.995  10.147   5.235  1.00  0.00    -0.354 N 
ATOM     38  C   UNL     1      -3.584  11.411   7.536  1.00  0.00     0.074 A 
ATOM     39  C   UNL     1      -2.717  10.291   7.839  1.00  0.00     0.031 C 
ATOM     40  C   UNL     1      -8.393   8.690   4.271  1.00  0.00     0.029 A 
ATOM     41  C   UNL     1      -8.188  10.107   4.552  1.00  0.00     0.049 A 
ATOM     42  H   UNL     1      -6.556  10.985   5.506  1.00  0.00     0.167 HD
ATOM     43  C   UNL     1      -3.325  12.696   7.880  1.00  0.00     0.031 A 
ATOM     44  C   UNL     1      -9.051  11.088   4.226  1.00  0.00     0.031 A 
ATOM     45  C   UNL     1      -4.174  13.813   7.554  1.00  0.00     0.049 A 
ATOM     46  C   UNL     1      -8.759  12.499   4.642  1.00  0.00     0.074 A 
ATOM     47  C   UNL     1      -3.980  15.154   7.840  1.00  0.00     0.029 A 
ATOM     48  N   UNL     1      -5.372  13.723   6.863  1.00  0.00    -0.354 N 
ATOM     49  N   UNL     1      -7.732  12.961   5.312  1.00  0.00    -0.248 NA
ATOM     50  C   UNL     1      -9.749  13.518   4.268  1.00  0.00     0.031 C 
ATOM     51  C   UNL     1      -5.078  15.871   7.351  1.00  0.00     0.029 A 
ATOM     52  C   UNL     1      -5.935  14.981   6.724  1.00  0.00     0.049 A 
ATOM     53  H   UNL     1      -5.765  12.888   6.521  1.00  0.00     0.167 HD
ATOM     54  C   UNL     1      -7.947  14.329   5.433  1.00  0.00     0.074 A 
ATOM     55  C   UNL     1      -9.193  14.620   4.753  1.00  0.00     0.031 C 
ATOM     56  C   UNL     1      -7.179  15.258   6.053  1.00  0.00     0.031 A 
BRANCH  43  57
ATOM     57  C   UNL     1      -2.083  12.964   8.687  1.00  0.00    -0.014 A 
ATOM     58  C   UNL     1      -0.808  12.943   8.097  1.00  0.00     0.010 A 
ATOM     59  C   UNL     1      -2.202  13.288  10.052  1.00  0.00     0.010 A 
ATOM     60  C   UNL     1       0.330  13.207   8.865  1.00  0.00     0.020 A 
ATOM     61  C   UNL     1      -1.069  13.573  10.818  1.00  0.00     0.020 A 
ATOM     62  C   UNL     1       0.193  13.514  10.223  1.00  0.00     0.054 A 
BRANCH  62  63
ATOM     63  S   UNL     1       1.682  13.875  11.196  1.00  0.00     0.124 S 
ATOM     64  O   UNL     1       2.218  12.537  11.432  1.00  0.00    -0.237 OA
ATOM     65  O   UNL     1       2.465  14.714  10.292  1.00  0.00    -0.237 OA
ATOM     66  O   UNL     1       1.164  14.557  12.380  1.00  0.00    -0.744 OA
ENDBRANCH  62  63
ENDBRANCH  43  57
BRANCH  44  67
ATOM     67  C   UNL     1     -10.299  10.746   3.494  1.00  0.00    -0.014 A 
ATOM     68  C   UNL     1     -10.428  11.052   2.130  1.00  0.00     0.010 A 
ATOM     69  C   UNL     1     -11.342  10.066   4.150  1.00  0.00     0.010 A 
ATOM     70  C   UNL     1     -11.579  10.679   1.430  1.00  0.00     0.020 A 
ATOM     71  C   UNL     1     -12.483   9.672   3.448  1.00  0.00     0.020 A 
ATOM     72  C   UNL     1     -12.597   9.987   2.092  1.00  0.00     0.054 A 
BRANCH  72  73
ATOM     73  S   UNL     1     -14.043   9.430   1.148  1.00  0.00     0.124 S 
ATOM     74  O   UNL     1     -14.845  10.648   1.077  1.00  0.00    -0.237 OA
ATOM     75  O   UNL     1     -13.452   8.987  -0.112  1.00  0.00    -0.237 OA
ATOM     76  O   UNL     1     -14.597   8.361   1.976  1.00  0.00    -0.744 OA
ENDBRANCH  72  73
ENDBRANCH  44  67
BRANCH  56  77
ATOM     77  C   UNL     1      -7.653  16.683   6.000  1.00  0.00    -0.014 A 
ATOM     78  C   UNL     1      -8.703  17.128   6.822  1.00  0.00     0.010 A 
ATOM     79  C   UNL     1      -7.015  17.597   5.143  1.00  0.00     0.010 A 
ATOM     80  C   UNL     1      -9.127  18.458   6.766  1.00  0.00     0.020 A 
ATOM     81  C   UNL     1      -7.424  18.932   5.098  1.00  0.00     0.020 A 
ATOM     82  C   UNL     1      -8.488  19.351   5.900  1.00  0.00     0.054 A 
BRANCH  82  83
ATOM     83  S   UNL     1      -9.029  21.082   5.865  1.00  0.00     0.124 S 
ATOM     84  O   UNL     1     -10.238  21.006   5.049  1.00  0.00    -0.237 OA
ATOM     85  O   UNL     1      -9.244  21.384   7.279  1.00  0.00    -0.237 OA
ATOM     86  O   UNL     1      -7.904  21.783   5.250  1.00  0.00    -0.744 OA
ENDBRANCH  82  83
ENDBRANCH  56  77
ENDBRANCH  30  31
ENDBRANCH  23  25
ENDBRANCH  22  23
ENDBRANCH   1  22
TORSDOF 16
