REMARK SMILES Cc1ccc(C)c(S(=O)(=O)N[C@H](CC2=c3ccccc3=NC2)C(=O)OCCOC(=O)c2ccc(-c3c4nc(c(-c5ccc(S(=O)(=O)[O-])cc5)c5ccc([nH]5)c(-c5ccc(S(=O)(=O)[O-])cc5)c5nc(c(-c6ccc(S(=O)(=O)[O-])cc6)c6ccc3[nH]6)C=C5)C=C4)cc2)c1
REMARK SMILES IDX 26 1 25 2 23 3 24 4 12 5 11 6 8 8 9 9 10 10 7 11 1 12 2 13
REMARK SMILES IDX 3 14 91 15 4 16 5 17 6 18 13 19 14 20 15 21 22 22 16 23
REMARK SMILES IDX 20 24 21 25 17 26 19 27 18 28 27 29 28 30 29 31 30 32 31 33
REMARK SMILES IDX 32 34 90 35 33 36 89 37 34 38 35 39 36 40 83 41 37 42 88 43
REMARK SMILES IDX 82 44 84 45 38 46 87 47 81 48 80 49 39 51 69 52 50 53 68 54
REMARK SMILES IDX 51 55 54 56 67 57 85 58 52 59 53 60 66 62 86 63 55 64 40 65
REMARK SMILES IDX 41 66 49 67 42 68 48 69 43 70 44 71 45 72 46 73 47 74 70 75
REMARK SMILES IDX 71 76 79 77 72 78 78 79 73 80 74 81 75 82 76 83 77 84 56 85
REMARK SMILES IDX 57 86 65 87 58 88 64 89 59 90 60 91 61 92 62 93 63 94
REMARK H PARENT 11 7 84 50 54 61
REMARK Flexibility Score: inf
ROOT
ATOM      1  C   UNL     1       3.600   8.383  -0.707  1.00  0.00     0.274 C 
ENDROOT
BRANCH   1   2
ATOM      2  O   UNL     1       2.508   7.902  -1.500  1.00  0.00    -0.461 OA
BRANCH   2   3
ATOM      3  C   UNL     1       2.599   6.512  -1.937  1.00  0.00     0.324 C 
ATOM      4  O   UNL     1       3.821   6.373  -2.208  1.00  0.00    -0.250 OA
BRANCH   3   5
ATOM      5  C   UNL     1       0.889   5.124  -1.924  1.00  0.00     0.183 C 
BRANCH   5   6
ATOM      6  N   UNL     1      -0.122   4.504  -3.119  1.00  0.00    -0.197 NA
ATOM      7  H   UNL     1      -1.061   4.562  -2.725  1.00  0.00     0.142 HD
BRANCH   6   8
ATOM      8  S   UNL     1      -0.040   2.932  -3.845  1.00  0.00     0.241 S 
ATOM      9  O   UNL     1       1.326   2.730  -4.273  1.00  0.00    -0.207 OA
ATOM     10  O   UNL     1      -1.129   2.952  -4.805  1.00  0.00    -0.207 OA
BRANCH   8  11
ATOM     11  C   UNL     1      -0.423   1.436  -2.846  1.00  0.00     0.085 A 
ATOM     12  C   UNL     1      -1.631   0.260   0.622  1.00  0.00     0.044 C 
ATOM     13  C   UNL     1      -1.127   0.269  -0.796  1.00  0.00    -0.050 A 
ATOM     14  C   UNL     1      -0.814  -0.970  -1.361  1.00  0.00     0.004 A 
ATOM     15  C   UNL     1      -0.964   1.464  -1.553  1.00  0.00     0.025 A 
ATOM     16  C   UNL     1      -0.351  -1.028  -2.663  1.00  0.00     0.005 A 
ATOM     17  C   UNL     1      -0.155   0.151  -3.421  1.00  0.00    -0.031 A 
ATOM     18  C   UNL     1       0.316  -0.111  -4.831  1.00  0.00     0.046 C 
ENDBRANCH   8  11
ENDBRANCH   6   8
ENDBRANCH   5   6
BRANCH   5  19
ATOM     19  C   UNL     1      -0.407   4.802  -0.573  1.00  0.00     0.065 C 
BRANCH  19  20
ATOM     20  C   UNL     1      -0.782   5.557   0.731  1.00  0.00    -0.037 C 
ATOM     21  C   UNL     1      -0.318   5.395   1.981  1.00  0.00     0.001 A 
ATOM     22  C   UNL     1      -1.624   6.811   0.683  1.00  0.00     0.174 C 
ATOM     23  C   UNL     1       0.435   4.417   2.704  1.00  0.00     0.010 A 
ATOM     24  C   UNL     1      -0.499   6.755   2.548  1.00  0.00     0.065 A 
ATOM     25  N   UNL     1      -1.213   7.601   1.870  1.00  0.00    -0.280 NA
ATOM     26  C   UNL     1       1.006   4.755   3.876  1.00  0.00     0.001 A 
ATOM     27  C   UNL     1       0.277   7.089   3.767  1.00  0.00     0.028 A 
ATOM     28  C   UNL     1       0.984   6.120   4.370  1.00  0.00     0.002 A 
ENDBRANCH  19  20
ENDBRANCH   5  19
ENDBRANCH   3   5
ENDBRANCH   2   3
ENDBRANCH   1   2
BRANCH   1  29
ATOM     29  C   UNL     1       3.586   7.769   0.706  1.00  0.00     0.275 C 
BRANCH  29  30
ATOM     30  O   UNL     1       4.023   6.380   0.859  1.00  0.00    -0.458 OA
BRANCH  30  31
ATOM     31  C   UNL     1       3.263   5.255   0.762  1.00  0.00     0.338 C 
ATOM     32  O   UNL     1       3.433   4.241   1.421  1.00  0.00    -0.246 OA
BRANCH  31  33
ATOM     33  C   UNL     1       2.349   5.231  -0.381  1.00  0.00     0.060 A 
ATOM     34  C   UNL     1       2.930   4.452  -1.913  1.00  0.00     0.016 A 
ATOM     35  C   UNL     1       1.155   6.581  -0.488  1.00  0.00     0.016 A 
ATOM     36  C   UNL     1       2.420   5.181  -3.506  1.00  0.00     0.010 A 
ATOM     37  C   UNL     1       0.578   7.192  -2.088  1.00  0.00     0.010 A 
ATOM     38  C   UNL     1       1.380   6.643  -3.575  1.00  0.00    -0.014 A 
BRANCH  38  39
ATOM     39  C   UNL     1       1.549   7.873  -4.584  1.00  0.00     0.031 A 
ATOM     40  C   UNL     1       0.253   7.878  -5.274  1.00  0.00     0.074 A 
ATOM     41  C   UNL     1       2.378   8.968  -4.867  1.00  0.00     0.049 A 
ATOM     42  N   UNL     1      -0.026   6.999  -6.176  1.00  0.00    -0.248 NA
ATOM     43  C   UNL     1      -0.924   8.548  -4.698  1.00  0.00     0.031 C 
ATOM     44  C   UNL     1       3.659   9.421  -4.282  1.00  0.00     0.029 A 
ATOM     45  N   UNL     1       2.211  10.002  -5.834  1.00  0.00    -0.354 N 
ATOM     46  C   UNL     1      -1.326   7.270  -6.519  1.00  0.00     0.074 A 
ATOM     47  C   UNL     1      -1.897   7.919  -5.368  1.00  0.00     0.031 C 
ATOM     48  C   UNL     1       4.031  10.659  -4.743  1.00  0.00     0.029 A 
ATOM     49  C   UNL     1       3.091  11.142  -5.757  1.00  0.00     0.049 A 
ATOM     50  H   UNL     1       1.518   9.940  -6.531  1.00  0.00     0.167 HD
ATOM     51  C   UNL     1      -1.683   7.322  -7.829  1.00  0.00     0.031 A 
ATOM     52  C   UNL     1       3.327  12.197  -6.647  1.00  0.00     0.031 A 
ATOM     53  C   UNL     1      -0.567   6.953  -8.677  1.00  0.00     0.049 A 
ATOM     54  C   UNL     1       2.847  11.733  -7.961  1.00  0.00     0.074 A 
ATOM     55  C   UNL     1       0.212   5.829  -8.854  1.00  0.00     0.029 A 
ATOM     56  N   UNL     1       0.167   8.018  -9.139  1.00  0.00    -0.354 N 
ATOM     57  N   UNL     1       3.436  10.808  -8.652  1.00  0.00    -0.248 NA
ATOM     58  C   UNL     1       1.455  11.991  -8.267  1.00  0.00     0.031 C 
ATOM     59  C   UNL     1       1.529   6.309  -9.110  1.00  0.00     0.029 A 
ATOM     60  C   UNL     1       1.496   7.700  -9.210  1.00  0.00     0.049 A 
ATOM     61  H   UNL     1      -0.212   8.893  -9.386  1.00  0.00     0.167 HD
ATOM     62  C   UNL     1       2.384  10.023  -9.084  1.00  0.00     0.074 A 
ATOM     63  C   UNL     1       1.185  10.843  -8.886  1.00  0.00     0.031 C 
ATOM     64  C   UNL     1       2.563   8.682  -9.251  1.00  0.00     0.031 A 
BRANCH  51  65
ATOM     65  C   UNL     1      -2.850   8.107  -8.348  1.00  0.00    -0.014 A 
ATOM     66  C   UNL     1      -3.505   9.132  -7.636  1.00  0.00     0.010 A 
ATOM     67  C   UNL     1      -3.230   7.911  -9.687  1.00  0.00     0.010 A 
ATOM     68  C   UNL     1      -4.561   9.854  -8.189  1.00  0.00     0.020 A 
ATOM     69  C   UNL     1      -4.261   8.657 -10.266  1.00  0.00     0.020 A 
ATOM     70  C   UNL     1      -4.945   9.597  -9.498  1.00  0.00     0.054 A 
BRANCH  70  71
ATOM     71  S   UNL     1      -6.370  10.485 -10.162  1.00  0.00     0.124 S 
ATOM     72  O   UNL     1      -7.449  10.002  -9.302  1.00  0.00    -0.237 OA
ATOM     73  O   UNL     1      -5.988  11.880  -9.969  1.00  0.00    -0.237 OA
ATOM     74  O   UNL     1      -6.435  10.040 -11.551  1.00  0.00    -0.744 OA
ENDBRANCH  70  71
ENDBRANCH  51  65
BRANCH  52  75
ATOM     75  C   UNL     1       3.358  13.741  -6.508  1.00  0.00    -0.014 A 
ATOM     76  C   UNL     1       2.795  14.359  -5.384  1.00  0.00     0.010 A 
ATOM     77  C   UNL     1       3.601  14.616  -7.625  1.00  0.00     0.010 A 
ATOM     78  C   UNL     1       2.397  15.721  -5.393  1.00  0.00     0.020 A 
ATOM     79  C   UNL     1       3.211  15.990  -7.639  1.00  0.00     0.020 A 
ATOM     80  C   UNL     1       2.563  16.520  -6.527  1.00  0.00     0.054 A 
BRANCH  80  81
ATOM     81  S   UNL     1       1.827  18.200  -6.526  1.00  0.00     0.124 S 
ATOM     82  O   UNL     1       0.396  17.907  -6.493  1.00  0.00    -0.237 OA
ATOM     83  O   UNL     1       2.369  18.785  -5.302  1.00  0.00    -0.237 OA
ATOM     84  O   UNL     1       2.309  18.806  -7.765  1.00  0.00    -0.744 OA
ENDBRANCH  80  81
ENDBRANCH  52  75
BRANCH  64  85
ATOM     85  C   UNL     1       3.981   8.141  -9.340  1.00  0.00    -0.014 A 
ATOM     86  C   UNL     1       4.270   7.364 -10.476  1.00  0.00     0.010 A 
ATOM     87  C   UNL     1       4.949   8.207  -8.316  1.00  0.00     0.010 A 
ATOM     88  C   UNL     1       5.442   6.616 -10.564  1.00  0.00     0.020 A 
ATOM     89  C   UNL     1       6.152   7.479  -8.414  1.00  0.00     0.020 A 
ATOM     90  C   UNL     1       6.373   6.663  -9.527  1.00  0.00     0.054 A 
BRANCH  90  91
ATOM     91  S   UNL     1       7.847   5.615  -9.673  1.00  0.00     0.124 S 
ATOM     92  O   UNL     1       7.286   4.271  -9.550  1.00  0.00    -0.237 OA
ATOM     93  O   UNL     1       8.352   5.957 -11.002  1.00  0.00    -0.237 OA
ATOM     94  O   UNL     1       8.697   6.037  -8.563  1.00  0.00    -0.744 OA
ENDBRANCH  90  91
ENDBRANCH  64  85
ENDBRANCH  38  39
ENDBRANCH  31  33
ENDBRANCH  30  31
ENDBRANCH  29  30
ENDBRANCH   1  29
TORSDOF 19
