REMARK SMILES Cc1ccc([C@@H](C)Nc2ccc(N)cc2C(=O)OCCOC(=O)c2ccc(-c3c4nc(c(-c5ccc(S(=O)(=O)[O-])cc5)c5ccc([nH]5)c(-c5ccc(S(=O)(=O)[O-])cc5)c5nc(c(-c6ccc(S(=O)(=O)[O-])cc6)c6ccc3[nH]6)C=C5)C=C4)cc2)cc1F
REMARK SMILES IDX 19 1 18 2 16 3 17 4 15 5 9 6 10 7 11 8 14 9 12 10 8 11 6 13
REMARK SMILES IDX 7 14 5 15 1 16 2 17 3 18 85 19 4 20 84 21 86 22 13 23 20 26
REMARK SMILES IDX 21 27 22 28 23 29 24 30 25 31 83 32 26 33 82 34 27 35 28 36
REMARK SMILES IDX 29 37 76 38 30 39 81 40 75 41 77 42 31 43 80 44 74 45 73 46
REMARK SMILES IDX 32 48 62 49 43 50 61 51 44 52 47 53 60 54 78 55 45 56 46 57
REMARK SMILES IDX 59 59 79 60 48 61 33 62 34 63 42 64 35 65 41 66 36 67 37 68
REMARK SMILES IDX 38 69 39 70 40 71 63 72 64 73 72 74 65 75 71 76 66 77 67 78
REMARK SMILES IDX 68 79 69 80 70 81 49 82 50 83 58 84 51 85 57 86 52 87 53 88
REMARK SMILES IDX 54 89 55 90 56 91
REMARK H PARENT 8 12 13 24 13 25 77 47 47 58
REMARK Flexibility Score: inf
ROOT
ATOM      1  C   UNL     1      -2.634  -2.215  -2.580  1.00  0.00     0.275 C 
ENDROOT
BRANCH   1   2
ATOM      2  O   UNL     1      -2.501  -2.997  -1.370  1.00  0.00    -0.458 OA
BRANCH   2   3
ATOM      3  C   UNL     1      -3.602  -3.687  -0.981  1.00  0.00     0.340 C 
ATOM      4  O   UNL     1      -4.638  -3.819  -1.613  1.00  0.00    -0.246 OA
BRANCH   3   5
ATOM      5  C   UNL     1      -3.359  -4.380   0.298  1.00  0.00     0.085 A 
ATOM      6  C   UNL     1      -3.060  -3.759   1.519  1.00  0.00     0.049 A 
ATOM      7  C   UNL     1      -2.829  -4.638   2.605  1.00  0.00     0.029 A 
ATOM      8  C   UNL     1      -2.881  -6.033   2.494  1.00  0.00     0.027 A 
ATOM      9  C   UNL     1      -3.469  -5.791   0.207  1.00  0.00     0.043 A 
ATOM     10  C   UNL     1      -3.182  -6.627   1.282  1.00  0.00     0.032 A 
BRANCH   6  11
ATOM     11  N   UNL     1      -3.048  -2.425   1.861  1.00  0.00    -0.378 N 
ATOM     12  H   UNL     1      -2.755  -2.294   2.792  1.00  0.00     0.161 HD
BRANCH  11  13
ATOM     13  C   UNL     1      -3.354  -1.155   1.213  1.00  0.00     0.106 C 
ATOM     14  C   UNL     1      -4.608  -1.127   0.349  1.00  0.00     0.036 C 
BRANCH  13  15
ATOM     15  C   UNL     1      -2.115  -0.457   0.667  1.00  0.00    -0.023 A 
ATOM     16  C   UNL     1       1.489   1.732  -0.329  1.00  0.00     0.047 C 
ATOM     17  C   UNL     1       0.225   0.984  -0.038  1.00  0.00    -0.015 A 
ATOM     18  C   UNL     1      -1.015   1.627   0.010  1.00  0.00     0.007 A 
ATOM     19  C   UNL     1       0.274  -0.385   0.219  1.00  0.00     0.126 A 
ATOM     20  C   UNL     1      -2.170   0.914   0.358  1.00  0.00     0.006 A 
ATOM     21  C   UNL     1      -0.871  -1.100   0.563  1.00  0.00     0.045 A 
ATOM     22  F   UNL     1       1.450  -1.026   0.174  1.00  0.00    -0.207 F 
ENDBRANCH  13  15
ENDBRANCH  11  13
ENDBRANCH   6  11
BRANCH  10  23
ATOM     23  N   UNL     1      -3.320  -7.998   1.181  1.00  0.00    -0.399 N 
ATOM     24  H   UNL     1      -3.111  -8.572   1.954  1.00  0.00     0.156 HD
ATOM     25  H   UNL     1      -3.626  -8.402   0.337  1.00  0.00     0.156 HD
ENDBRANCH  10  23
ENDBRANCH   3   5
ENDBRANCH   2   3
ENDBRANCH   1   2
BRANCH   1  26
ATOM     26  C   UNL     1      -1.394  -2.366  -3.452  1.00  0.00     0.275 C 
BRANCH  26  27
ATOM     27  O   UNL     1      -1.416  -3.689  -4.003  1.00  0.00    -0.458 OA
BRANCH  27  28
ATOM     28  C   UNL     1      -0.419  -4.507  -3.605  1.00  0.00     0.338 C 
ATOM     29  O   UNL     1       0.607  -4.222  -3.019  1.00  0.00    -0.246 OA
BRANCH  28  30
ATOM     30  C   UNL     1      -0.842  -5.876  -3.914  1.00  0.00     0.060 A 
ATOM     31  C   UNL     1      -1.817  -6.460  -3.104  1.00  0.00     0.016 A 
ATOM     32  C   UNL     1      -0.237  -6.593  -4.940  1.00  0.00     0.016 A 
ATOM     33  C   UNL     1      -2.159  -7.797  -3.276  1.00  0.00     0.010 A 
ATOM     34  C   UNL     1      -0.614  -7.921  -5.143  1.00  0.00     0.010 A 
ATOM     35  C   UNL     1      -1.550  -8.544  -4.292  1.00  0.00    -0.014 A 
BRANCH  35  36
ATOM     36  C   UNL     1      -1.781 -10.005  -4.408  1.00  0.00     0.031 A 
ATOM     37  C   UNL     1      -0.624 -10.936  -4.168  1.00  0.00     0.074 A 
ATOM     38  C   UNL     1      -2.990 -10.502  -4.729  1.00  0.00     0.049 A 
ATOM     39  N   UNL     1      -0.500 -12.199  -4.479  1.00  0.00    -0.248 NA
ATOM     40  C   UNL     1       0.556 -10.357  -3.505  1.00  0.00     0.031 C 
ATOM     41  C   UNL     1      -4.216  -9.722  -4.898  1.00  0.00     0.029 A 
ATOM     42  N   UNL     1      -3.378 -11.794  -4.981  1.00  0.00    -0.354 N 
ATOM     43  C   UNL     1       0.798 -12.546  -4.119  1.00  0.00     0.074 A 
ATOM     44  C   UNL     1       1.412 -11.367  -3.549  1.00  0.00     0.031 C 
ATOM     45  C   UNL     1      -5.222 -10.552  -5.221  1.00  0.00     0.029 A 
ATOM     46  C   UNL     1      -4.694 -11.906  -5.360  1.00  0.00     0.049 A 
ATOM     47  H   UNL     1      -2.772 -12.566  -4.899  1.00  0.00     0.167 HD
ATOM     48  C   UNL     1       1.423 -13.737  -4.272  1.00  0.00     0.031 A 
ATOM     49  C   UNL     1      -5.383 -12.969  -5.822  1.00  0.00     0.031 A 
ATOM     50  C   UNL     1       0.787 -14.910  -4.808  1.00  0.00     0.049 A 
ATOM     51  C   UNL     1      -4.667 -14.279  -6.007  1.00  0.00     0.074 A 
ATOM     52  C   UNL     1       1.330 -16.163  -5.030  1.00  0.00     0.029 A 
ATOM     53  N   UNL     1      -0.547 -14.977  -5.183  1.00  0.00    -0.354 N 
ATOM     54  N   UNL     1      -3.412 -14.572  -5.763  1.00  0.00    -0.248 NA
ATOM     55  C   UNL     1      -5.454 -15.394  -6.550  1.00  0.00     0.031 C 
ATOM     56  C   UNL     1       0.327 -16.983  -5.562  1.00  0.00     0.029 A 
ATOM     57  C   UNL     1      -0.848 -16.250  -5.633  1.00  0.00     0.049 A 
ATOM     58  H   UNL     1      -1.185 -14.229  -5.136  1.00  0.00     0.167 HD
ATOM     59  C   UNL     1      -3.260 -15.908  -6.118  1.00  0.00     0.074 A 
ATOM     60  C   UNL     1      -4.555 -16.369  -6.575  1.00  0.00     0.031 C 
ATOM     61  C   UNL     1      -2.147 -16.682  -6.078  1.00  0.00     0.031 A 
BRANCH  48  62
ATOM     62  C   UNL     1       2.881 -13.802  -3.913  1.00  0.00    -0.014 A 
ATOM     63  C   UNL     1       3.311 -13.818  -2.575  1.00  0.00     0.010 A 
ATOM     64  C   UNL     1       3.840 -13.850  -4.942  1.00  0.00     0.010 A 
ATOM     65  C   UNL     1       4.676 -13.838  -2.273  1.00  0.00     0.020 A 
ATOM     66  C   UNL     1       5.205 -13.892  -4.644  1.00  0.00     0.020 A 
ATOM     67  C   UNL     1       5.615 -13.866  -3.310  1.00  0.00     0.054 A 
BRANCH  67  68
ATOM     68  S   UNL     1       7.381 -13.897  -2.896  1.00  0.00     0.124 S 
ATOM     69  O   UNL     1       7.634 -12.500  -2.554  1.00  0.00    -0.237 OA
ATOM     70  O   UNL     1       7.436 -14.836  -1.778  1.00  0.00    -0.237 OA
ATOM     71  O   UNL     1       8.015 -14.363  -4.127  1.00  0.00    -0.744 OA
ENDBRANCH  67  68
ENDBRANCH  48  62
BRANCH  49  72
ATOM     72  C   UNL     1      -6.814 -12.817  -6.199  1.00  0.00    -0.014 A 
ATOM     73  C   UNL     1      -7.826 -13.386  -5.408  1.00  0.00     0.010 A 
ATOM     74  C   UNL     1      -7.173 -12.077  -7.341  1.00  0.00     0.010 A 
ATOM     75  C   UNL     1      -9.172 -13.220  -5.753  1.00  0.00     0.020 A 
ATOM     76  C   UNL     1      -8.516 -11.887  -7.675  1.00  0.00     0.020 A 
ATOM     77  C   UNL     1      -9.508 -12.468  -6.882  1.00  0.00     0.054 A 
BRANCH  77  78
ATOM     78  S   UNL     1     -11.260 -12.197  -7.273  1.00  0.00     0.124 S 
ATOM     79  O   UNL     1     -11.624 -13.453  -7.919  1.00  0.00    -0.237 OA
ATOM     80  O   UNL     1     -11.850 -11.968  -5.956  1.00  0.00    -0.237 OA
ATOM     81  O   UNL     1     -11.235 -11.025  -8.146  1.00  0.00    -0.744 OA
ENDBRANCH  77  78
ENDBRANCH  49  72
BRANCH  61  82
ATOM     82  C   UNL     1      -2.293 -18.114  -6.507  1.00  0.00    -0.014 A 
ATOM     83  C   UNL     1      -2.352 -18.458  -7.868  1.00  0.00     0.010 A 
ATOM     84  C   UNL     1      -2.315 -19.130  -5.535  1.00  0.00     0.010 A 
ATOM     85  C   UNL     1      -2.455 -19.798  -8.250  1.00  0.00     0.020 A 
ATOM     86  C   UNL     1      -2.399 -20.471  -5.914  1.00  0.00     0.020 A 
ATOM     87  C   UNL     1      -2.482 -20.796  -7.270  1.00  0.00     0.054 A 
BRANCH  87  88
ATOM     88  S   UNL     1      -2.570 -22.532  -7.787  1.00  0.00     0.124 S 
ATOM     89  O   UNL     1      -3.986 -22.681  -8.109  1.00  0.00    -0.237 OA
ATOM     90  O   UNL     1      -1.658 -22.579  -8.927  1.00  0.00    -0.237 OA
ATOM     91  O   UNL     1      -2.118 -23.266  -6.606  1.00  0.00    -0.744 OA
ENDBRANCH  87  88
ENDBRANCH  61  82
ENDBRANCH  35  36
ENDBRANCH  28  30
ENDBRANCH  27  28
ENDBRANCH  26  27
ENDBRANCH   1  26
TORSDOF 18
