REMARK SMILES COc1ccc(NC(=O)NCc2ccc(C(=O)OCCOC(=O)c3ccc(-c4c5nc(c(-c6ccc(S(=O)(=O)[O-])cc6)c6ccc([nH]6)c(-c6ccc(S(=O)(=O)[O-])cc6)c6nc(c(-c7ccc(S(=O)(=O)[O-])cc7)c7ccc4[nH]7)C=C6)C=C5)cc3)cc2)c(OC)c1
REMARK SMILES IDX 19 1 18 2 16 3 17 4 15 5 12 6 13 7 85 8 14 9 84 10 11 11
REMARK SMILES IDX 10 12 7 13 8 14 9 16 6 18 3 19 4 20 89 21 5 22 86 23 2 24
REMARK SMILES IDX 1 25 87 26 88 27 20 28 21 29 22 30 23 31 24 32 25 33 83 34
REMARK SMILES IDX 26 35 82 36 27 37 28 38 29 39 76 40 30 41 81 42 75 43 77 44
REMARK SMILES IDX 31 45 80 46 74 47 73 48 32 50 62 51 43 52 61 53 44 54 47 55
REMARK SMILES IDX 60 56 78 57 45 58 46 59 59 61 79 62 48 63 33 64 34 65 42 66
REMARK SMILES IDX 35 67 41 68 36 69 37 70 38 71 39 72 40 73 63 74 64 75 72 76
REMARK SMILES IDX 65 77 71 78 66 79 67 80 68 81 69 82 70 83 49 84 50 85 58 86
REMARK SMILES IDX 51 87 57 88 52 89 53 90 54 91 55 92 56 93
REMARK H PARENT 7 15 10 17 77 49 47 60
REMARK Flexibility Score: inf
ROOT
ATOM      1  C   UNL     1      -5.954   0.376   5.479  1.00  0.00     0.275 C 
ENDROOT
BRANCH   1   2
ATOM      2  O   UNL     1      -4.846   1.105   4.919  1.00  0.00    -0.458 OA
BRANCH   2   3
ATOM      3  C   UNL     1      -5.169   2.236   4.247  1.00  0.00     0.338 C 
ATOM      4  O   UNL     1      -6.295   2.635   3.992  1.00  0.00    -0.246 OA
BRANCH   3   5
ATOM      5  C   UNL     1      -3.948   3.010   3.931  1.00  0.00     0.060 A 
ATOM      6  C   UNL     1      -1.728   4.552   3.219  1.00  0.00    -0.029 A 
ATOM      7  C   UNL     1      -2.895   5.188   3.618  1.00  0.00     0.006 A 
ATOM      8  C   UNL     1      -1.662   3.139   3.231  1.00  0.00     0.006 A 
ATOM      9  C   UNL     1      -4.010   4.412   3.916  1.00  0.00     0.016 A 
ATOM     10  C   UNL     1      -2.760   2.369   3.598  1.00  0.00     0.016 A 
BRANCH   6  11
ATOM     11  C   UNL     1      -0.643   5.309   2.518  1.00  0.00     0.153 C 
BRANCH  11  12
ATOM     12  N   UNL     1       0.202   6.188   3.273  1.00  0.00    -0.334 N 
ATOM     13  N   UNL     1       2.413   5.492   2.673  1.00  0.00    -0.305 N 
ATOM     14  C   UNL     1       1.546   6.317   3.312  1.00  0.00     0.319 C 
ATOM     15  H   UNL     1       3.346   5.609   2.965  1.00  0.00     0.172 HD
ATOM     16  O   UNL     1       2.015   7.173   4.069  1.00  0.00    -0.248 OA
ATOM     17  H   UNL     1      -0.283   6.806   3.866  1.00  0.00     0.165 HD
BRANCH  13  18
ATOM     18  C   UNL     1       2.262   4.504   1.684  1.00  0.00     0.085 A 
ATOM     19  C   UNL     1       1.456   2.269   0.209  1.00  0.00     0.122 A 
ATOM     20  C   UNL     1       1.040   3.550  -0.165  1.00  0.00     0.049 A 
ATOM     21  C   UNL     1       2.420   2.134   1.208  1.00  0.00     0.095 A 
ATOM     22  C   UNL     1       1.470   4.675   0.549  1.00  0.00     0.034 A 
ATOM     23  C   UNL     1       2.869   3.262   1.902  1.00  0.00     0.146 A 
BRANCH  19  24
ATOM     24  O   UNL     1       0.852   1.241  -0.461  1.00  0.00    -0.497 OA
ATOM     25  C   UNL     1       1.111  -0.075   0.017  1.00  0.00     0.278 C 
ENDBRANCH  19  24
BRANCH  23  26
ATOM     26  O   UNL     1       3.817   3.170   2.892  1.00  0.00    -0.494 OA
ATOM     27  C   UNL     1       4.977   2.462   2.453  1.00  0.00     0.278 C 
ENDBRANCH  23  26
ENDBRANCH  13  18
ENDBRANCH  11  12
ENDBRANCH   6  11
ENDBRANCH   3   5
ENDBRANCH   2   3
ENDBRANCH   1   2
BRANCH   1  28
ATOM     28  C   UNL     1      -6.107   0.686   6.968  1.00  0.00     0.275 C 
BRANCH  28  29
ATOM     29  O   UNL     1      -6.502   2.057   7.172  1.00  0.00    -0.458 OA
BRANCH  29  30
ATOM     30  C   UNL     1      -5.541   2.860   7.686  1.00  0.00     0.338 C 
ATOM     31  O   UNL     1      -4.410   2.538   8.013  1.00  0.00    -0.246 OA
BRANCH  30  32
ATOM     32  C   UNL     1      -5.993   4.260   7.740  1.00  0.00     0.060 A 
ATOM     33  C   UNL     1      -6.086   4.955   6.547  1.00  0.00     0.016 A 
ATOM     34  C   UNL     1      -6.078   4.950   8.944  1.00  0.00     0.016 A 
ATOM     35  C   UNL     1      -6.054   6.347   6.542  1.00  0.00     0.010 A 
ATOM     36  C   UNL     1      -6.246   6.345   8.932  1.00  0.00     0.010 A 
ATOM     37  C   UNL     1      -6.177   7.078   7.731  1.00  0.00    -0.014 A 
BRANCH  37  38
ATOM     38  C   UNL     1      -6.226   8.579   7.705  1.00  0.00     0.031 A 
ATOM     39  C   UNL     1      -5.356   9.404   8.632  1.00  0.00     0.074 A 
ATOM     40  C   UNL     1      -7.045   9.225   6.843  1.00  0.00     0.049 A 
ATOM     41  N   UNL     1      -5.410  10.689   8.891  1.00  0.00    -0.248 NA
ATOM     42  C   UNL     1      -4.307   8.695   9.382  1.00  0.00     0.031 C 
ATOM     43  C   UNL     1      -7.921   8.586   5.853  1.00  0.00     0.029 A 
ATOM     44  N   UNL     1      -7.271  10.568   6.645  1.00  0.00    -0.354 N 
ATOM     45  C   UNL     1      -4.459  10.924   9.882  1.00  0.00     0.074 A 
ATOM     46  C   UNL     1      -3.847   9.648  10.183  1.00  0.00     0.031 C 
ATOM     47  C   UNL     1      -8.520   9.526   5.111  1.00  0.00     0.029 A 
ATOM     48  C   UNL     1      -8.195  10.834   5.658  1.00  0.00     0.049 A 
ATOM     49  H   UNL     1      -6.816  11.273   7.160  1.00  0.00     0.167 HD
ATOM     50  C   UNL     1      -4.129  12.092  10.489  1.00  0.00     0.031 A 
ATOM     51  C   UNL     1      -8.779  11.983   5.265  1.00  0.00     0.031 A 
ATOM     52  C   UNL     1      -4.704  13.370  10.149  1.00  0.00     0.049 A 
ATOM     53  C   UNL     1      -8.436  13.255   5.982  1.00  0.00     0.074 A 
ATOM     54  C   UNL     1      -4.420  14.613  10.691  1.00  0.00     0.029 A 
ATOM     55  N   UNL     1      -5.666  13.575   9.171  1.00  0.00    -0.354 N 
ATOM     56  N   UNL     1      -7.578  13.443   6.955  1.00  0.00    -0.248 NA
ATOM     57  C   UNL     1      -9.152  14.466   5.561  1.00  0.00     0.031 C 
ATOM     58  C   UNL     1      -5.251  15.558  10.082  1.00  0.00     0.029 A 
ATOM     59  C   UNL     1      -6.003  14.918   9.111  1.00  0.00     0.049 A 
ATOM     60  H   UNL     1      -6.052  12.869   8.602  1.00  0.00     0.167 HD
ATOM     61  C   UNL     1      -7.639  14.798   7.253  1.00  0.00     0.074 A 
ATOM     62  C   UNL     1      -8.600  15.385   6.341  1.00  0.00     0.031 C 
ATOM     63  C   UNL     1      -6.961  15.492   8.199  1.00  0.00     0.031 A 
BRANCH  50  64
ATOM     64  C   UNL     1      -3.131  12.046  11.623  1.00  0.00    -0.014 A 
ATOM     65  C   UNL     1      -1.767  11.779  11.406  1.00  0.00     0.010 A 
ATOM     66  C   UNL     1      -3.565  12.331  12.933  1.00  0.00     0.010 A 
ATOM     67  C   UNL     1      -0.869  11.754  12.479  1.00  0.00     0.020 A 
ATOM     68  C   UNL     1      -2.666  12.339  14.003  1.00  0.00     0.020 A 
ATOM     69  C   UNL     1      -1.325  12.032  13.772  1.00  0.00     0.054 A 
BRANCH  69  70
ATOM     70  S   UNL     1      -0.135  12.011  15.143  1.00  0.00     0.124 S 
ATOM     71  O   UNL     1       0.145  10.583  15.278  1.00  0.00    -0.237 OA
ATOM     72  O   UNL     1       0.966  12.820  14.625  1.00  0.00    -0.237 OA
ATOM     73  O   UNL     1      -0.873  12.607  16.254  1.00  0.00    -0.744 OA
ENDBRANCH  69  70
ENDBRANCH  50  64
BRANCH  51  74
ATOM     74  C   UNL     1      -9.804  11.963   4.181  1.00  0.00    -0.014 A 
ATOM     75  C   UNL     1      -9.554  12.578   2.943  1.00  0.00     0.010 A 
ATOM     76  C   UNL     1     -11.031  11.297   4.376  1.00  0.00     0.010 A 
ATOM     77  C   UNL     1     -10.512  12.536   1.925  1.00  0.00     0.020 A 
ATOM     78  C   UNL     1     -11.973  11.219   3.348  1.00  0.00     0.020 A 
ATOM     79  C   UNL     1     -11.713  11.850   2.132  1.00  0.00     0.054 A 
BRANCH  79  80
ATOM     80  S   UNL     1     -12.913  11.755   0.775  1.00  0.00     0.124 S 
ATOM     81  O   UNL     1     -13.444  13.114   0.744  1.00  0.00    -0.237 OA
ATOM     82  O   UNL     1     -12.077  11.375  -0.361  1.00  0.00    -0.237 OA
ATOM     83  O   UNL     1     -13.851  10.726   1.219  1.00  0.00    -0.744 OA
ENDBRANCH  79  80
ENDBRANCH  51  74
BRANCH  63  84
ATOM     84  C   UNL     1      -7.200  16.976   8.267  1.00  0.00    -0.014 A 
ATOM     85  C   UNL     1      -8.410  17.501   8.754  1.00  0.00     0.010 A 
ATOM     86  C   UNL     1      -6.178  17.858   7.872  1.00  0.00     0.010 A 
ATOM     87  C   UNL     1      -8.605  18.884   8.812  1.00  0.00     0.020 A 
ATOM     88  C   UNL     1      -6.358  19.240   7.958  1.00  0.00     0.020 A 
ATOM     89  C   UNL     1      -7.577  19.744   8.415  1.00  0.00     0.054 A 
BRANCH  89  90
ATOM     90  S   UNL     1      -7.840  21.534   8.541  1.00  0.00     0.124 S 
ATOM     91  O   UNL     1      -8.780  21.781   7.451  1.00  0.00    -0.237 OA
ATOM     92  O   UNL     1      -8.387  21.683   9.888  1.00  0.00    -0.237 OA
ATOM     93  O   UNL     1      -6.505  22.096   8.351  1.00  0.00    -0.744 OA
ENDBRANCH  89  90
ENDBRANCH  63  84
ENDBRANCH  37  38
ENDBRANCH  30  32
ENDBRANCH  29  30
ENDBRANCH  28  29
ENDBRANCH   1  28
TORSDOF 19
