REMARK SMILES Cc1ccnc(-n2c(C)nc3c(C(=O)OCCOC(=O)c4ccc(-c5c6nc(c(-c7ccc(S(=O)(=O)[O-])cc7)c7ccc([nH]7)c(-c7ccc(S(=O)(=O)[O-])cc7)c7nc(c(-c8ccc(S(=O)(=O)[O-])cc8)c8ccc5[nH]8)C=C7)C=C6)cc4)cccc32)c1
REMARK SMILES IDX 17 1 16 2 15 3 13 4 14 5 12 6 7 7 8 8 84 9 9 10 10 11 11 12
REMARK SMILES IDX 83 13 82 14 81 15 6 16 1 17 2 18 3 19 85 20 4 21 5 22 18 23
REMARK SMILES IDX 19 24 20 25 21 26 22 27 80 28 23 29 79 30 24 31 25 32 26 33
REMARK SMILES IDX 73 34 27 35 78 36 72 37 74 38 28 39 77 40 71 41 70 42 29 44
REMARK SMILES IDX 59 45 40 46 58 47 41 48 44 49 57 50 75 51 42 52 43 53 56 55
REMARK SMILES IDX 76 56 45 57 30 58 31 59 39 60 32 61 38 62 33 63 34 64 35 65
REMARK SMILES IDX 36 66 37 67 60 68 61 69 69 70 62 71 68 72 63 73 64 74 65 75
REMARK SMILES IDX 66 76 67 77 46 78 47 79 55 80 48 81 54 82 49 83 50 84 51 85
REMARK SMILES IDX 52 86 53 87
REMARK H PARENT 74 43 44 54
REMARK Flexibility Score: inf
ROOT
ATOM      1  C   UNL     1       5.844  -8.209  -1.429  1.00  0.00     0.275 C 
ENDROOT
BRANCH   1   2
ATOM      2  C   UNL     1       4.369  -8.230  -1.853  1.00  0.00     0.275 C 
BRANCH   2   3
ATOM      3  O   UNL     1       3.905  -6.948  -2.364  1.00  0.00    -0.458 OA
BRANCH   3   4
ATOM      4  C   UNL     1       2.870  -6.407  -1.669  1.00  0.00     0.340 C 
ATOM      5  O   UNL     1       2.429  -6.864  -0.628  1.00  0.00    -0.246 OA
BRANCH   4   6
ATOM      6  C   UNL     1       2.128  -5.353  -2.389  1.00  0.00     0.087 A 
ATOM      7  N   UNL     1       1.337  -1.981  -1.566  1.00  0.00    -0.281 N 
ATOM      8  C   UNL     1       2.587  -2.139  -0.977  1.00  0.00     0.112 A 
ATOM      9  C   UNL     1       1.103  -3.143  -2.301  1.00  0.00     0.075 A 
ATOM     10  C   UNL     1       3.171  -1.179   0.007  1.00  0.00     0.088 C 
ATOM     11  N   UNL     1       3.089  -3.332  -1.227  1.00  0.00    -0.232 NA
ATOM     12  C   UNL     1       2.152  -4.009  -1.957  1.00  0.00     0.104 A 
ATOM     13  C   UNL     1       0.124  -3.522  -3.232  1.00  0.00     0.029 A 
ATOM     14  C   UNL     1       0.192  -4.823  -3.756  1.00  0.00     0.003 A 
ATOM     15  C   UNL     1       1.144  -5.743  -3.308  1.00  0.00     0.018 A 
BRANCH   7  16
ATOM     16  C   UNL     1       0.497  -0.850  -1.320  1.00  0.00     0.138 A 
ATOM     17  C   UNL     1      -2.990  -0.038  -0.041  1.00  0.00     0.044 C 
ATOM     18  C   UNL     1      -1.557   0.071  -0.484  1.00  0.00    -0.046 A 
ATOM     19  C   UNL     1      -0.903   1.295  -0.325  1.00  0.00     0.023 A 
ATOM     20  C   UNL     1      -0.856  -1.020  -1.031  1.00  0.00     0.051 A 
ATOM     21  C   UNL     1       0.423   1.385  -0.687  1.00  0.00     0.114 A 
ATOM     22  N   UNL     1       1.133   0.344  -1.167  1.00  0.00    -0.239 NA
ENDBRANCH   7  16
ENDBRANCH   4   6
ENDBRANCH   3   4
ENDBRANCH   2   3
ENDBRANCH   1   2
BRANCH   1  23
ATOM     23  O   UNL     1       5.921  -7.917  -0.024  1.00  0.00    -0.458 OA
BRANCH  23  24
ATOM     24  C   UNL     1       6.315  -6.663   0.289  1.00  0.00     0.338 C 
ATOM     25  O   UNL     1       7.132  -5.979  -0.316  1.00  0.00    -0.246 OA
BRANCH  24  26
ATOM     26  C   UNL     1       5.299  -6.151   1.225  1.00  0.00     0.060 A 
ATOM     27  C   UNL     1       4.774  -6.910   2.283  1.00  0.00     0.016 A 
ATOM     28  C   UNL     1       4.678  -4.976   0.832  1.00  0.00     0.016 A 
ATOM     29  C   UNL     1       3.560  -6.534   2.877  1.00  0.00     0.010 A 
ATOM     30  C   UNL     1       3.455  -4.651   1.395  1.00  0.00     0.010 A 
ATOM     31  C   UNL     1       2.865  -5.426   2.388  1.00  0.00    -0.014 A 
BRANCH  31  32
ATOM     32  C   UNL     1       1.571  -4.971   2.914  1.00  0.00     0.031 A 
ATOM     33  C   UNL     1       1.605  -3.823   3.875  1.00  0.00     0.074 A 
ATOM     34  C   UNL     1       0.356  -5.291   2.405  1.00  0.00     0.049 A 
ATOM     35  N   UNL     1       1.052  -3.768   5.044  1.00  0.00    -0.248 NA
ATOM     36  C   UNL     1       2.306  -2.580   3.508  1.00  0.00     0.031 C 
ATOM     37  C   UNL     1       0.018  -6.079   1.221  1.00  0.00     0.029 A 
ATOM     38  N   UNL     1      -0.876  -4.874   2.834  1.00  0.00    -0.354 N 
ATOM     39  C   UNL     1       1.229  -2.470   5.510  1.00  0.00     0.074 A 
ATOM     40  C   UNL     1       2.022  -1.778   4.532  1.00  0.00     0.031 C 
ATOM     41  C   UNL     1      -1.295  -5.931   0.916  1.00  0.00     0.029 A 
ATOM     42  C   UNL     1      -1.935  -5.189   1.985  1.00  0.00     0.049 A 
ATOM     43  H   UNL     1      -1.004  -4.387   3.680  1.00  0.00     0.167 HD
ATOM     44  C   UNL     1       0.648  -2.007   6.647  1.00  0.00     0.031 A 
ATOM     45  C   UNL     1      -3.245  -4.889   2.171  1.00  0.00     0.031 A 
ATOM     46  C   UNL     1       0.258  -3.077   7.521  1.00  0.00     0.049 A 
ATOM     47  C   UNL     1      -3.422  -4.633   3.616  1.00  0.00     0.074 A 
ATOM     48  C   UNL     1       0.959  -4.118   8.100  1.00  0.00     0.029 A 
ATOM     49  N   UNL     1      -1.063  -3.442   7.578  1.00  0.00    -0.354 N 
ATOM     50  N   UNL     1      -3.331  -5.545   4.540  1.00  0.00    -0.248 NA
ATOM     51  C   UNL     1      -3.417  -3.258   4.080  1.00  0.00     0.031 C 
ATOM     52  C   UNL     1       0.100  -5.245   7.971  1.00  0.00     0.029 A 
ATOM     53  C   UNL     1      -1.094  -4.804   7.393  1.00  0.00     0.049 A 
ATOM     54  H   UNL     1      -1.835  -2.847   7.723  1.00  0.00     0.167 HD
ATOM     55  C   UNL     1      -2.840  -4.873   5.645  1.00  0.00     0.074 A 
ATOM     56  C   UNL     1      -3.041  -3.458   5.343  1.00  0.00     0.031 C 
ATOM     57  C   UNL     1      -2.073  -5.504   6.582  1.00  0.00     0.031 A 
BRANCH  44  58
ATOM     58  C   UNL     1       0.281  -0.572   6.872  1.00  0.00    -0.014 A 
ATOM     59  C   UNL     1       0.069   0.326   5.804  1.00  0.00     0.010 A 
ATOM     60  C   UNL     1      -0.087  -0.142   8.161  1.00  0.00     0.010 A 
ATOM     61  C   UNL     1      -0.466   1.600   6.009  1.00  0.00     0.020 A 
ATOM     62  C   UNL     1      -0.658   1.120   8.372  1.00  0.00     0.020 A 
ATOM     63  C   UNL     1      -0.841   1.984   7.293  1.00  0.00     0.054 A 
BRANCH  63  64
ATOM     64  S   UNL     1      -1.655   3.588   7.505  1.00  0.00     0.124 S 
ATOM     65  O   UNL     1      -0.559   4.519   7.250  1.00  0.00    -0.237 OA
ATOM     66  O   UNL     1      -2.697   3.547   6.483  1.00  0.00    -0.237 OA
ATOM     67  O   UNL     1      -2.135   3.550   8.884  1.00  0.00    -0.744 OA
ENDBRANCH  63  64
ENDBRANCH  44  58
BRANCH  45  68
ATOM     68  C   UNL     1      -4.361  -4.609   1.232  1.00  0.00    -0.014 A 
ATOM     69  C   UNL     1      -4.105  -4.011  -0.014  1.00  0.00     0.010 A 
ATOM     70  C   UNL     1      -5.683  -4.564   1.728  1.00  0.00     0.010 A 
ATOM     71  C   UNL     1      -5.098  -3.265  -0.667  1.00  0.00     0.020 A 
ATOM     72  C   UNL     1      -6.676  -3.811   1.086  1.00  0.00     0.020 A 
ATOM     73  C   UNL     1      -6.357  -3.120  -0.080  1.00  0.00     0.054 A 
BRANCH  73  74
ATOM     74  S   UNL     1      -7.501  -1.891  -0.777  1.00  0.00     0.124 S 
ATOM     75  O   UNL     1      -6.770  -0.646  -0.553  1.00  0.00    -0.237 OA
ATOM     76  O   UNL     1      -7.604  -2.313  -2.171  1.00  0.00    -0.237 OA
ATOM     77  O   UNL     1      -8.717  -2.055   0.015  1.00  0.00    -0.744 OA
ENDBRANCH  73  74
ENDBRANCH  45  68
BRANCH  57  78
ATOM     78  C   UNL     1      -1.975  -7.023   6.585  1.00  0.00    -0.014 A 
ATOM     79  C   UNL     1      -2.040  -7.673   7.833  1.00  0.00     0.010 A 
ATOM     80  C   UNL     1      -1.616  -7.793   5.460  1.00  0.00     0.010 A 
ATOM     81  C   UNL     1      -1.702  -9.022   7.969  1.00  0.00     0.020 A 
ATOM     82  C   UNL     1      -1.311  -9.159   5.582  1.00  0.00     0.020 A 
ATOM     83  C   UNL     1      -1.323  -9.755   6.845  1.00  0.00     0.054 A 
BRANCH  83  84
ATOM     84  S   UNL     1      -0.818 -11.483   7.073  1.00  0.00     0.124 S 
ATOM     85  O   UNL     1       0.513 -11.342   7.659  1.00  0.00    -0.237 OA
ATOM     86  O   UNL     1      -1.842 -12.005   7.977  1.00  0.00    -0.237 OA
ATOM     87  O   UNL     1      -0.847 -12.043   5.724  1.00  0.00    -0.744 OA
ENDBRANCH  83  84
ENDBRANCH  57  78
ENDBRANCH  31  32
ENDBRANCH  24  26
ENDBRANCH  23  24
ENDBRANCH   1  23
TORSDOF 15
