REMARK SMILES Cc1ccnc(C(=O)c2[nH]c3ccc(C(C)(C)C)cc3c2CC(=O)OCCOC(=O)c2ccc(-c3c4nc(c(-c5ccc(S(=O)(=O)[O-])cc5)c5ccc([nH]5)c(-c5ccc(S(=O)(=O)[O-])cc5)c5nc(c(-c6ccc(S(=O)(=O)[O-])cc6)c6ccc3[nH]6)C=C5)C=C4)cc2)c1
REMARK SMILES IDX 26 1 25 2 23 3 24 4 22 5 21 6 9 7 10 8 11 9 20 11 12 12
REMARK SMILES IDX 19 13 13 14 14 15 7 16 8 17 6 18 1 19 2 20 3 21 91 22 4 23
REMARK SMILES IDX 5 24 15 25 16 26 17 27 18 28 27 29 28 30 29 31 30 32 31 33
REMARK SMILES IDX 32 34 90 35 33 36 89 37 34 38 35 39 36 40 83 41 37 42 88 43
REMARK SMILES IDX 82 44 84 45 38 46 87 47 81 48 80 49 39 51 69 52 50 53 68 54
REMARK SMILES IDX 51 55 54 56 67 57 85 58 52 59 53 60 66 62 86 63 55 64 40 65
REMARK SMILES IDX 41 66 49 67 42 68 48 69 43 70 44 71 45 72 46 73 47 74 70 75
REMARK SMILES IDX 71 76 79 77 72 78 78 79 73 80 74 81 75 82 76 83 77 84 56 85
REMARK SMILES IDX 57 86 65 87 58 88 64 89 59 90 60 91 61 92 62 93 63 94
REMARK H PARENT 10 10 84 50 54 61
REMARK Flexibility Score: inf
ROOT
ATOM      1  C   UNL     1       5.176  -5.343   0.613  1.00  0.00     0.274 C 
ENDROOT
BRANCH   1   2
ATOM      2  O   UNL     1       3.747  -5.172   0.487  1.00  0.00    -0.462 OA
BRANCH   2   3
ATOM      3  C   UNL     1       3.053  -5.044   1.645  1.00  0.00     0.310 C 
ATOM      4  O   UNL     1       3.546  -5.202   2.760  1.00  0.00    -0.252 OA
BRANCH   3   5
ATOM      5  C   UNL     1       1.642  -4.524   1.483  1.00  0.00     0.161 C 
BRANCH   5   6
ATOM      6  C   UNL     1       0.869  -4.893   0.258  1.00  0.00     0.000 A 
ATOM      7  C   UNL     1       0.715  -4.152  -0.913  1.00  0.00     0.093 A 
ATOM      8  N   UNL     1      -0.119  -4.867  -1.736  1.00  0.00    -0.352 N 
ATOM      9  C   UNL     1      -0.640  -5.950  -1.085  1.00  0.00     0.046 A 
ATOM     10  H   UNL     1      -0.317  -4.630  -2.672  1.00  0.00     0.167 HD
ATOM     11  C   UNL     1       0.011  -6.044   0.138  1.00  0.00     0.004 A 
ATOM     12  C   UNL     1      -1.626  -6.843  -1.494  1.00  0.00     0.027 A 
ATOM     13  C   UNL     1      -0.309  -7.139   0.976  1.00  0.00     0.015 A 
ATOM     14  C   UNL     1      -1.942  -7.899  -0.633  1.00  0.00     0.006 A 
ATOM     15  C   UNL     1      -1.290  -8.087   0.596  1.00  0.00    -0.042 A 
BRANCH   7  16
ATOM     16  C   UNL     1       1.261  -2.889  -1.389  1.00  0.00     0.227 C 
ATOM     17  O   UNL     1       1.995  -2.873  -2.375  1.00  0.00    -0.285 OA
BRANCH  16  18
ATOM     18  C   UNL     1       0.688  -1.589  -0.865  1.00  0.00     0.113 A 
ATOM     19  C   UNL     1      -2.571  -0.188   0.498  1.00  0.00     0.044 C 
ATOM     20  C   UNL     1      -1.173  -0.301  -0.036  1.00  0.00    -0.047 A 
ATOM     21  C   UNL     1      -0.477   0.855  -0.392  1.00  0.00     0.023 A 
ATOM     22  C   UNL     1      -0.571  -1.546  -0.260  1.00  0.00     0.036 A 
ATOM     23  C   UNL     1       0.778   0.723  -0.959  1.00  0.00     0.112 A 
ATOM     24  N   UNL     1       1.370  -0.463  -1.207  1.00  0.00    -0.253 NA
ENDBRANCH  16  18
ENDBRANCH   7  16
BRANCH  15  25
ATOM     25  C   UNL     1      -1.604  -9.287   1.509  1.00  0.00    -0.013 C 
ATOM     26  C   UNL     1      -0.344 -10.169   1.637  1.00  0.00     0.016 C 
ATOM     27  C   UNL     1      -2.029  -8.799   2.910  1.00  0.00     0.016 C 
ATOM     28  C   UNL     1      -2.743 -10.191   0.980  1.00  0.00     0.016 C 
ENDBRANCH  15  25
ENDBRANCH   5   6
ENDBRANCH   3   5
ENDBRANCH   2   3
ENDBRANCH   1   2
BRANCH   1  29
ATOM     29  C   UNL     1       5.933  -4.065   0.227  1.00  0.00     0.275 C 
BRANCH  29  30
ATOM     30  O   UNL     1       5.678  -2.976   1.141  1.00  0.00    -0.458 OA
BRANCH  30  31
ATOM     31  C   UNL     1       4.606  -2.233   0.796  1.00  0.00     0.338 C 
ATOM     32  O   UNL     1       3.862  -2.426  -0.153  1.00  0.00    -0.246 OA
BRANCH  31  33
ATOM     33  C   UNL     1       4.307  -1.175   1.759  1.00  0.00     0.060 A 
ATOM     34  C   UNL     1       3.312  -1.426   2.702  1.00  0.00     0.016 A 
ATOM     35  C   UNL     1       4.788   0.120   1.556  1.00  0.00     0.016 A 
ATOM     36  C   UNL     1       2.727  -0.367   3.382  1.00  0.00     0.010 A 
ATOM     37  C   UNL     1       4.256   1.174   2.307  1.00  0.00     0.010 A 
ATOM     38  C   UNL     1       3.197   0.943   3.199  1.00  0.00    -0.014 A 
BRANCH  38  39
ATOM     39  C   UNL     1       2.579   2.034   3.994  1.00  0.00     0.031 A 
ATOM     40  C   UNL     1       1.729   3.093   3.349  1.00  0.00     0.074 A 
ATOM     41  C   UNL     1       2.725   2.005   5.332  1.00  0.00     0.049 A 
ATOM     42  N   UNL     1       1.048   4.056   3.917  1.00  0.00    -0.248 NA
ATOM     43  C   UNL     1       1.616   3.066   1.884  1.00  0.00     0.031 C 
ATOM     44  C   UNL     1       3.505   1.010   6.074  1.00  0.00     0.029 A 
ATOM     45  N   UNL     1       2.201   2.811   6.308  1.00  0.00    -0.354 N 
ATOM     46  C   UNL     1       0.414   4.738   2.885  1.00  0.00     0.074 A 
ATOM     47  C   UNL     1       0.814   4.098   1.650  1.00  0.00     0.031 C 
ATOM     48  C   UNL     1       3.372   1.238   7.388  1.00  0.00     0.029 A 
ATOM     49  C   UNL     1       2.549   2.425   7.580  1.00  0.00     0.049 A 
ATOM     50  H   UNL     1       1.631   3.591   6.117  1.00  0.00     0.167 HD
ATOM     51  C   UNL     1      -0.426   5.798   2.961  1.00  0.00     0.031 A 
ATOM     52  C   UNL     1       2.256   2.975   8.771  1.00  0.00     0.031 A 
ATOM     53  C   UNL     1      -0.789   6.463   4.186  1.00  0.00     0.049 A 
ATOM     54  C   UNL     1       1.403   4.207   8.816  1.00  0.00     0.074 A 
ATOM     55  C   UNL     1      -1.614   7.562   4.360  1.00  0.00     0.029 A 
ATOM     56  N   UNL     1      -0.340   6.099   5.446  1.00  0.00    -0.354 N 
ATOM     57  N   UNL     1       0.816   4.836   7.826  1.00  0.00    -0.248 NA
ATOM     58  C   UNL     1       1.183   4.807  10.137  1.00  0.00     0.031 C 
ATOM     59  C   UNL     1      -1.630   7.887   5.723  1.00  0.00     0.029 A 
ATOM     60  C   UNL     1      -0.848   6.966   6.399  1.00  0.00     0.049 A 
ATOM     61  H   UNL     1       0.253   5.336   5.635  1.00  0.00     0.167 HD
ATOM     62  C   UNL     1       0.157   5.911   8.406  1.00  0.00     0.074 A 
ATOM     63  C   UNL     1       0.395   5.829   9.834  1.00  0.00     0.031 C 
ATOM     64  C   UNL     1      -0.576   6.884   7.810  1.00  0.00     0.031 A 
BRANCH  51  65
ATOM     65  C   UNL     1      -1.003   6.322   1.675  1.00  0.00    -0.014 A 
ATOM     66  C   UNL     1      -2.086   5.671   1.058  1.00  0.00     0.010 A 
ATOM     67  C   UNL     1      -0.501   7.508   1.109  1.00  0.00     0.010 A 
ATOM     68  C   UNL     1      -2.646   6.187  -0.114  1.00  0.00     0.020 A 
ATOM     69  C   UNL     1      -1.067   8.034  -0.056  1.00  0.00     0.020 A 
ATOM     70  C   UNL     1      -2.130   7.363  -0.666  1.00  0.00     0.054 A 
BRANCH  70  71
ATOM     71  S   UNL     1      -2.895   8.028  -2.171  1.00  0.00     0.124 S 
ATOM     72  O   UNL     1      -2.398   7.106  -3.190  1.00  0.00    -0.237 OA
ATOM     73  O   UNL     1      -4.323   7.927  -1.877  1.00  0.00    -0.237 OA
ATOM     74  O   UNL     1      -2.373   9.389  -2.254  1.00  0.00    -0.744 OA
ENDBRANCH  70  71
ENDBRANCH  51  65
BRANCH  52  75
ATOM     75  C   UNL     1       2.821   2.385  10.011  1.00  0.00    -0.014 A 
ATOM     76  C   UNL     1       2.001   1.697  10.920  1.00  0.00     0.010 A 
ATOM     77  C   UNL     1       4.200   2.494  10.270  1.00  0.00     0.010 A 
ATOM     78  C   UNL     1       2.550   1.137  12.077  1.00  0.00     0.020 A 
ATOM     79  C   UNL     1       4.755   1.914  11.411  1.00  0.00     0.020 A 
ATOM     80  C   UNL     1       3.924   1.250  12.315  1.00  0.00     0.054 A 
BRANCH  80  81
ATOM     81  S   UNL     1       4.640   0.471  13.789  1.00  0.00     0.124 S 
ATOM     82  O   UNL     1       4.428   1.497  14.804  1.00  0.00    -0.237 OA
ATOM     83  O   UNL     1       3.839  -0.742  13.937  1.00  0.00    -0.237 OA
ATOM     84  O   UNL     1       6.031   0.244  13.404  1.00  0.00    -0.744 OA
ENDBRANCH  80  81
ENDBRANCH  52  75
BRANCH  64  85
ATOM     85  C   UNL     1      -1.163   7.927   8.717  1.00  0.00    -0.014 A 
ATOM     86  C   UNL     1      -0.352   8.937   9.267  1.00  0.00     0.010 A 
ATOM     87  C   UNL     1      -2.530   7.886   9.039  1.00  0.00     0.010 A 
ATOM     88  C   UNL     1      -0.890   9.860  10.165  1.00  0.00     0.020 A 
ATOM     89  C   UNL     1      -3.075   8.821   9.922  1.00  0.00     0.020 A 
ATOM     90  C   UNL     1      -2.247   9.787  10.498  1.00  0.00     0.054 A 
BRANCH  90  91
ATOM     91  S   UNL     1      -2.934  10.987  11.671  1.00  0.00     0.124 S 
ATOM     92  O   UNL     1      -2.594  10.382  12.955  1.00  0.00    -0.237 OA
ATOM     93  O   UNL     1      -2.213  12.216  11.345  1.00  0.00    -0.237 OA
ATOM     94  O   UNL     1      -4.358  11.005  11.345  1.00  0.00    -0.744 OA
ENDBRANCH  90  91
ENDBRANCH  64  85
ENDBRANCH  38  39
ENDBRANCH  31  33
ENDBRANCH  30  31
ENDBRANCH  29  30
ENDBRANCH   1  29
TORSDOF 18
