REMARK SMILES C[C@H](SC1CCOCC1)c1ccc(C(=O)OCCOC(=O)c2ccc(-c3c4nc(c(-c5ccc(S(=O)(=O)[O-])cc5)c5ccc([nH]5)c(-c5ccc(S(=O)(=O)[O-])cc5)c5nc(c(-c6ccc(S(=O)(=O)[O-])cc6)c6ccc3[nH]6)C=C5)C=C4)cc2)o1
REMARK SMILES IDX 17 1 16 2 14 3 15 4 13 5 10 6 11 7 82 8 12 9 2 10 1 11 3 12
REMARK SMILES IDX 4 13 5 14 9 15 6 16 8 17 7 18 18 19 19 20 20 21 21 22 22 23
REMARK SMILES IDX 23 24 81 25 24 26 80 27 25 28 26 29 27 30 74 31 28 32 79 33
REMARK SMILES IDX 73 34 75 35 29 36 78 37 72 38 71 39 30 41 60 42 41 43 59 44
REMARK SMILES IDX 42 45 45 46 58 47 76 48 43 49 44 50 57 52 77 53 46 54 31 55
REMARK SMILES IDX 32 56 40 57 33 58 39 59 34 60 35 61 36 62 37 63 38 64 61 65
REMARK SMILES IDX 62 66 70 67 63 68 69 69 64 70 65 71 66 72 67 73 68 74 47 75
REMARK SMILES IDX 48 76 56 77 49 78 55 79 50 80 51 81 52 82 53 83 54 84
REMARK H PARENT 75 40 45 51
REMARK Flexibility Score: inf
ROOT
ATOM      1  C   UNL     1      -6.560   3.307  -0.508  1.00  0.00     0.275 C 
ENDROOT
BRANCH   1   2
ATOM      2  O   UNL     1      -5.563   2.267  -0.493  1.00  0.00    -0.456 OA
BRANCH   2   3
ATOM      3  C   UNL     1      -4.391   2.565  -1.133  1.00  0.00     0.374 C 
ATOM      4  O   UNL     1      -4.212   3.571  -1.804  1.00  0.00    -0.242 OA
BRANCH   3   5
ATOM      5  C   UNL     1      -3.382   1.580  -0.811  1.00  0.00     0.211 A 
ATOM      6  C   UNL     1      -1.274   0.981  -0.462  1.00  0.00     0.117 A 
ATOM      7  C   UNL     1      -2.063  -0.059  -0.009  1.00  0.00     0.048 A 
ATOM      8  O   UNL     1      -2.077   1.937  -1.015  1.00  0.00    -0.453 OA
ATOM      9  C   UNL     1      -3.413   0.325  -0.233  1.00  0.00     0.058 A 
BRANCH   6  10
ATOM     10  C   UNL     1       0.175   1.347  -0.330  1.00  0.00     0.110 C 
ATOM     11  C   UNL     1       0.631   2.422  -1.310  1.00  0.00     0.028 C 
BRANCH  10  12
ATOM     12  S   UNL     1       1.324  -0.068  -0.130  1.00  0.00    -0.147 SA
BRANCH  12  13
ATOM     13  C   UNL     1       1.531  -0.840  -1.780  1.00  0.00     0.052 C 
ATOM     14  C   UNL     1       2.081   0.039  -2.900  1.00  0.00     0.043 C 
ATOM     15  C   UNL     1       0.308  -1.616  -2.257  1.00  0.00     0.043 C 
ATOM     16  C   UNL     1       2.355  -0.818  -4.131  1.00  0.00     0.161 C 
ATOM     17  C   UNL     1       0.677  -2.390  -3.520  1.00  0.00     0.161 C 
ATOM     18  O   UNL     1       1.173  -1.515  -4.532  1.00  0.00    -0.381 OA
ENDBRANCH  12  13
ENDBRANCH  10  12
ENDBRANCH   6  10
ENDBRANCH   3   5
ENDBRANCH   2   3
ENDBRANCH   1   2
BRANCH   1  19
ATOM     19  C   UNL     1      -6.542   4.129   0.788  1.00  0.00     0.275 C 
BRANCH  19  20
ATOM     20  O   UNL     1      -5.395   4.997   0.870  1.00  0.00    -0.458 OA
BRANCH  20  21
ATOM     21  C   UNL     1      -4.322   4.478   1.515  1.00  0.00     0.338 C 
ATOM     22  O   UNL     1      -4.247   3.374   2.029  1.00  0.00    -0.246 OA
BRANCH  21  23
ATOM     23  C   UNL     1      -3.173   5.394   1.401  1.00  0.00     0.060 A 
ATOM     24  C   UNL     1      -2.001   4.892   0.832  1.00  0.00     0.016 A 
ATOM     25  C   UNL     1      -3.208   6.699   1.900  1.00  0.00     0.016 A 
ATOM     26  C   UNL     1      -0.862   5.687   0.754  1.00  0.00     0.010 A 
ATOM     27  C   UNL     1      -2.058   7.498   1.823  1.00  0.00     0.010 A 
ATOM     28  C   UNL     1      -0.876   6.993   1.255  1.00  0.00    -0.014 A 
BRANCH  28  29
ATOM     29  C   UNL     1       0.373   7.792   1.209  1.00  0.00     0.031 A 
ATOM     30  C   UNL     1       1.201   7.964   2.450  1.00  0.00     0.074 A 
ATOM     31  C   UNL     1       0.799   8.303   0.038  1.00  0.00     0.049 A 
ATOM     32  N   UNL     1       2.324   8.615   2.608  1.00  0.00    -0.248 NA
ATOM     33  C   UNL     1       0.702   7.313   3.671  1.00  0.00     0.031 C 
ATOM     34  C   UNL     1       0.116   8.151  -1.248  1.00  0.00     0.029 A 
ATOM     35  N   UNL     1       1.917   9.040  -0.261  1.00  0.00    -0.354 N 
ATOM     36  C   UNL     1       2.663   8.466   3.947  1.00  0.00     0.074 A 
ATOM     37  C   UNL     1       1.617   7.675   4.561  1.00  0.00     0.031 C 
ATOM     38  C   UNL     1       0.838   8.765  -2.200  1.00  0.00     0.029 A 
ATOM     39  C   UNL     1       2.010   9.385  -1.588  1.00  0.00     0.049 A 
ATOM     40  H   UNL     1       2.589   9.297   0.411  1.00  0.00     0.167 HD
ATOM     41  C   UNL     1       3.746   8.945   4.607  1.00  0.00     0.031 A 
ATOM     42  C   UNL     1       2.926  10.131  -2.236  1.00  0.00     0.031 A 
ATOM     43  C   UNL     1       4.782   9.737   3.999  1.00  0.00     0.049 A 
ATOM     44  C   UNL     1       4.083  10.709  -1.469  1.00  0.00     0.074 A 
ATOM     45  C   UNL     1       5.917  10.268   4.586  1.00  0.00     0.029 A 
ATOM     46  N   UNL     1       4.807  10.118   2.666  1.00  0.00    -0.354 N 
ATOM     47  N   UNL     1       4.383  10.565  -0.201  1.00  0.00    -0.248 NA
ATOM     48  C   UNL     1       5.022  11.553  -2.221  1.00  0.00     0.031 C 
ATOM     49  C   UNL     1       6.607  11.007   3.617  1.00  0.00     0.029 A 
ATOM     50  C   UNL     1       5.925  10.897   2.416  1.00  0.00     0.049 A 
ATOM     51  H   UNL     1       4.130   9.870   1.995  1.00  0.00     0.167 HD
ATOM     52  C   UNL     1       5.554  11.289  -0.004  1.00  0.00     0.074 A 
ATOM     53  C   UNL     1       5.915  11.858  -1.288  1.00  0.00     0.031 C 
ATOM     54  C   UNL     1       6.265  11.466   1.136  1.00  0.00     0.031 A 
BRANCH  41  55
ATOM     55  C   UNL     1       3.831   8.659   6.081  1.00  0.00    -0.014 A 
ATOM     56  C   UNL     1       4.163   7.378   6.559  1.00  0.00     0.010 A 
ATOM     57  C   UNL     1       3.581   9.692   7.002  1.00  0.00     0.010 A 
ATOM     58  C   UNL     1       4.195   7.125   7.933  1.00  0.00     0.020 A 
ATOM     59  C   UNL     1       3.633   9.447   8.377  1.00  0.00     0.020 A 
ATOM     60  C   UNL     1       3.918   8.158   8.834  1.00  0.00     0.054 A 
BRANCH  60  61
ATOM     61  S   UNL     1       3.954   7.805  10.613  1.00  0.00     0.124 S 
ATOM     62  O   UNL     1       2.684   7.109  10.805  1.00  0.00    -0.237 OA
ATOM     63  O   UNL     1       5.151   6.979  10.755  1.00  0.00    -0.237 OA
ATOM     64  O   UNL     1       4.039   9.128  11.226  1.00  0.00    -0.744 OA
ENDBRANCH  60  61
ENDBRANCH  41  55
BRANCH  42  65
ATOM     65  C   UNL     1       2.768  10.389  -3.693  1.00  0.00    -0.014 A 
ATOM     66  C   UNL     1       3.618   9.773  -4.627  1.00  0.00     0.010 A 
ATOM     67  C   UNL     1       1.744  11.237  -4.152  1.00  0.00     0.010 A 
ATOM     68  C   UNL     1       3.447  10.001  -5.996  1.00  0.00     0.020 A 
ATOM     69  C   UNL     1       1.556  11.451  -5.520  1.00  0.00     0.020 A 
ATOM     70  C   UNL     1       2.415  10.836  -6.434  1.00  0.00     0.054 A 
BRANCH  70  71
ATOM     71  S   UNL     1       2.163  11.064  -8.217  1.00  0.00     0.124 S 
ATOM     72  O   UNL     1       3.225  12.006  -8.555  1.00  0.00    -0.237 OA
ATOM     73  O   UNL     1       2.328   9.709  -8.737  1.00  0.00    -0.237 OA
ATOM     74  O   UNL     1       0.803  11.593  -8.303  1.00  0.00    -0.744 OA
ENDBRANCH  70  71
ENDBRANCH  42  65
BRANCH  54  75
ATOM     75  C   UNL     1       7.516  12.296   1.046  1.00  0.00    -0.014 A 
ATOM     76  C   UNL     1       7.450  13.697   0.946  1.00  0.00     0.010 A 
ATOM     77  C   UNL     1       8.775  11.671   1.112  1.00  0.00     0.010 A 
ATOM     78  C   UNL     1       8.622  14.457   0.887  1.00  0.00     0.020 A 
ATOM     79  C   UNL     1       9.948  12.428   1.074  1.00  0.00     0.020 A 
ATOM     80  C   UNL     1       9.864  13.817   0.948  1.00  0.00     0.054 A 
BRANCH  80  81
ATOM     81  S   UNL     1      11.373  14.825   0.914  1.00  0.00     0.124 S 
ATOM     82  O   UNL     1      11.482  15.158  -0.504  1.00  0.00    -0.237 OA
ATOM     83  O   UNL     1      11.038  15.939   1.797  1.00  0.00    -0.237 OA
ATOM     84  O   UNL     1      12.402  13.922   1.424  1.00  0.00    -0.744 OA
ENDBRANCH  80  81
ENDBRANCH  54  75
ENDBRANCH  28  29
ENDBRANCH  21  23
ENDBRANCH  20  21
ENDBRANCH  19  20
ENDBRANCH   1  19
TORSDOF 17
