REMARK SMILES C[C@H]([C@@H](C)C(=O)OCCOC(=O)c1ccc(-c2c3nc(c(-c4ccc(S(=O)(=O)[O-])cc4)c4ccc([nH]4)c(-c4ccc(S(=O)(=O)[O-])cc4)c4nc(c(-c5ccc(S(=O)(=O)[O-])cc5)c5ccc2[nH]5)C=C4)C=C3)cc1)[S@@](=O)c1ccc2ccccc2c1
REMARK SMILES IDX 8 1 7 2 5 3 6 4 3 5 4 6 2 7 1 8 73 9 74 10 75 11 76 12 84 13
REMARK SMILES IDX 77 14 83 15 78 16 82 17 79 18 81 19 80 20 9 21 10 22 11 23
REMARK SMILES IDX 12 24 13 25 14 26 72 27 15 28 71 29 16 30 17 31 18 32 65 33
REMARK SMILES IDX 19 34 70 35 64 36 66 37 20 38 69 39 63 40 62 41 21 43 51 44
REMARK SMILES IDX 32 45 50 46 33 47 36 48 49 49 67 50 34 51 35 52 48 54 68 55
REMARK SMILES IDX 37 56 22 57 23 58 31 59 24 60 30 61 25 62 26 63 27 64 28 65
REMARK SMILES IDX 29 66 52 67 53 68 61 69 54 70 60 71 55 72 56 73 57 74 58 75
REMARK SMILES IDX 59 76 38 77 39 78 47 79 40 80 46 81 41 82 42 83 43 84 44 85
REMARK SMILES IDX 45 86
REMARK H PARENT 66 42 36 53
REMARK Flexibility Score: inf
ROOT
ATOM      1  C   UNL     1       4.011   0.029  -1.915  1.00  0.00     0.274 C 
ENDROOT
BRANCH   1   2
ATOM      2  O   UNL     1       3.006  -0.614  -1.103  1.00  0.00    -0.462 OA
BRANCH   2   3
ATOM      3  C   UNL     1       2.308   0.199  -0.271  1.00  0.00     0.309 C 
ATOM      4  O   UNL     1       2.555   1.389  -0.104  1.00  0.00    -0.252 OA
BRANCH   3   5
ATOM      5  C   UNL     1       1.181  -0.498   0.479  1.00  0.00     0.112 C 
ATOM      6  C   UNL     1       1.624  -0.651   1.935  1.00  0.00     0.021 C 
BRANCH   5   7
ATOM      7  C   UNL     1       0.656  -1.784  -0.201  1.00  0.00     0.095 C 
ATOM      8  C   UNL     1       1.107  -3.092   0.447  1.00  0.00     0.023 C 
BRANCH   7   9
ATOM      9  S   UNL     1      -1.179  -1.770  -0.499  1.00  0.00     0.057 S 
ATOM     10  O   UNL     1      -1.625  -3.199  -0.625  1.00  0.00    -0.254 OA
BRANCH   9  11
ATOM     11  C   UNL     1      -1.823  -1.215   1.090  1.00  0.00     0.040 A 
ATOM     12  C   UNL     1      -2.338   0.080   1.198  1.00  0.00     0.018 A 
ATOM     13  C   UNL     1      -1.877  -2.068   2.195  1.00  0.00     0.026 A 
ATOM     14  C   UNL     1      -2.858   0.535   2.412  1.00  0.00     0.010 A 
ATOM     15  C   UNL     1      -2.378  -1.620   3.428  1.00  0.00    -0.017 A 
ATOM     16  C   UNL     1      -2.875  -0.301   3.538  1.00  0.00    -0.018 A 
ATOM     17  C   UNL     1      -2.396  -2.456   4.555  1.00  0.00     0.009 A 
ATOM     18  C   UNL     1      -3.383   0.142   4.770  1.00  0.00     0.009 A 
ATOM     19  C   UNL     1      -2.894  -1.997   5.776  1.00  0.00     0.001 A 
ATOM     20  C   UNL     1      -3.390  -0.701   5.882  1.00  0.00     0.001 A 
ENDBRANCH   9  11
ENDBRANCH   7   9
ENDBRANCH   5   7
ENDBRANCH   3   5
ENDBRANCH   2   3
ENDBRANCH   1   2
BRANCH   1  21
ATOM     21  C   UNL     1       3.486   0.393  -3.310  1.00  0.00     0.275 C 
BRANCH  21  22
ATOM     22  O   UNL     1       2.533   1.473  -3.284  1.00  0.00    -0.458 OA
BRANCH  22  23
ATOM     23  C   UNL     1       1.243   1.094  -3.144  1.00  0.00     0.338 C 
ATOM     24  O   UNL     1       0.822  -0.050  -3.040  1.00  0.00    -0.246 OA
BRANCH  23  25
ATOM     25  C   UNL     1       0.370   2.264  -2.976  1.00  0.00     0.060 A 
ATOM     26  C   UNL     1      -0.335   2.373  -1.775  1.00  0.00     0.016 A 
ATOM     27  C   UNL     1       0.155   3.176  -4.008  1.00  0.00     0.016 A 
ATOM     28  C   UNL     1      -1.278   3.378  -1.604  1.00  0.00     0.010 A 
ATOM     29  C   UNL     1      -0.787   4.197  -3.831  1.00  0.00     0.010 A 
ATOM     30  C   UNL     1      -1.520   4.293  -2.634  1.00  0.00    -0.014 A 
BRANCH  30  31
ATOM     31  C   UNL     1      -2.573   5.320  -2.455  1.00  0.00     0.031 A 
ATOM     32  C   UNL     1      -3.880   5.192  -3.185  1.00  0.00     0.074 A 
ATOM     33  C   UNL     1      -2.369   6.340  -1.600  1.00  0.00     0.049 A 
ATOM     34  N   UNL     1      -4.902   6.008  -3.192  1.00  0.00    -0.248 NA
ATOM     35  C   UNL     1      -4.063   3.988  -4.011  1.00  0.00     0.031 C 
ATOM     36  C   UNL     1      -1.163   6.537  -0.792  1.00  0.00     0.029 A 
ATOM     37  N   UNL     1      -3.174   7.396  -1.261  1.00  0.00    -0.354 N 
ATOM     38  C   UNL     1      -5.839   5.433  -4.043  1.00  0.00     0.074 A 
ATOM     39  C   UNL     1      -5.261   4.202  -4.538  1.00  0.00     0.031 C 
ATOM     40  C   UNL     1      -1.315   7.641  -0.043  1.00  0.00     0.029 A 
ATOM     41  C   UNL     1      -2.602   8.255  -0.353  1.00  0.00     0.049 A 
ATOM     42  H   UNL     1      -4.076   7.528  -1.633  1.00  0.00     0.167 HD
ATOM     43  C   UNL     1      -7.066   5.894  -4.382  1.00  0.00     0.031 A 
ATOM     44  C   UNL     1      -3.052   9.419   0.152  1.00  0.00     0.031 A 
ATOM     45  C   UNL     1      -7.638   7.116  -3.882  1.00  0.00     0.049 A 
ATOM     46  C   UNL     1      -4.394   9.937  -0.285  1.00  0.00     0.074 A 
ATOM     47  C   UNL     1      -8.878   7.664  -4.160  1.00  0.00     0.029 A 
ATOM     48  N   UNL     1      -7.009   7.980  -2.999  1.00  0.00    -0.354 N 
ATOM     49  N   UNL     1      -5.261   9.387  -1.101  1.00  0.00    -0.248 NA
ATOM     50  C   UNL     1      -4.815  11.233   0.264  1.00  0.00     0.031 C 
ATOM     51  C   UNL     1      -8.982   8.881  -3.478  1.00  0.00     0.029 A 
ATOM     52  C   UNL     1      -7.825   9.068  -2.738  1.00  0.00     0.049 A 
ATOM     53  H   UNL     1      -6.113   7.841  -2.614  1.00  0.00     0.167 HD
ATOM     54  C   UNL     1      -6.339  10.264  -1.152  1.00  0.00     0.074 A 
ATOM     55  C   UNL     1      -6.020  11.371  -0.273  1.00  0.00     0.031 C 
ATOM     56  C   UNL     1      -7.488  10.162  -1.864  1.00  0.00     0.031 A 
BRANCH  43  57
ATOM     57  C   UNL     1      -7.856   5.092  -5.381  1.00  0.00    -0.014 A 
ATOM     58  C   UNL     1      -8.477   3.882  -5.022  1.00  0.00     0.010 A 
ATOM     59  C   UNL     1      -8.006   5.577  -6.693  1.00  0.00     0.010 A 
ATOM     60  C   UNL     1      -9.204   3.154  -5.969  1.00  0.00     0.020 A 
ATOM     61  C   UNL     1      -8.749   4.863  -7.636  1.00  0.00     0.020 A 
ATOM     62  C   UNL     1      -9.329   3.646  -7.272  1.00  0.00     0.054 A 
BRANCH  62  63
ATOM     63  S   UNL     1     -10.290   2.692  -8.480  1.00  0.00     0.124 S 
ATOM     64  O   UNL     1      -9.365   1.611  -8.812  1.00  0.00    -0.237 OA
ATOM     65  O   UNL     1     -11.469   2.296  -7.716  1.00  0.00    -0.237 OA
ATOM     66  O   UNL     1     -10.541   3.649  -9.556  1.00  0.00    -0.744 OA
ENDBRANCH  62  63
ENDBRANCH  43  57
BRANCH  44  67
ATOM     67  C   UNL     1      -2.208  10.188   1.104  1.00  0.00    -0.014 A 
ATOM     68  C   UNL     1      -2.559  10.278   2.462  1.00  0.00     0.010 A 
ATOM     69  C   UNL     1      -1.034  10.822   0.656  1.00  0.00     0.010 A 
ATOM     70  C   UNL     1      -1.757  10.998   3.353  1.00  0.00     0.020 A 
ATOM     71  C   UNL     1      -0.218  11.521   1.548  1.00  0.00     0.020 A 
ATOM     72  C   UNL     1      -0.590  11.614   2.890  1.00  0.00     0.054 A 
BRANCH  72  73
ATOM     73  S   UNL     1       0.470  12.492   4.072  1.00  0.00     0.124 S 
ATOM     74  O   UNL     1      -0.252  13.747   4.252  1.00  0.00    -0.237 OA
ATOM     75  O   UNL     1       0.475  11.593   5.224  1.00  0.00    -0.237 OA
ATOM     76  O   UNL     1       1.747  12.597   3.370  1.00  0.00    -0.744 OA
ENDBRANCH  72  73
ENDBRANCH  44  67
BRANCH  56  77
ATOM     77  C   UNL     1      -8.497  11.264  -1.700  1.00  0.00    -0.014 A 
ATOM     78  C   UNL     1      -8.307  12.517  -2.308  1.00  0.00     0.010 A 
ATOM     79  C   UNL     1      -9.672  11.027  -0.965  1.00  0.00     0.010 A 
ATOM     80  C   UNL     1      -9.264  13.525  -2.160  1.00  0.00     0.020 A 
ATOM     81  C   UNL     1     -10.641  12.024  -0.833  1.00  0.00     0.020 A 
ATOM     82  C   UNL     1     -10.424  13.273  -1.421  1.00  0.00     0.054 A 
BRANCH  82  83
ATOM     83  S   UNL     1     -11.672  14.581  -1.275  1.00  0.00     0.124 S 
ATOM     84  O   UNL     1     -11.078  15.456  -0.269  1.00  0.00    -0.237 OA
ATOM     85  O   UNL     1     -11.728  15.127  -2.629  1.00  0.00    -0.237 OA
ATOM     86  O   UNL     1     -12.873  13.865  -0.849  1.00  0.00    -0.744 OA
ENDBRANCH  82  83
ENDBRANCH  56  77
ENDBRANCH  30  31
ENDBRANCH  23  25
ENDBRANCH  22  23
ENDBRANCH  21  22
ENDBRANCH   1  21
TORSDOF 17
