REMARK SMILES Cc1cc(C)n(C)c(=O)c1C(=O)[NH+]1CCC2(CC1)C[NH2+][C@@H](C(=O)OCCOC(=O)c1ccc(-c3c4nc(c(-c5ccc(S(=O)(=O)[O-])cc5)c5ccc([nH]5)c(-c5ccc(S(=O)(=O)[O-])cc5)c5nc(c(-c6ccc(S(=O)(=O)[O-])cc6)c6ccc3[nH]6)C=C5)C=C4)cc1)C2
REMARK SMILES IDX 26 1 25 2 24 3 22 4 23 5 21 6 13 7 14 8 18 9 15 11 17 12
REMARK SMILES IDX 16 13 19 14 90 15 20 16 11 19 12 20 10 21 1 22 2 23 3 24
REMARK SMILES IDX 4 25 8 26 5 27 6 28 9 29 7 30 27 31 28 32 29 33 30 34 31 35
REMARK SMILES IDX 89 36 32 37 88 38 33 39 34 40 35 41 82 42 36 43 87 44 81 45
REMARK SMILES IDX 83 46 37 47 86 48 80 49 79 50 38 52 68 53 49 54 67 55 50 56
REMARK SMILES IDX 53 57 66 58 84 59 51 60 52 61 65 63 85 64 54 65 39 66 40 67
REMARK SMILES IDX 48 68 41 69 47 70 42 71 43 72 44 73 45 74 46 75 69 76 70 77
REMARK SMILES IDX 78 78 71 79 77 80 72 81 73 82 74 83 75 84 76 85 55 86 56 87
REMARK SMILES IDX 64 88 57 89 63 90 58 91 59 92 60 93 61 94 62 95
REMARK H PARENT 13 10 20 17 20 18 83 51 53 62
REMARK Flexibility Score: inf
ROOT
ATOM      1  C   UNL     1       5.392   1.770   7.710  1.00  0.00     0.275 C 
ENDROOT
BRANCH   1   2
ATOM      2  C   UNL     1       5.003   0.318   7.429  1.00  0.00     0.274 C 
BRANCH   2   3
ATOM      3  O   UNL     1       4.081   0.264   6.329  1.00  0.00    -0.458 OA
BRANCH   3   4
ATOM      4  C   UNL     1       2.795  -0.035   6.639  1.00  0.00     0.364 C 
ATOM      5  O   UNL     1       2.409  -0.414   7.742  1.00  0.00    -0.245 OA
BRANCH   4   6
ATOM      6  C   UNL     1       1.839   0.146   5.466  1.00  0.00     0.294 C 
ATOM      7  N   UNL     1       1.315   2.096   0.599  1.00  0.00    -0.267 N 
ATOM      8  C   UNL     1       0.846   2.746   1.815  1.00  0.00     0.271 C 
ATOM      9  C   UNL     1       2.530   1.319   0.784  1.00  0.00     0.271 C 
ATOM     10  H   UNL     1       0.532   1.514   0.737  1.00  0.00     0.357 HD
ATOM     11  C   UNL     1       0.347   1.655   2.749  1.00  0.00     0.075 C 
ATOM     12  C   UNL     1       2.433   0.304   1.938  1.00  0.00     0.075 C 
ATOM     13  C   UNL     1       1.451   0.631   3.110  1.00  0.00     0.036 C 
ATOM     14  C   UNL     1       0.777  -0.674   3.617  1.00  0.00     0.268 C 
ATOM     15  C   UNL     1       2.237   1.117   4.357  1.00  0.00     0.090 C 
ATOM     16  N   UNL     1       1.611  -1.114   4.733  1.00  0.00    -0.334 N 
ATOM     17  H   UNL     1       2.490  -1.514   4.403  1.00  0.00     0.347 HD
ATOM     18  H   UNL     1       1.184  -1.846   5.300  1.00  0.00     0.347 HD
BRANCH   7  19
ATOM     19  C   UNL     1       0.609   2.330  -0.573  1.00  0.00     0.350 C 
ATOM     20  O   UNL     1      -0.158   3.293  -0.663  1.00  0.00    -0.225 OA
BRANCH  19  21
ATOM     21  C   UNL     1       0.616   1.359  -1.720  1.00  0.00     0.147 A 
ATOM     22  C   UNL     1       0.179  -0.734  -0.312  1.00  0.00     0.045 C 
ATOM     23  C   UNL     1       0.352   0.040  -1.582  1.00  0.00    -0.027 A 
ATOM     24  C   UNL     1       0.017  -0.768  -2.741  1.00  0.00     0.026 A 
ATOM     25  C   UNL     1      -0.302  -0.211  -3.917  1.00  0.00     0.018 A 
ATOM     26  C   UNL     1       0.526   1.942  -3.113  1.00  0.00     0.267 A 
ATOM     27  C   UNL     1      -0.862  -1.087  -5.004  1.00  0.00     0.064 C 
ATOM     28  N   UNL     1      -0.102   1.153  -4.095  1.00  0.00    -0.315 N 
ATOM     29  O   UNL     1       0.985   3.058  -3.358  1.00  0.00    -0.268 OA
ATOM     30  C   UNL     1      -0.490   1.807  -5.337  1.00  0.00     0.153 C 
ENDBRANCH  19  21
ENDBRANCH   7  19
ENDBRANCH   4   6
ENDBRANCH   3   4
ENDBRANCH   2   3
ENDBRANCH   1   2
BRANCH   1  31
ATOM     31  O   UNL     1       4.260   2.538   8.164  1.00  0.00    -0.458 OA
BRANCH  31  32
ATOM     32  C   UNL     1       3.623   3.250   7.204  1.00  0.00     0.338 C 
ATOM     33  O   UNL     1       3.911   3.322   6.023  1.00  0.00    -0.246 OA
BRANCH  32  34
ATOM     34  C   UNL     1       2.410   3.863   7.766  1.00  0.00     0.060 A 
ATOM     35  C   UNL     1       1.170   3.344   7.389  1.00  0.00     0.016 A 
ATOM     36  C   UNL     1       2.485   4.998   8.572  1.00  0.00     0.016 A 
ATOM     37  C   UNL     1      -0.004   3.963   7.801  1.00  0.00     0.010 A 
ATOM     38  C   UNL     1       1.303   5.611   9.002  1.00  0.00     0.010 A 
ATOM     39  C   UNL     1       0.052   5.104   8.608  1.00  0.00    -0.014 A 
BRANCH  39  40
ATOM     40  C   UNL     1      -1.208   5.779   9.001  1.00  0.00     0.031 A 
ATOM     41  C   UNL     1      -1.595   7.081   8.361  1.00  0.00     0.074 A 
ATOM     42  C   UNL     1      -2.030   5.192   9.890  1.00  0.00     0.049 A 
ATOM     43  N   UNL     1      -2.639   7.834   8.591  1.00  0.00    -0.248 NA
ATOM     44  C   UNL     1      -0.694   7.597   7.319  1.00  0.00     0.031 C 
ATOM     45  C   UNL     1      -1.800   3.891  10.520  1.00  0.00     0.029 A 
ATOM     46  N   UNL     1      -3.235   5.603  10.400  1.00  0.00    -0.354 N 
ATOM     47  C   UNL     1      -2.519   8.919   7.732  1.00  0.00     0.074 A 
ATOM     48  C   UNL     1      -1.286   8.738   6.994  1.00  0.00     0.031 C 
ATOM     49  C   UNL     1      -2.847   3.595  11.306  1.00  0.00     0.029 A 
ATOM     50  C   UNL     1      -3.793   4.707  11.279  1.00  0.00     0.049 A 
ATOM     51  H   UNL     1      -3.659   6.458  10.159  1.00  0.00     0.167 HD
ATOM     52  C   UNL     1      -3.359   9.970   7.572  1.00  0.00     0.031 A 
ATOM     53  C   UNL     1      -4.932   4.778  11.996  1.00  0.00     0.031 A 
ATOM     54  C   UNL     1      -4.572  10.157   8.323  1.00  0.00     0.049 A 
ATOM     55  C   UNL     1      -5.794   6.003  11.884  1.00  0.00     0.074 A 
ATOM     56  C   UNL     1      -5.474  11.204   8.258  1.00  0.00     0.029 A 
ATOM     57  N   UNL     1      -5.053   9.274   9.279  1.00  0.00    -0.354 N 
ATOM     58  N   UNL     1      -5.640   7.047  11.105  1.00  0.00    -0.248 NA
ATOM     59  C   UNL     1      -6.975   6.066  12.755  1.00  0.00     0.031 C 
ATOM     60  C   UNL     1      -6.477  10.976   9.208  1.00  0.00     0.029 A 
ATOM     61  C   UNL     1      -6.227   9.761   9.828  1.00  0.00     0.049 A 
ATOM     62  H   UNL     1      -4.623   8.425   9.530  1.00  0.00     0.167 HD
ATOM     63  C   UNL     1      -6.709   7.889  11.385  1.00  0.00     0.074 A 
ATOM     64  C   UNL     1      -7.509   7.226  12.396  1.00  0.00     0.031 C 
ATOM     65  C   UNL     1      -7.001   9.100  10.849  1.00  0.00     0.031 A 
BRANCH  52  66
ATOM     66  C   UNL     1      -2.954  11.020   6.573  1.00  0.00    -0.014 A 
ATOM     67  C   UNL     1      -3.018  10.773   5.189  1.00  0.00     0.010 A 
ATOM     68  C   UNL     1      -2.488  12.268   7.025  1.00  0.00     0.010 A 
ATOM     69  C   UNL     1      -2.570  11.734   4.278  1.00  0.00     0.020 A 
ATOM     70  C   UNL     1      -2.062  13.241   6.116  1.00  0.00     0.020 A 
ATOM     71  C   UNL     1      -2.083  12.957   4.748  1.00  0.00     0.054 A 
BRANCH  71  72
ATOM     72  S   UNL     1      -1.481  14.178   3.549  1.00  0.00     0.124 S 
ATOM     73  O   UNL     1      -0.197  13.603   3.156  1.00  0.00    -0.237 OA
ATOM     74  O   UNL     1      -2.518  14.161   2.522  1.00  0.00    -0.237 OA
ATOM     75  O   UNL     1      -1.398  15.413   4.325  1.00  0.00    -0.744 OA
ENDBRANCH  71  72
ENDBRANCH  52  66
BRANCH  53  76
ATOM     76  C   UNL     1      -5.306   3.643  12.880  1.00  0.00    -0.014 A 
ATOM     77  C   UNL     1      -6.343   2.771  12.508  1.00  0.00     0.010 A 
ATOM     78  C   UNL     1      -4.577   3.381  14.054  1.00  0.00     0.010 A 
ATOM     79  C   UNL     1      -6.630   1.644  13.283  1.00  0.00     0.020 A 
ATOM     80  C   UNL     1      -4.847   2.244  14.821  1.00  0.00     0.020 A 
ATOM     81  C   UNL     1      -5.870   1.380  14.428  1.00  0.00     0.054 A 
BRANCH  81  82
ATOM     82  S   UNL     1      -6.187  -0.150  15.351  1.00  0.00     0.124 S 
ATOM     83  O   UNL     1      -7.463   0.142  15.996  1.00  0.00    -0.237 OA
ATOM     84  O   UNL     1      -6.228  -1.154  14.291  1.00  0.00    -0.237 OA
ATOM     85  O   UNL     1      -5.039  -0.251  16.250  1.00  0.00    -0.744 OA
ENDBRANCH  81  82
ENDBRANCH  53  76
BRANCH  65  86
ATOM     86  C   UNL     1      -8.243   9.793  11.340  1.00  0.00    -0.014 A 
ATOM     87  C   UNL     1      -8.266  10.429  12.593  1.00  0.00     0.010 A 
ATOM     88  C   UNL     1      -9.373   9.873  10.507  1.00  0.00     0.010 A 
ATOM     89  C   UNL     1      -9.405  11.123  13.011  1.00  0.00     0.020 A 
ATOM     90  C   UNL     1     -10.506  10.583  10.912  1.00  0.00     0.020 A 
ATOM     91  C   UNL     1     -10.517  11.197  12.166  1.00  0.00     0.054 A 
BRANCH  91  92
ATOM     92  S   UNL     1     -11.959  12.157  12.706  1.00  0.00     0.124 S 
ATOM     93  O   UNL     1     -12.538  11.288  13.727  1.00  0.00    -0.237 OA
ATOM     94  O   UNL     1     -11.356  13.392  13.201  1.00  0.00    -0.237 OA
ATOM     95  O   UNL     1     -12.754  12.303  11.489  1.00  0.00    -0.744 OA
ENDBRANCH  91  92
ENDBRANCH  65  86
ENDBRANCH  39  40
ENDBRANCH  32  34
ENDBRANCH  31  32
ENDBRANCH   1  31
TORSDOF 16
