REMARK SMILES Cc1cc(C)c2c(C(=O)OCCOC(=O)c3ccc(-c4c5nc(c(-c6ccc(S(=O)(=O)[O-])cc6)c6ccc([nH]6)c(-c6ccc(S(=O)(=O)[O-])cc6)c6nc(c(-c7ccc(S(=O)(=O)[O-])cc7)c7ccc4[nH]7)C=C6)C=C5)cc3)cc(-c3ccco3)nc2c1
REMARK SMILES IDX 12 1 11 2 10 3 8 4 9 5 7 6 1 7 2 8 3 9 85 10 4 11 84 12 5 13
REMARK SMILES IDX 6 14 83 15 77 16 76 17 78 18 79 19 82 20 80 21 81 22 13 23
REMARK SMILES IDX 14 24 15 25 16 26 17 27 75 28 18 29 74 30 19 31 20 32 21 33
REMARK SMILES IDX 68 34 22 35 73 36 67 37 69 38 23 39 72 40 66 41 65 42 24 44
REMARK SMILES IDX 54 45 35 46 53 47 36 48 39 49 52 50 70 51 37 52 38 53 51 55
REMARK SMILES IDX 71 56 40 57 25 58 26 59 34 60 27 61 33 62 28 63 29 64 30 65
REMARK SMILES IDX 31 66 32 67 55 68 56 69 64 70 57 71 63 72 58 73 59 74 60 75
REMARK SMILES IDX 61 76 62 77 41 78 42 79 50 80 43 81 49 82 44 83 45 84 46 85
REMARK SMILES IDX 47 86 48 87
REMARK H PARENT 69 43 39 54
REMARK Flexibility Score: inf
ROOT
ATOM      1  C   UNL     1      -0.553   7.693   3.703  1.00  0.00     0.275 C 
ENDROOT
BRANCH   1   2
ATOM      2  C   UNL     1       0.635   6.737   3.687  1.00  0.00     0.275 C 
BRANCH   2   3
ATOM      3  O   UNL     1       0.147   5.382   3.604  1.00  0.00    -0.458 OA
BRANCH   3   4
ATOM      4  C   UNL     1       0.780   4.461   4.364  1.00  0.00     0.339 C 
ATOM      5  O   UNL     1       1.657   4.668   5.179  1.00  0.00    -0.246 OA
BRANCH   4   6
ATOM      6  C   UNL     1       0.175   3.131   4.157  1.00  0.00     0.072 A 
ATOM      7  C   UNL     1       0.880  -0.499  -0.245  1.00  0.00     0.044 C 
ATOM      8  C   UNL     1       0.631   0.504   0.838  1.00  0.00    -0.049 A 
ATOM      9  C   UNL     1       1.046   1.818   0.671  1.00  0.00     0.007 A 
ATOM     10  C   UNL     1       0.006   0.147   2.033  1.00  0.00     0.032 A 
ATOM     11  C   UNL     1       0.897   2.761   1.700  1.00  0.00    -0.041 A 
ATOM     12  C   UNL     1      -0.175   1.041   3.076  1.00  0.00     0.072 A 
ATOM     13  C   UNL     1       1.327   4.163   1.361  1.00  0.00     0.045 C 
ATOM     14  C   UNL     1       0.312   2.369   2.960  1.00  0.00     0.018 A 
ATOM     15  N   UNL     1      -0.802   0.547   4.158  1.00  0.00    -0.244 NA
ATOM     16  C   UNL     1      -0.949   1.329   5.241  1.00  0.00     0.107 A 
ATOM     17  C   UNL     1      -0.436   2.601   5.296  1.00  0.00     0.048 A 
BRANCH  16  18
ATOM     18  C   UNL     1      -1.706   0.789   6.357  1.00  0.00     0.152 A 
ATOM     19  C   UNL     1      -2.844   1.209   7.021  1.00  0.00     0.052 A 
ATOM     20  O   UNL     1      -1.195  -0.318   6.971  1.00  0.00    -0.463 OA
ATOM     21  C   UNL     1      -3.036   0.313   8.101  1.00  0.00     0.043 A 
ATOM     22  C   UNL     1      -2.005  -0.594   8.029  1.00  0.00     0.196 A 
ENDBRANCH  16  18
ENDBRANCH   4   6
ENDBRANCH   3   4
ENDBRANCH   2   3
ENDBRANCH   1   2
BRANCH   1  23
ATOM     23  O   UNL     1      -1.203   7.583   4.978  1.00  0.00    -0.458 OA
BRANCH  23  24
ATOM     24  C   UNL     1      -2.176   6.649   5.034  1.00  0.00     0.338 C 
ATOM     25  O   UNL     1      -2.701   6.045   4.113  1.00  0.00    -0.246 OA
BRANCH  24  26
ATOM     26  C   UNL     1      -2.438   6.351   6.441  1.00  0.00     0.060 A 
ATOM     27  C   UNL     1      -1.557   5.509   7.117  1.00  0.00     0.016 A 
ATOM     28  C   UNL     1      -3.604   6.806   7.046  1.00  0.00     0.016 A 
ATOM     29  C   UNL     1      -1.904   5.008   8.366  1.00  0.00     0.010 A 
ATOM     30  C   UNL     1      -3.893   6.392   8.345  1.00  0.00     0.010 A 
ATOM     31  C   UNL     1      -3.073   5.453   8.998  1.00  0.00    -0.014 A 
BRANCH  31  32
ATOM     32  C   UNL     1      -3.465   4.919  10.327  1.00  0.00     0.031 A 
ATOM     33  C   UNL     1      -4.774   4.192  10.484  1.00  0.00     0.074 A 
ATOM     34  C   UNL     1      -2.652   5.090  11.389  1.00  0.00     0.049 A 
ATOM     35  N   UNL     1      -5.365   3.790  11.578  1.00  0.00    -0.248 NA
ATOM     36  C   UNL     1      -5.525   3.887   9.252  1.00  0.00     0.031 C 
ATOM     37  C   UNL     1      -1.335   5.731  11.354  1.00  0.00     0.029 A 
ATOM     38  N   UNL     1      -2.810   4.733  12.704  1.00  0.00    -0.354 N 
ATOM     39  C   UNL     1      -6.570   3.228  11.174  1.00  0.00     0.074 A 
ATOM     40  C   UNL     1      -6.637   3.350   9.735  1.00  0.00     0.031 C 
ATOM     41  C   UNL     1      -0.790   5.684  12.579  1.00  0.00     0.029 A 
ATOM     42  C   UNL     1      -1.749   5.089  13.502  1.00  0.00     0.049 A 
ATOM     43  H   UNL     1      -3.608   4.267  13.044  1.00  0.00     0.167 HD
ATOM     44  C   UNL     1      -7.532   2.659  11.937  1.00  0.00     0.031 A 
ATOM     45  C   UNL     1      -1.575   4.984  14.834  1.00  0.00     0.031 A 
ATOM     46  C   UNL     1      -7.441   2.514  13.364  1.00  0.00     0.049 A 
ATOM     47  C   UNL     1      -2.680   4.403  15.667  1.00  0.00     0.074 A 
ATOM     48  C   UNL     1      -8.356   1.938  14.226  1.00  0.00     0.029 A 
ATOM     49  N   UNL     1      -6.369   2.937  14.135  1.00  0.00    -0.354 N 
ATOM     50  N   UNL     1      -3.832   3.917  15.273  1.00  0.00    -0.248 NA
ATOM     51  C   UNL     1      -2.475   4.372  17.122  1.00  0.00     0.031 C 
ATOM     52  C   UNL     1      -7.857   2.053  15.526  1.00  0.00     0.029 A 
ATOM     53  C   UNL     1      -6.608   2.652  15.467  1.00  0.00     0.049 A 
ATOM     54  H   UNL     1      -5.559   3.375  13.787  1.00  0.00     0.167 HD
ATOM     55  C   UNL     1      -4.486   3.511  16.428  1.00  0.00     0.074 A 
ATOM     56  C   UNL     1      -3.600   3.801  17.537  1.00  0.00     0.031 C 
ATOM     57  C   UNL     1      -5.712   2.948  16.555  1.00  0.00     0.031 A 
BRANCH  44  58
ATOM     58  C   UNL     1      -8.777   2.163  11.254  1.00  0.00    -0.014 A 
ATOM     59  C   UNL     1      -8.770   0.978  10.498  1.00  0.00     0.010 A 
ATOM     60  C   UNL     1      -9.991   2.850  11.441  1.00  0.00     0.010 A 
ATOM     61  C   UNL     1      -9.951   0.499   9.925  1.00  0.00     0.020 A 
ATOM     62  C   UNL     1     -11.179   2.362  10.889  1.00  0.00     0.020 A 
ATOM     63  C   UNL     1     -11.150   1.190  10.131  1.00  0.00     0.054 A 
BRANCH  63  64
ATOM     64  S   UNL     1     -12.670   0.522   9.400  1.00  0.00     0.124 S 
ATOM     65  O   UNL     1     -12.350   0.525   7.974  1.00  0.00    -0.237 OA
ATOM     66  O   UNL     1     -12.763  -0.795  10.021  1.00  0.00    -0.237 OA
ATOM     67  O   UNL     1     -13.700   1.477   9.803  1.00  0.00    -0.744 OA
ENDBRANCH  63  64
ENDBRANCH  44  58
BRANCH  45  68
ATOM     68  C   UNL     1      -0.306   5.465  15.443  1.00  0.00    -0.014 A 
ATOM     69  C   UNL     1       0.658   4.547  15.890  1.00  0.00     0.010 A 
ATOM     70  C   UNL     1      -0.021   6.843  15.500  1.00  0.00     0.010 A 
ATOM     71  C   UNL     1       1.892   4.997  16.370  1.00  0.00     0.020 A 
ATOM     72  C   UNL     1       1.219   7.295  15.958  1.00  0.00     0.020 A 
ATOM     73  C   UNL     1       2.170   6.367  16.386  1.00  0.00     0.054 A 
BRANCH  73  74
ATOM     74  S   UNL     1       3.808   6.915  16.945  1.00  0.00     0.124 S 
ATOM     75  O   UNL     1       3.853   6.408  18.313  1.00  0.00    -0.237 OA
ATOM     76  O   UNL     1       4.695   6.250  15.994  1.00  0.00    -0.237 OA
ATOM     77  O   UNL     1       3.746   8.370  16.820  1.00  0.00    -0.744 OA
ENDBRANCH  73  74
ENDBRANCH  45  68
BRANCH  57  78
ATOM     78  C   UNL     1      -6.182   2.583  17.934  1.00  0.00    -0.014 A 
ATOM     79  C   UNL     1      -6.705   3.562  18.794  1.00  0.00     0.010 A 
ATOM     80  C   UNL     1      -6.238   1.228  18.309  1.00  0.00     0.010 A 
ATOM     81  C   UNL     1      -7.291   3.189  20.006  1.00  0.00     0.020 A 
ATOM     82  C   UNL     1      -6.842   0.851  19.510  1.00  0.00     0.020 A 
ATOM     83  C   UNL     1      -7.370   1.835  20.347  1.00  0.00     0.054 A 
BRANCH  83  84
ATOM     84  S   UNL     1      -8.220   1.380  21.884  1.00  0.00     0.124 S 
ATOM     85  O   UNL     1      -7.424   2.073  22.893  1.00  0.00    -0.237 OA
ATOM     86  O   UNL     1      -9.562   1.911  21.668  1.00  0.00    -0.237 OA
ATOM     87  O   UNL     1      -8.126  -0.078  21.915  1.00  0.00    -0.744 OA
ENDBRANCH  83  84
ENDBRANCH  57  78
ENDBRANCH  31  32
ENDBRANCH  24  26
ENDBRANCH  23  24
ENDBRANCH   1  23
TORSDOF 15
