REMARK SMILES CCCCCCNC(=O)Oc1cccc(-c2ccc([C@@H](C)C(=O)OCCOC(=O)c3ccc(-c4c5nc(c(-c6ccc(S(=O)(=O)[O-])cc6)c6ccc([nH]6)c(-c6ccc(S(=O)(=O)[O-])cc6)c6nc(c(-c7ccc(S(=O)(=O)[O-])cc7)c7ccc4[nH]7)C=C6)C=C5)cc3)cc2)c1
REMARK SMILES IDX 20 1 21 2 19 3 16 4 17 5 91 6 18 7 90 8 15 9 11 10 12 11
REMARK SMILES IDX 92 12 13 13 14 14 10 15 8 16 7 17 9 19 6 20 5 21 4 22 3 23
REMARK SMILES IDX 2 24 1 25 22 26 23 27 24 28 25 29 26 30 27 31 28 32 29 33
REMARK SMILES IDX 30 34 31 35 89 36 32 37 88 38 33 39 34 40 35 41 82 42 36 43
REMARK SMILES IDX 87 44 81 45 83 46 37 47 86 48 80 49 79 50 38 52 68 53 49 54
REMARK SMILES IDX 67 55 50 56 53 57 66 58 84 59 51 60 52 61 65 63 85 64 54 65
REMARK SMILES IDX 39 66 40 67 48 68 41 69 47 70 42 71 43 72 44 73 45 74 46 75
REMARK SMILES IDX 69 76 70 77 78 78 71 79 77 80 72 81 73 82 74 83 75 84 76 85
REMARK SMILES IDX 55 86 56 87 64 88 57 89 63 90 58 91 59 92 60 93 61 94 62 95
REMARK H PARENT 7 18 83 51 53 62
REMARK Flexibility Score: inf
ROOT
ATOM      1  C   UNL     1      -5.487  10.414   9.250  1.00  0.00     0.126 C 
ATOM      2  C   UNL     1      -6.870  10.792   9.777  1.00  0.00     0.025 C 
ENDROOT
BRANCH   1   3
ATOM      3  C   UNL     1      -5.410   8.954   8.833  1.00  0.00    -0.034 A 
ATOM      4  C   UNL     1      -5.322   6.240   7.981  1.00  0.00    -0.018 A 
ATOM      5  C   UNL     1      -5.613   6.578   9.312  1.00  0.00     0.009 A 
ATOM      6  C   UNL     1      -5.048   7.286   7.090  1.00  0.00     0.009 A 
ATOM      7  C   UNL     1      -5.666   7.912   9.730  1.00  0.00     0.005 A 
ATOM      8  C   UNL     1      -5.090   8.622   7.507  1.00  0.00     0.005 A 
BRANCH   4   9
ATOM      9  C   UNL     1      -5.351   4.835   7.533  1.00  0.00    -0.015 A 
ATOM     10  C   UNL     1      -4.395   2.947   6.346  1.00  0.00     0.133 A 
ATOM     11  C   UNL     1      -5.502   2.157   6.649  1.00  0.00     0.047 A 
ATOM     12  C   UNL     1      -4.313   4.277   6.769  1.00  0.00     0.056 A 
ATOM     13  C   UNL     1      -6.535   2.695   7.408  1.00  0.00     0.004 A 
ATOM     14  C   UNL     1      -6.459   4.020   7.842  1.00  0.00     0.009 A 
BRANCH  10  15
ATOM     15  O   UNL     1      -3.440   2.378   5.487  1.00  0.00    -0.410 OA
BRANCH  15  16
ATOM     16  C   UNL     1      -2.112   2.361   5.888  1.00  0.00     0.412 C 
ATOM     17  N   UNL     1      -1.288   1.760   4.975  1.00  0.00    -0.321 N 
ATOM     18  H   UNL     1      -0.327   1.751   5.188  1.00  0.00     0.167 HD
ATOM     19  O   UNL     1      -1.673   2.795   6.945  1.00  0.00    -0.224 OA
BRANCH  17  20
ATOM     20  C   UNL     1      -1.681   1.135   3.727  1.00  0.00     0.119 C 
BRANCH  20  21
ATOM     21  C   UNL     1      -1.056   1.816   2.510  1.00  0.00     0.021 C 
BRANCH  21  22
ATOM     22  C   UNL     1       0.472   1.722   2.431  1.00  0.00     0.002 C 
BRANCH  22  23
ATOM     23  C   UNL     1       1.052   0.303   2.406  1.00  0.00    -0.000 C 
BRANCH  23  24
ATOM     24  C   UNL     1       0.563  -0.592   1.264  1.00  0.00    -0.003 C 
ATOM     25  C   UNL     1       0.937  -0.070  -0.114  1.00  0.00     0.004 C 
ENDBRANCH  23  24
ENDBRANCH  22  23
ENDBRANCH  21  22
ENDBRANCH  20  21
ENDBRANCH  17  20
ENDBRANCH  15  16
ENDBRANCH  10  15
ENDBRANCH   4   9
ENDBRANCH   1   3
BRANCH   1  26
ATOM     26  C   UNL     1      -4.417  10.898  10.221  1.00  0.00     0.313 C 
ATOM     27  O   UNL     1      -4.072  12.076  10.273  1.00  0.00    -0.252 OA
BRANCH  26  28
ATOM     28  O   UNL     1      -3.931   9.927  11.035  1.00  0.00    -0.462 OA
BRANCH  28  29
ATOM     29  C   UNL     1      -2.841  10.291  11.902  1.00  0.00     0.274 C 
BRANCH  29  30
ATOM     30  C   UNL     1      -1.501   9.842  11.317  1.00  0.00     0.275 C 
BRANCH  30  31
ATOM     31  O   UNL     1      -1.147  10.630  10.167  1.00  0.00    -0.458 OA
BRANCH  31  32
ATOM     32  C   UNL     1      -1.480  10.087   8.973  1.00  0.00     0.338 C 
ATOM     33  O   UNL     1      -2.005   9.009   8.767  1.00  0.00    -0.246 OA
BRANCH  32  34
ATOM     34  C   UNL     1      -1.181  11.050   7.908  1.00  0.00     0.060 A 
ATOM     35  C   UNL     1      -2.236  11.712   7.276  1.00  0.00     0.016 A 
ATOM     36  C   UNL     1       0.135  11.232   7.484  1.00  0.00     0.016 A 
ATOM     37  C   UNL     1      -1.981  12.562   6.202  1.00  0.00     0.010 A 
ATOM     38  C   UNL     1       0.390  12.091   6.415  1.00  0.00     0.010 A 
ATOM     39  C   UNL     1      -0.665  12.753   5.762  1.00  0.00    -0.014 A 
BRANCH  39  40
ATOM     40  C   UNL     1      -0.369  13.608   4.590  1.00  0.00     0.031 A 
ATOM     41  C   UNL     1       0.065  12.966   3.305  1.00  0.00     0.074 A 
ATOM     42  C   UNL     1      -0.444  14.947   4.697  1.00  0.00     0.049 A 
ATOM     43  N   UNL     1       0.588  13.520   2.242  1.00  0.00    -0.248 NA
ATOM     44  C   UNL     1      -0.107  11.508   3.205  1.00  0.00     0.031 C 
ATOM     45  C   UNL     1      -0.912  15.680   5.875  1.00  0.00     0.029 A 
ATOM     46  N   UNL     1      -0.097  15.932   3.806  1.00  0.00    -0.354 N 
ATOM     47  C   UNL     1       0.829  12.477   1.355  1.00  0.00     0.074 A 
ATOM     48  C   UNL     1       0.404  11.257   2.007  1.00  0.00     0.031 C 
ATOM     49  C   UNL     1      -0.798  16.998   5.643  1.00  0.00     0.029 A 
ATOM     50  C   UNL     1      -0.196  17.200   4.329  1.00  0.00     0.049 A 
ATOM     51  H   UNL     1       0.193  15.748   2.883  1.00  0.00     0.167 HD
ATOM     52  C   UNL     1       1.360  12.537   0.112  1.00  0.00     0.031 A 
ATOM     53  C   UNL     1       0.205  18.384   3.827  1.00  0.00     0.031 A 
ATOM     54  C   UNL     1       1.789  13.757  -0.518  1.00  0.00     0.049 A 
ATOM     55  C   UNL     1       0.871  18.418   2.477  1.00  0.00     0.074 A 
ATOM     56  C   UNL     1       2.376  13.925  -1.760  1.00  0.00     0.029 A 
ATOM     57  N   UNL     1       1.669  15.018   0.044  1.00  0.00    -0.354 N 
ATOM     58  N   UNL     1       1.133  17.422   1.664  1.00  0.00    -0.248 NA
ATOM     59  C   UNL     1       1.300  19.732   1.977  1.00  0.00     0.031 C 
ATOM     60  C   UNL     1       2.639  15.288  -1.935  1.00  0.00     0.029 A 
ATOM     61  C   UNL     1       2.172  15.971  -0.824  1.00  0.00     0.049 A 
ATOM     62  H   UNL     1       1.283  15.208   0.929  1.00  0.00     0.167 HD
ATOM     63  C   UNL     1       1.730  17.993   0.546  1.00  0.00     0.074 A 
ATOM     64  C   UNL     1       1.786  19.420   0.783  1.00  0.00     0.031 C 
ATOM     65  C   UNL     1       2.191  17.390  -0.577  1.00  0.00     0.031 A 
BRANCH  52  66
ATOM     66  C   UNL     1       1.532  11.244  -0.637  1.00  0.00    -0.014 A 
ATOM     67  C   UNL     1       0.427  10.578  -1.193  1.00  0.00     0.010 A 
ATOM     68  C   UNL     1       2.821  10.712  -0.827  1.00  0.00     0.010 A 
ATOM     69  C   UNL     1       0.603   9.386  -1.902  1.00  0.00     0.020 A 
ATOM     70  C   UNL     1       3.004   9.533  -1.554  1.00  0.00     0.020 A 
ATOM     71  C   UNL     1       1.891   8.869  -2.075  1.00  0.00     0.054 A 
BRANCH  71  72
ATOM     72  S   UNL     1       2.094   7.334  -3.021  1.00  0.00     0.124 S 
ATOM     73  O   UNL     1       1.607   6.331  -2.076  1.00  0.00    -0.237 OA
ATOM     74  O   UNL     1       1.245   7.560  -4.188  1.00  0.00    -0.237 OA
ATOM     75  O   UNL     1       3.527   7.283  -3.297  1.00  0.00    -0.744 OA
ENDBRANCH  71  72
ENDBRANCH  52  66
BRANCH  53  76
ATOM     76  C   UNL     1       0.046  19.627   4.629  1.00  0.00    -0.014 A 
ATOM     77  C   UNL     1      -0.868  20.621   4.241  1.00  0.00     0.010 A 
ATOM     78  C   UNL     1       0.824  19.827   5.785  1.00  0.00     0.010 A 
ATOM     79  C   UNL     1      -0.982  21.804   4.979  1.00  0.00     0.020 A 
ATOM     80  C   UNL     1       0.693  20.995   6.540  1.00  0.00     0.020 A 
ATOM     81  C   UNL     1      -0.197  21.985   6.121  1.00  0.00     0.054 A 
BRANCH  81  82
ATOM     82  S   UNL     1      -0.376  23.515   7.080  1.00  0.00     0.124 S 
ATOM     83  O   UNL     1       0.373  24.469   6.268  1.00  0.00    -0.237 OA
ATOM     84  O   UNL     1      -1.824  23.707   7.107  1.00  0.00    -0.237 OA
ATOM     85  O   UNL     1       0.224  23.181   8.369  1.00  0.00    -0.744 OA
ENDBRANCH  81  82
ENDBRANCH  53  76
BRANCH  65  86
ATOM     86  C   UNL     1       2.739  18.268  -1.667  1.00  0.00    -0.014 A 
ATOM     87  C   UNL     1       4.026  18.824  -1.576  1.00  0.00     0.010 A 
ATOM     88  C   UNL     1       1.987  18.454  -2.842  1.00  0.00     0.010 A 
ATOM     89  C   UNL     1       4.551  19.557  -2.644  1.00  0.00     0.020 A 
ATOM     90  C   UNL     1       2.517  19.168  -3.918  1.00  0.00     0.020 A 
ATOM     91  C   UNL     1       3.795  19.720  -3.810  1.00  0.00     0.054 A 
BRANCH  91  92
ATOM     92  S   UNL     1       4.532  20.599  -5.216  1.00  0.00     0.124 S 
ATOM     93  O   UNL     1       4.447  21.990  -4.782  1.00  0.00    -0.237 OA
ATOM     94  O   UNL     1       5.881  20.040  -5.273  1.00  0.00    -0.237 OA
ATOM     95  O   UNL     1       3.669  20.241  -6.339  1.00  0.00    -0.744 OA
ENDBRANCH  91  92
ENDBRANCH  65  86
ENDBRANCH  39  40
ENDBRANCH  32  34
ENDBRANCH  31  32
ENDBRANCH  30  31
ENDBRANCH  29  30
ENDBRANCH  28  29
ENDBRANCH  26  28
ENDBRANCH   1  26
TORSDOF 23
