REMARK SMILES Cc1cccc(Nc2nc(C)c(CCO)c(OCC(=O)OCCOC(=O)c3ccc(-c4c5nc(c(-c6ccc(S(=O)(=O)[O-])cc6)c6ccc([nH]6)c(-c6ccc(S(=O)(=O)[O-])cc6)c6nc(c(-c7ccc(S(=O)(=O)[O-])cc7)c7ccc4[nH]7)C=C6)C=C5)cc3)n2)c1
REMARK SMILES IDX 22 1 21 2 19 3 20 4 18 5 17 6 16 7 8 8 9 9 87 10 10 11 11 12
REMARK SMILES IDX 12 13 7 14 6 16 1 17 2 18 3 19 88 20 4 21 5 22 13 23 14 24
REMARK SMILES IDX 15 25 23 27 24 28 25 29 26 30 27 31 28 32 86 33 29 34 85 35
REMARK SMILES IDX 30 36 31 37 32 38 79 39 33 40 84 41 78 42 80 43 34 44 83 45
REMARK SMILES IDX 77 46 76 47 35 49 65 50 46 51 64 52 47 53 50 54 63 55 81 56
REMARK SMILES IDX 48 57 49 58 62 60 82 61 51 62 36 63 37 64 45 65 38 66 44 67
REMARK SMILES IDX 39 68 40 69 41 70 42 71 43 72 66 73 67 74 75 75 68 76 74 77
REMARK SMILES IDX 69 78 70 79 71 80 72 81 73 82 52 83 53 84 61 85 54 86 60 87
REMARK SMILES IDX 55 88 56 89 57 90 58 91 59 92
REMARK H PARENT 7 15 15 26 80 48 50 59
REMARK Flexibility Score: inf
ROOT
ATOM      1  C   UNL     1      -5.986   5.238   3.067  1.00  0.00     0.274 C 
ENDROOT
BRANCH   1   2
ATOM      2  O   UNL     1      -5.689   3.919   2.572  1.00  0.00    -0.460 OA
BRANCH   2   3
ATOM      3  C   UNL     1      -5.880   2.914   3.468  1.00  0.00     0.344 C 
ATOM      4  O   UNL     1      -6.228   3.095   4.632  1.00  0.00    -0.248 OA
BRANCH   3   5
ATOM      5  C   UNL     1      -5.561   1.518   2.911  1.00  0.00     0.353 C 
BRANCH   5   6
ATOM      6  O   UNL     1      -5.833   1.196   1.552  1.00  0.00    -0.465 OA
BRANCH   6   7
ATOM      7  C   UNL     1      -4.932   1.724   0.655  1.00  0.00     0.222 A 
ATOM      8  C   UNL     1      -2.870   2.577   0.241  1.00  0.00     0.230 A 
ATOM      9  N   UNL     1      -3.238   3.056  -0.947  1.00  0.00    -0.218 NA
ATOM     10  N   UNL     1      -3.713   2.031   1.121  1.00  0.00    -0.177 NA
ATOM     11  C   UNL     1      -4.460   2.688  -1.390  1.00  0.00     0.050 A 
ATOM     12  C   UNL     1      -4.864   3.248  -2.725  1.00  0.00     0.067 C 
ATOM     13  C   UNL     1      -5.288   1.831  -0.673  1.00  0.00     0.038 A 
BRANCH   8  14
ATOM     14  N   UNL     1      -1.492   2.429   0.423  1.00  0.00    -0.324 N 
ATOM     15  H   UNL     1      -0.961   3.231   0.632  1.00  0.00     0.170 HD
BRANCH  14  16
ATOM     16  C   UNL     1      -0.821   1.186   0.321  1.00  0.00     0.041 A 
ATOM     17  C   UNL     1       2.774  -0.057   0.018  1.00  0.00     0.044 C 
ATOM     18  C   UNL     1       1.279  -0.041   0.106  1.00  0.00    -0.049 A 
ATOM     19  C   UNL     1       0.569  -1.245   0.024  1.00  0.00     0.003 A 
ATOM     20  C   UNL     1       0.578   1.164   0.273  1.00  0.00     0.029 A 
ATOM     21  C   UNL     1      -0.818  -1.245   0.112  1.00  0.00     0.002 A 
ATOM     22  C   UNL     1      -1.502  -0.041   0.270  1.00  0.00     0.026 A 
ENDBRANCH  14  16
ENDBRANCH   8  14
BRANCH  13  23
ATOM     23  C   UNL     1      -6.447   1.150  -1.354  1.00  0.00     0.071 C 
BRANCH  23  24
ATOM     24  C   UNL     1      -7.024  -0.140  -0.755  1.00  0.00     0.161 C 
BRANCH  24  25
ATOM     25  O   UNL     1      -6.006  -1.036  -0.305  1.00  0.00    -0.396 OA
ATOM     26  H   UNL     1      -5.452  -1.300  -1.057  1.00  0.00     0.210 HD
ENDBRANCH  24  25
ENDBRANCH  23  24
ENDBRANCH  13  23
ENDBRANCH   6   7
ENDBRANCH   5   6
ENDBRANCH   3   5
ENDBRANCH   2   3
ENDBRANCH   1   2
BRANCH   1  27
ATOM     27  C   UNL     1      -5.840   6.285   1.947  1.00  0.00     0.275 C 
BRANCH  27  28
ATOM     28  O   UNL     1      -6.884   6.315   0.952  1.00  0.00    -0.458 OA
BRANCH  28  29
ATOM     29  C   UNL     1      -7.167   5.134   0.348  1.00  0.00     0.338 C 
ATOM     30  O   UNL     1      -6.449   4.613  -0.494  1.00  0.00    -0.246 OA
BRANCH  29  31
ATOM     31  C   UNL     1      -8.322   4.524   1.040  1.00  0.00     0.060 A 
ATOM     32  C   UNL     1      -8.477   3.130   1.105  1.00  0.00     0.016 A 
ATOM     33  C   UNL     1      -9.074   5.358   1.860  1.00  0.00     0.016 A 
ATOM     34  C   UNL     1      -9.319   2.552   2.052  1.00  0.00     0.010 A 
ATOM     35  C   UNL     1      -9.801   4.796   2.871  1.00  0.00     0.010 A 
ATOM     36  C   UNL     1      -9.958   3.400   2.946  1.00  0.00    -0.014 A 
BRANCH  36  37
ATOM     37  C   UNL     1     -11.020   3.009   3.856  1.00  0.00     0.031 A 
ATOM     38  C   UNL     1     -10.795   2.413   5.182  1.00  0.00     0.074 A 
ATOM     39  C   UNL     1     -12.190   3.579   3.499  1.00  0.00     0.049 A 
ATOM     40  N   UNL     1     -11.747   1.965   5.928  1.00  0.00    -0.248 NA
ATOM     41  C   UNL     1      -9.476   2.246   5.783  1.00  0.00     0.031 C 
ATOM     42  C   UNL     1     -13.324   3.955   4.318  1.00  0.00     0.029 A 
ATOM     43  N   UNL     1     -12.592   3.894   2.195  1.00  0.00    -0.354 N 
ATOM     44  C   UNL     1     -11.230   1.815   7.198  1.00  0.00     0.074 A 
ATOM     45  C   UNL     1      -9.797   1.862   7.026  1.00  0.00     0.031 C 
ATOM     46  C   UNL     1     -14.375   4.168   3.505  1.00  0.00     0.029 A 
ATOM     47  C   UNL     1     -13.973   3.741   2.167  1.00  0.00     0.049 A 
ATOM     48  H   UNL     1     -12.012   4.168   1.448  1.00  0.00     0.167 HD
ATOM     49  C   UNL     1     -12.075   1.871   8.269  1.00  0.00     0.031 A 
ATOM     50  C   UNL     1     -14.554   2.739   1.443  1.00  0.00     0.031 A 
ATOM     51  C   UNL     1     -13.466   2.010   7.828  1.00  0.00     0.049 A 
ATOM     52  C   UNL     1     -15.296   1.807   2.366  1.00  0.00     0.074 A 
ATOM     53  C   UNL     1     -14.306   3.108   7.746  1.00  0.00     0.029 A 
ATOM     54  N   UNL     1     -14.057   1.001   7.073  1.00  0.00    -0.354 N 
ATOM     55  N   UNL     1     -14.951   1.577   3.605  1.00  0.00    -0.248 NA
ATOM     56  C   UNL     1     -16.524   1.127   1.980  1.00  0.00     0.031 C 
ATOM     57  C   UNL     1     -15.356   2.785   6.847  1.00  0.00     0.029 A 
ATOM     58  C   UNL     1     -15.167   1.485   6.407  1.00  0.00     0.049 A 
ATOM     59  H   UNL     1     -13.730   0.073   7.020  1.00  0.00     0.167 HD
ATOM     60  C   UNL     1     -15.944   0.861   4.216  1.00  0.00     0.074 A 
ATOM     61  C   UNL     1     -16.883   0.561   3.145  1.00  0.00     0.031 C 
ATOM     62  C   UNL     1     -15.972   0.617   5.559  1.00  0.00     0.031 A 
BRANCH  49  63
ATOM     63  C   UNL     1     -11.629   2.147   9.694  1.00  0.00    -0.014 A 
ATOM     64  C   UNL     1     -12.512   2.803  10.581  1.00  0.00     0.010 A 
ATOM     65  C   UNL     1     -10.358   1.836  10.214  1.00  0.00     0.010 A 
ATOM     66  C   UNL     1     -12.127   3.207  11.869  1.00  0.00     0.020 A 
ATOM     67  C   UNL     1      -9.949   2.253  11.496  1.00  0.00     0.020 A 
ATOM     68  C   UNL     1     -10.835   2.949  12.312  1.00  0.00     0.054 A 
BRANCH  68  69
ATOM     69  S   UNL     1     -10.345   3.521  13.962  1.00  0.00     0.124 S 
ATOM     70  O   UNL     1     -10.525   4.967  13.860  1.00  0.00    -0.237 OA
ATOM     71  O   UNL     1     -11.293   2.830  14.831  1.00  0.00    -0.237 OA
ATOM     72  O   UNL     1      -8.957   3.080  14.085  1.00  0.00    -0.744 OA
ENDBRANCH  68  69
ENDBRANCH  49  63
BRANCH  50  73
ATOM     73  C   UNL     1     -13.797   2.327   0.220  1.00  0.00    -0.014 A 
ATOM     74  C   UNL     1     -13.745   3.240  -0.857  1.00  0.00     0.010 A 
ATOM     75  C   UNL     1     -12.839   1.295   0.270  1.00  0.00     0.010 A 
ATOM     76  C   UNL     1     -12.697   3.203  -1.785  1.00  0.00     0.020 A 
ATOM     77  C   UNL     1     -11.784   1.257  -0.659  1.00  0.00     0.020 A 
ATOM     78  C   UNL     1     -11.695   2.242  -1.648  1.00  0.00     0.054 A 
BRANCH  78  79
ATOM     79  S   UNL     1     -10.215   2.375  -2.693  1.00  0.00     0.124 S 
ATOM     80  O   UNL     1     -10.770   2.659  -4.013  1.00  0.00    -0.237 OA
ATOM     81  O   UNL     1      -9.504   3.480  -2.057  1.00  0.00    -0.237 OA
ATOM     82  O   UNL     1      -9.578   1.068  -2.551  1.00  0.00    -0.744 OA
ENDBRANCH  78  79
ENDBRANCH  50  73
BRANCH  62  83
ATOM     83  C   UNL     1     -16.878  -0.379   6.232  1.00  0.00    -0.014 A 
ATOM     84  C   UNL     1     -17.468  -1.461   5.563  1.00  0.00     0.010 A 
ATOM     85  C   UNL     1     -17.040  -0.323   7.637  1.00  0.00     0.010 A 
ATOM     86  C   UNL     1     -18.252  -2.396   6.247  1.00  0.00     0.020 A 
ATOM     87  C   UNL     1     -17.774  -1.280   8.337  1.00  0.00     0.020 A 
ATOM     88  C   UNL     1     -18.403  -2.297   7.630  1.00  0.00     0.054 A 
BRANCH  88  89
ATOM     89  S   UNL     1     -19.365  -3.548   8.509  1.00  0.00     0.124 S 
ATOM     90  O   UNL     1     -20.718  -3.005   8.412  1.00  0.00    -0.237 OA
ATOM     91  O   UNL     1     -19.119  -4.758   7.728  1.00  0.00    -0.237 OA
ATOM     92  O   UNL     1     -18.781  -3.550   9.848  1.00  0.00    -0.744 OA
ENDBRANCH  88  89
ENDBRANCH  62  83
ENDBRANCH  36  37
ENDBRANCH  29  31
ENDBRANCH  28  29
ENDBRANCH  27  28
ENDBRANCH   1  27
TORSDOF 21
