REMARK SMILES NS(=O)(=O)c1ccc(/N=C/c2ccc(O)c(C(=O)OCCOC(=O)c3ccc(-c4c5nc(c(-c6ccc(S(=O)(=O)[O-])cc6)c6ccc([nH]6)c(-c6ccc(S(=O)(=O)[O-])cc6)c6nc(c(-c7ccc(S(=O)(=O)[O-])cc7)c7ccc4[nH]7)C=C6)C=C5)cc3)c2)cc1
REMARK SMILES IDX 20 1 19 2 17 3 18 4 16 5 11 6 12 7 85 8 13 9 14 10 10 11
REMARK SMILES IDX 9 12 8 13 5 14 6 15 87 16 7 17 86 18 2 19 3 20 4 21 1 22
REMARK SMILES IDX 15 25 21 27 22 28 23 29 24 30 25 31 26 32 84 33 27 34 83 35
REMARK SMILES IDX 28 36 29 37 30 38 77 39 31 40 82 41 76 42 78 43 32 44 81 45
REMARK SMILES IDX 75 46 74 47 33 49 63 50 44 51 62 52 45 53 48 54 61 55 79 56
REMARK SMILES IDX 46 57 47 58 60 60 80 61 49 62 34 63 35 64 43 65 36 66 42 67
REMARK SMILES IDX 37 68 38 69 39 70 40 71 41 72 64 73 65 74 73 75 66 76 72 77
REMARK SMILES IDX 67 78 68 79 69 80 70 81 71 82 50 83 51 84 59 85 52 86 58 87
REMARK SMILES IDX 53 88 54 89 55 90 56 91 57 92
REMARK H PARENT 1 23 1 24 15 26 78 48 48 59
REMARK Flexibility Score: inf
ROOT
ATOM      1  C   UNL     1       5.487  -8.457   7.150  1.00  0.00     0.275 C 
ENDROOT
BRANCH   1   2
ATOM      2  O   UNL     1       4.598  -7.340   7.358  1.00  0.00    -0.458 OA
BRANCH   2   3
ATOM      3  C   UNL     1       3.655  -7.498   8.316  1.00  0.00     0.342 C 
ATOM      4  O   UNL     1       3.463  -8.503   8.987  1.00  0.00    -0.246 OA
BRANCH   3   5
ATOM      5  C   UNL     1       2.910  -6.242   8.572  1.00  0.00     0.102 A 
ATOM      6  C   UNL     1       2.157  -4.030   7.938  1.00  0.00    -0.006 A 
ATOM      7  C   UNL     1       1.633  -3.826   9.219  1.00  0.00     0.013 A 
ATOM      8  C   UNL     1       2.823  -5.221   7.617  1.00  0.00     0.029 A 
ATOM      9  C   UNL     1       1.690  -4.853  10.157  1.00  0.00     0.048 A 
ATOM     10  C   UNL     1       2.288  -6.066   9.820  1.00  0.00     0.130 A 
BRANCH   6  11
ATOM     11  C   UNL     1       1.885  -2.998   6.918  1.00  0.00     0.119 C 
ATOM     12  N   UNL     1       2.081  -3.222   5.659  1.00  0.00    -0.256 NA
BRANCH  12  13
ATOM     13  C   UNL     1       1.668  -2.270   4.713  1.00  0.00     0.063 A 
ATOM     14  C   UNL     1       0.842  -0.512   2.687  1.00  0.00     0.082 A 
ATOM     15  C   UNL     1       0.731  -1.889   2.494  1.00  0.00     0.024 A 
ATOM     16  C   UNL     1       1.355  -0.002   3.882  1.00  0.00     0.024 A 
ATOM     17  C   UNL     1       1.146  -2.757   3.507  1.00  0.00     0.030 A 
ATOM     18  C   UNL     1       1.774  -0.883   4.885  1.00  0.00     0.030 A 
BRANCH  14  19
ATOM     19  S   UNL     1       0.375   0.588   1.387  1.00  0.00     0.238 S 
ATOM     20  O   UNL     1       0.967   1.889   1.622  1.00  0.00    -0.207 OA
ATOM     21  O   UNL     1      -1.026   0.411   1.103  1.00  0.00    -0.207 OA
BRANCH  19  22
ATOM     22  N   UNL     1       1.205  -0.030   0.062  1.00  0.00    -0.225 NA
ATOM     23  H   UNL     1       1.005   0.539  -0.761  1.00  0.00     0.137 HD
ATOM     24  H   UNL     1       0.907  -0.990  -0.108  1.00  0.00     0.137 HD
ENDBRANCH  19  22
ENDBRANCH  14  19
ENDBRANCH  12  13
ENDBRANCH   6  11
BRANCH  10  25
ATOM     25  O   UNL     1       2.247  -7.032  10.788  1.00  0.00    -0.507 OA
ATOM     26  H   UNL     1       1.818  -6.861  11.604  1.00  0.00     0.293 HD
ENDBRANCH  10  25
ENDBRANCH   3   5
ENDBRANCH   2   3
ENDBRANCH   1   2
BRANCH   1  27
ATOM     27  C   UNL     1       6.879  -8.183   7.727  1.00  0.00     0.275 C 
BRANCH  27  28
ATOM     28  O   UNL     1       6.852  -8.142   9.166  1.00  0.00    -0.458 OA
BRANCH  28  29
ATOM     29  C   UNL     1       6.766  -6.900   9.701  1.00  0.00     0.338 C 
ATOM     30  O   UNL     1       6.779  -5.841   9.095  1.00  0.00    -0.246 OA
BRANCH  29  31
ATOM     31  C   UNL     1       6.459  -6.997  11.139  1.00  0.00     0.060 A 
ATOM     32  C   UNL     1       5.332  -6.306  11.587  1.00  0.00     0.016 A 
ATOM     33  C   UNL     1       7.260  -7.697  12.045  1.00  0.00     0.016 A 
ATOM     34  C   UNL     1       4.973  -6.332  12.930  1.00  0.00     0.010 A 
ATOM     35  C   UNL     1       6.921  -7.692  13.406  1.00  0.00     0.010 A 
ATOM     36  C   UNL     1       5.779  -7.003  13.855  1.00  0.00    -0.014 A 
BRANCH  36  37
ATOM     37  C   UNL     1       5.478  -6.853  15.299  1.00  0.00     0.031 A 
ATOM     38  C   UNL     1       6.224  -5.824  16.099  1.00  0.00     0.074 A 
ATOM     39  C   UNL     1       4.498  -7.572  15.876  1.00  0.00     0.049 A 
ATOM     40  N   UNL     1       6.105  -5.511  17.363  1.00  0.00    -0.248 NA
ATOM     41  C   UNL     1       7.234  -5.038  15.373  1.00  0.00     0.031 C 
ATOM     42  C   UNL     1       3.655  -8.553  15.193  1.00  0.00     0.029 A 
ATOM     43  N   UNL     1       4.044  -7.580  17.171  1.00  0.00    -0.354 N 
ATOM     44  C   UNL     1       7.032  -4.501  17.590  1.00  0.00     0.074 A 
ATOM     45  C   UNL     1       7.718  -4.269  16.336  1.00  0.00     0.031 C 
ATOM     46  C   UNL     1       2.787  -9.071  16.079  1.00  0.00     0.029 A 
ATOM     47  C   UNL     1       3.034  -8.484  17.395  1.00  0.00     0.049 A 
ATOM     48  H   UNL     1       4.407  -6.992  17.873  1.00  0.00     0.167 HD
ATOM     49  C   UNL     1       7.291  -3.829  18.737  1.00  0.00     0.031 A 
ATOM     50  C   UNL     1       2.392  -8.814  18.534  1.00  0.00     0.031 A 
ATOM     51  C   UNL     1       6.623  -4.074  19.988  1.00  0.00     0.049 A 
ATOM     52  C   UNL     1       2.742  -8.104  19.814  1.00  0.00     0.074 A 
ATOM     53  C   UNL     1       6.817  -3.445  21.205  1.00  0.00     0.029 A 
ATOM     54  N   UNL     1       5.639  -5.032  20.185  1.00  0.00    -0.354 N 
ATOM     55  N   UNL     1       3.618  -7.146  20.013  1.00  0.00    -0.248 NA
ATOM     56  C   UNL     1       2.011  -8.511  21.022  1.00  0.00     0.031 C 
ATOM     57  C   UNL     1       5.990  -4.061  22.152  1.00  0.00     0.029 A 
ATOM     58  C   UNL     1       5.235  -5.030  21.511  1.00  0.00     0.049 A 
ATOM     59  H   UNL     1       5.281  -5.626  19.487  1.00  0.00     0.167 HD
ATOM     60  C   UNL     1       3.525  -6.820  21.363  1.00  0.00     0.074 A 
ATOM     61  C   UNL     1       2.500  -7.675  21.928  1.00  0.00     0.031 C 
ATOM     62  C   UNL     1       4.221  -5.892  22.067  1.00  0.00     0.031 A 
BRANCH  49  63
ATOM     63  C   UNL     1       8.396  -2.808  18.693  1.00  0.00    -0.014 A 
ATOM     64  C   UNL     1       8.248  -1.591  18.002  1.00  0.00     0.010 A 
ATOM     65  C   UNL     1       9.614  -3.082  19.342  1.00  0.00     0.010 A 
ATOM     66  C   UNL     1       9.318  -0.697  17.908  1.00  0.00     0.020 A 
ATOM     67  C   UNL     1      10.677  -2.178  19.275  1.00  0.00     0.020 A 
ATOM     68  C   UNL     1      10.530  -1.003  18.535  1.00  0.00     0.054 A 
BRANCH  68  69
ATOM     69  S   UNL     1      11.914   0.158  18.375  1.00  0.00     0.124 S 
ATOM     70  O   UNL     1      12.348  -0.081  17.001  1.00  0.00    -0.237 OA
ATOM     71  O   UNL     1      11.280   1.451  18.617  1.00  0.00    -0.237 OA
ATOM     72  O   UNL     1      12.851  -0.276  19.408  1.00  0.00    -0.744 OA
ENDBRANCH  68  69
ENDBRANCH  49  63
BRANCH  50  73
ATOM     73  C   UNL     1       1.365  -9.892  18.510  1.00  0.00    -0.014 A 
ATOM     74  C   UNL     1       0.000  -9.595  18.661  1.00  0.00     0.010 A 
ATOM     75  C   UNL     1       1.756 -11.229  18.303  1.00  0.00     0.010 A 
ATOM     76  C   UNL     1      -0.955 -10.615  18.605  1.00  0.00     0.020 A 
ATOM     77  C   UNL     1       0.803 -12.246  18.222  1.00  0.00     0.020 A 
ATOM     78  C   UNL     1      -0.548 -11.934  18.379  1.00  0.00     0.054 A 
BRANCH  78  79
ATOM     79  S   UNL     1      -1.811 -13.229  18.229  1.00  0.00     0.124 S 
ATOM     80  O   UNL     1      -2.242 -13.395  19.613  1.00  0.00    -0.237 OA
ATOM     81  O   UNL     1      -2.787 -12.616  17.331  1.00  0.00    -0.237 OA
ATOM     82  O   UNL     1      -1.077 -14.357  17.660  1.00  0.00    -0.744 OA
ENDBRANCH  78  79
ENDBRANCH  50  73
BRANCH  62  83
ATOM     83  C   UNL     1       3.878  -5.723  23.524  1.00  0.00    -0.014 A 
ATOM     84  C   UNL     1       4.237  -6.689  24.480  1.00  0.00     0.010 A 
ATOM     85  C   UNL     1       3.230  -4.548  23.950  1.00  0.00     0.010 A 
ATOM     86  C   UNL     1       3.923  -6.500  25.830  1.00  0.00     0.020 A 
ATOM     87  C   UNL     1       2.939  -4.342  25.302  1.00  0.00     0.020 A 
ATOM     88  C   UNL     1       3.274  -5.328  26.232  1.00  0.00     0.054 A 
BRANCH  88  89
ATOM     89  S   UNL     1       2.909  -5.087  27.993  1.00  0.00     0.124 S 
ATOM     90  O   UNL     1       1.781  -5.992  28.196  1.00  0.00    -0.237 OA
ATOM     91  O   UNL     1       4.158  -5.485  28.638  1.00  0.00    -0.237 OA
ATOM     92  O   UNL     1       2.592  -3.664  28.089  1.00  0.00    -0.744 OA
ENDBRANCH  88  89
ENDBRANCH  62  83
ENDBRANCH  36  37
ENDBRANCH  29  31
ENDBRANCH  28  29
ENDBRANCH  27  28
ENDBRANCH   1  27
TORSDOF 19
