REMARK SMILES O=C(OCCOC(=O)c1ccc(-c2c3nc(c(-c4ccc(S(=O)(=O)[O-])cc4)c4ccc([nH]4)c(-c4ccc(S(=O)(=O)[O-])cc4)c4nc(c(-c5ccc(S(=O)(=O)[O-])cc5)c5ccc2[nH]5)C=C4)C=C3)cc1)C1=Cc2cc(Cl)cc(-c3ccc(CO)cc3)c2O[C@@H]1C(F)(F)F
REMARK SMILES IDX 4 1 3 2 2 3 1 4 69 5 70 6 87 7 71 8 86 9 72 10 85 11 73 12
REMARK SMILES IDX 76 13 74 14 75 15 88 16 89 17 90 18 91 19 77 20 78 21 84 22
REMARK SMILES IDX 79 23 83 24 80 25 81 26 82 27 5 29 6 30 7 31 8 32 9 33 10 34
REMARK SMILES IDX 68 35 11 36 67 37 12 38 13 39 14 40 61 41 15 42 66 43 60 44
REMARK SMILES IDX 62 45 16 46 65 47 59 48 58 49 17 51 47 52 28 53 46 54 29 55
REMARK SMILES IDX 32 56 45 57 63 58 30 59 31 60 44 62 64 63 33 64 18 65 19 66
REMARK SMILES IDX 27 67 20 68 26 69 21 70 22 71 23 72 24 73 25 74 48 75 49 76
REMARK SMILES IDX 57 77 50 78 56 79 51 80 52 81 53 82 54 83 55 84 34 85 35 86
REMARK SMILES IDX 43 87 36 88 42 89 37 90 38 91 39 92 40 93 41 94
REMARK H PARENT 82 28 62 50 32 61
REMARK Flexibility Score: inf
ROOT
ATOM      1  C   UNL     1       3.878   0.266   1.188  1.00  0.00     0.275 C 
ENDROOT
BRANCH   1   2
ATOM      2  O   UNL     1       2.920   1.315   1.818  1.00  0.00    -0.459 OA
BRANCH   2   3
ATOM      3  C   UNL     1       3.123   2.553   1.350  1.00  0.00     0.338 C 
ATOM      4  O   UNL     1       2.491   3.562   1.526  1.00  0.00    -0.246 OA
BRANCH   3   5
ATOM      5  C   UNL     1       4.020   2.135   0.302  1.00  0.00     0.087 C 
ATOM      6  C   UNL     1       5.375   1.922   0.729  1.00  0.00     0.027 C 
ATOM      7  C   UNL     1       2.849   0.822  -0.457  1.00  0.00     0.316 C 
ATOM      8  C   UNL     1       6.110   0.313   0.850  1.00  0.00     0.019 A 
ATOM      9  O   UNL     1       3.570  -0.975  -0.193  1.00  0.00    -0.475 OA
ATOM     10  C   UNL     1       7.377   0.291   1.363  1.00  0.00     0.032 A 
ATOM     11  C   UNL     1       5.229  -1.164   0.585  1.00  0.00     0.135 A 
ATOM     12  C   UNL     1       7.858  -0.976   1.661  1.00  0.00     0.042 A 
ATOM     13  C   UNL     1       5.754  -2.365   1.008  1.00  0.00     0.026 A 
ATOM     14  Cl  UNL     1       9.450  -1.076   2.334  1.00  0.00    -0.084 Cl
ATOM     15  C   UNL     1       7.099  -2.199   1.510  1.00  0.00     0.033 A 
BRANCH   7  16
ATOM     16  C   UNL     1       2.740   1.927  -1.676  1.00  0.00     0.430 C 
ATOM     17  F   UNL     1       2.248   1.565  -2.826  1.00  0.00    -0.167 F 
ATOM     18  F   UNL     1       1.910   2.923  -1.254  1.00  0.00    -0.167 F 
ATOM     19  F   UNL     1       3.904   2.554  -2.008  1.00  0.00    -0.167 F 
ENDBRANCH   7  16
BRANCH  13  20
ATOM     20  C   UNL     1       5.156  -3.679   1.204  1.00  0.00    -0.015 A 
ATOM     21  C   UNL     1       5.074  -4.189   2.522  1.00  0.00     0.009 A 
ATOM     22  C   UNL     1       4.896  -4.550   0.148  1.00  0.00     0.009 A 
ATOM     23  C   UNL     1       4.784  -5.529   2.773  1.00  0.00     0.007 A 
ATOM     24  C   UNL     1       4.602  -5.900   0.399  1.00  0.00     0.007 A 
ATOM     25  C   UNL     1       4.556  -6.403   1.708  1.00  0.00    -0.023 A 
BRANCH  25  26
ATOM     26  C   UNL     1       4.289  -7.859   1.983  1.00  0.00     0.191 C 
BRANCH  26  27
ATOM     27  O   UNL     1       5.437  -8.484   2.549  1.00  0.00    -0.392 OA
ATOM     28  H   UNL     1       6.179  -8.422   1.927  1.00  0.00     0.211 HD
ENDBRANCH  26  27
ENDBRANCH  25  26
ENDBRANCH  13  20
ENDBRANCH   3   5
ENDBRANCH   2   3
ENDBRANCH   1   2
BRANCH   1  29
ATOM     29  C   UNL     1       4.716   0.301  -0.816  1.00  0.00     0.275 C 
BRANCH  29  30
ATOM     30  O   UNL     1       3.806  -0.175  -2.258  1.00  0.00    -0.458 OA
BRANCH  30  31
ATOM     31  C   UNL     1       2.874  -1.131  -2.676  1.00  0.00     0.338 C 
ATOM     32  O   UNL     1       2.514  -2.144  -2.102  1.00  0.00    -0.246 OA
BRANCH  31  33
ATOM     33  C   UNL     1       2.080  -0.565  -3.835  1.00  0.00     0.060 A 
ATOM     34  C   UNL     1       0.777  -0.048  -3.591  1.00  0.00     0.016 A 
ATOM     35  C   UNL     1       2.790  -0.122  -4.950  1.00  0.00     0.016 A 
ATOM     36  C   UNL     1       0.343   1.115  -4.288  1.00  0.00     0.010 A 
ATOM     37  C   UNL     1       2.341   1.010  -5.646  1.00  0.00     0.010 A 
ATOM     38  C   UNL     1       1.178   1.711  -5.254  1.00  0.00    -0.014 A 
BRANCH  38  39
ATOM     39  C   UNL     1       0.831   2.963  -6.003  1.00  0.00     0.031 A 
ATOM     40  C   UNL     1       0.182   2.744  -7.335  1.00  0.00     0.074 A 
ATOM     41  C   UNL     1       1.190   4.222  -5.642  1.00  0.00     0.049 A 
ATOM     42  N   UNL     1      -0.028   3.584  -8.310  1.00  0.00    -0.248 NA
ATOM     43  C   UNL     1      -0.242   1.361  -7.615  1.00  0.00     0.031 C 
ATOM     44  C   UNL     1       1.825   4.616  -4.384  1.00  0.00     0.029 A 
ATOM     45  N   UNL     1       1.094   5.422  -6.330  1.00  0.00    -0.354 N 
ATOM     46  C   UNL     1      -0.567   2.820  -9.334  1.00  0.00     0.074 A 
ATOM     47  C   UNL     1      -0.623   1.452  -8.876  1.00  0.00     0.031 C 
ATOM     48  C   UNL     1       2.072   5.944  -4.396  1.00  0.00     0.029 A 
ATOM     49  C   UNL     1       1.652   6.509  -5.677  1.00  0.00     0.049 A 
ATOM     50  H   UNL     1       0.664   5.495  -7.213  1.00  0.00     0.167 HD
ATOM     51  C   UNL     1      -0.985   3.216 -10.555  1.00  0.00     0.031 A 
ATOM     52  C   UNL     1       1.823   7.795  -6.072  1.00  0.00     0.031 A 
ATOM     53  C   UNL     1      -0.943   4.568 -11.022  1.00  0.00     0.049 A 
ATOM     54  C   UNL     1       1.369   8.205  -7.463  1.00  0.00     0.074 A 
ATOM     55  C   UNL     1      -1.399   5.066 -12.227  1.00  0.00     0.029 A 
ATOM     56  N   UNL     1      -0.409   5.631 -10.315  1.00  0.00    -0.354 N 
ATOM     57  N   UNL     1       0.772   7.484  -8.383  1.00  0.00    -0.248 NA
ATOM     58  C   UNL     1       1.614   9.601  -7.874  1.00  0.00     0.031 C 
ATOM     59  C   UNL     1      -1.084   6.425 -12.277  1.00  0.00     0.029 A 
ATOM     60  C   UNL     1      -0.492   6.782 -11.076  1.00  0.00     0.049 A 
ATOM     61  H   UNL     1      -0.028   5.576  -9.409  1.00  0.00     0.167 HD
ATOM     62  C   UNL     1       0.546   8.342  -9.458  1.00  0.00     0.074 A 
ATOM     63  C   UNL     1       1.048   9.642  -9.073  1.00  0.00     0.031 C 
ATOM     64  C   UNL     1      -0.017   8.077 -10.663  1.00  0.00     0.031 A 
BRANCH  51  65
ATOM     65  C   UNL     1      -1.500   2.148 -11.471  1.00  0.00    -0.014 A 
ATOM     66  C   UNL     1      -2.729   1.514 -11.223  1.00  0.00     0.010 A 
ATOM     67  C   UNL     1      -0.743   1.782 -12.597  1.00  0.00     0.010 A 
ATOM     68  C   UNL     1      -3.182   0.508 -12.074  1.00  0.00     0.020 A 
ATOM     69  C   UNL     1      -1.209   0.798 -13.469  1.00  0.00     0.020 A 
ATOM     70  C   UNL     1      -2.421   0.161 -13.195  1.00  0.00     0.054 A 
BRANCH  70  71
ATOM     71  S   UNL     1      -3.069  -1.105 -14.316  1.00  0.00     0.124 S 
ATOM     72  O   UNL     1      -2.910  -2.321 -13.521  1.00  0.00    -0.237 OA
ATOM     73  O   UNL     1      -4.446  -0.668 -14.526  1.00  0.00    -0.237 OA
ATOM     74  O   UNL     1      -2.201  -1.009 -15.487  1.00  0.00    -0.744 OA
ENDBRANCH  70  71
ENDBRANCH  51  65
BRANCH  52  75
ATOM     75  C   UNL     1       2.490   8.826  -5.200  1.00  0.00    -0.014 A 
ATOM     76  C   UNL     1       1.789   9.971  -4.765  1.00  0.00     0.010 A 
ATOM     77  C   UNL     1       3.862   8.739  -4.900  1.00  0.00     0.010 A 
ATOM     78  C   UNL     1       2.448  11.018  -4.101  1.00  0.00     0.020 A 
ATOM     79  C   UNL     1       4.520   9.768  -4.207  1.00  0.00     0.020 A 
ATOM     80  C   UNL     1       3.814  10.912  -3.831  1.00  0.00     0.054 A 
BRANCH  80  81
ATOM     81  S   UNL     1       4.654  12.281  -2.977  1.00  0.00     0.124 S 
ATOM     82  O   UNL     1       4.696  13.309  -4.012  1.00  0.00    -0.237 OA
ATOM     83  O   UNL     1       3.759  12.551  -1.855  1.00  0.00    -0.237 OA
ATOM     84  O   UNL     1       5.949  11.712  -2.609  1.00  0.00    -0.744 OA
ENDBRANCH  80  81
ENDBRANCH  52  75
BRANCH  64  85
ATOM     85  C   UNL     1      -0.171   9.205 -11.650  1.00  0.00    -0.014 A 
ATOM     86  C   UNL     1       0.937   9.722 -12.343  1.00  0.00     0.010 A 
ATOM     87  C   UNL     1      -1.462   9.654 -11.988  1.00  0.00     0.010 A 
ATOM     88  C   UNL     1       0.756  10.672 -13.353  1.00  0.00     0.020 A 
ATOM     89  C   UNL     1      -1.649  10.579 -13.017  1.00  0.00     0.020 A 
ATOM     90  C   UNL     1      -0.537  11.086 -13.691  1.00  0.00     0.054 A 
BRANCH  90  91
ATOM     91  S   UNL     1      -0.748  12.245 -15.070  1.00  0.00     0.124 S 
ATOM     92  O   UNL     1      -0.237  13.490 -14.503  1.00  0.00    -0.237 OA
ATOM     93  O   UNL     1       0.075  11.648 -16.119  1.00  0.00    -0.237 OA
ATOM     94  O   UNL     1      -2.186  12.223 -15.327  1.00  0.00    -0.744 OA
ENDBRANCH  90  91
ENDBRANCH  64  85
ENDBRANCH  38  39
ENDBRANCH  31  33
ENDBRANCH  30  31
ENDBRANCH  29  30
ENDBRANCH   1  29
TORSDOF 18
