REMARK SMILES O=C(OCCOC(=O)[C@@H]1CCCN(C(=O)/C=C/c2cccc(F)c2)C1)c1ccc(-c2c3nc(c(-c4ccc(S(=O)(=O)[O-])cc4)c4ccc([nH]4)c(-c4ccc(S(=O)(=O)[O-])cc4)c4nc(c(-c5ccc(S(=O)(=O)[O-])cc5)c5ccc2[nH]5)C=C4)C=C3)cc1
REMARK SMILES IDX 4 1 3 2 2 3 1 4 26 5 27 6 85 7 28 8 84 9 29 10 30 11 31 12
REMARK SMILES IDX 78 13 32 14 83 15 77 16 79 17 33 18 82 19 76 20 75 21 34 23
REMARK SMILES IDX 64 24 45 25 63 26 46 27 49 28 62 29 80 30 47 31 48 32 61 34
REMARK SMILES IDX 81 35 50 36 35 37 36 38 44 39 37 40 43 41 38 42 39 43 40 44
REMARK SMILES IDX 41 45 42 46 65 47 66 48 74 49 67 50 73 51 68 52 69 53 70 54
REMARK SMILES IDX 71 55 72 56 51 57 52 58 60 59 53 60 59 61 54 62 55 63 56 64
REMARK SMILES IDX 57 65 58 66 5 67 6 68 7 69 8 70 9 71 10 72 25 73 11 74 13 75
REMARK SMILES IDX 12 76 14 77 15 78 16 79 17 80 18 81 19 82 24 83 20 84 22 85
REMARK SMILES IDX 21 86 23 87
REMARK H PARENT 79 22 49 33
REMARK Flexibility Score: inf
ROOT
ATOM      1  C   UNL     1       4.741   2.003  -0.333  1.00  0.00     0.275 C 
ENDROOT
BRANCH   1   2
ATOM      2  O   UNL     1       3.975   1.437  -1.417  1.00  0.00    -0.458 OA
BRANCH   2   3
ATOM      3  C   UNL     1       3.427   0.209  -1.433  1.00  0.00     0.338 C 
ATOM      4  O   UNL     1       2.510  -0.074  -2.194  1.00  0.00    -0.246 OA
BRANCH   3   5
ATOM      5  C   UNL     1       3.839  -0.788  -0.439  1.00  0.00     0.060 A 
ATOM      6  C   UNL     1       5.410  -1.333  -0.112  1.00  0.00     0.016 A 
ATOM      7  C   UNL     1       2.546  -1.437   0.516  1.00  0.00     0.016 A 
ATOM      8  C   UNL     1       5.780  -2.426   1.171  1.00  0.00     0.010 A 
ATOM      9  C   UNL     1       2.900  -2.660   2.011  1.00  0.00     0.010 A 
ATOM     10  C   UNL     1       4.608  -3.167   2.244  1.00  0.00    -0.014 A 
BRANCH  10  11
ATOM     11  C   UNL     1       5.289  -4.158   3.136  1.00  0.00     0.031 A 
ATOM     12  C   UNL     1       6.032  -5.352   2.503  1.00  0.00     0.074 A 
ATOM     13  C   UNL     1       5.646  -3.754   4.374  1.00  0.00     0.049 A 
ATOM     14  N   UNL     1       6.927  -6.160   3.027  1.00  0.00    -0.248 NA
ATOM     15  C   UNL     1       5.782  -5.656   1.084  1.00  0.00     0.031 C 
ATOM     16  C   UNL     1       5.199  -2.525   5.035  1.00  0.00     0.029 A 
ATOM     17  N   UNL     1       6.546  -4.290   5.268  1.00  0.00    -0.354 N 
ATOM     18  C   UNL     1       7.332  -7.023   1.999  1.00  0.00     0.074 A 
ATOM     19  C   UNL     1       6.588  -6.669   0.831  1.00  0.00     0.031 C 
ATOM     20  C   UNL     1       5.848  -2.383   6.201  1.00  0.00     0.029 A 
ATOM     21  C   UNL     1       6.703  -3.543   6.415  1.00  0.00     0.049 A 
ATOM     22  H   UNL     1       7.033  -5.130   5.103  1.00  0.00     0.167 HD
ATOM     23  C   UNL     1       8.251  -8.017   1.989  1.00  0.00     0.031 A 
ATOM     24  C   UNL     1       7.419  -3.773   7.535  1.00  0.00     0.031 A 
ATOM     25  C   UNL     1       9.013  -8.384   3.142  1.00  0.00     0.049 A 
ATOM     26  C   UNL     1       8.311  -4.982   7.577  1.00  0.00     0.074 A 
ATOM     27  C   UNL     1       9.908  -9.426   3.293  1.00  0.00     0.029 A 
ATOM     28  N   UNL     1       8.974  -7.698   4.344  1.00  0.00    -0.354 N 
ATOM     29  N   UNL     1       8.574  -5.839   6.617  1.00  0.00    -0.248 NA
ATOM     30  C   UNL     1       9.008  -5.251   8.839  1.00  0.00     0.031 C 
ATOM     31  C   UNL     1      10.373  -9.400   4.611  1.00  0.00     0.029 A 
ATOM     32  C   UNL     1       9.816  -8.304   5.253  1.00  0.00     0.049 A 
ATOM     33  H   UNL     1       8.428  -6.899   4.523  1.00  0.00     0.167 HD
ATOM     34  C   UNL     1       9.478  -6.745   7.159  1.00  0.00     0.074 A 
ATOM     35  C   UNL     1       9.741  -6.308   8.516  1.00  0.00     0.031 C 
ATOM     36  C   UNL     1      10.038  -7.844   6.596  1.00  0.00     0.031 A 
BRANCH  23  37
ATOM     37  C   UNL     1       8.437  -8.810   0.711  1.00  0.00    -0.014 A 
ATOM     38  C   UNL     1       9.091  -8.269  -0.413  1.00  0.00     0.010 A 
ATOM     39  C   UNL     1       7.963 -10.134   0.642  1.00  0.00     0.010 A 
ATOM     40  C   UNL     1       9.245  -9.026  -1.582  1.00  0.00     0.020 A 
ATOM     41  C   UNL     1       8.140 -10.904  -0.513  1.00  0.00     0.020 A 
ATOM     42  C   UNL     1       8.772 -10.341  -1.623  1.00  0.00     0.054 A 
BRANCH  42  43
ATOM     43  S   UNL     1       9.027 -11.317  -3.135  1.00  0.00     0.124 S 
ATOM     44  O   UNL     1       8.119 -10.663  -4.074  1.00  0.00    -0.237 OA
ATOM     45  O   UNL     1      10.450 -11.124  -3.401  1.00  0.00    -0.237 OA
ATOM     46  O   UNL     1       8.647 -12.672  -2.742  1.00  0.00    -0.744 OA
ENDBRANCH  42  43
ENDBRANCH  23  37
BRANCH  24  47
ATOM     47  C   UNL     1       7.216  -2.905   8.737  1.00  0.00    -0.014 A 
ATOM     48  C   UNL     1       8.249  -2.148   9.316  1.00  0.00     0.010 A 
ATOM     49  C   UNL     1       5.934  -2.852   9.322  1.00  0.00     0.010 A 
ATOM     50  C   UNL     1       8.004  -1.368  10.456  1.00  0.00     0.020 A 
ATOM     51  C   UNL     1       5.675  -2.048  10.432  1.00  0.00     0.020 A 
ATOM     52  C   UNL     1       6.717  -1.320  11.004  1.00  0.00     0.054 A 
BRANCH  52  53
ATOM     53  S   UNL     1       6.405  -0.276  12.455  1.00  0.00     0.124 S 
ATOM     54  O   UNL     1       7.086  -1.015  13.513  1.00  0.00    -0.237 OA
ATOM     55  O   UNL     1       7.020   0.991  12.068  1.00  0.00    -0.237 OA
ATOM     56  O   UNL     1       4.947  -0.248  12.549  1.00  0.00    -0.744 OA
ENDBRANCH  52  53
ENDBRANCH  24  47
BRANCH  36  57
ATOM     57  C   UNL     1      10.996  -8.625   7.444  1.00  0.00    -0.014 A 
ATOM     58  C   UNL     1      10.540  -9.385   8.534  1.00  0.00     0.010 A 
ATOM     59  C   UNL     1      12.366  -8.612   7.128  1.00  0.00     0.010 A 
ATOM     60  C   UNL     1      11.450 -10.071   9.335  1.00  0.00     0.020 A 
ATOM     61  C   UNL     1      13.274  -9.327   7.906  1.00  0.00     0.020 A 
ATOM     62  C   UNL     1      12.812 -10.031   9.020  1.00  0.00     0.054 A 
BRANCH  62  63
ATOM     63  S   UNL     1      13.973 -10.928  10.080  1.00  0.00     0.124 S 
ATOM     64  O   UNL     1      14.004 -10.085  11.272  1.00  0.00    -0.237 OA
ATOM     65  O   UNL     1      13.321 -12.225  10.243  1.00  0.00    -0.237 OA
ATOM     66  O   UNL     1      15.208 -10.950   9.300  1.00  0.00    -0.744 OA
ENDBRANCH  62  63
ENDBRANCH  36  57
ENDBRANCH  10  11
ENDBRANCH   3   5
ENDBRANCH   2   3
ENDBRANCH   1   2
BRANCH   1  67
ATOM     67  C   UNL     1       3.870   2.505   0.839  1.00  0.00     0.274 C 
BRANCH  67  68
ATOM     68  O   UNL     1       3.508   1.418   1.712  1.00  0.00    -0.462 OA
BRANCH  68  69
ATOM     69  C   UNL     1       2.228   0.979   1.887  1.00  0.00     0.310 C 
ATOM     70  O   UNL     1       1.225   1.623   1.639  1.00  0.00    -0.252 OA
BRANCH  69  71
ATOM     71  C   UNL     1       2.288  -0.489   2.388  1.00  0.00     0.119 C 
ATOM     72  C   UNL     1       3.998  -1.168   1.696  1.00  0.00     0.019 C 
ATOM     73  C   UNL     1       0.724  -1.492   1.963  1.00  0.00     0.135 C 
ATOM     74  C   UNL     1       3.750  -2.866   0.309  1.00  0.00     0.022 C 
ATOM     75  N   UNL     1       0.713  -2.692   0.638  1.00  0.00    -0.338 N 
ATOM     76  C   UNL     1       2.005  -3.697   0.325  1.00  0.00     0.120 C 
BRANCH  75  77
ATOM     77  C   UNL     1      -0.202  -2.461  -0.421  1.00  0.00     0.246 C 
ATOM     78  O   UNL     1      -1.194  -1.746  -0.298  1.00  0.00    -0.270 OA
BRANCH  77  79
ATOM     79  C   UNL     1       0.056  -3.110  -1.764  1.00  0.00     0.072 C 
ATOM     80  C   UNL     1       1.205  -3.040  -2.465  1.00  0.00     0.014 C 
BRANCH  80  81
ATOM     81  C   UNL     1       1.550  -3.835  -3.659  1.00  0.00    -0.023 A 
ATOM     82  C   UNL     1       2.250  -3.249  -4.726  1.00  0.00     0.008 A 
ATOM     83  C   UNL     1       1.336  -5.219  -3.682  1.00  0.00     0.047 A 
ATOM     84  C   UNL     1       2.665  -4.019  -5.823  1.00  0.00     0.004 A 
ATOM     85  C   UNL     1       1.758  -5.976  -4.774  1.00  0.00     0.123 A 
ATOM     86  C   UNL     1       2.410  -5.388  -5.850  1.00  0.00     0.039 A 
ATOM     87  F   UNL     1       1.538  -7.297  -4.781  1.00  0.00    -0.207 F 
ENDBRANCH  80  81
ENDBRANCH  77  79
ENDBRANCH  75  77
ENDBRANCH  69  71
ENDBRANCH  68  69
ENDBRANCH  67  68
ENDBRANCH   1  67
TORSDOF 17
