REMARK SMILES O=C(OCCOC(=O)c1cc(=O)[nH]c2c(Br)cccc12)c1ccc(-c2c3nc(c(-c4ccc(S(=O)(=O)[O-])cc4)c4ccc([nH]4)c(-c4ccc(S(=O)(=O)[O-])cc4)c4nc(c(-c5ccc(S(=O)(=O)[O-])cc5)c5ccc2[nH]5)C=C4)C=C3)cc1
REMARK SMILES IDX 3 1 2 2 1 3 21 4 22 5 80 6 23 7 79 8 24 9 25 10 26 11 73 12
REMARK SMILES IDX 27 13 78 14 72 15 74 16 28 17 77 18 71 19 70 20 29 22 59 23
REMARK SMILES IDX 40 24 58 25 41 26 44 27 57 28 75 29 42 30 43 31 56 33 76 34
REMARK SMILES IDX 45 35 30 36 31 37 39 38 32 39 38 40 33 41 34 42 35 43 36 44
REMARK SMILES IDX 37 45 60 46 61 47 69 48 62 49 68 50 63 51 64 52 65 53 66 54
REMARK SMILES IDX 67 55 46 56 47 57 55 58 48 59 54 60 49 61 50 62 51 63 52 64
REMARK SMILES IDX 53 65 4 66 5 67 6 68 7 69 8 70 9 71 10 72 20 73 11 74 14 75
REMARK SMILES IDX 19 76 12 77 13 78 15 79 18 80 16 82 17 83
REMARK H PARENT 74 21 44 32 13 81
REMARK Flexibility Score: inf
ROOT
ATOM      1  O   UNL     1       3.512  -0.601   0.839  1.00  0.00    -0.458 OA
ENDROOT
BRANCH   1   2
ATOM      2  C   UNL     1       3.651   0.694   1.223  1.00  0.00     0.338 C 
ATOM      3  O   UNL     1       3.195   1.067   2.300  1.00  0.00    -0.246 OA
BRANCH   2   4
ATOM      4  C   UNL     1       4.095   1.722   0.239  1.00  0.00     0.060 A 
ATOM      5  C   UNL     1       3.283   2.857   0.121  1.00  0.00     0.016 A 
ATOM      6  C   UNL     1       5.258   1.658  -0.530  1.00  0.00     0.016 A 
ATOM      7  C   UNL     1       3.542   3.829  -0.848  1.00  0.00     0.010 A 
ATOM      8  C   UNL     1       5.536   2.644  -1.486  1.00  0.00     0.010 A 
ATOM      9  C   UNL     1       4.667   3.724  -1.673  1.00  0.00    -0.014 A 
BRANCH   9  10
ATOM     10  C   UNL     1       5.024   4.818  -2.607  1.00  0.00     0.031 A 
ATOM     11  C   UNL     1       4.991   4.637  -4.099  1.00  0.00     0.074 A 
ATOM     12  C   UNL     1       5.425   5.990  -2.079  1.00  0.00     0.049 A 
ATOM     13  N   UNL     1       5.191   5.533  -5.031  1.00  0.00    -0.248 NA
ATOM     14  C   UNL     1       4.666   3.301  -4.620  1.00  0.00     0.031 C 
ATOM     15  C   UNL     1       5.505   6.282  -0.644  1.00  0.00     0.029 A 
ATOM     16  N   UNL     1       5.873   7.139  -2.678  1.00  0.00    -0.354 N 
ATOM     17  C   UNL     1       4.911   4.899  -6.236  1.00  0.00     0.074 A 
ATOM     18  C   UNL     1       4.604   3.523  -5.929  1.00  0.00     0.031 C 
ATOM     19  C   UNL     1       6.007   7.512  -0.476  1.00  0.00     0.029 A 
ATOM     20  C   UNL     1       6.334   8.073  -1.782  1.00  0.00     0.049 A 
ATOM     21  H   UNL     1       5.867   7.280  -3.652  1.00  0.00     0.167 HD
ATOM     22  C   UNL     1       4.899   5.433  -7.479  1.00  0.00     0.031 A 
ATOM     23  C   UNL     1       6.998   9.228  -1.979  1.00  0.00     0.031 A 
ATOM     24  C   UNL     1       5.357   6.765  -7.775  1.00  0.00     0.049 A 
ATOM     25  C   UNL     1       7.237   9.694  -3.384  1.00  0.00     0.074 A 
ATOM     26  C   UNL     1       5.410   7.398  -9.004  1.00  0.00     0.029 A 
ATOM     27  N   UNL     1       5.907   7.638  -6.849  1.00  0.00    -0.354 N 
ATOM     28  N   UNL     1       6.830   9.143  -4.503  1.00  0.00    -0.248 NA
ATOM     29  C   UNL     1       8.013  10.927  -3.565  1.00  0.00     0.031 C 
ATOM     30  C   UNL     1       6.104   8.598  -8.840  1.00  0.00     0.029 A 
ATOM     31  C   UNL     1       6.395   8.759  -7.494  1.00  0.00     0.049 A 
ATOM     32  H   UNL     1       5.944   7.482  -5.878  1.00  0.00     0.167 HD
ATOM     33  C   UNL     1       7.279   9.975  -5.520  1.00  0.00     0.074 A 
ATOM     34  C   UNL     1       7.988  11.067  -4.886  1.00  0.00     0.031 C 
ATOM     35  C   UNL     1       7.106   9.841  -6.857  1.00  0.00     0.031 A 
BRANCH  22  36
ATOM     36  C   UNL     1       4.393   4.611  -8.637  1.00  0.00    -0.014 A 
ATOM     37  C   UNL     1       5.283   4.168  -9.633  1.00  0.00     0.010 A 
ATOM     38  C   UNL     1       3.008   4.480  -8.851  1.00  0.00     0.010 A 
ATOM     39  C   UNL     1       4.798   3.664 -10.845  1.00  0.00     0.020 A 
ATOM     40  C   UNL     1       2.520   3.966 -10.058  1.00  0.00     0.020 A 
ATOM     41  C   UNL     1       3.418   3.588 -11.059  1.00  0.00     0.054 A 
BRANCH  41  42
ATOM     42  S   UNL     1       2.820   3.035 -12.682  1.00  0.00     0.124 S 
ATOM     43  O   UNL     1       3.262   4.112 -13.562  1.00  0.00    -0.237 OA
ATOM     44  O   UNL     1       3.510   1.758 -12.853  1.00  0.00    -0.237 OA
ATOM     45  O   UNL     1       1.373   2.932 -12.503  1.00  0.00    -0.744 OA
ENDBRANCH  41  42
ENDBRANCH  22  36
BRANCH  23  46
ATOM     46  C   UNL     1       7.512   9.963  -0.792  1.00  0.00    -0.014 A 
ATOM     47  C   UNL     1       8.498   9.366   0.021  1.00  0.00     0.010 A 
ATOM     48  C   UNL     1       6.954  11.188  -0.398  1.00  0.00     0.010 A 
ATOM     49  C   UNL     1       8.865   9.943   1.237  1.00  0.00     0.020 A 
ATOM     50  C   UNL     1       7.345  11.788   0.805  1.00  0.00     0.020 A 
ATOM     51  C   UNL     1       8.273  11.145   1.629  1.00  0.00     0.054 A 
BRANCH  51  52
ATOM     52  S   UNL     1       8.725  11.849   3.238  1.00  0.00     0.124 S 
ATOM     53  O   UNL     1       7.960  11.009   4.157  1.00  0.00    -0.237 OA
ATOM     54  O   UNL     1      10.173  11.663   3.274  1.00  0.00    -0.237 OA
ATOM     55  O   UNL     1       8.280  13.236   3.139  1.00  0.00    -0.744 OA
ENDBRANCH  51  52
ENDBRANCH  23  46
BRANCH  35  56
ATOM     56  C   UNL     1       7.697  10.883  -7.767  1.00  0.00    -0.014 A 
ATOM     57  C   UNL     1       6.843  11.716  -8.514  1.00  0.00     0.010 A 
ATOM     58  C   UNL     1       9.078  10.899  -8.028  1.00  0.00     0.010 A 
ATOM     59  C   UNL     1       7.349  12.491  -9.559  1.00  0.00     0.020 A 
ATOM     60  C   UNL     1       9.592  11.699  -9.052  1.00  0.00     0.020 A 
ATOM     61  C   UNL     1       8.718  12.459  -9.834  1.00  0.00     0.054 A 
BRANCH  61  62
ATOM     62  S   UNL     1       9.343  13.394 -11.257  1.00  0.00     0.124 S 
ATOM     63  O   UNL     1       8.911  12.569 -12.381  1.00  0.00    -0.237 OA
ATOM     64  O   UNL     1       8.662  14.680 -11.120  1.00  0.00    -0.237 OA
ATOM     65  O   UNL     1      10.787  13.436 -11.032  1.00  0.00    -0.744 OA
ENDBRANCH  61  62
ENDBRANCH  35  56
ENDBRANCH   9  10
ENDBRANCH   2   4
ENDBRANCH   1   2
BRANCH   1  66
ATOM     66  C   UNL     1       4.393  -1.324  -0.037  1.00  0.00     0.275 C 
BRANCH  66  67
ATOM     67  C   UNL     1       3.857  -1.498  -1.459  1.00  0.00     0.275 C 
BRANCH  67  68
ATOM     68  O   UNL     1       3.247  -0.312  -1.988  1.00  0.00    -0.458 OA
BRANCH  68  69
ATOM     69  C   UNL     1       1.889  -0.263  -1.889  1.00  0.00     0.339 C 
ATOM     70  O   UNL     1       1.171  -1.122  -1.399  1.00  0.00    -0.246 OA
BRANCH  69  71
ATOM     71  C   UNL     1       1.391   1.035  -2.398  1.00  0.00     0.074 A 
ATOM     72  C   UNL     1       1.720   1.356  -3.659  1.00  0.00     0.088 A 
ATOM     73  C   UNL     1       0.592   1.969  -1.582  1.00  0.00     0.014 A 
ATOM     74  C   UNL     1       1.331   2.656  -4.240  1.00  0.00     0.249 A 
ATOM     75  C   UNL     1       0.365   3.265  -2.082  1.00  0.00     0.063 A 
ATOM     76  C   UNL     1       0.135   1.655  -0.294  1.00  0.00     0.011 A 
ATOM     77  O   UNL     1       1.547   2.896  -5.420  1.00  0.00    -0.270 OA
ATOM     78  N   UNL     1       0.762   3.561  -3.396  1.00  0.00    -0.321 N 
ATOM     79  C   UNL     1      -0.244   4.239  -1.280  1.00  0.00     0.042 A 
ATOM     80  C   UNL     1      -0.491   2.624   0.495  1.00  0.00     0.002 A 
ATOM     81  H   UNL     1       0.621   4.478  -3.726  1.00  0.00     0.170 HD
ATOM     82  Br  UNL     1      -0.477   6.022  -1.886  1.00  0.00    -0.049 Br
ATOM     83  C   UNL     1      -0.664   3.919   0.011  1.00  0.00     0.018 A 
ENDBRANCH  69  71
ENDBRANCH  68  69
ENDBRANCH  67  68
ENDBRANCH  66  67
ENDBRANCH   1  66
TORSDOF 14
