REMARK SMILES O=C(Cc1ccc(=O)n(C(F)F)c1)OCCOC(=O)c1ccc(-c2c3nc(c(-c4ccc(S(=O)(=O)[O-])cc4)c4ccc([nH]4)c(-c4ccc(S(=O)(=O)[O-])cc4)c4nc(c(-c5ccc(S(=O)(=O)[O-])cc5)c5ccc2[nH]5)C=C4)C=C3)cc1
REMARK SMILES IDX 16 1 15 2 14 3 2 4 1 5 3 6 4 7 5 8 13 9 6 10 9 11 7 12 8 13
REMARK SMILES IDX 10 14 11 15 12 16 17 17 18 18 19 19 20 20 21 21 79 22 22 23
REMARK SMILES IDX 78 24 23 25 24 26 25 27 72 28 26 29 77 30 71 31 73 32 27 33
REMARK SMILES IDX 76 34 70 35 69 36 28 38 58 39 39 40 57 41 40 42 43 43 56 44
REMARK SMILES IDX 74 45 41 46 42 47 55 49 75 50 44 51 29 52 30 53 38 54 31 55
REMARK SMILES IDX 37 56 32 57 33 58 34 59 35 60 36 61 59 62 60 63 68 64 61 65
REMARK SMILES IDX 67 66 62 67 63 68 64 69 65 70 66 71 45 72 46 73 54 74 47 75
REMARK SMILES IDX 53 76 48 77 49 78 50 79 51 80 52 81
REMARK H PARENT 73 37 43 48
REMARK Flexibility Score: inf
ROOT
ATOM      1  C   UNL     1       4.340  -1.406  -1.701  1.00  0.00     0.275 C 
ENDROOT
BRANCH   1   2
ATOM      2  C   UNL     1       4.475  -1.086  -0.214  1.00  0.00     0.274 C 
BRANCH   2   3
ATOM      3  O   UNL     1       3.191  -1.076   0.449  1.00  0.00    -0.462 OA
BRANCH   3   4
ATOM      4  C   UNL     1       2.592  -0.001   1.015  1.00  0.00     0.310 C 
ATOM      5  O   UNL     1       1.699  -0.162   1.844  1.00  0.00    -0.252 OA
BRANCH   4   6
ATOM      6  C   UNL     1       3.043   1.390   0.609  1.00  0.00     0.159 C 
BRANCH   6   7
ATOM      7  C   UNL     1       4.076   2.053   1.480  1.00  0.00    -0.020 A 
ATOM      8  C   UNL     1       4.131   3.503   1.428  1.00  0.00     0.011 A 
ATOM      9  C   UNL     1       4.981   1.407   2.232  1.00  0.00     0.099 A 
ATOM     10  C   UNL     1       5.100   4.183   2.055  1.00  0.00     0.072 A 
ATOM     11  N   UNL     1       6.008   2.080   2.868  1.00  0.00    -0.258 N 
ATOM     12  C   UNL     1       6.155   3.458   2.810  1.00  0.00     0.254 A 
ATOM     13  O   UNL     1       7.075   4.094   3.312  1.00  0.00    -0.269 OA
BRANCH  11  14
ATOM     14  C   UNL     1       7.046   1.348   3.543  1.00  0.00     0.451 C 
ATOM     15  F   UNL     1       8.242   1.520   2.926  1.00  0.00    -0.185 F 
ATOM     16  F   UNL     1       7.176   1.731   4.835  1.00  0.00    -0.185 F 
ENDBRANCH  11  14
ENDBRANCH   6   7
ENDBRANCH   4   6
ENDBRANCH   3   4
ENDBRANCH   2   3
ENDBRANCH   1   2
BRANCH   1  17
ATOM     17  O   UNL     1       4.010  -0.204  -2.415  1.00  0.00    -0.458 OA
BRANCH  17  18
ATOM     18  C   UNL     1       2.689   0.013  -2.639  1.00  0.00     0.338 C 
ATOM     19  O   UNL     1       1.781  -0.762  -2.414  1.00  0.00    -0.246 OA
BRANCH  18  20
ATOM     20  C   UNL     1       2.503   1.448  -2.969  1.00  0.00     0.060 A 
ATOM     21  C   UNL     1       3.497   2.197  -3.611  1.00  0.00     0.016 A 
ATOM     22  C   UNL     1       1.327   2.070  -2.530  1.00  0.00     0.016 A 
ATOM     23  C   UNL     1       3.312   3.566  -3.810  1.00  0.00     0.010 A 
ATOM     24  C   UNL     1       1.145   3.439  -2.730  1.00  0.00     0.010 A 
ATOM     25  C   UNL     1       2.133   4.194  -3.377  1.00  0.00    -0.014 A 
BRANCH  25  26
ATOM     26  C   UNL     1       1.868   5.605  -3.735  1.00  0.00     0.031 A 
ATOM     27  C   UNL     1       2.073   6.723  -2.760  1.00  0.00     0.074 A 
ATOM     28  C   UNL     1       1.407   5.863  -4.973  1.00  0.00     0.049 A 
ATOM     29  N   UNL     1       1.933   8.008  -2.951  1.00  0.00    -0.248 NA
ATOM     30  C   UNL     1       2.489   6.356  -1.400  1.00  0.00     0.031 C 
ATOM     31  C   UNL     1       1.170   4.848  -6.000  1.00  0.00     0.029 A 
ATOM     32  N   UNL     1       1.060   7.044  -5.575  1.00  0.00    -0.354 N 
ATOM     33  C   UNL     1       2.260   8.611  -1.743  1.00  0.00     0.074 A 
ATOM     34  C   UNL     1       2.570   7.545  -0.813  1.00  0.00     0.031 C 
ATOM     35  C   UNL     1       0.729   5.452  -7.112  1.00  0.00     0.029 A 
ATOM     36  C   UNL     1       0.622   6.889  -6.867  1.00  0.00     0.049 A 
ATOM     37  H   UNL     1       1.118   7.918  -5.125  1.00  0.00     0.167 HD
ATOM     38  C   UNL     1       2.307   9.932  -1.450  1.00  0.00     0.031 A 
ATOM     39  C   UNL     1       0.180   7.795  -7.761  1.00  0.00     0.031 A 
ATOM     40  C   UNL     1       1.967  10.978  -2.382  1.00  0.00     0.049 A 
ATOM     41  C   UNL     1       0.170   9.248  -7.392  1.00  0.00     0.074 A 
ATOM     42  C   UNL     1       2.041  12.348  -2.192  1.00  0.00     0.029 A 
ATOM     43  N   UNL     1       1.467  10.781  -3.661  1.00  0.00    -0.354 N 
ATOM     44  N   UNL     1       0.564   9.809  -6.274  1.00  0.00    -0.248 NA
ATOM     45  C   UNL     1      -0.331  10.193  -8.399  1.00  0.00     0.031 C 
ATOM     46  C   UNL     1       1.511  12.975  -3.322  1.00  0.00     0.029 A 
ATOM     47  C   UNL     1       1.179  12.001  -4.251  1.00  0.00     0.049 A 
ATOM     48  H   UNL     1       1.336   9.903  -4.087  1.00  0.00     0.167 HD
ATOM     49  C   UNL     1       0.372  11.174  -6.445  1.00  0.00     0.074 A 
ATOM     50  C   UNL     1      -0.164  11.356  -7.780  1.00  0.00     0.031 C 
ATOM     51  C   UNL     1       0.624  12.180  -5.572  1.00  0.00     0.031 A 
BRANCH  38  52
ATOM     52  C   UNL     1       2.738  10.346  -0.067  1.00  0.00    -0.014 A 
ATOM     53  C   UNL     1       1.821  10.982   0.790  1.00  0.00     0.010 A 
ATOM     54  C   UNL     1       4.080  10.226   0.337  1.00  0.00     0.010 A 
ATOM     55  C   UNL     1       2.240  11.513   2.013  1.00  0.00     0.020 A 
ATOM     56  C   UNL     1       4.498  10.734   1.571  1.00  0.00     0.020 A 
ATOM     57  C   UNL     1       3.579  11.393   2.391  1.00  0.00     0.054 A 
BRANCH  57  58
ATOM     58  S   UNL     1       4.109  12.106   3.974  1.00  0.00     0.124 S 
ATOM     59  O   UNL     1       4.161  13.532   3.668  1.00  0.00    -0.237 OA
ATOM     60  O   UNL     1       3.042  11.693   4.882  1.00  0.00    -0.237 OA
ATOM     61  O   UNL     1       5.402  11.470   4.217  1.00  0.00    -0.744 OA
ENDBRANCH  57  58
ENDBRANCH  38  52
BRANCH  39  62
ATOM     62  C   UNL     1      -0.232   7.312  -9.105  1.00  0.00    -0.014 A 
ATOM     63  C   UNL     1      -1.393   6.529  -9.250  1.00  0.00     0.010 A 
ATOM     64  C   UNL     1       0.620   7.490 -10.207  1.00  0.00     0.010 A 
ATOM     65  C   UNL     1      -1.652   5.865 -10.450  1.00  0.00     0.020 A 
ATOM     66  C   UNL     1       0.349   6.848 -11.419  1.00  0.00     0.020 A 
ATOM     67  C   UNL     1      -0.764   6.009 -11.519  1.00  0.00     0.054 A 
BRANCH  67  68
ATOM     68  S   UNL     1      -1.053   5.043 -13.027  1.00  0.00     0.124 S 
ATOM     69  O   UNL     1      -0.646   3.705 -12.604  1.00  0.00    -0.237 OA
ATOM     70  O   UNL     1      -2.485   5.224 -13.252  1.00  0.00    -0.237 OA
ATOM     71  O   UNL     1      -0.184   5.679 -14.013  1.00  0.00    -0.744 OA
ENDBRANCH  67  68
ENDBRANCH  39  62
BRANCH  51  72
ATOM     72  C   UNL     1       0.310  13.591  -5.997  1.00  0.00    -0.014 A 
ATOM     73  C   UNL     1       1.357  14.512  -6.191  1.00  0.00     0.010 A 
ATOM     74  C   UNL     1      -1.020  14.045  -6.051  1.00  0.00     0.010 A 
ATOM     75  C   UNL     1       1.083  15.869  -6.379  1.00  0.00     0.020 A 
ATOM     76  C   UNL     1      -1.299  15.398  -6.266  1.00  0.00     0.020 A 
ATOM     77  C   UNL     1      -0.245  16.305  -6.399  1.00  0.00     0.054 A 
BRANCH  77  78
ATOM     78  S   UNL     1      -0.579  18.080  -6.577  1.00  0.00     0.124 S 
ATOM     79  O   UNL     1      -0.239  18.592  -5.253  1.00  0.00    -0.237 OA
ATOM     80  O   UNL     1       0.327  18.470  -7.655  1.00  0.00    -0.237 OA
ATOM     81  O   UNL     1      -1.999  18.128  -6.920  1.00  0.00    -0.744 OA
ENDBRANCH  77  78
ENDBRANCH  51  72
ENDBRANCH  25  26
ENDBRANCH  18  20
ENDBRANCH  17  18
ENDBRANCH   1  17
TORSDOF 16
