REMARK SMILES CCc1cccc(C)c1Nc1ccccc1CC(=O)OCCOC(=O)c1ccc(-c2c3nc(c(-c4ccc(S(=O)(=O)[O-])cc4)c4ccc([nH]4)c(-c4ccc(S(=O)(=O)[O-])cc4)c4nc(c(-c5ccc(S(=O)(=O)[O-])cc5)c5ccc2[nH]5)C=C4)C=C3)cc1
REMARK SMILES IDX 21 1 20 2 18 3 19 4 17 5 16 6 11 7 12 8 13 9 15 10 14 11
REMARK SMILES IDX 10 12 9 14 3 15 4 16 5 17 7 18 6 19 8 20 2 21 1 22 22 23
REMARK SMILES IDX 23 24 24 25 25 26 26 27 27 28 85 29 28 30 84 31 29 32 30 33
REMARK SMILES IDX 31 34 78 35 32 36 83 37 77 38 79 39 33 40 82 41 76 42 75 43
REMARK SMILES IDX 34 45 64 46 45 47 63 48 46 49 49 50 62 51 80 52 47 53 48 54
REMARK SMILES IDX 61 56 81 57 50 58 35 59 36 60 44 61 37 62 43 63 38 64 39 65
REMARK SMILES IDX 40 66 41 67 42 68 65 69 66 70 74 71 67 72 73 73 68 74 69 75
REMARK SMILES IDX 70 76 71 77 72 78 51 79 52 80 60 81 53 82 59 83 54 84 55 85
REMARK SMILES IDX 56 86 57 87 58 88
REMARK H PARENT 10 13 79 44 49 55
REMARK Flexibility Score: inf
ROOT
ATOM      1  C   UNL     1      -2.551   5.639   2.361  1.00  0.00     0.274 C 
ENDROOT
BRANCH   1   2
ATOM      2  O   UNL     1      -1.577   6.332   1.347  1.00  0.00    -0.462 OA
BRANCH   2   3
ATOM      3  C   UNL     1      -0.221   6.567   1.445  1.00  0.00     0.310 C 
ATOM      4  O   UNL     1       0.184   7.213   2.416  1.00  0.00    -0.252 OA
BRANCH   3   5
ATOM      5  C   UNL     1       0.869   5.903   0.413  1.00  0.00     0.160 C 
BRANCH   5   6
ATOM      6  C   UNL     1       0.746   5.316  -1.066  1.00  0.00    -0.013 A 
ATOM      7  C   UNL     1       0.421   3.980  -1.618  1.00  0.00     0.042 A 
ATOM      8  C   UNL     1       0.264   3.859  -3.019  1.00  0.00     0.026 A 
ATOM      9  C   UNL     1       0.495   4.915  -3.892  1.00  0.00     0.002 A 
ATOM     10  C   UNL     1       1.065   6.323  -2.020  1.00  0.00     0.006 A 
ATOM     11  C   UNL     1       0.950   6.125  -3.397  1.00  0.00     0.000 A 
BRANCH   7  12
ATOM     12  N   UNL     1       0.143   2.671  -0.993  1.00  0.00    -0.355 N 
ATOM     13  H   UNL     1       0.691   1.899  -1.266  1.00  0.00     0.167 HD
BRANCH  12  14
ATOM     14  C   UNL     1      -0.917   2.453   0.024  1.00  0.00     0.045 A 
ATOM     15  C   UNL     1      -1.221   0.930   0.937  1.00  0.00    -0.024 A 
ATOM     16  C   UNL     1      -1.302   0.952   2.749  1.00  0.00     0.006 A 
ATOM     17  C   UNL     1      -1.089   2.479   3.658  1.00  0.00     0.001 A 
ATOM     18  C   UNL     1      -0.847   4.000   0.859  1.00  0.00    -0.027 A 
ATOM     19  C   UNL     1      -0.802   4.032   2.718  1.00  0.00     0.005 A 
ATOM     20  C   UNL     1      -1.955   4.716  -0.204  1.00  0.00     0.046 C 
BRANCH  15  21
ATOM     21  C   UNL     1      -1.010  -0.446   0.352  1.00  0.00     0.034 C 
ATOM     22  C   UNL     1       0.012  -0.547  -0.766  1.00  0.00     0.009 C 
ENDBRANCH  15  21
ENDBRANCH  12  14
ENDBRANCH   7  12
ENDBRANCH   5   6
ENDBRANCH   3   5
ENDBRANCH   2   3
ENDBRANCH   1   2
BRANCH   1  23
ATOM     23  C   UNL     1      -2.909   3.851   2.248  1.00  0.00     0.275 C 
BRANCH  23  24
ATOM     24  O   UNL     1      -1.627   2.624   1.842  1.00  0.00    -0.458 OA
BRANCH  24  25
ATOM     25  C   UNL     1       0.275   2.346   1.912  1.00  0.00     0.338 C 
ATOM     26  O   UNL     1       0.875   1.370   1.416  1.00  0.00    -0.246 OA
BRANCH  25  27
ATOM     27  C   UNL     1       1.491   3.139   2.461  1.00  0.00     0.060 A 
ATOM     28  C   UNL     1       2.751   3.380   1.868  1.00  0.00     0.016 A 
ATOM     29  C   UNL     1       1.425   3.587   3.723  1.00  0.00     0.016 A 
ATOM     30  C   UNL     1       3.619   4.308   2.496  1.00  0.00     0.010 A 
ATOM     31  C   UNL     1       1.722   4.892   3.771  1.00  0.00     0.010 A 
ATOM     32  C   UNL     1       3.046   5.078   3.500  1.00  0.00    -0.014 A 
BRANCH  32  33
ATOM     33  C   UNL     1       3.557   5.929   4.567  1.00  0.00     0.031 A 
ATOM     34  C   UNL     1       3.826   7.331   4.247  1.00  0.00     0.074 A 
ATOM     35  C   UNL     1       3.230   5.429   5.803  1.00  0.00     0.049 A 
ATOM     36  N   UNL     1       4.627   8.091   4.893  1.00  0.00    -0.248 NA
ATOM     37  C   UNL     1       3.174   8.027   3.134  1.00  0.00     0.031 C 
ATOM     38  C   UNL     1       3.067   5.958   7.148  1.00  0.00     0.029 A 
ATOM     39  N   UNL     1       2.869   4.075   6.030  1.00  0.00    -0.354 N 
ATOM     40  C   UNL     1       4.219   9.382   4.619  1.00  0.00     0.074 A 
ATOM     41  C   UNL     1       3.489   9.303   3.380  1.00  0.00     0.031 C 
ATOM     42  C   UNL     1       3.140   4.914   8.021  1.00  0.00     0.029 A 
ATOM     43  C   UNL     1       3.383   3.686   7.247  1.00  0.00     0.049 A 
ATOM     44  H   UNL     1       2.342   3.510   5.420  1.00  0.00     0.167 HD
ATOM     45  C   UNL     1       4.293  10.311   5.615  1.00  0.00     0.031 A 
ATOM     46  C   UNL     1       4.511   2.925   7.125  1.00  0.00     0.031 A 
ATOM     47  C   UNL     1       4.750   9.659   6.858  1.00  0.00     0.049 A 
ATOM     48  C   UNL     1       5.689   3.810   7.454  1.00  0.00     0.074 A 
ATOM     49  C   UNL     1       4.081   9.268   8.007  1.00  0.00     0.029 A 
ATOM     50  N   UNL     1       5.941   8.934   6.848  1.00  0.00    -0.354 N 
ATOM     51  N   UNL     1       5.661   5.112   7.374  1.00  0.00    -0.248 NA
ATOM     52  C   UNL     1       6.954   3.309   7.962  1.00  0.00     0.031 C 
ATOM     53  C   UNL     1       4.823   8.198   8.601  1.00  0.00     0.029 A 
ATOM     54  C   UNL     1       5.930   7.931   7.810  1.00  0.00     0.049 A 
ATOM     55  H   UNL     1       6.693   9.109   6.237  1.00  0.00     0.167 HD
ATOM     56  C   UNL     1       6.816   5.641   7.839  1.00  0.00     0.074 A 
ATOM     57  C   UNL     1       7.599   4.464   8.202  1.00  0.00     0.031 C 
ATOM     58  C   UNL     1       7.050   6.986   7.874  1.00  0.00     0.031 A 
BRANCH  45  59
ATOM     59  C   UNL     1       3.669  11.694   5.575  1.00  0.00    -0.014 A 
ATOM     60  C   UNL     1       3.487  12.395   6.786  1.00  0.00     0.010 A 
ATOM     61  C   UNL     1       3.278  12.382   4.405  1.00  0.00     0.010 A 
ATOM     62  C   UNL     1       2.930  13.682   6.838  1.00  0.00     0.020 A 
ATOM     63  C   UNL     1       2.699  13.667   4.442  1.00  0.00     0.020 A 
ATOM     64  C   UNL     1       2.537  14.313   5.663  1.00  0.00     0.054 A 
BRANCH  64  65
ATOM     65  S   UNL     1       1.868  15.997   5.758  1.00  0.00     0.124 S 
ATOM     66  O   UNL     1       0.697  15.823   6.614  1.00  0.00    -0.237 OA
ATOM     67  O   UNL     1       2.976  16.740   6.354  1.00  0.00    -0.237 OA
ATOM     68  O   UNL     1       1.572  16.335   4.368  1.00  0.00    -0.744 OA
ENDBRANCH  64  65
ENDBRANCH  45  59
BRANCH  46  69
ATOM     69  C   UNL     1       4.462   1.910   5.978  1.00  0.00    -0.014 A 
ATOM     70  C   UNL     1       3.396   0.970   5.916  1.00  0.00     0.010 A 
ATOM     71  C   UNL     1       5.275   2.009   4.833  1.00  0.00     0.010 A 
ATOM     72  C   UNL     1       3.137   0.193   4.766  1.00  0.00     0.020 A 
ATOM     73  C   UNL     1       5.033   1.218   3.684  1.00  0.00     0.020 A 
ATOM     74  C   UNL     1       3.968   0.312   3.655  1.00  0.00     0.054 A 
BRANCH  74  75
ATOM     75  S   UNL     1       3.665  -0.682   2.149  1.00  0.00     0.124 S 
ATOM     76  O   UNL     1       4.740  -1.669   2.224  1.00  0.00    -0.237 OA
ATOM     77  O   UNL     1       2.327  -1.233   2.357  1.00  0.00    -0.237 OA
ATOM     78  O   UNL     1       3.802   0.293   1.069  1.00  0.00    -0.744 OA
ENDBRANCH  74  75
ENDBRANCH  46  69
BRANCH  58  79
ATOM     79  C   UNL     1       8.433   7.539   8.019  1.00  0.00    -0.014 A 
ATOM     80  C   UNL     1       9.584   6.804   7.701  1.00  0.00     0.010 A 
ATOM     81  C   UNL     1       8.597   8.895   8.373  1.00  0.00     0.010 A 
ATOM     82  C   UNL     1      10.850   7.343   7.898  1.00  0.00     0.020 A 
ATOM     83  C   UNL     1       9.855   9.472   8.479  1.00  0.00     0.020 A 
ATOM     84  C   UNL     1      10.974   8.669   8.306  1.00  0.00     0.054 A 
BRANCH  84  85
ATOM     85  S   UNL     1      12.616   9.335   8.618  1.00  0.00     0.124 S 
ATOM     86  O   UNL     1      12.875   8.845   9.970  1.00  0.00    -0.237 OA
ATOM     87  O   UNL     1      13.420   8.723   7.563  1.00  0.00    -0.237 OA
ATOM     88  O   UNL     1      12.430  10.778   8.497  1.00  0.00    -0.744 OA
ENDBRANCH  84  85
ENDBRANCH  58  79
ENDBRANCH  32  33
ENDBRANCH  25  27
ENDBRANCH  24  25
ENDBRANCH  23  24
ENDBRANCH   1  23
TORSDOF 18
