REMARK SMILES Cc1cccc2sc(NC(=O)/C=C/C(=O)OCCOC(=O)c3ccc(-c4c5nc(c(-c6ccc(S(=O)(=O)[O-])cc6)c6ccc([nH]6)c(-c6ccc(S(=O)(=O)[O-])cc6)c6nc(c(-c7ccc(S(=O)(=O)[O-])cc7)c7ccc4[nH]7)C=C6)C=C5)cc3)nc12
REMARK SMILES IDX 18 1 17 2 16 3 14 4 15 5 13 6 12 7 10 8 9 9 11 11 8 12 1 13
REMARK SMILES IDX 2 14 3 15 83 16 4 17 6 18 82 19 5 20 7 21 19 22 20 23 21 24
REMARK SMILES IDX 22 25 23 26 81 27 24 28 80 29 25 30 26 31 27 32 74 33 28 34
REMARK SMILES IDX 79 35 73 36 75 37 29 38 78 39 72 40 71 41 30 43 60 44 41 45
REMARK SMILES IDX 59 46 42 47 45 48 58 49 76 50 43 51 44 52 57 54 77 55 46 56
REMARK SMILES IDX 31 57 32 58 40 59 33 60 39 61 34 62 35 63 36 64 37 65 38 66
REMARK SMILES IDX 61 67 62 68 70 69 63 70 69 71 64 72 65 73 66 74 67 75 68 76
REMARK SMILES IDX 47 77 48 78 56 79 49 80 55 81 50 82 51 83 52 84 53 85 54 86
REMARK H PARENT 9 10 75 42 45 53
REMARK Flexibility Score: inf
ROOT
ATOM      1  C   UNL     1      -4.799   4.393   1.474  1.00  0.00     0.275 C 
ENDROOT
BRANCH   1   2
ATOM      2  C   UNL     1      -5.340   3.739   0.199  1.00  0.00     0.275 C 
BRANCH   2   3
ATOM      3  O   UNL     1      -5.189   2.299   0.206  1.00  0.00    -0.459 OA
BRANCH   3   4
ATOM      4  C   UNL     1      -4.693   1.775  -0.947  1.00  0.00     0.331 C 
ATOM      5  O   UNL     1      -4.233   2.405  -1.875  1.00  0.00    -0.247 OA
BRANCH   4   6
ATOM      6  C   UNL     1      -4.751   0.292  -1.005  1.00  0.00     0.099 C 
ATOM      7  C   UNL     1      -4.865  -0.528   0.051  1.00  0.00     0.079 C 
BRANCH   7   8
ATOM      8  C   UNL     1      -4.549  -1.977  -0.093  1.00  0.00     0.250 C 
ATOM      9  N   UNL     1      -3.262  -2.460  -0.086  1.00  0.00    -0.298 N 
ATOM     10  H   UNL     1      -3.205  -3.442  -0.040  1.00  0.00     0.172 HD
ATOM     11  O   UNL     1      -5.495  -2.763  -0.166  1.00  0.00    -0.270 OA
BRANCH   9  12
ATOM     12  C   UNL     1      -2.036  -1.831  -0.132  1.00  0.00     0.190 A 
ATOM     13  C   UNL     1       2.252  -2.952  -0.306  1.00  0.00     0.047 C 
ATOM     14  C   UNL     1       1.522  -1.711  -0.727  1.00  0.00    -0.024 A 
ATOM     15  C   UNL     1       2.264  -0.674  -1.343  1.00  0.00     0.006 A 
ATOM     16  C   UNL     1       0.129  -1.515  -0.556  1.00  0.00     0.087 A 
ATOM     17  C   UNL     1       1.679   0.529  -1.723  1.00  0.00     0.002 A 
ATOM     18  C   UNL     1      -0.366  -0.241  -0.815  1.00  0.00     0.057 A 
ATOM     19  N   UNL     1      -0.868  -2.441  -0.175  1.00  0.00    -0.220 NA
ATOM     20  C   UNL     1       0.356   0.788  -1.419  1.00  0.00     0.021 A 
ATOM     21  S   UNL     1      -1.931  -0.154  -0.202  1.00  0.00    -0.097 S 
ENDBRANCH   9  12
ENDBRANCH   7   8
ENDBRANCH   4   6
ENDBRANCH   3   4
ENDBRANCH   2   3
ENDBRANCH   1   2
BRANCH   1  22
ATOM     22  O   UNL     1      -3.356   4.436   1.466  1.00  0.00    -0.458 OA
BRANCH  22  23
ATOM     23  C   UNL     1      -2.749   3.733   2.450  1.00  0.00     0.338 C 
ATOM     24  O   UNL     1      -3.295   3.080   3.328  1.00  0.00    -0.246 OA
BRANCH  23  25
ATOM     25  C   UNL     1      -1.292   3.687   2.225  1.00  0.00     0.060 A 
ATOM     26  C   UNL     1      -0.774   2.444   1.880  1.00  0.00     0.016 A 
ATOM     27  C   UNL     1      -0.428   4.765   2.433  1.00  0.00     0.016 A 
ATOM     28  C   UNL     1       0.592   2.272   1.682  1.00  0.00     0.010 A 
ATOM     29  C   UNL     1       0.961   4.584   2.269  1.00  0.00     0.010 A 
ATOM     30  C   UNL     1       1.477   3.335   1.879  1.00  0.00    -0.014 A 
BRANCH  30  31
ATOM     31  C   UNL     1       2.929   3.046   1.736  1.00  0.00     0.031 A 
ATOM     32  C   UNL     1       3.666   2.381   2.866  1.00  0.00     0.074 A 
ATOM     33  C   UNL     1       3.541   3.198   0.545  1.00  0.00     0.049 A 
ATOM     34  N   UNL     1       4.907   1.970   2.914  1.00  0.00    -0.248 NA
ATOM     35  C   UNL     1       2.897   2.132   4.095  1.00  0.00     0.031 C 
ATOM     36  C   UNL     1       2.902   3.700  -0.670  1.00  0.00     0.029 A 
ATOM     37  N   UNL     1       4.817   2.879   0.144  1.00  0.00    -0.354 N 
ATOM     38  C   UNL     1       5.082   1.448   4.190  1.00  0.00     0.074 A 
ATOM     39  C   UNL     1       3.808   1.557   4.869  1.00  0.00     0.031 C 
ATOM     40  C   UNL     1       3.767   3.591  -1.694  1.00  0.00     0.029 A 
ATOM     41  C   UNL     1       5.039   3.062  -1.202  1.00  0.00     0.049 A 
ATOM     42  H   UNL     1       5.509   2.550   0.763  1.00  0.00     0.167 HD
ATOM     43  C   UNL     1       6.211   0.963   4.760  1.00  0.00     0.031 A 
ATOM     44  C   UNL     1       6.138   2.832  -1.951  1.00  0.00     0.031 A 
ATOM     45  C   UNL     1       7.487   0.884   4.100  1.00  0.00     0.049 A 
ATOM     46  C   UNL     1       7.400   2.350  -1.278  1.00  0.00     0.074 A 
ATOM     47  C   UNL     1       8.710   0.508   4.632  1.00  0.00     0.029 A 
ATOM     48  N   UNL     1       7.709   1.187   2.767  1.00  0.00    -0.354 N 
ATOM     49  N   UNL     1       7.577   1.953  -0.041  1.00  0.00    -0.248 NA
ATOM     50  C   UNL     1       8.622   2.324  -2.098  1.00  0.00     0.031 C 
ATOM     51  C   UNL     1       9.680   0.637   3.632  1.00  0.00     0.029 A 
ATOM     52  C   UNL     1       9.052   1.032   2.463  1.00  0.00     0.049 A 
ATOM     53  H   UNL     1       7.015   1.471   2.129  1.00  0.00     0.167 HD
ATOM     54  C   UNL     1       8.931   1.648   0.069  1.00  0.00     0.074 A 
ATOM     55  C   UNL     1       9.517   1.857  -1.238  1.00  0.00     0.031 C 
ATOM     56  C   UNL     1       9.630   1.254   1.162  1.00  0.00     0.031 A 
BRANCH  43  57
ATOM     57  C   UNL     1       6.140   0.606   6.218  1.00  0.00    -0.014 A 
ATOM     58  C   UNL     1       5.538  -0.582   6.667  1.00  0.00     0.010 A 
ATOM     59  C   UNL     1       6.700   1.492   7.158  1.00  0.00     0.010 A 
ATOM     60  C   UNL     1       5.465  -0.858   8.036  1.00  0.00     0.020 A 
ATOM     61  C   UNL     1       6.649   1.209   8.523  1.00  0.00     0.020 A 
ATOM     62  C   UNL     1       6.013   0.044   8.956  1.00  0.00     0.054 A 
BRANCH  62  63
ATOM     63  S   UNL     1       5.902  -0.330  10.727  1.00  0.00     0.124 S 
ATOM     64  O   UNL     1       4.492  -0.063  11.002  1.00  0.00    -0.237 OA
ATOM     65  O   UNL     1       6.299  -1.734  10.785  1.00  0.00    -0.237 OA
ATOM     66  O   UNL     1       6.843   0.606  11.339  1.00  0.00    -0.744 OA
ENDBRANCH  62  63
ENDBRANCH  43  57
BRANCH  44  67
ATOM     67  C   UNL     1       6.130   3.097  -3.420  1.00  0.00    -0.014 A 
ATOM     68  C   UNL     1       6.331   2.050  -4.339  1.00  0.00     0.010 A 
ATOM     69  C   UNL     1       5.961   4.405  -3.909  1.00  0.00     0.010 A 
ATOM     70  C   UNL     1       6.378   2.309  -5.714  1.00  0.00     0.020 A 
ATOM     71  C   UNL     1       5.973   4.663  -5.282  1.00  0.00     0.020 A 
ATOM     72  C   UNL     1       6.198   3.616  -6.176  1.00  0.00     0.054 A 
BRANCH  72  73
ATOM     73  S   UNL     1       6.217   3.934  -7.963  1.00  0.00     0.124 S 
ATOM     74  O   UNL     1       7.647   3.943  -8.253  1.00  0.00    -0.237 OA
ATOM     75  O   UNL     1       5.469   2.800  -8.498  1.00  0.00    -0.237 OA
ATOM     76  O   UNL     1       5.543   5.226  -8.082  1.00  0.00    -0.744 OA
ENDBRANCH  72  73
ENDBRANCH  44  67
BRANCH  56  77
ATOM     77  C   UNL     1      11.113   1.036   1.005  1.00  0.00    -0.014 A 
ATOM     78  C   UNL     1      11.991   2.124   0.849  1.00  0.00     0.010 A 
ATOM     79  C   UNL     1      11.645  -0.265   1.084  1.00  0.00     0.010 A 
ATOM     80  C   UNL     1      13.370   1.914   0.750  1.00  0.00     0.020 A 
ATOM     81  C   UNL     1      13.025  -0.476   1.010  1.00  0.00     0.020 A 
ATOM     82  C   UNL     1      13.878   0.614   0.831  1.00  0.00     0.054 A 
BRANCH  82  83
ATOM     83  S   UNL     1      15.675   0.372   0.752  1.00  0.00     0.124 S 
ATOM     84  O   UNL     1      15.949   0.590  -0.665  1.00  0.00    -0.237 OA
ATOM     85  O   UNL     1      16.179   1.405   1.655  1.00  0.00    -0.237 OA
ATOM     86  O   UNL     1      15.861  -1.000   1.219  1.00  0.00    -0.744 OA
ENDBRANCH  82  83
ENDBRANCH  56  77
ENDBRANCH  30  31
ENDBRANCH  23  25
ENDBRANCH  22  23
ENDBRANCH   1  22
TORSDOF 16
