REMARK SMILES O=C(OCCOC(=O)c1ccccc1SCc1ccccc1F)c1ccc(-c2c3nc(c(-c4ccc(S(=O)(=O)[O-])cc4)c4ccc([nH]4)c(-c4ccc(S(=O)(=O)[O-])cc4)c4nc(c(-c5ccc(S(=O)(=O)[O-])cc5)c5ccc2[nH]5)C=C4)C=C3)cc1
REMARK SMILES IDX 4 1 3 2 2 3 1 4 24 5 25 6 83 7 26 8 82 9 27 10 28 11 29 12
REMARK SMILES IDX 76 13 30 14 81 15 75 16 77 17 31 18 80 19 74 20 73 21 32 23
REMARK SMILES IDX 62 24 43 25 61 26 44 27 47 28 60 29 78 30 45 31 46 32 59 34
REMARK SMILES IDX 79 35 48 36 33 37 34 38 42 39 35 40 41 41 36 42 37 43 38 44
REMARK SMILES IDX 39 45 40 46 63 47 64 48 72 49 65 50 71 51 66 52 67 53 68 54
REMARK SMILES IDX 69 55 70 56 49 57 50 58 58 59 51 60 57 61 52 62 53 63 54 64
REMARK SMILES IDX 55 65 56 66 5 67 6 68 7 69 8 70 9 71 10 72 14 73 11 74 13 75
REMARK SMILES IDX 12 76 15 77 16 78 17 79 18 80 22 81 19 82 21 83 23 84 20 85
REMARK H PARENT 77 22 47 33
REMARK Flexibility Score: inf
ROOT
ATOM      1  C   UNL     1       2.945  -1.259  -0.011  1.00  0.00     0.275 C 
ENDROOT
BRANCH   1   2
ATOM      2  O   UNL     1       1.897  -0.304   0.264  1.00  0.00    -0.458 OA
BRANCH   2   3
ATOM      3  C   UNL     1       1.868   0.227   1.515  1.00  0.00     0.338 C 
ATOM      4  O   UNL     1       1.265  -0.282   2.445  1.00  0.00    -0.246 OA
BRANCH   3   5
ATOM      5  C   UNL     1       2.483   1.589   1.573  1.00  0.00     0.060 A 
ATOM      6  C   UNL     1       3.533   1.924   0.734  1.00  0.00     0.016 A 
ATOM      7  C   UNL     1       2.057   2.552   2.496  1.00  0.00     0.016 A 
ATOM      8  C   UNL     1       4.147   3.171   0.811  1.00  0.00     0.010 A 
ATOM      9  C   UNL     1       2.691   3.819   2.569  1.00  0.00     0.010 A 
ATOM     10  C   UNL     1       3.777   4.136   1.738  1.00  0.00    -0.014 A 
BRANCH  10  11
ATOM     11  C   UNL     1       4.665   5.343   1.891  1.00  0.00     0.031 A 
ATOM     12  C   UNL     1       5.454   5.514   3.154  1.00  0.00     0.074 A 
ATOM     13  C   UNL     1       4.971   6.176   0.869  1.00  0.00     0.049 A 
ATOM     14  N   UNL     1       6.264   6.484   3.490  1.00  0.00    -0.248 NA
ATOM     15  C   UNL     1       5.355   4.434   4.146  1.00  0.00     0.031 C 
ATOM     16  C   UNL     1       4.499   5.999  -0.489  1.00  0.00     0.029 A 
ATOM     17  N   UNL     1       5.779   7.288   0.769  1.00  0.00    -0.354 N 
ATOM     18  C   UNL     1       6.747   6.149   4.745  1.00  0.00     0.074 A 
ATOM     19  C   UNL     1       6.132   4.892   5.114  1.00  0.00     0.031 C 
ATOM     20  C   UNL     1       5.027   6.922  -1.302  1.00  0.00     0.029 A 
ATOM     21  C   UNL     1       5.823   7.834  -0.500  1.00  0.00     0.049 A 
ATOM     22  H   UNL     1       6.280   7.659   1.531  1.00  0.00     0.167 HD
ATOM     23  C   UNL     1       7.621   6.828   5.523  1.00  0.00     0.031 A 
ATOM     24  C   UNL     1       6.403   8.953  -0.982  1.00  0.00     0.031 A 
ATOM     25  C   UNL     1       8.234   8.079   5.167  1.00  0.00     0.049 A 
ATOM     26  C   UNL     1       7.201   9.800  -0.038  1.00  0.00     0.074 A 
ATOM     27  C   UNL     1       9.053   8.883   5.940  1.00  0.00     0.029 A 
ATOM     28  N   UNL     1       8.102   8.708   3.938  1.00  0.00    -0.354 N 
ATOM     29  N   UNL     1       7.533   9.540   1.203  1.00  0.00    -0.248 NA
ATOM     30  C   UNL     1       7.692  11.089  -0.542  1.00  0.00     0.031 C 
ATOM     31  C   UNL     1       9.369  10.027   5.198  1.00  0.00     0.029 A 
ATOM     32  C   UNL     1       8.795   9.908   3.942  1.00  0.00     0.049 A 
ATOM     33  H   UNL     1       7.590   8.354   3.175  1.00  0.00     0.167 HD
ATOM     34  C   UNL     1       8.294  10.621   1.623  1.00  0.00     0.074 A 
ATOM     35  C   UNL     1       8.380  11.536   0.502  1.00  0.00     0.031 C 
ATOM     36  C   UNL     1       8.870  10.824   2.832  1.00  0.00     0.031 A 
BRANCH  23  37
ATOM     37  C   UNL     1       7.856   6.258   6.891  1.00  0.00    -0.014 A 
ATOM     38  C   UNL     1       8.643   5.110   7.088  1.00  0.00     0.010 A 
ATOM     39  C   UNL     1       7.201   6.847   7.987  1.00  0.00     0.010 A 
ATOM     40  C   UNL     1       8.713   4.520   8.352  1.00  0.00     0.020 A 
ATOM     41  C   UNL     1       7.290   6.274   9.255  1.00  0.00     0.020 A 
ATOM     42  C   UNL     1       8.021   5.097   9.423  1.00  0.00     0.054 A 
BRANCH  42  43
ATOM     43  S   UNL     1       8.077   4.283  11.041  1.00  0.00     0.124 S 
ATOM     44  O   UNL     1       7.185   3.145  10.832  1.00  0.00    -0.237 OA
ATOM     45  O   UNL     1       9.492   3.953  11.187  1.00  0.00    -0.237 OA
ATOM     46  O   UNL     1       7.580   5.304  11.959  1.00  0.00    -0.744 OA
ENDBRANCH  42  43
ENDBRANCH  23  37
BRANCH  24  47
ATOM     47  C   UNL     1       6.195   9.369  -2.403  1.00  0.00    -0.014 A 
ATOM     48  C   UNL     1       7.263   9.409  -3.317  1.00  0.00     0.010 A 
ATOM     49  C   UNL     1       4.910   9.733  -2.850  1.00  0.00     0.010 A 
ATOM     50  C   UNL     1       7.050   9.807  -4.644  1.00  0.00     0.020 A 
ATOM     51  C   UNL     1       4.687  10.105  -4.180  1.00  0.00     0.020 A 
ATOM     52  C   UNL     1       5.762  10.149  -5.068  1.00  0.00     0.054 A 
BRANCH  52  53
ATOM     53  S   UNL     1       5.497  10.612  -6.804  1.00  0.00     0.124 S 
ATOM     54  O   UNL     1       6.095  11.942  -6.861  1.00  0.00    -0.237 OA
ATOM     55  O   UNL     1       6.215   9.564  -7.525  1.00  0.00    -0.237 OA
ATOM     56  O   UNL     1       4.043  10.573  -6.951  1.00  0.00    -0.744 OA
ENDBRANCH  52  53
ENDBRANCH  24  47
BRANCH  36  57
ATOM     57  C   UNL     1       9.672  12.083   3.005  1.00  0.00    -0.014 A 
ATOM     58  C   UNL     1       9.043  13.334   3.130  1.00  0.00     0.010 A 
ATOM     59  C   UNL     1      11.073  12.004   3.091  1.00  0.00     0.010 A 
ATOM     60  C   UNL     1       9.805  14.489   3.317  1.00  0.00     0.020 A 
ATOM     61  C   UNL     1      11.837  13.154   3.302  1.00  0.00     0.020 A 
ATOM     62  C   UNL     1      11.198  14.392   3.402  1.00  0.00     0.054 A 
BRANCH  62  63
ATOM     63  S   UNL     1      12.164  15.898   3.699  1.00  0.00     0.124 S 
ATOM     64  O   UNL     1      12.135  16.540   2.389  1.00  0.00    -0.237 OA
ATOM     65  O   UNL     1      11.397  16.570   4.746  1.00  0.00    -0.237 OA
ATOM     66  O   UNL     1      13.469  15.394   4.119  1.00  0.00    -0.744 OA
ENDBRANCH  62  63
ENDBRANCH  36  57
ENDBRANCH  10  11
ENDBRANCH   3   5
ENDBRANCH   2   3
ENDBRANCH   1   2
BRANCH   1  67
ATOM     67  C   UNL     1       3.188  -1.298  -1.526  1.00  0.00     0.275 C 
BRANCH  67  68
ATOM     68  O   UNL     1       3.369   0.052  -1.988  1.00  0.00    -0.458 OA
BRANCH  68  69
ATOM     69  C   UNL     1       2.285   0.579  -2.606  1.00  0.00     0.339 C 
ATOM     70  O   UNL     1       1.375  -0.041  -3.113  1.00  0.00    -0.246 OA
BRANCH  69  71
ATOM     71  C   UNL     1       2.181   2.015  -2.290  1.00  0.00     0.073 A 
ATOM     72  C   UNL     1       0.962   2.338  -1.627  1.00  0.00     0.017 A 
ATOM     73  C   UNL     1       3.085   3.015  -2.652  1.00  0.00     0.022 A 
ATOM     74  C   UNL     1       0.595   3.653  -1.365  1.00  0.00     0.001 A 
ATOM     75  C   UNL     1       2.575   4.334  -2.547  1.00  0.00     0.016 A 
ATOM     76  C   UNL     1       1.385   4.660  -1.877  1.00  0.00     0.001 A 
BRANCH  73  77
ATOM     77  S   UNL     1       4.755   3.019  -3.314  1.00  0.00    -0.120 SA
BRANCH  77  78
ATOM     78  C   UNL     1       5.806   1.606  -2.814  1.00  0.00     0.113 C 
BRANCH  78  79
ATOM     79  C   UNL     1       6.352   1.428  -1.410  1.00  0.00    -0.002 A 
ATOM     80  C   UNL     1       6.362   0.138  -0.842  1.00  0.00     0.007 A 
ATOM     81  C   UNL     1       6.981   2.433  -0.669  1.00  0.00     0.127 A 
ATOM     82  C   UNL     1       6.809  -0.097   0.465  1.00  0.00     0.001 A 
ATOM     83  C   UNL     1       7.425   2.214   0.645  1.00  0.00     0.039 A 
ATOM     84  F   UNL     1       7.104   3.665  -1.176  1.00  0.00    -0.207 F 
ATOM     85  C   UNL     1       7.309   0.953   1.226  1.00  0.00     0.003 A 
ENDBRANCH  78  79
ENDBRANCH  77  78
ENDBRANCH  73  77
ENDBRANCH  69  71
ENDBRANCH  68  69
ENDBRANCH  67  68
ENDBRANCH   1  67
TORSDOF 17
