REMARK SMILES C=C1C(=O)O[C@@H]2[C@H]1[C@H](OC(=O)[C@]1(C)O[C@@H]1C)[C@@H](OC(C)=O)/C(C(=O)OCCOC(=O)c1ccc(-c3c4nc(c(-c5ccc(S(=O)(=O)[O-])cc5)c5ccc([nH]5)c(-c5ccc(S(=O)(=O)[O-])cc5)c5nc(c(-c6ccc(S(=O)(=O)[O-])cc6)c6ccc3[nH]6)C=C5)C=C4)cc1)=C\[C@H]1O[C@H]1[C@@]1(C)O[C@@H]21
REMARK SMILES IDX 26 1 25 2 23 3 24 4 22 5 91 6 92 7 94 8 93 9 95 10 98 11
REMARK SMILES IDX 97 12 96 13 6 14 1 15 2 16 3 17 7 18 4 19 5 20 17 22 8 23
REMARK SMILES IDX 9 25 10 26 11 27 12 28 14 29 15 30 13 31 16 32 18 33 19 34
REMARK SMILES IDX 20 35 21 36 27 37 28 38 29 39 30 40 31 41 32 42 90 43 33 44
REMARK SMILES IDX 89 45 34 46 35 47 36 48 83 49 37 50 88 51 82 52 84 53 38 54
REMARK SMILES IDX 87 55 81 56 80 57 39 59 69 60 50 61 68 62 51 63 54 64 67 65
REMARK SMILES IDX 85 66 52 67 53 68 66 70 86 71 55 72 40 73 41 74 49 75 42 76
REMARK SMILES IDX 48 77 43 78 44 79 45 80 46 81 47 82 70 83 71 84 79 85 72 86
REMARK SMILES IDX 78 87 73 88 74 89 75 90 76 91 77 92 56 93 57 94 65 95 58 96
REMARK SMILES IDX 64 97 59 98 60 99 61 100 62 101 63 102
REMARK H PARENT 84 58 54 69
REMARK Flexibility Score: 90.00
ROOT
ATOM      1  C   UNL     1      -0.582  -4.105   2.319  1.00  0.00     0.275 C 
ENDROOT
BRANCH   1   2
ATOM      2  O   UNL     1      -1.644  -3.174   2.603  1.00  0.00    -0.459 OA
BRANCH   2   3
ATOM      3  C   UNL     1      -1.215  -1.923   2.889  1.00  0.00     0.337 C 
ATOM      4  O   UNL     1      -0.118  -1.465   2.634  1.00  0.00    -0.246 OA
BRANCH   3   5
ATOM      5  C   UNL     1      -2.066  -1.279   3.903  1.00  0.00     0.080 C 
ATOM      6  C   UNL     1      -3.309  -0.944   3.507  1.00  0.00     0.022 C 
BRANCH   6   7
ATOM      7  C   UNL     1      -4.487  -0.472   4.239  1.00  0.00     0.174 C 
ATOM      8  C   UNL     1      -4.621   0.954   4.749  1.00  0.00     0.186 C 
ATOM      9  O   UNL     1      -4.524  -0.174   5.628  1.00  0.00    -0.362 OA
BRANCH   8  10
ATOM     10  C   UNL     1      -3.667   2.112   5.082  1.00  0.00     0.125 C 
ATOM     11  C   UNL     1      -2.566   2.292   6.134  1.00  0.00     0.195 C 
ATOM     12  O   UNL     1      -3.926   2.645   6.400  1.00  0.00    -0.359 OA
ATOM     13  C   UNL     1      -3.698   3.202   4.034  1.00  0.00     0.048 C 
BRANCH  11  14
ATOM     14  C   UNL     1      -2.019   1.256   7.079  1.00  0.00     0.220 C 
ATOM     15  C   UNL     1       0.784   2.949   6.567  1.00  0.00     0.021 C 
ATOM     16  C   UNL     1       0.098   1.978   7.179  1.00  0.00     0.041 C 
ATOM     17  C   UNL     1      -0.513   2.299   8.492  1.00  0.00     0.334 C 
ATOM     18  C   UNL     1      -0.610   0.727   6.754  1.00  0.00     0.115 CG0
ATOM     19  O   UNL     1       0.025   2.788   9.460  1.00  0.00    -0.247 OA
ATOM     20  O   UNL     1      -1.807   1.871   8.389  1.00  0.00    -0.455 OA
ATOM     21  G   UNL     1      -0.296  -0.065   5.459  1.00  0.00     0.000 G0
ENDBRANCH  11  14
ENDBRANCH   8  10
ENDBRANCH   6   7
BRANCH   5  22
ATOM     22  C   UNL     1      -1.310  -1.274   5.216  1.00  0.00     0.255 C 
BRANCH  22  23
ATOM     23  C   UNL     1      -0.296  -0.065   5.459  1.00  0.00     0.234 CG0
ATOM     24  G   UNL     1      -0.610   0.727   6.754  1.00  0.00     0.000 G0
BRANCH  23  25
ATOM     25  O   UNL     1      -0.193   0.800   4.320  1.00  0.00    -0.455 OA
BRANCH  25  26
ATOM     26  C   UNL     1       0.942   1.098   3.596  1.00  0.00     0.341 C 
ATOM     27  O   UNL     1       0.811   1.906   2.686  1.00  0.00    -0.249 OA
BRANCH  26  28
ATOM     28  C   UNL     1       2.331   0.615   4.013  1.00  0.00     0.188 C 
ATOM     29  O   UNL     1       3.269   0.665   2.901  1.00  0.00    -0.354 OA
ATOM     30  C   UNL     1       3.051  -0.624   3.448  1.00  0.00     0.160 C 
ATOM     31  C   UNL     1       3.022   1.270   5.186  1.00  0.00     0.058 C 
ATOM     32  C   UNL     1       2.634  -1.565   2.391  1.00  0.00     0.042 C 
ENDBRANCH  26  28
ENDBRANCH  25  26
ENDBRANCH  23  25
ENDBRANCH  22  23
BRANCH  22  33
ATOM     33  O   UNL     1      -2.195  -1.410   6.338  1.00  0.00    -0.453 OA
BRANCH  33  34
ATOM     34  C   UNL     1      -2.822  -2.592   6.550  1.00  0.00     0.303 C 
ATOM     35  C   UNL     1      -3.809  -2.439   7.671  1.00  0.00     0.139 C 
ATOM     36  O   UNL     1      -2.594  -3.632   5.951  1.00  0.00    -0.253 OA
ENDBRANCH  33  34
ENDBRANCH  22  33
ENDBRANCH   5  22
ENDBRANCH   3   5
ENDBRANCH   2   3
ENDBRANCH   1   2
BRANCH   1  37
ATOM     37  C   UNL     1      -0.217  -4.233   0.836  1.00  0.00     0.275 C 
BRANCH  37  38
ATOM     38  O   UNL     1       0.414  -3.048   0.318  1.00  0.00    -0.458 OA
BRANCH  38  39
ATOM     39  C   UNL     1      -0.431  -2.143  -0.241  1.00  0.00     0.338 C 
ATOM     40  O   UNL     1      -1.628  -2.301  -0.425  1.00  0.00    -0.246 OA
BRANCH  39  41
ATOM     41  C   UNL     1       0.256  -0.843  -0.438  1.00  0.00     0.060 A 
ATOM     42  C   UNL     1      -0.468   0.314  -0.130  1.00  0.00     0.016 A 
ATOM     43  C   UNL     1       1.585  -0.741  -0.869  1.00  0.00     0.016 A 
ATOM     44  C   UNL     1       0.126   1.571  -0.261  1.00  0.00     0.010 A 
ATOM     45  C   UNL     1       2.181   0.523  -0.996  1.00  0.00     0.010 A 
ATOM     46  C   UNL     1       1.447   1.688  -0.713  1.00  0.00    -0.014 A 
BRANCH  46  47
ATOM     47  C   UNL     1       1.958   3.029  -1.105  1.00  0.00     0.031 A 
ATOM     48  C   UNL     1       1.724   3.467  -2.521  1.00  0.00     0.074 A 
ATOM     49  C   UNL     1       2.573   3.860  -0.243  1.00  0.00     0.049 A 
ATOM     50  N   UNL     1       2.057   4.587  -3.104  1.00  0.00    -0.248 NA
ATOM     51  C   UNL     1       1.040   2.503  -3.400  1.00  0.00     0.031 C 
ATOM     52  C   UNL     1       2.864   3.550   1.147  1.00  0.00     0.029 A 
ATOM     53  N   UNL     1       3.055   5.138  -0.396  1.00  0.00    -0.354 N 
ATOM     54  C   UNL     1       1.648   4.452  -4.423  1.00  0.00     0.074 A 
ATOM     55  C   UNL     1       1.046   3.145  -4.557  1.00  0.00     0.031 C 
ATOM     56  C   UNL     1       3.420   4.614   1.746  1.00  0.00     0.029 A 
ATOM     57  C   UNL     1       3.594   5.670   0.755  1.00  0.00     0.049 A 
ATOM     58  H   UNL     1       3.018   5.628  -1.249  1.00  0.00     0.167 HD
ATOM     59  C   UNL     1       1.781   5.336  -5.438  1.00  0.00     0.031 A 
ATOM     60  C   UNL     1       4.186   6.861   0.982  1.00  0.00     0.031 A 
ATOM     61  C   UNL     1       2.406   6.622  -5.307  1.00  0.00     0.049 A 
ATOM     62  C   UNL     1       4.332   7.819  -0.169  1.00  0.00     0.074 A 
ATOM     63  C   UNL     1       2.591   7.589  -6.279  1.00  0.00     0.029 A 
ATOM     64  N   UNL     1       2.958   7.118  -4.135  1.00  0.00    -0.354 N 
ATOM     65  N   UNL     1       3.919   7.686  -1.407  1.00  0.00    -0.248 NA
ATOM     66  C   UNL     1       5.037   9.081   0.099  1.00  0.00     0.031 C 
ATOM     67  C   UNL     1       3.302   8.649  -5.706  1.00  0.00     0.029 A 
ATOM     68  C   UNL     1       3.507   8.367  -4.364  1.00  0.00     0.049 A 
ATOM     69  H   UNL     1       2.958   6.650  -3.268  1.00  0.00     0.167 HD
ATOM     70  C   UNL     1       4.312   8.845  -2.065  1.00  0.00     0.074 A 
ATOM     71  C   UNL     1       4.965   9.684  -1.080  1.00  0.00     0.031 C 
ATOM     72  C   UNL     1       4.159   9.181  -3.369  1.00  0.00     0.031 A 
BRANCH  59  73
ATOM     73  C   UNL     1       1.296   4.896  -6.789  1.00  0.00    -0.014 A 
ATOM     74  C   UNL     1      -0.077   4.802  -7.077  1.00  0.00     0.010 A 
ATOM     75  C   UNL     1       2.234   4.570  -7.784  1.00  0.00     0.010 A 
ATOM     76  C   UNL     1      -0.503   4.356  -8.331  1.00  0.00     0.020 A 
ATOM     77  C   UNL     1       1.812   4.148  -9.046  1.00  0.00     0.020 A 
ATOM     78  C   UNL     1       0.445   4.029  -9.306  1.00  0.00     0.054 A 
BRANCH  78  79
ATOM     79  S   UNL     1      -0.134   3.476 -10.932  1.00  0.00     0.124 S 
ATOM     80  O   UNL     1      -0.603   2.124 -10.641  1.00  0.00    -0.237 OA
ATOM     81  O   UNL     1      -1.179   4.448 -11.248  1.00  0.00    -0.237 OA
ATOM     82  O   UNL     1       1.059   3.555 -11.771  1.00  0.00    -0.744 OA
ENDBRANCH  78  79
ENDBRANCH  59  73
BRANCH  60  83
ATOM     83  C   UNL     1       4.733   7.197   2.330  1.00  0.00    -0.014 A 
ATOM     84  C   UNL     1       4.177   8.235   3.100  1.00  0.00     0.010 A 
ATOM     85  C   UNL     1       5.836   6.490   2.844  1.00  0.00     0.010 A 
ATOM     86  C   UNL     1       4.724   8.571   4.344  1.00  0.00     0.020 A 
ATOM     87  C   UNL     1       6.367   6.802   4.099  1.00  0.00     0.020 A 
ATOM     88  C   UNL     1       5.817   7.852   4.836  1.00  0.00     0.054 A 
BRANCH  88  89
ATOM     89  S   UNL     1       6.488   8.272   6.470  1.00  0.00     0.124 S 
ATOM     90  O   UNL     1       7.235   9.493   6.188  1.00  0.00    -0.237 OA
ATOM     91  O   UNL     1       5.281   8.439   7.275  1.00  0.00    -0.237 OA
ATOM     92  O   UNL     1       7.299   7.106   6.814  1.00  0.00    -0.744 OA
ENDBRANCH  88  89
ENDBRANCH  60  83
BRANCH  72  93
ATOM     93  C   UNL     1       4.692  10.519  -3.802  1.00  0.00    -0.014 A 
ATOM     94  C   UNL     1       6.074  10.744  -3.928  1.00  0.00     0.010 A 
ATOM     95  C   UNL     1       3.793  11.548  -4.136  1.00  0.00     0.010 A 
ATOM     96  C   UNL     1       6.549  11.988  -4.349  1.00  0.00     0.020 A 
ATOM     97  C   UNL     1       4.264  12.784  -4.583  1.00  0.00     0.020 A 
ATOM     98  C   UNL     1       5.641  13.001  -4.672  1.00  0.00     0.054 A 
BRANCH  98  99
ATOM     99  S   UNL     1       6.279  14.595  -5.253  1.00  0.00     0.124 S 
ATOM    100  O   UNL     1       6.763  15.198  -4.015  1.00  0.00    -0.237 OA
ATOM    101  O   UNL     1       7.313  14.201  -6.207  1.00  0.00    -0.237 OA
ATOM    102  O   UNL     1       5.109  15.242  -5.845  1.00  0.00    -0.744 OA
ENDBRANCH  98  99
ENDBRANCH  72  93
ENDBRANCH  46  47
ENDBRANCH  39  41
ENDBRANCH  38  39
ENDBRANCH  37  38
ENDBRANCH   1  37
TORSDOF 19
