REMARK SMILES O=C(OCCOC(=O)[C@H]1CCCCN1C(=O)CSCc1ccccc1)c1ccc(-c2c3nc(c(-c4ccc(S(=O)(=O)[O-])cc4)c4ccc([nH]4)c(-c4ccc(S(=O)(=O)[O-])cc4)c4nc(c(-c5ccc(S(=O)(=O)[O-])cc5)c5ccc2[nH]5)C=C4)C=C3)cc1
REMARK SMILES IDX 5 1 4 2 3 3 2 4 1 5 26 6 27 7 85 8 28 9 84 10 29 11 30 12
REMARK SMILES IDX 31 13 78 14 32 15 83 16 77 17 79 18 33 19 82 20 76 21 75 22
REMARK SMILES IDX 34 24 64 25 45 26 63 27 46 28 49 29 62 30 80 31 47 32 48 33
REMARK SMILES IDX 61 35 81 36 50 37 35 38 36 39 44 40 37 41 43 42 38 43 39 44
REMARK SMILES IDX 40 45 41 46 42 47 65 48 66 49 74 50 67 51 73 52 68 53 69 54
REMARK SMILES IDX 70 55 71 56 72 57 51 58 52 59 60 60 53 61 59 62 54 63 55 64
REMARK SMILES IDX 56 65 57 66 58 67 6 68 7 69 8 70 9 71 10 72 14 73 11 74
REMARK SMILES IDX 13 75 12 76 15 77 16 78 17 79 18 80 19 81 20 82 21 83 25 84
REMARK SMILES IDX 22 85 24 86 23 87
REMARK H PARENT 79 23 49 34
REMARK Flexibility Score: inf
ROOT
ATOM      1  C   UNL     1      -1.350  -0.003   3.747  1.00  0.00     0.274 C 
ENDROOT
BRANCH   1   2
ATOM      2  C   UNL     1      -1.958   0.268   2.367  1.00  0.00     0.275 C 
BRANCH   2   3
ATOM      3  O   UNL     1      -1.353  -0.476   1.292  1.00  0.00    -0.458 OA
BRANCH   3   4
ATOM      4  C   UNL     1      -0.304  -0.168   0.491  1.00  0.00     0.338 C 
ATOM      5  O   UNL     1      -0.123  -0.852  -0.516  1.00  0.00    -0.246 OA
BRANCH   4   6
ATOM      6  C   UNL     1       0.733   0.863   0.829  1.00  0.00     0.060 A 
ATOM      7  C   UNL     1       0.552   1.969   1.662  1.00  0.00     0.016 A 
ATOM      8  C   UNL     1       2.018   0.665   0.283  1.00  0.00     0.016 A 
ATOM      9  C   UNL     1       1.621   2.799   2.005  1.00  0.00     0.010 A 
ATOM     10  C   UNL     1       3.097   1.492   0.627  1.00  0.00     0.010 A 
ATOM     11  C   UNL     1       2.900   2.567   1.494  1.00  0.00    -0.014 A 
BRANCH  11  12
ATOM     12  C   UNL     1       3.950   3.568   1.780  1.00  0.00     0.031 A 
ATOM     13  C   UNL     1       4.200   4.633   0.758  1.00  0.00     0.074 A 
ATOM     14  C   UNL     1       4.539   3.615   2.990  1.00  0.00     0.049 A 
ATOM     15  N   UNL     1       4.896   5.731   0.873  1.00  0.00    -0.248 NA
ATOM     16  C   UNL     1       3.552   4.457  -0.553  1.00  0.00     0.031 C 
ATOM     17  C   UNL     1       4.316   2.649   4.064  1.00  0.00     0.029 A 
ATOM     18  N   UNL     1       5.412   4.518   3.539  1.00  0.00    -0.354 N 
ATOM     19  C   UNL     1       4.731   6.399  -0.332  1.00  0.00     0.074 A 
ATOM     20  C   UNL     1       3.924   5.559  -1.186  1.00  0.00     0.031 C 
ATOM     21  C   UNL     1       5.027   3.009   5.145  1.00  0.00     0.029 A 
ATOM     22  C   UNL     1       5.761   4.232   4.841  1.00  0.00     0.049 A 
ATOM     23  H   UNL     1       5.759   5.298   3.048  1.00  0.00     0.167 HD
ATOM     24  C   UNL     1       5.191   7.621  -0.682  1.00  0.00     0.031 A 
ATOM     25  C   UNL     1       6.574   4.891   5.690  1.00  0.00     0.031 A 
ATOM     26  C   UNL     1       6.045   8.417   0.154  1.00  0.00     0.049 A 
ATOM     27  C   UNL     1       7.170   6.196   5.228  1.00  0.00     0.074 A 
ATOM     28  C   UNL     1       6.630   9.637  -0.123  1.00  0.00     0.029 A 
ATOM     29  N   UNL     1       6.447   8.057   1.433  1.00  0.00    -0.354 N 
ATOM     30  N   UNL     1       6.985   6.826   4.090  1.00  0.00    -0.248 NA
ATOM     31  C   UNL     1       8.061   6.891   6.165  1.00  0.00     0.031 C 
ATOM     32  C   UNL     1       7.429   9.991   0.970  1.00  0.00     0.029 A 
ATOM     33  C   UNL     1       7.290   9.022   1.953  1.00  0.00     0.049 A 
ATOM     34  H   UNL     1       6.172   7.236   1.902  1.00  0.00     0.167 HD
ATOM     35  C   UNL     1       7.720   8.002   4.183  1.00  0.00     0.074 A 
ATOM     36  C   UNL     1       8.326   8.007   5.500  1.00  0.00     0.031 C 
ATOM     37  C   UNL     1       7.884   8.988   3.266  1.00  0.00     0.031 A 
BRANCH  24  38
ATOM     38  C   UNL     1       4.792   8.130  -2.038  1.00  0.00    -0.014 A 
ATOM     39  C   UNL     1       3.469   8.540  -2.292  1.00  0.00     0.010 A 
ATOM     40  C   UNL     1       5.738   8.183  -3.076  1.00  0.00     0.010 A 
ATOM     41  C   UNL     1       3.092   8.960  -3.569  1.00  0.00     0.020 A 
ATOM     42  C   UNL     1       5.369   8.625  -4.349  1.00  0.00     0.020 A 
ATOM     43  C   UNL     1       4.045   8.997  -4.591  1.00  0.00     0.054 A 
BRANCH  43  44
ATOM     44  S   UNL     1       3.530   9.562  -6.235  1.00  0.00     0.124 S 
ATOM     45  O   UNL     1       2.705   8.446  -6.693  1.00  0.00    -0.237 OA
ATOM     46  O   UNL     1       2.807  10.796  -5.937  1.00  0.00    -0.237 OA
ATOM     47  O   UNL     1       4.791   9.739  -6.952  1.00  0.00    -0.744 OA
ENDBRANCH  43  44
ENDBRANCH  24  38
BRANCH  25  48
ATOM     48  C   UNL     1       6.888   4.330   7.037  1.00  0.00    -0.014 A 
ATOM     49  C   UNL     1       6.501   4.985   8.220  1.00  0.00     0.010 A 
ATOM     50  C   UNL     1       7.622   3.132   7.139  1.00  0.00     0.010 A 
ATOM     51  C   UNL     1       6.870   4.475   9.471  1.00  0.00     0.020 A 
ATOM     52  C   UNL     1       7.966   2.602   8.386  1.00  0.00     0.020 A 
ATOM     53  C   UNL     1       7.604   3.287   9.546  1.00  0.00     0.054 A 
BRANCH  53  54
ATOM     54  S   UNL     1       8.062   2.634  11.177  1.00  0.00     0.124 S 
ATOM     55  O   UNL     1       9.098   3.570  11.600  1.00  0.00    -0.237 OA
ATOM     56  O   UNL     1       6.801   2.709  11.911  1.00  0.00    -0.237 OA
ATOM     57  O   UNL     1       8.523   1.278  10.884  1.00  0.00    -0.744 OA
ENDBRANCH  53  54
ENDBRANCH  25  48
BRANCH  37  58
ATOM     58  C   UNL     1       8.739  10.158   3.671  1.00  0.00    -0.014 A 
ATOM     59  C   UNL     1      10.132  10.027   3.809  1.00  0.00     0.010 A 
ATOM     60  C   UNL     1       8.141  11.414   3.879  1.00  0.00     0.010 A 
ATOM     61  C   UNL     1      10.907  11.123   4.193  1.00  0.00     0.020 A 
ATOM     62  C   UNL     1       8.916  12.519   4.230  1.00  0.00     0.020 A 
ATOM     63  C   UNL     1      10.293  12.361   4.404  1.00  0.00     0.054 A 
BRANCH  63  64
ATOM     64  S   UNL     1      11.323  13.775   4.878  1.00  0.00     0.124 S 
ATOM     65  O   UNL     1      11.623  13.476   6.275  1.00  0.00    -0.237 OA
ATOM     66  O   UNL     1      12.451  13.674   3.955  1.00  0.00    -0.237 OA
ATOM     67  O   UNL     1      10.451  14.927   4.661  1.00  0.00    -0.744 OA
ENDBRANCH  63  64
ENDBRANCH  37  58
ENDBRANCH  11  12
ENDBRANCH   4   6
ENDBRANCH   3   4
ENDBRANCH   2   3
ENDBRANCH   1   2
BRANCH   1  68
ATOM     68  O   UNL     1       0.083  -0.085   3.725  1.00  0.00    -0.461 OA
BRANCH  68  69
ATOM     69  C   UNL     1       0.598  -1.343   3.575  1.00  0.00     0.328 C 
ATOM     70  O   UNL     1      -0.092  -2.360   3.546  1.00  0.00    -0.250 OA
BRANCH  69  71
ATOM     71  C   UNL     1       2.132  -1.296   3.405  1.00  0.00     0.195 C 
ATOM     72  C   UNL     1       2.857  -0.748   4.635  1.00  0.00     0.037 C 
ATOM     73  N   UNL     1       2.718  -2.597   3.028  1.00  0.00    -0.328 N 
ATOM     74  C   UNL     1       2.940  -1.766   5.770  1.00  0.00     0.005 C 
ATOM     75  C   UNL     1       2.649  -3.613   4.077  1.00  0.00     0.120 C 
ATOM     76  C   UNL     1       3.453  -3.123   5.282  1.00  0.00     0.022 C 
BRANCH  73  77
ATOM     77  C   UNL     1       3.539  -2.670   1.908  1.00  0.00     0.233 C 
ATOM     78  O   UNL     1       3.864  -1.661   1.275  1.00  0.00    -0.274 OA
BRANCH  77  79
ATOM     79  C   UNL     1       4.014  -4.029   1.418  1.00  0.00     0.170 C 
BRANCH  79  80
ATOM     80  S   UNL     1       5.374  -4.725   2.410  1.00  0.00    -0.147 SA
BRANCH  80  81
ATOM     81  C   UNL     1       6.671  -3.479   2.129  1.00  0.00     0.105 C 
BRANCH  81  82
ATOM     82  C   UNL     1       7.383  -3.589   0.801  1.00  0.00    -0.038 A 
ATOM     83  C   UNL     1       7.750  -4.827   0.247  1.00  0.00     0.004 A 
ATOM     84  C   UNL     1       7.792  -2.419   0.145  1.00  0.00     0.004 A 
ATOM     85  C   UNL     1       8.469  -4.891  -0.948  1.00  0.00     0.000 A 
ATOM     86  C   UNL     1       8.524  -2.484  -1.042  1.00  0.00     0.000 A 
ATOM     87  C   UNL     1       8.857  -3.720  -1.591  1.00  0.00     0.000 A 
ENDBRANCH  81  82
ENDBRANCH  80  81
ENDBRANCH  79  80
ENDBRANCH  77  79
ENDBRANCH  73  77
ENDBRANCH  69  71
ENDBRANCH  68  69
ENDBRANCH   1  68
TORSDOF 19
