REMARK SMILES Cc1cc(OC(F)(F)F)cc2c1O[C@H](C(F)(F)F)C(C(=O)OCCOC(=O)c1ccc(-c3c4nc(c(-c5ccc(S(=O)(=O)[O-])cc5)c5ccc([nH]5)c(-c5ccc(S(=O)(=O)[O-])cc5)c5nc(c(-c6ccc(S(=O)(=O)[O-])cc6)c6ccc3[nH]6)C=C5)C=C4)cc1)=C2
REMARK SMILES IDX 24 1 23 2 22 3 20 4 21 5 19 6 1 7 2 8 3 9 12 10 4 11 11 12
REMARK SMILES IDX 13 13 10 14 88 15 14 16 5 17 6 18 7 19 8 20 9 21 15 22 16 23
REMARK SMILES IDX 17 24 18 25 25 26 26 27 27 28 28 29 29 30 87 31 30 32 86 33
REMARK SMILES IDX 31 34 32 35 33 36 80 37 34 38 85 39 79 40 81 41 35 42 84 43
REMARK SMILES IDX 78 44 77 45 36 47 66 48 47 49 65 50 48 51 51 52 64 53 82 54
REMARK SMILES IDX 49 55 50 56 63 58 83 59 52 60 37 61 38 62 46 63 39 64 45 65
REMARK SMILES IDX 40 66 41 67 42 68 43 69 44 70 67 71 68 72 76 73 69 74 75 75
REMARK SMILES IDX 70 76 71 77 72 78 73 79 74 80 53 81 54 82 62 83 55 84 61 85
REMARK SMILES IDX 56 86 57 87 58 88 59 89 60 90
REMARK H PARENT 81 46 51 57
REMARK Flexibility Score: inf
ROOT
ATOM      1  C   UNL     1      -7.305   2.588   2.851  1.00  0.00     0.275 C 
ENDROOT
BRANCH   1   2
ATOM      2  C   UNL     1      -7.021   1.698   1.641  1.00  0.00     0.275 C 
BRANCH   2   3
ATOM      3  O   UNL     1      -5.608   1.444   1.497  1.00  0.00    -0.459 OA
BRANCH   3   4
ATOM      4  C   UNL     1      -4.980   2.174   0.542  1.00  0.00     0.338 C 
ATOM      5  O   UNL     1      -5.497   2.970  -0.219  1.00  0.00    -0.246 OA
BRANCH   4   6
ATOM      6  C   UNL     1      -3.532   1.889   0.551  1.00  0.00     0.087 C 
ATOM      7  C   UNL     1       1.077  -0.307   0.119  1.00  0.00     0.048 C 
ATOM      8  C   UNL     1       0.562   1.102   0.200  1.00  0.00    -0.005 A 
ATOM      9  C   UNL     1       1.454   2.183   0.059  1.00  0.00     0.054 A 
ATOM     10  C   UNL     1      -0.808   1.352   0.366  1.00  0.00     0.131 A 
ATOM     11  C   UNL     1       0.993   3.499   0.102  1.00  0.00     0.130 A 
ATOM     12  C   UNL     1      -1.272   2.665   0.387  1.00  0.00     0.021 A 
ATOM     13  O   UNL     1      -1.631   0.269   0.514  1.00  0.00    -0.475 OA
ATOM     14  C   UNL     1      -0.372   3.732   0.272  1.00  0.00     0.058 A 
ATOM     15  C   UNL     1      -2.694   2.928   0.486  1.00  0.00     0.027 C 
ATOM     16  C   UNL     1      -3.073   0.461   0.515  1.00  0.00     0.316 C 
BRANCH  11  17
ATOM     17  O   UNL     1       1.744   4.633  -0.014  1.00  0.00    -0.406 OA
BRANCH  17  18
ATOM     18  C   UNL     1       3.125   4.494  -0.296  1.00  0.00     0.573 C 
ATOM     19  F   UNL     1       3.761   3.839   0.698  1.00  0.00    -0.132 F 
ATOM     20  F   UNL     1       3.316   3.830  -1.459  1.00  0.00    -0.132 F 
ATOM     21  F   UNL     1       3.676   5.720  -0.419  1.00  0.00    -0.132 F 
ENDBRANCH  17  18
ENDBRANCH  11  17
BRANCH  16  22
ATOM     22  C   UNL     1      -3.660  -0.284  -0.694  1.00  0.00     0.430 C 
ATOM     23  F   UNL     1      -3.229  -1.569  -0.737  1.00  0.00    -0.167 F 
ATOM     24  F   UNL     1      -5.014  -0.339  -0.643  1.00  0.00    -0.167 F 
ATOM     25  F   UNL     1      -3.323   0.294  -1.868  1.00  0.00    -0.167 F 
ENDBRANCH  16  22
ENDBRANCH   4   6
ENDBRANCH   3   4
ENDBRANCH   2   3
ENDBRANCH   1   2
BRANCH   1  26
ATOM     26  O   UNL     1      -6.777   3.909   2.643  1.00  0.00    -0.458 OA
BRANCH  26  27
ATOM     27  C   UNL     1      -5.601   4.155   3.263  1.00  0.00     0.338 C 
ATOM     28  O   UNL     1      -4.975   3.399   3.987  1.00  0.00    -0.246 OA
BRANCH  27  29
ATOM     29  C   UNL     1      -5.105   5.490   2.902  1.00  0.00     0.060 A 
ATOM     30  C   UNL     1      -4.642   5.712   1.609  1.00  0.00     0.016 A 
ATOM     31  C   UNL     1      -4.916   6.452   3.892  1.00  0.00     0.016 A 
ATOM     32  C   UNL     1      -3.851   6.823   1.337  1.00  0.00     0.010 A 
ATOM     33  C   UNL     1      -4.234   7.632   3.579  1.00  0.00     0.010 A 
ATOM     34  C   UNL     1      -3.644   7.806   2.315  1.00  0.00    -0.014 A 
BRANCH  34  35
ATOM     35  C   UNL     1      -2.795   8.994   2.026  1.00  0.00     0.031 A 
ATOM     36  C   UNL     1      -1.585   9.287   2.879  1.00  0.00     0.074 A 
ATOM     37  C   UNL     1      -3.098   9.807   0.993  1.00  0.00     0.049 A 
ATOM     38  N   UNL     1      -0.825  10.353   2.889  1.00  0.00    -0.248 NA
ATOM     39  C   UNL     1      -1.178   8.257   3.851  1.00  0.00     0.031 C 
ATOM     40  C   UNL     1      -4.205   9.609   0.052  1.00  0.00     0.029 A 
ATOM     41  N   UNL     1      -2.498  10.961   0.552  1.00  0.00    -0.354 N 
ATOM     42  C   UNL     1       0.115  10.143   3.893  1.00  0.00     0.074 A 
ATOM     43  C   UNL     1      -0.171   8.851   4.478  1.00  0.00     0.031 C 
ATOM     44  C   UNL     1      -4.178  10.578  -0.873  1.00  0.00     0.029 A 
ATOM     45  C   UNL     1      -3.117  11.520  -0.541  1.00  0.00     0.049 A 
ATOM     46  H   UNL     1      -1.701  11.350   0.979  1.00  0.00     0.167 HD
ATOM     47  C   UNL     1       1.123  10.954   4.289  1.00  0.00     0.031 A 
ATOM     48  C   UNL     1      -2.893  12.683  -1.184  1.00  0.00     0.031 A 
ATOM     49  C   UNL     1       1.426  12.219   3.675  1.00  0.00     0.049 A 
ATOM     50  C   UNL     1      -1.810  13.594  -0.688  1.00  0.00     0.074 A 
ATOM     51  C   UNL     1       2.435  13.109   4.001  1.00  0.00     0.029 A 
ATOM     52  N   UNL     1       0.739  12.766   2.603  1.00  0.00    -0.354 N 
ATOM     53  N   UNL     1      -0.973  13.406   0.304  1.00  0.00    -0.248 NA
ATOM     54  C   UNL     1      -1.649  14.879  -1.382  1.00  0.00     0.031 C 
ATOM     55  C   UNL     1       2.329  14.216   3.155  1.00  0.00     0.029 A 
ATOM     56  C   UNL     1       1.290  13.990   2.267  1.00  0.00     0.049 A 
ATOM     57  H   UNL     1      -0.027  12.346   2.149  1.00  0.00     0.167 HD
ATOM     58  C   UNL     1      -0.177  14.543   0.345  1.00  0.00     0.074 A 
ATOM     59  C   UNL     1      -0.625  15.410  -0.725  1.00  0.00     0.031 C 
ATOM     60  C   UNL     1       0.834  14.838   1.197  1.00  0.00     0.031 A 
BRANCH  47  61
ATOM     61  C   UNL     1       1.971  10.527   5.457  1.00  0.00    -0.014 A 
ATOM     62  C   UNL     1       2.965   9.544   5.315  1.00  0.00     0.010 A 
ATOM     63  C   UNL     1       1.842  11.201   6.686  1.00  0.00     0.010 A 
ATOM     64  C   UNL     1       3.813   9.239   6.385  1.00  0.00     0.020 A 
ATOM     65  C   UNL     1       2.701  10.915   7.750  1.00  0.00     0.020 A 
ATOM     66  C   UNL     1       3.683   9.935   7.592  1.00  0.00     0.054 A 
BRANCH  66  67
ATOM     67  S   UNL     1       4.833   9.551   8.942  1.00  0.00     0.124 S 
ATOM     68  O   UNL     1       4.574   8.132   9.171  1.00  0.00    -0.237 OA
ATOM     69  O   UNL     1       6.129   9.866   8.348  1.00  0.00    -0.237 OA
ATOM     70  O   UNL     1       4.410  10.438  10.024  1.00  0.00    -0.744 OA
ENDBRANCH  66  67
ENDBRANCH  47  61
BRANCH  48  71
ATOM     71  C   UNL     1      -3.753  13.056  -2.339  1.00  0.00    -0.014 A 
ATOM     72  C   UNL     1      -3.245  13.020  -3.648  1.00  0.00     0.010 A 
ATOM     73  C   UNL     1      -5.106  13.390  -2.138  1.00  0.00     0.010 A 
ATOM     74  C   UNL     1      -4.077  13.305  -4.736  1.00  0.00     0.020 A 
ATOM     75  C   UNL     1      -5.946  13.650  -3.223  1.00  0.00     0.020 A 
ATOM     76  C   UNL     1      -5.425  13.605  -4.517  1.00  0.00     0.054 A 
BRANCH  76  77
ATOM     77  S   UNL     1      -6.493  13.910  -5.952  1.00  0.00     0.124 S 
ATOM     78  O   UNL     1      -5.856  15.069  -6.569  1.00  0.00    -0.237 OA
ATOM     79  O   UNL     1      -6.379  12.656  -6.691  1.00  0.00    -0.237 OA
ATOM     80  O   UNL     1      -7.804  14.162  -5.358  1.00  0.00    -0.744 OA
ENDBRANCH  76  77
ENDBRANCH  48  71
BRANCH  60  81
ATOM     81  C   UNL     1       1.558  16.140   1.001  1.00  0.00    -0.014 A 
ATOM     82  C   UNL     1       0.992  17.352   1.432  1.00  0.00     0.010 A 
ATOM     83  C   UNL     1       2.867  16.132   0.487  1.00  0.00     0.010 A 
ATOM     84  C   UNL     1       1.726  18.537   1.349  1.00  0.00     0.020 A 
ATOM     85  C   UNL     1       3.612  17.311   0.424  1.00  0.00     0.020 A 
ATOM     86  C   UNL     1       3.036  18.507   0.857  1.00  0.00     0.054 A 
BRANCH  86  87
ATOM     87  S   UNL     1       3.983  20.052   0.823  1.00  0.00     0.124 S 
ATOM     88  O   UNL     1       3.174  20.891  -0.058  1.00  0.00    -0.237 OA
ATOM     89  O   UNL     1       3.993  20.445   2.229  1.00  0.00    -0.237 OA
ATOM     90  O   UNL     1       5.280  19.655   0.280  1.00  0.00    -0.744 OA
ENDBRANCH  86  87
ENDBRANCH  60  81
ENDBRANCH  34  35
ENDBRANCH  27  29
ENDBRANCH  26  27
ENDBRANCH   1  26
TORSDOF 17
