REMARK SMILES Cc1cc(C)cc(Oc2nc3ccccn3c(=O)c2/C=C2\SC(=S)N(CCC(=O)OCCOC(=O)c3ccc(-c4c5nc(c(-c6ccc(S(=O)(=O)[O-])cc6)c6ccc([nH]6)c(-c6ccc(S(=O)(=O)[O-])cc6)c6nc(c(-c7ccc(S(=O)(=O)[O-])cc7)c7ccc4[nH]7)C=C6)C=C5)cc3)C2=O)c1
REMARK SMILES IDX 31 1 30 2 28 3 29 4 27 5 26 6 25 7 20 8 21 9 22 10 96 11
REMARK SMILES IDX 23 12 97 13 24 14 19 15 9 16 10 17 11 18 17 19 12 20 16 21
REMARK SMILES IDX 18 22 13 23 15 24 14 25 8 26 7 27 1 28 2 29 3 30 98 31 4 32
REMARK SMILES IDX 5 33 6 34 32 35 33 36 34 37 35 38 36 39 37 40 95 41 38 42
REMARK SMILES IDX 94 43 39 44 40 45 41 46 88 47 42 48 93 49 87 50 89 51 43 52
REMARK SMILES IDX 92 53 86 54 85 55 44 57 74 58 55 59 73 60 56 61 59 62 72 63
REMARK SMILES IDX 90 64 57 65 58 66 71 68 91 69 60 70 45 71 46 72 54 73 47 74
REMARK SMILES IDX 53 75 48 76 49 77 50 78 51 79 52 80 75 81 76 82 84 83 77 84
REMARK SMILES IDX 83 85 78 86 79 87 80 88 81 89 82 90 61 91 62 92 70 93 63 94
REMARK SMILES IDX 69 95 64 96 65 97 66 98 67 99 68 100
REMARK H PARENT 89 56 59 67
REMARK Flexibility Score: inf
ROOT
ATOM      1  C   UNL     1      -0.641  -0.137   4.080  1.00  0.00     0.274 C 
ENDROOT
BRANCH   1   2
ATOM      2  O   UNL     1       0.635   0.402   3.683  1.00  0.00    -0.462 OA
BRANCH   2   3
ATOM      3  C   UNL     1       0.874   1.701   3.982  1.00  0.00     0.307 C 
ATOM      4  O   UNL     1       0.043   2.490   4.410  1.00  0.00    -0.252 OA
BRANCH   3   5
ATOM      5  C   UNL     1       2.295   2.102   3.663  1.00  0.00     0.144 C 
BRANCH   5   6
ATOM      6  C   UNL     1       3.363   1.186   4.271  1.00  0.00     0.139 C 
BRANCH   6   7
ATOM      7  N   UNL     1       3.676   0.055   3.394  1.00  0.00    -0.292 N 
ATOM      8  C   UNL     1       2.304  -2.984   2.163  1.00  0.00     0.041 C 
ATOM      9  C   UNL     1       3.184  -2.006   2.417  1.00  0.00     0.081 C 
ATOM     10  S   UNL     1       4.487  -1.437   1.455  1.00  0.00    -0.054 SA
ATOM     11  C   UNL     1       3.028  -1.146   3.601  1.00  0.00     0.266 C 
ATOM     12  C   UNL     1       4.560   0.088   2.336  1.00  0.00     0.148 C 
ATOM     13  O   UNL     1       2.397  -1.493   4.584  1.00  0.00    -0.268 OA
ATOM     14  S   UNL     1       5.553   1.340   1.854  1.00  0.00    -0.052 S 
BRANCH   8  15
ATOM     15  C   UNL     1       2.371  -3.853   1.008  1.00  0.00     0.104 A 
ATOM     16  C   UNL     1       1.490  -3.862  -0.013  1.00  0.00     0.234 A 
ATOM     17  N   UNL     1       1.618  -4.681  -1.109  1.00  0.00    -0.194 NA
ATOM     18  C   UNL     1       2.658  -5.449  -1.187  1.00  0.00     0.143 A 
ATOM     19  C   UNL     1       3.515  -4.808   0.948  1.00  0.00     0.269 A 
ATOM     20  C   UNL     1       2.833  -6.310  -2.391  1.00  0.00     0.048 A 
ATOM     21  N   UNL     1       3.640  -5.537  -0.216  1.00  0.00    -0.267 N 
ATOM     22  O   UNL     1       4.269  -4.927   1.917  1.00  0.00    -0.268 OA
ATOM     23  C   UNL     1       3.911  -7.097  -2.501  1.00  0.00     0.005 A 
ATOM     24  C   UNL     1       4.738  -6.375  -0.366  1.00  0.00     0.096 A 
ATOM     25  C   UNL     1       4.900  -7.131  -1.458  1.00  0.00     0.019 A 
BRANCH  16  26
ATOM     26  O   UNL     1       0.298  -3.137   0.036  1.00  0.00    -0.438 OA
BRANCH  26  27
ATOM     27  C   UNL     1       0.266  -1.767  -0.105  1.00  0.00     0.130 A 
ATOM     28  C   UNL     1       2.390   1.333  -0.714  1.00  0.00     0.044 C 
ATOM     29  C   UNL     1       1.212   0.440  -0.459  1.00  0.00    -0.047 A 
ATOM     30  C   UNL     1      -0.044   1.012  -0.217  1.00  0.00     0.007 A 
ATOM     31  C   UNL     1       1.351  -0.956  -0.436  1.00  0.00     0.050 A 
ATOM     32  C   UNL     1      -1.160   0.207   0.034  1.00  0.00    -0.047 A 
ATOM     33  C   UNL     1      -2.505   0.842   0.232  1.00  0.00     0.044 C 
ATOM     34  C   UNL     1      -0.990  -1.181   0.106  1.00  0.00     0.050 A 
ENDBRANCH  26  27
ENDBRANCH  16  26
ENDBRANCH   8  15
ENDBRANCH   6   7
ENDBRANCH   5   6
ENDBRANCH   3   5
ENDBRANCH   2   3
ENDBRANCH   1   2
BRANCH   1  35
ATOM     35  C   UNL     1      -0.593  -0.724   5.493  1.00  0.00     0.275 C 
BRANCH  35  36
ATOM     36  O   UNL     1      -0.413   0.326   6.457  1.00  0.00    -0.458 OA
BRANCH  36  37
ATOM     37  C   UNL     1       0.713   0.274   7.201  1.00  0.00     0.338 C 
ATOM     38  O   UNL     1       1.586  -0.571   7.212  1.00  0.00    -0.246 OA
BRANCH  37  39
ATOM     39  C   UNL     1       0.752   1.453   8.066  1.00  0.00     0.060 A 
ATOM     40  C   UNL     1       1.310   2.644   7.593  1.00  0.00     0.016 A 
ATOM     41  C   UNL     1       0.309   1.333   9.382  1.00  0.00     0.016 A 
ATOM     42  C   UNL     1       1.430   3.732   8.452  1.00  0.00     0.010 A 
ATOM     43  C   UNL     1       0.407   2.430  10.232  1.00  0.00     0.010 A 
ATOM     44  C   UNL     1       0.978   3.630   9.775  1.00  0.00    -0.014 A 
BRANCH  44  45
ATOM     45  C   UNL     1       1.113   4.770  10.707  1.00  0.00     0.031 A 
ATOM     46  C   UNL     1       2.136   4.715  11.802  1.00  0.00     0.074 A 
ATOM     47  C   UNL     1       0.292   5.828  10.578  1.00  0.00     0.049 A 
ATOM     48  N   UNL     1       2.320   5.540  12.799  1.00  0.00    -0.248 NA
ATOM     49  C   UNL     1       3.075   3.581  11.774  1.00  0.00     0.031 C 
ATOM     50  C   UNL     1      -0.710   5.998   9.523  1.00  0.00     0.029 A 
ATOM     51  N   UNL     1       0.162   6.953  11.348  1.00  0.00    -0.354 N 
ATOM     52  C   UNL     1       3.385   5.022  13.525  1.00  0.00     0.074 A 
ATOM     53  C   UNL     1       3.795   3.801  12.866  1.00  0.00     0.031 C 
ATOM     54  C   UNL     1      -1.353   7.162   9.714  1.00  0.00     0.029 A 
ATOM     55  C   UNL     1      -0.845   7.790  10.929  1.00  0.00     0.049 A 
ATOM     56  H   UNL     1       0.735   7.145  12.125  1.00  0.00     0.167 HD
ATOM     57  C   UNL     1       3.966   5.524  14.641  1.00  0.00     0.031 A 
ATOM     58  C   UNL     1      -1.323   8.919  11.484  1.00  0.00     0.031 A 
ATOM     59  C   UNL     1       3.534   6.730  15.296  1.00  0.00     0.049 A 
ATOM     60  C   UNL     1      -0.711   9.412  12.766  1.00  0.00     0.074 A 
ATOM     61  C   UNL     1       4.037   7.316  16.445  1.00  0.00     0.029 A 
ATOM     62  N   UNL     1       2.496   7.538  14.855  1.00  0.00    -0.354 N 
ATOM     63  N   UNL     1       0.280   8.900  13.456  1.00  0.00    -0.248 NA
ATOM     64  C   UNL     1      -1.285  10.633  13.346  1.00  0.00     0.031 C 
ATOM     65  C   UNL     1       3.279   8.461  16.717  1.00  0.00     0.029 A 
ATOM     66  C   UNL     1       2.336   8.612  15.712  1.00  0.00     0.049 A 
ATOM     67  H   UNL     1       1.954   7.371  14.050  1.00  0.00     0.167 HD
ATOM     68  C   UNL     1       0.465   9.750  14.539  1.00  0.00     0.074 A 
ATOM     69  C   UNL     1      -0.510  10.814  14.407  1.00  0.00     0.031 C 
ATOM     70  C   UNL     1       1.361   9.660  15.553  1.00  0.00     0.031 A 
BRANCH  57  71
ATOM     71  C   UNL     1       5.112   4.751  15.234  1.00  0.00    -0.014 A 
ATOM     72  C   UNL     1       6.378   4.751  14.620  1.00  0.00     0.010 A 
ATOM     73  C   UNL     1       4.933   4.042  16.436  1.00  0.00     0.010 A 
ATOM     74  C   UNL     1       7.436   4.030  15.181  1.00  0.00     0.020 A 
ATOM     75  C   UNL     1       5.995   3.337  17.011  1.00  0.00     0.020 A 
ATOM     76  C   UNL     1       7.236   3.323  16.371  1.00  0.00     0.054 A 
BRANCH  76  77
ATOM     77  S   UNL     1       8.631   2.412  17.089  1.00  0.00     0.124 S 
ATOM     78  O   UNL     1       8.717   1.250  16.208  1.00  0.00    -0.237 OA
ATOM     79  O   UNL     1       9.731   3.367  16.978  1.00  0.00    -0.237 OA
ATOM     80  O   UNL     1       8.193   2.128  18.453  1.00  0.00    -0.744 OA
ENDBRANCH  76  77
ENDBRANCH  57  71
BRANCH  58  81
ATOM     81  C   UNL     1      -2.456   9.642  10.848  1.00  0.00    -0.014 A 
ATOM     82  C   UNL     1      -2.248  10.886  10.229  1.00  0.00     0.010 A 
ATOM     83  C   UNL     1      -3.749   9.088  10.856  1.00  0.00     0.010 A 
ATOM     84  C   UNL     1      -3.318  11.575   9.649  1.00  0.00     0.020 A 
ATOM     85  C   UNL     1      -4.816   9.762  10.255  1.00  0.00     0.020 A 
ATOM     86  C   UNL     1      -4.596  11.009   9.669  1.00  0.00     0.054 A 
BRANCH  86  87
ATOM     87  S   UNL     1      -5.965  11.901   8.879  1.00  0.00     0.124 S 
ATOM     88  O   UNL     1      -6.280  12.916   9.879  1.00  0.00    -0.237 OA
ATOM     89  O   UNL     1      -5.356  12.394   7.646  1.00  0.00    -0.237 OA
ATOM     90  O   UNL     1      -6.981  10.867   8.692  1.00  0.00    -0.744 OA
ENDBRANCH  86  87
ENDBRANCH  58  81
BRANCH  70  91
ATOM     91  C   UNL     1       1.352  10.764  16.573  1.00  0.00    -0.014 A 
ATOM     92  C   UNL     1       0.353  10.835  17.558  1.00  0.00     0.010 A 
ATOM     93  C   UNL     1       2.389  11.714  16.571  1.00  0.00     0.010 A 
ATOM     94  C   UNL     1       0.377  11.856  18.511  1.00  0.00     0.020 A 
ATOM     95  C   UNL     1       2.428  12.723  17.535  1.00  0.00     0.020 A 
ATOM     96  C   UNL     1       1.413  12.795  18.492  1.00  0.00     0.054 A 
BRANCH  96  97
ATOM     97  S   UNL     1       1.451  14.084  19.767  1.00  0.00     0.124 S 
ATOM     98  O   UNL     1       0.432  15.014  19.289  1.00  0.00    -0.237 OA
ATOM     99  O   UNL     1       1.109  13.348  20.982  1.00  0.00    -0.237 OA
ATOM    100  O   UNL     1       2.824  14.581  19.715  1.00  0.00    -0.744 OA
ENDBRANCH  96  97
ENDBRANCH  70  91
ENDBRANCH  44  45
ENDBRANCH  37  39
ENDBRANCH  36  37
ENDBRANCH  35  36
ENDBRANCH   1  35
TORSDOF 19
