REMARK SMILES CC(C)c1ccc2c(c1)c(SC(C)(C)C)c(CC(C)(C)C(=O)OCCOC(=O)c1ccc(-c3c4nc(c(-c5ccc(S(=O)(=O)[O-])cc5)c5ccc([nH]5)c(-c5ccc(S(=O)(=O)[O-])cc5)c5nc(c(-c6ccc(S(=O)(=O)[O-])cc6)c6ccc3[nH]6)C=C5)C=C4)cc1)n2Cc1ccc(Cl)cc1
REMARK SMILES IDX 24 1 23 2 21 3 22 4 18 5 19 6 20 7 17 8 16 9 4 10 5 11 9 12
REMARK SMILES IDX 6 13 8 14 7 15 10 16 89 17 2 18 1 19 3 20 11 21 12 22 13 23
REMARK SMILES IDX 14 24 15 25 90 26 91 27 92 28 97 29 93 30 96 31 94 32 95 33
REMARK SMILES IDX 25 34 26 35 27 36 28 37 29 38 30 39 88 40 31 41 87 42 32 43
REMARK SMILES IDX 33 44 34 45 81 46 35 47 86 48 80 49 82 50 36 51 85 52 79 53
REMARK SMILES IDX 78 54 37 56 67 57 48 58 66 59 49 60 52 61 65 62 83 63 50 64
REMARK SMILES IDX 51 65 64 67 84 68 53 69 38 70 39 71 47 72 40 73 46 74 41 75
REMARK SMILES IDX 42 76 43 77 44 78 45 79 68 80 69 81 77 82 70 83 76 84 71 85
REMARK SMILES IDX 72 86 73 87 74 88 75 89 54 90 55 91 63 92 56 93 62 94 57 95
REMARK SMILES IDX 58 96 59 97 60 98 61 99
REMARK H PARENT 82 55 52 66
REMARK Flexibility Score: inf
ROOT
ATOM      1  C   UNL     1      -7.137   2.182   6.875  1.00  0.00     0.274 C 
ENDROOT
BRANCH   1   2
ATOM      2  O   UNL     1      -7.393   3.174   5.873  1.00  0.00    -0.462 OA
BRANCH   2   3
ATOM      3  C   UNL     1      -6.296   3.510   5.163  1.00  0.00     0.312 C 
ATOM      4  O   UNL     1      -5.179   3.073   5.421  1.00  0.00    -0.252 OA
BRANCH   3   5
ATOM      5  C   UNL     1      -6.545   4.574   4.099  1.00  0.00     0.068 C 
ATOM      6  C   UNL     1      -5.554   5.630   4.639  1.00  0.00     0.024 C 
ATOM      7  C   UNL     1      -7.968   5.173   4.060  1.00  0.00     0.024 C 
BRANCH   5   8
ATOM      8  C   UNL     1      -6.237   4.056   2.667  1.00  0.00     0.073 C 
BRANCH   8   9
ATOM      9  C   UNL     1      -4.992   3.332   2.560  1.00  0.00     0.034 A 
ATOM     10  C   UNL     1      -1.058   1.076   2.940  1.00  0.00    -0.045 A 
ATOM     11  C   UNL     1      -1.870   0.007   2.580  1.00  0.00     0.006 A 
ATOM     12  C   UNL     1      -1.544   2.433   3.163  1.00  0.00     0.015 A 
ATOM     13  C   UNL     1      -3.106   0.316   2.128  1.00  0.00     0.027 A 
ATOM     14  C   UNL     1      -2.854   2.749   2.778  1.00  0.00     0.014 A 
ATOM     15  C   UNL     1      -3.565   1.628   2.343  1.00  0.00     0.050 A 
ATOM     16  C   UNL     1      -3.749   3.901   2.500  1.00  0.00     0.037 A 
ATOM     17  N   UNL     1      -4.843   1.979   2.678  1.00  0.00    -0.339 N 
BRANCH  10  18
ATOM     18  C   UNL     1       0.317   1.016   2.310  1.00  0.00     0.013 C 
ATOM     19  C   UNL     1       0.939  -0.381   2.138  1.00  0.00     0.012 C 
ATOM     20  C   UNL     1      -0.028   1.788   1.007  1.00  0.00     0.012 C 
ENDBRANCH  10  18
BRANCH  16  21
ATOM     21  S   UNL     1      -3.482   5.696   2.198  1.00  0.00    -0.118 SA
BRANCH  21  22
ATOM     22  C   UNL     1      -4.920   6.586   1.033  1.00  0.00     0.012 C 
ATOM     23  C   UNL     1      -5.601   5.810  -0.138  1.00  0.00     0.023 C 
ATOM     24  C   UNL     1      -6.052   7.306   1.833  1.00  0.00     0.023 C 
ATOM     25  C   UNL     1      -4.207   7.804   0.390  1.00  0.00     0.023 C 
ENDBRANCH  21  22
ENDBRANCH  16  21
BRANCH  17  26
ATOM     26  C   UNL     1      -5.411   1.029   3.600  1.00  0.00     0.158 C 
BRANCH  26  27
ATOM     27  C   UNL     1      -6.836   0.790   3.505  1.00  0.00    -0.028 A 
ATOM     28  C   UNL     1      -8.250   1.916   3.212  1.00  0.00     0.007 A 
ATOM     29  C   UNL     1      -7.160  -1.028   3.596  1.00  0.00     0.007 A 
ATOM     30  C   UNL     1      -9.862   1.229   2.728  1.00  0.00     0.021 A 
ATOM     31  C   UNL     1      -8.784  -1.649   3.176  1.00  0.00     0.021 A 
ATOM     32  C   UNL     1     -10.089  -0.545   2.683  1.00  0.00     0.041 A 
ATOM     33  Cl  UNL     1     -11.723  -1.134   2.810  1.00  0.00    -0.084 Cl
ENDBRANCH  26  27
ENDBRANCH  17  26
ENDBRANCH   8   9
ENDBRANCH   5   8
ENDBRANCH   3   5
ENDBRANCH   2   3
ENDBRANCH   1   2
BRANCH   1  34
ATOM     34  C   UNL     1      -8.004   0.942   6.610  1.00  0.00     0.275 C 
BRANCH  34  35
ATOM     35  O   UNL     1      -7.685   0.306   5.329  1.00  0.00    -0.458 OA
BRANCH  35  36
ATOM     36  C   UNL     1      -8.677   0.206   4.092  1.00  0.00     0.338 C 
ATOM     37  O   UNL     1      -9.769   0.291   4.724  1.00  0.00    -0.246 OA
BRANCH  36  38
ATOM     38  C   UNL     1      -8.073   0.162   2.016  1.00  0.00     0.060 A 
ATOM     39  C   UNL     1      -6.999  -0.613   1.270  1.00  0.00     0.016 A 
ATOM     40  C   UNL     1      -8.043   1.320   0.945  1.00  0.00     0.016 A 
ATOM     41  C   UNL     1      -5.879  -0.092   0.323  1.00  0.00     0.010 A 
ATOM     42  C   UNL     1      -6.939   1.836  -0.004  1.00  0.00     0.010 A 
ATOM     43  C   UNL     1      -5.697   1.242  -0.157  1.00  0.00    -0.014 A 
BRANCH  43  44
ATOM     44  C   UNL     1      -4.405   1.792  -1.044  1.00  0.00     0.031 A 
ATOM     45  C   UNL     1      -4.133   0.772  -2.041  1.00  0.00     0.074 A 
ATOM     46  C   UNL     1      -3.389   2.777  -1.206  1.00  0.00     0.049 A 
ATOM     47  N   UNL     1      -3.150  -0.058  -1.951  1.00  0.00    -0.248 NA
ATOM     48  C   UNL     1      -5.104   0.525  -3.104  1.00  0.00     0.031 C 
ATOM     49  C   UNL     1      -3.069   3.854  -0.309  1.00  0.00     0.029 A 
ATOM     50  N   UNL     1      -2.283   3.036  -2.120  1.00  0.00    -0.354 N 
ATOM     51  C   UNL     1      -3.193  -0.709  -3.150  1.00  0.00     0.074 A 
ATOM     52  C   UNL     1      -4.537  -0.543  -3.665  1.00  0.00     0.031 C 
ATOM     53  C   UNL     1      -2.259   4.829  -0.779  1.00  0.00     0.029 A 
ATOM     54  C   UNL     1      -1.655   4.343  -1.999  1.00  0.00     0.049 A 
ATOM     55  H   UNL     1      -1.980   2.369  -2.778  1.00  0.00     0.167 HD
ATOM     56  C   UNL     1      -2.033  -0.971  -3.794  1.00  0.00     0.031 A 
ATOM     57  C   UNL     1      -0.465   4.961  -2.346  1.00  0.00     0.031 A 
ATOM     58  C   UNL     1      -0.866  -0.981  -2.943  1.00  0.00     0.049 A 
ATOM     59  C   UNL     1       0.617   3.999  -2.599  1.00  0.00     0.074 A 
ATOM     60  C   UNL     1      -0.596  -1.715  -1.818  1.00  0.00     0.029 A 
ATOM     61  N   UNL     1       0.021   0.082  -2.944  1.00  0.00    -0.354 N 
ATOM     62  N   UNL     1       1.403   3.463  -1.710  1.00  0.00    -0.248 NA
ATOM     63  C   UNL     1       0.716   3.475  -3.948  1.00  0.00     0.031 C 
ATOM     64  C   UNL     1       0.333  -0.944  -1.082  1.00  0.00     0.029 A 
ATOM     65  C   UNL     1       0.917   0.060  -1.853  1.00  0.00     0.049 A 
ATOM     66  H   UNL     1       0.026   0.783  -3.635  1.00  0.00     0.167 HD
ATOM     67  C   UNL     1       1.850   2.290  -2.304  1.00  0.00     0.074 A 
ATOM     68  C   UNL     1       1.446   2.391  -3.702  1.00  0.00     0.031 C 
ATOM     69  C   UNL     1       1.954   1.142  -1.571  1.00  0.00     0.031 A 
BRANCH  56  70
ATOM     70  C   UNL     1      -2.009  -1.004  -5.272  1.00  0.00    -0.014 A 
ATOM     71  C   UNL     1      -2.820  -0.143  -6.046  1.00  0.00     0.010 A 
ATOM     72  C   UNL     1      -1.085  -1.824  -5.921  1.00  0.00     0.010 A 
ATOM     73  C   UNL     1      -2.779  -0.164  -7.431  1.00  0.00     0.020 A 
ATOM     74  C   UNL     1      -0.999  -1.812  -7.312  1.00  0.00     0.020 A 
ATOM     75  C   UNL     1      -1.863  -1.002  -8.055  1.00  0.00     0.054 A 
BRANCH  75  76
ATOM     76  S   UNL     1      -1.800  -0.984  -9.856  1.00  0.00     0.124 S 
ATOM     77  O   UNL     1      -3.089  -1.576 -10.204  1.00  0.00    -0.237 OA
ATOM     78  O   UNL     1      -1.659   0.439 -10.148  1.00  0.00    -0.237 OA
ATOM     79  O   UNL     1      -0.632  -1.805 -10.163  1.00  0.00    -0.744 OA
ENDBRANCH  75  76
ENDBRANCH  56  70
BRANCH  57  80
ATOM     80  C   UNL     1      -0.239   6.433  -2.741  1.00  0.00    -0.014 A 
ATOM     81  C   UNL     1      -1.324   7.321  -2.812  1.00  0.00     0.010 A 
ATOM     82  C   UNL     1       0.964   6.874  -3.367  1.00  0.00     0.010 A 
ATOM     83  C   UNL     1      -1.320   8.417  -3.692  1.00  0.00     0.020 A 
ATOM     84  C   UNL     1       0.981   7.978  -4.255  1.00  0.00     0.020 A 
ATOM     85  C   UNL     1      -0.204   8.671  -4.487  1.00  0.00     0.054 A 
BRANCH  85  86
ATOM     86  S   UNL     1      -0.422   9.729  -5.956  1.00  0.00     0.124 S 
ATOM     87  O   UNL     1      -1.284   8.895  -6.792  1.00  0.00    -0.237 OA
ATOM     88  O   UNL     1      -1.057  10.924  -5.407  1.00  0.00    -0.237 OA
ATOM     89  O   UNL     1       0.935   9.922  -6.460  1.00  0.00    -0.744 OA
ENDBRANCH  85  86
ENDBRANCH  57  80
BRANCH  69  90
ATOM     90  C   UNL     1       2.891   1.179  -0.269  1.00  0.00    -0.014 A 
ATOM     91  C   UNL     1       3.657   0.040   0.052  1.00  0.00     0.010 A 
ATOM     92  C   UNL     1       2.921   2.205   0.732  1.00  0.00     0.010 A 
ATOM     93  C   UNL     1       4.209  -0.169   1.350  1.00  0.00     0.020 A 
ATOM     94  C   UNL     1       3.425   1.986   2.052  1.00  0.00     0.020 A 
ATOM     95  C   UNL     1       4.011   0.764   2.372  1.00  0.00     0.054 A 
BRANCH  95  96
ATOM     96  S   UNL     1       4.265   0.242   4.126  1.00  0.00     0.124 S 
ATOM     97  O   UNL     1       3.554  -1.034   4.206  1.00  0.00    -0.237 OA
ATOM     98  O   UNL     1       5.717   0.133   4.223  1.00  0.00    -0.237 OA
ATOM     99  O   UNL     1       3.667   1.321   4.909  1.00  0.00    -0.744 OA
ENDBRANCH  95  96
ENDBRANCH  69  90
ENDBRANCH  43  44
ENDBRANCH  36  38
ENDBRANCH  35  36
ENDBRANCH  34  35
ENDBRANCH   1  34
TORSDOF 21
