REMARK SMILES CCCn1cc(Br)cc1C(=O)NC[C@H]1CC[C@@H](C(=O)OCCOC(=O)c2ccc(-c3c4nc(c(-c5ccc(S(=O)(=O)[O-])cc5)c5ccc([nH]5)c(-c5ccc(S(=O)(=O)[O-])cc5)c5nc(c(-c6ccc(S(=O)(=O)[O-])cc6)c6ccc3[nH]6)C=C5)C=C4)cc2)O1
REMARK SMILES IDX 21 1 20 2 18 3 19 4 17 5 14 6 15 7 86 8 16 9 13 10 12 11
REMARK SMILES IDX 10 12 11 13 9 15 4 16 5 17 6 18 8 19 7 20 3 21 2 22 1 23
REMARK SMILES IDX 22 24 23 25 24 26 25 27 26 28 27 29 85 30 28 31 84 32 29 33
REMARK SMILES IDX 30 34 31 35 78 36 32 37 83 38 77 39 79 40 33 41 82 42 76 43
REMARK SMILES IDX 75 44 34 46 64 47 45 48 63 49 46 50 49 51 62 52 80 53 47 54
REMARK SMILES IDX 48 55 61 57 81 58 50 59 35 60 36 61 44 62 37 63 43 64 38 65
REMARK SMILES IDX 39 66 40 67 41 68 42 69 65 70 66 71 74 72 67 73 73 74 68 75
REMARK SMILES IDX 69 76 70 77 71 78 72 79 51 80 52 81 60 82 53 83 59 84 54 85
REMARK SMILES IDX 55 86 56 87 57 88 58 89
REMARK H PARENT 12 14 79 45 49 56
REMARK Flexibility Score: inf
ROOT
ATOM      1  C   UNL     1       4.140   4.923  -7.302  1.00  0.00     0.274 C 
ENDROOT
BRANCH   1   2
ATOM      2  O   UNL     1       3.020   4.729  -6.421  1.00  0.00    -0.460 OA
BRANCH   2   3
ATOM      3  C   UNL     1       1.782   4.963  -6.935  1.00  0.00     0.335 C 
ATOM      4  O   UNL     1       1.562   5.487  -8.021  1.00  0.00    -0.249 OA
BRANCH   3   5
ATOM      5  C   UNL     1       0.672   4.523  -5.971  1.00  0.00     0.228 C 
ATOM      6  C   UNL     1       0.537   3.029  -4.160  1.00  0.00     0.138 C 
ATOM      7  C   UNL     1       0.056   4.395  -3.701  1.00  0.00     0.037 C 
ATOM      8  O   UNL     1       0.674   3.140  -5.590  1.00  0.00    -0.361 OA
ATOM      9  C   UNL     1       0.695   5.337  -4.689  1.00  0.00     0.047 C 
BRANCH   6  10
ATOM     10  C   UNL     1       1.837   2.492  -3.501  1.00  0.00     0.148 C 
BRANCH  10  11
ATOM     11  N   UNL     1       3.041   2.698  -4.287  1.00  0.00    -0.348 N 
ATOM     12  C   UNL     1       4.341   3.050  -4.091  1.00  0.00     0.268 C 
ATOM     13  O   UNL     1       5.156   2.371  -4.727  1.00  0.00    -0.268 OA
ATOM     14  H   UNL     1       2.864   2.534  -5.241  1.00  0.00     0.163 HD
BRANCH  12  15
ATOM     15  C   UNL     1       4.814   4.258  -3.417  1.00  0.00     0.108 A 
ATOM     16  N   UNL     1       4.298   5.135  -2.479  1.00  0.00    -0.342 N 
ATOM     17  C   UNL     1       5.158   6.199  -2.286  1.00  0.00     0.102 A 
ATOM     18  C   UNL     1       6.260   5.992  -3.060  1.00  0.00     0.036 A 
ATOM     19  C   UNL     1       6.075   4.787  -3.740  1.00  0.00     0.049 A 
ATOM     20  Br  UNL     1       7.755   7.098  -3.234  1.00  0.00    -0.049 Br
BRANCH  16  21
ATOM     21  C   UNL     1       3.040   5.079  -1.772  1.00  0.00     0.122 C 
BRANCH  21  22
ATOM     22  C   UNL     1       3.065   4.237  -0.501  1.00  0.00     0.018 C 
ATOM     23  C   UNL     1       3.665   4.989   0.676  1.00  0.00     0.006 C 
ENDBRANCH  21  22
ENDBRANCH  16  21
ENDBRANCH  12  15
ENDBRANCH  10  11
ENDBRANCH   6  10
ENDBRANCH   3   5
ENDBRANCH   2   3
ENDBRANCH   1   2
BRANCH   1  24
ATOM     24  C   UNL     1       4.577   3.609  -7.934  1.00  0.00     0.275 C 
BRANCH  24  25
ATOM     25  O   UNL     1       3.511   3.025  -8.685  1.00  0.00    -0.458 OA
BRANCH  25  26
ATOM     26  C   UNL     1       2.796   2.097  -8.006  1.00  0.00     0.338 C 
ATOM     27  O   UNL     1       2.849   1.841  -6.818  1.00  0.00    -0.246 OA
BRANCH  26  28
ATOM     28  C   UNL     1       2.026   1.282  -8.946  1.00  0.00     0.060 A 
ATOM     29  C   UNL     1       0.984   0.503  -8.432  1.00  0.00     0.016 A 
ATOM     30  C   UNL     1       2.522   1.097 -10.242  1.00  0.00     0.016 A 
ATOM     31  C   UNL     1       0.529  -0.567  -9.176  1.00  0.00     0.010 A 
ATOM     32  C   UNL     1       2.077   0.022 -10.976  1.00  0.00     0.010 A 
ATOM     33  C   UNL     1       1.135  -0.837 -10.407  1.00  0.00    -0.014 A 
BRANCH  33  34
ATOM     34  C   UNL     1       0.787  -2.067 -11.091  1.00  0.00     0.031 A 
ATOM     35  C   UNL     1      -0.472  -2.042 -11.865  1.00  0.00     0.074 A 
ATOM     36  C   UNL     1       1.648  -3.099 -11.165  1.00  0.00     0.049 A 
ATOM     37  N   UNL     1      -1.514  -2.791 -11.721  1.00  0.00    -0.248 NA
ATOM     38  C   UNL     1      -0.613  -0.992 -12.886  1.00  0.00     0.031 C 
ATOM     39  C   UNL     1       3.055  -3.114 -10.752  1.00  0.00     0.029 A 
ATOM     40  N   UNL     1       1.483  -4.308 -11.768  1.00  0.00    -0.354 N 
ATOM     41  C   UNL     1      -2.375  -2.437 -12.753  1.00  0.00     0.074 A 
ATOM     42  C   UNL     1      -1.841  -1.233 -13.341  1.00  0.00     0.031 C 
ATOM     43  C   UNL     1       3.669  -4.169 -11.330  1.00  0.00     0.029 A 
ATOM     44  C   UNL     1       2.677  -4.957 -12.045  1.00  0.00     0.049 A 
ATOM     45  H   UNL     1       0.600  -4.686 -11.986  1.00  0.00     0.167 HD
ATOM     46  C   UNL     1      -3.348  -3.271 -13.209  1.00  0.00     0.031 A 
ATOM     47  C   UNL     1       2.849  -6.006 -12.886  1.00  0.00     0.031 A 
ATOM     48  C   UNL     1      -3.620  -4.351 -12.300  1.00  0.00     0.049 A 
ATOM     49  C   UNL     1       1.524  -6.630 -13.118  1.00  0.00     0.074 A 
ATOM     50  C   UNL     1      -4.025  -4.434 -10.983  1.00  0.00     0.029 A 
ATOM     51  N   UNL     1      -3.135  -5.596 -12.627  1.00  0.00    -0.354 N 
ATOM     52  N   UNL     1       0.854  -7.277 -12.207  1.00  0.00    -0.248 NA
ATOM     53  C   UNL     1       0.746  -6.209 -14.273  1.00  0.00     0.031 C 
ATOM     54  C   UNL     1      -3.350  -5.573 -10.455  1.00  0.00     0.029 A 
ATOM     55  C   UNL     1      -2.596  -6.136 -11.487  1.00  0.00     0.049 A 
ATOM     56  H   UNL     1      -3.169  -6.020 -13.515  1.00  0.00     0.167 HD
ATOM     57  C   UNL     1      -0.478  -6.986 -12.463  1.00  0.00     0.074 A 
ATOM     58  C   UNL     1      -0.488  -6.430 -13.812  1.00  0.00     0.031 C 
ATOM     59  C   UNL     1      -1.406  -6.962 -11.459  1.00  0.00     0.031 A 
BRANCH  46  60
ATOM     60  C   UNL     1      -3.787  -3.300 -14.649  1.00  0.00    -0.014 A 
ATOM     61  C   UNL     1      -4.915  -4.059 -15.012  1.00  0.00     0.010 A 
ATOM     62  C   UNL     1      -2.967  -2.823 -15.695  1.00  0.00     0.010 A 
ATOM     63  C   UNL     1      -5.175  -4.372 -16.354  1.00  0.00     0.020 A 
ATOM     64  C   UNL     1      -3.244  -3.086 -17.036  1.00  0.00     0.020 A 
ATOM     65  C   UNL     1      -4.325  -3.895 -17.354  1.00  0.00     0.054 A 
BRANCH  65  66
ATOM     66  S   UNL     1      -4.592  -4.407 -19.069  1.00  0.00     0.124 S 
ATOM     67  O   UNL     1      -4.204  -5.813 -19.022  1.00  0.00    -0.237 OA
ATOM     68  O   UNL     1      -6.016  -4.147 -19.256  1.00  0.00    -0.237 OA
ATOM     69  O   UNL     1      -3.700  -3.534 -19.828  1.00  0.00    -0.744 OA
ENDBRANCH  65  66
ENDBRANCH  46  60
BRANCH  47  70
ATOM     70  C   UNL     1       4.034  -6.299 -13.728  1.00  0.00    -0.014 A 
ATOM     71  C   UNL     1       4.188  -7.551 -14.348  1.00  0.00     0.010 A 
ATOM     72  C   UNL     1       4.896  -5.257 -14.131  1.00  0.00     0.010 A 
ATOM     73  C   UNL     1       5.130  -7.737 -15.372  1.00  0.00     0.020 A 
ATOM     74  C   UNL     1       5.847  -5.438 -15.139  1.00  0.00     0.020 A 
ATOM     75  C   UNL     1       5.943  -6.673 -15.773  1.00  0.00     0.054 A 
BRANCH  75  76
ATOM     76  S   UNL     1       7.031  -6.869 -17.213  1.00  0.00     0.124 S 
ATOM     77  O   UNL     1       8.069  -7.757 -16.699  1.00  0.00    -0.237 OA
ATOM     78  O   UNL     1       6.136  -7.452 -18.210  1.00  0.00    -0.237 OA
ATOM     79  O   UNL     1       7.468  -5.505 -17.503  1.00  0.00    -0.744 OA
ENDBRANCH  75  76
ENDBRANCH  47  70
BRANCH  59  80
ATOM     80  C   UNL     1      -1.050  -7.598 -10.133  1.00  0.00    -0.014 A 
ATOM     81  C   UNL     1       0.070  -7.224  -9.366  1.00  0.00     0.010 A 
ATOM     82  C   UNL     1      -1.955  -8.525  -9.584  1.00  0.00     0.010 A 
ATOM     83  C   UNL     1       0.303  -7.796  -8.107  1.00  0.00     0.020 A 
ATOM     84  C   UNL     1      -1.740  -9.083  -8.320  1.00  0.00     0.020 A 
ATOM     85  C   UNL     1      -0.604  -8.727  -7.593  1.00  0.00     0.054 A 
BRANCH  85  86
ATOM     86  S   UNL     1      -0.311  -9.437  -5.949  1.00  0.00     0.124 S 
ATOM     87  O   UNL     1       0.844 -10.300  -6.177  1.00  0.00    -0.237 OA
ATOM     88  O   UNL     1      -0.063  -8.257  -5.124  1.00  0.00    -0.237 OA
ATOM     89  O   UNL     1      -1.557 -10.141  -5.647  1.00  0.00    -0.744 OA
ENDBRANCH  85  86
ENDBRANCH  59  80
ENDBRANCH  33  34
ENDBRANCH  26  28
ENDBRANCH  25  26
ENDBRANCH  24  25
ENDBRANCH   1  24
TORSDOF 19
