REMARK SMILES C[C@@H]1[NH2+]CC[C@@H]1C(=O)Nc1cc(F)ccc1C(=O)OCCOC(=O)c1ccc(-c2c3nc(c(-c4ccc(S(=O)(=O)[O-])cc4)c4ccc([nH]4)c(-c4ccc(S(=O)(=O)[O-])cc4)c4nc(c(-c5ccc(S(=O)(=O)[O-])cc5)c5ccc2[nH]5)C=C4)C=C3)cc1
REMARK SMILES IDX 21 1 20 2 19 3 17 4 18 5 16 6 10 7 11 8 12 9 15 10 13 11
REMARK SMILES IDX 14 12 9 13 7 14 8 15 6 17 1 18 2 19 3 20 4 21 5 24 22 25
REMARK SMILES IDX 23 26 24 27 25 28 26 29 84 30 27 31 83 32 28 33 29 34 30 35
REMARK SMILES IDX 77 36 31 37 82 38 76 39 78 40 32 41 81 42 75 43 74 44 33 46
REMARK SMILES IDX 63 47 44 48 62 49 45 50 48 51 61 52 79 53 46 54 47 55 60 57
REMARK SMILES IDX 80 58 49 59 34 60 35 61 43 62 36 63 42 64 37 65 38 66 39 67
REMARK SMILES IDX 40 68 41 69 64 70 65 71 73 72 66 73 72 74 67 75 68 76 69 77
REMARK SMILES IDX 70 78 71 79 50 80 51 81 59 82 52 83 58 84 53 85 54 86 55 87
REMARK SMILES IDX 56 88 57 89
REMARK H PARENT 9 16 3 22 3 23 78 45 48 56
REMARK Flexibility Score: inf
ROOT
ATOM      1  C   UNL     1       4.546   5.702  -1.207  1.00  0.00     0.275 C 
ENDROOT
BRANCH   1   2
ATOM      2  C   UNL     1       4.122   4.656  -2.238  1.00  0.00     0.275 C 
BRANCH   2   3
ATOM      3  O   UNL     1       3.797   3.402  -1.596  1.00  0.00    -0.458 OA
BRANCH   3   4
ATOM      4  C   UNL     1       4.684   2.390  -1.772  1.00  0.00     0.340 C 
ATOM      5  O   UNL     1       5.692   2.439  -2.460  1.00  0.00    -0.246 OA
BRANCH   4   6
ATOM      6  C   UNL     1       4.351   1.212  -0.917  1.00  0.00     0.083 A 
ATOM      7  C   UNL     1       3.041   0.850  -0.509  1.00  0.00     0.058 A 
ATOM      8  C   UNL     1       2.921  -0.238   0.351  1.00  0.00     0.066 A 
ATOM      9  C   UNL     1       4.032  -0.989   0.741  1.00  0.00     0.125 A 
ATOM     10  C   UNL     1       5.462   0.434  -0.518  1.00  0.00     0.021 A 
ATOM     11  F   UNL     1       3.852  -2.062   1.521  1.00  0.00    -0.207 F 
ATOM     12  C   UNL     1       5.305  -0.662   0.320  1.00  0.00     0.040 A 
BRANCH   7  13
ATOM     13  N   UNL     1       1.938   1.544  -1.046  1.00  0.00    -0.325 N 
ATOM     14  C   UNL     1       0.582   1.518  -0.996  1.00  0.00     0.233 C 
ATOM     15  O   UNL     1       0.046   2.311  -1.786  1.00  0.00    -0.274 OA
ATOM     16  H   UNL     1       2.245   2.268  -1.638  1.00  0.00     0.169 HD
BRANCH  14  17
ATOM     17  C   UNL     1      -0.280   0.696  -0.032  1.00  0.00     0.142 C 
ATOM     18  C   UNL     1      -0.049  -1.365  -1.588  1.00  0.00     0.076 C 
ATOM     19  C   UNL     1      -0.356  -0.829  -0.196  1.00  0.00     0.192 C 
ATOM     20  N   UNL     1      -1.719  -1.207   0.234  1.00  0.00    -0.343 N 
ATOM     21  C   UNL     1      -2.582  -0.142  -0.265  1.00  0.00     0.261 C 
ATOM     22  H   UNL     1      -1.772  -1.264   1.251  1.00  0.00     0.346 HD
ATOM     23  H   UNL     1      -1.993  -2.122  -0.125  1.00  0.00     0.346 HD
ATOM     24  C   UNL     1      -1.767   1.129  -0.112  1.00  0.00     0.081 C 
ENDBRANCH  14  17
ENDBRANCH   7  13
ENDBRANCH   4   6
ENDBRANCH   3   4
ENDBRANCH   2   3
ENDBRANCH   1   2
BRANCH   1  25
ATOM     25  O   UNL     1       5.757   5.282  -0.552  1.00  0.00    -0.458 OA
BRANCH  25  26
ATOM     26  C   UNL     1       5.625   4.971   0.758  1.00  0.00     0.338 C 
ATOM     27  O   UNL     1       4.623   5.074   1.446  1.00  0.00    -0.246 OA
BRANCH  26  28
ATOM     28  C   UNL     1       6.867   4.367   1.269  1.00  0.00     0.060 A 
ATOM     29  C   UNL     1       7.257   3.136   0.758  1.00  0.00     0.016 A 
ATOM     30  C   UNL     1       7.506   4.887   2.391  1.00  0.00     0.016 A 
ATOM     31  C   UNL     1       8.160   2.342   1.461  1.00  0.00     0.010 A 
ATOM     32  C   UNL     1       8.523   4.145   3.010  1.00  0.00     0.010 A 
ATOM     33  C   UNL     1       8.818   2.830   2.599  1.00  0.00    -0.014 A 
BRANCH  33  34
ATOM     34  C   UNL     1       9.735   1.954   3.402  1.00  0.00     0.031 A 
ATOM     35  C   UNL     1       9.550   1.841   4.902  1.00  0.00     0.074 A 
ATOM     36  C   UNL     1      10.717   1.231   2.821  1.00  0.00     0.049 A 
ATOM     37  N   UNL     1      10.371   1.368   5.806  1.00  0.00    -0.248 NA
ATOM     38  C   UNL     1       8.286   2.350   5.459  1.00  0.00     0.031 C 
ATOM     39  C   UNL     1      10.995   1.157   1.385  1.00  0.00     0.029 A 
ATOM     40  N   UNL     1      11.666   0.401   3.375  1.00  0.00    -0.354 N 
ATOM     41  C   UNL     1       9.767   1.610   7.037  1.00  0.00     0.074 A 
ATOM     42  C   UNL     1       8.506   2.264   6.763  1.00  0.00     0.031 C 
ATOM     43  C   UNL     1      11.991   0.285   1.168  1.00  0.00     0.029 A 
ATOM     44  C   UNL     1      12.516  -0.162   2.451  1.00  0.00     0.049 A 
ATOM     45  H   UNL     1      11.730   0.227   4.342  1.00  0.00     0.167 HD
ATOM     46  C   UNL     1      10.223   1.322   8.281  1.00  0.00     0.031 A 
ATOM     47  C   UNL     1      13.634  -0.900   2.604  1.00  0.00     0.031 A 
ATOM     48  C   UNL     1      11.439   0.598   8.547  1.00  0.00     0.049 A 
ATOM     49  C   UNL     1      14.140  -1.189   3.989  1.00  0.00     0.074 A 
ATOM     50  C   UNL     1      11.985   0.249   9.771  1.00  0.00     0.029 A 
ATOM     51  N   UNL     1      12.281   0.080   7.574  1.00  0.00    -0.354 N 
ATOM     52  N   UNL     1      13.615  -0.853   5.142  1.00  0.00    -0.248 NA
ATOM     53  C   UNL     1      15.403  -1.932   4.091  1.00  0.00     0.031 C 
ATOM     54  C   UNL     1      13.176  -0.446   9.538  1.00  0.00     0.029 A 
ATOM     55  C   UNL     1      13.343  -0.579   8.170  1.00  0.00     0.049 A 
ATOM     56  H   UNL     1      12.143   0.168   6.603  1.00  0.00     0.167 HD
ATOM     57  C   UNL     1      14.478  -1.357   6.109  1.00  0.00     0.074 A 
ATOM     58  C   UNL     1      15.546  -2.037   5.405  1.00  0.00     0.031 C 
ATOM     59  C   UNL     1      14.396  -1.258   7.458  1.00  0.00     0.031 A 
BRANCH  46  60
ATOM     60  C   UNL     1       9.433   1.838   9.458  1.00  0.00    -0.014 A 
ATOM     61  C   UNL     1       8.190   1.292   9.820  1.00  0.00     0.010 A 
ATOM     62  C   UNL     1       9.976   2.874  10.244  1.00  0.00     0.010 A 
ATOM     63  C   UNL     1       7.484   1.802  10.915  1.00  0.00     0.020 A 
ATOM     64  C   UNL     1       9.289   3.366  11.357  1.00  0.00     0.020 A 
ATOM     65  C   UNL     1       8.036   2.840  11.674  1.00  0.00     0.054 A 
BRANCH  65  66
ATOM     66  S   UNL     1       7.106   3.475  13.097  1.00  0.00     0.124 S 
ATOM     67  O   UNL     1       6.049   4.245  12.445  1.00  0.00    -0.237 OA
ATOM     68  O   UNL     1       6.670   2.253  13.768  1.00  0.00    -0.237 OA
ATOM     69  O   UNL     1       8.091   4.267  13.830  1.00  0.00    -0.744 OA
ENDBRANCH  65  66
ENDBRANCH  46  60
BRANCH  47  70
ATOM     70  C   UNL     1      14.396  -1.350   1.404  1.00  0.00    -0.014 A 
ATOM     71  C   UNL     1      14.468  -2.713   1.066  1.00  0.00     0.010 A 
ATOM     72  C   UNL     1      15.042  -0.409   0.579  1.00  0.00     0.010 A 
ATOM     73  C   UNL     1      15.171  -3.125  -0.070  1.00  0.00     0.020 A 
ATOM     74  C   UNL     1      15.715  -0.813  -0.576  1.00  0.00     0.020 A 
ATOM     75  C   UNL     1      15.785  -2.171  -0.888  1.00  0.00     0.054 A 
BRANCH  75  76
ATOM     76  S   UNL     1      16.631  -2.718  -2.397  1.00  0.00     0.124 S 
ATOM     77  O   UNL     1      17.867  -3.282  -1.863  1.00  0.00    -0.237 OA
ATOM     78  O   UNL     1      15.687  -3.680  -2.959  1.00  0.00    -0.237 OA
ATOM     79  O   UNL     1      16.785  -1.486  -3.167  1.00  0.00    -0.744 OA
ENDBRANCH  75  76
ENDBRANCH  47  70
BRANCH  59  80
ATOM     80  C   UNL     1      15.463  -1.945   8.266  1.00  0.00    -0.014 A 
ATOM     81  C   UNL     1      16.767  -1.425   8.347  1.00  0.00     0.010 A 
ATOM     82  C   UNL     1      15.140  -3.108   8.988  1.00  0.00     0.010 A 
ATOM     83  C   UNL     1      17.739  -2.078   9.110  1.00  0.00     0.020 A 
ATOM     84  C   UNL     1      16.102  -3.748   9.773  1.00  0.00     0.020 A 
ATOM     85  C   UNL     1      17.400  -3.236   9.817  1.00  0.00     0.054 A 
BRANCH  85  86
ATOM     86  S   UNL     1      18.669  -4.045  10.830  1.00  0.00     0.124 S 
ATOM     87  O   UNL     1      19.502  -4.688   9.817  1.00  0.00    -0.237 OA
ATOM     88  O   UNL     1      19.285  -2.921  11.531  1.00  0.00    -0.237 OA
ATOM     89  O   UNL     1      17.904  -4.957  11.678  1.00  0.00    -0.744 OA
ENDBRANCH  85  86
ENDBRANCH  59  80
ENDBRANCH  33  34
ENDBRANCH  26  28
ENDBRANCH  25  26
ENDBRANCH   1  25
TORSDOF 16
