REMARK SMILES COc1ccc2c(c1)O[C@@]1(CCC(=O)N([C@@H](C)C(=O)OCCOC(=O)c3ccc(-c4c5nc(c(-c6ccc(S(=O)(=O)[O-])cc6)c6ccc([nH]6)c(-c6ccc(S(=O)(=O)[O-])cc6)c6nc(c(-c7ccc(S(=O)(=O)[O-])cc7)c7ccc4[nH]7)C=C6)C=C5)cc3)CC1)CC2=O
REMARK SMILES IDX 21 1 20 2 18 3 19 4 16 5 17 6 15 7 86 8 87 9 10 10 3 11 4 12
REMARK SMILES IDX 8 13 5 14 7 15 6 16 9 17 89 18 88 19 90 20 2 21 1 22 11 23
REMARK SMILES IDX 13 25 14 26 12 27 22 29 23 30 24 31 25 32 26 33 27 34 85 35
REMARK SMILES IDX 28 36 84 37 29 38 30 39 31 40 78 41 32 42 83 43 77 44 79 45
REMARK SMILES IDX 33 46 82 47 76 48 75 49 34 51 64 52 45 53 63 54 46 55 49 56
REMARK SMILES IDX 62 57 80 58 47 59 48 60 61 62 81 63 50 64 35 65 36 66 44 67
REMARK SMILES IDX 37 68 43 69 38 70 39 71 40 72 41 73 42 74 65 75 66 76 74 77
REMARK SMILES IDX 67 78 73 79 68 80 69 81 70 82 71 83 72 84 51 85 52 86 60 87
REMARK SMILES IDX 53 88 59 89 54 90 55 91 56 92 57 93 58 94
REMARK H PARENT 79 50 49 61
REMARK Flexibility Score: 80.00
ROOT
ATOM      1  C   UNL     1      -1.370   0.765   3.071  1.00  0.00     0.274 C 
ENDROOT
BRANCH   1   2
ATOM      2  O   UNL     1      -2.433  -0.139   2.743  1.00  0.00    -0.461 OA
BRANCH   2   3
ATOM      3  C   UNL     1      -3.678   0.398   2.809  1.00  0.00     0.328 C 
ATOM      4  O   UNL     1      -3.916   1.537   3.200  1.00  0.00    -0.250 OA
BRANCH   3   5
ATOM      5  C   UNL     1      -4.772  -0.604   2.420  1.00  0.00     0.192 C 
ATOM      6  C   UNL     1      -5.639  -0.871   3.660  1.00  0.00     0.044 C 
BRANCH   5   7
ATOM      7  N   UNL     1      -4.381  -1.847   1.663  1.00  0.00    -0.329 N 
BRANCH   7   8
ATOM      8  C   UNL     1      -3.526  -1.826   0.455  1.00  0.00     0.124 C 
BRANCH   8   9
ATOM      9  C   UNL     1      -4.276  -1.572  -0.917  1.00  0.00     0.070 C 
BRANCH   9  10
ATOM     10  C   UNL     1      -5.317  -0.462  -0.756  1.00  0.00     0.118 C 
ATOM     11  C   UNL     1      -1.963   3.062  -0.766  1.00  0.00     0.122 A 
ATOM     12  C   UNL     1      -2.735   3.867  -1.608  1.00  0.00     0.047 A 
ATOM     13  C   UNL     1      -2.529   1.875  -0.271  1.00  0.00     0.093 A 
ATOM     14  C   UNL     1      -4.006   3.478  -2.016  1.00  0.00     0.019 A 
ATOM     15  C   UNL     1      -3.838   1.493  -0.657  1.00  0.00     0.134 A 
ATOM     16  C   UNL     1      -4.518   2.264  -1.575  1.00  0.00     0.060 A 
ATOM     17  O   UNL     1      -4.559   0.527   0.014  1.00  0.00    -0.486 OA
ATOM     18  C   UNL     1      -5.795   1.740  -2.034  1.00  0.00     0.170 C 
ATOM     19  C   UNL     1      -5.962   0.236  -1.986  1.00  0.00     0.129 C 
ATOM     20  O   UNL     1      -6.646   2.494  -2.489  1.00  0.00    -0.294 OA
BRANCH  11  21
ATOM     21  O   UNL     1      -0.739   3.626  -0.559  1.00  0.00    -0.497 OA
ATOM     22  C   UNL     1       0.226   3.086   0.314  1.00  0.00     0.278 C 
ENDBRANCH  11  21
BRANCH  10  23
ATOM     23  C   UNL     1      -6.579  -1.184  -0.051  1.00  0.00     0.059 CG0
ATOM     24  G   UNL     1      -6.542  -2.476   0.816  1.00  0.00     0.000 G0
ENDBRANCH  10  23
ENDBRANCH   9  10
ENDBRANCH   8   9
ENDBRANCH   7   8
BRANCH   7  25
ATOM     25  C   UNL     1      -5.300  -2.860   1.573  1.00  0.00     0.223 C 
ATOM     26  O   UNL     1      -5.093  -3.996   1.984  1.00  0.00    -0.275 OA
BRANCH  25  27
ATOM     27  C   UNL     1      -6.542  -2.476   0.816  1.00  0.00     0.104 CG0
ATOM     28  G   UNL     1      -6.579  -1.184  -0.051  1.00  0.00     0.000 G0
ENDBRANCH  25  27
ENDBRANCH   7  25
ENDBRANCH   5   7
ENDBRANCH   3   5
ENDBRANCH   2   3
ENDBRANCH   1   2
BRANCH   1  29
ATOM     29  C   UNL     1      -0.041   0.113   2.680  1.00  0.00     0.275 C 
BRANCH  29  30
ATOM     30  O   UNL     1       0.129   0.137   1.245  1.00  0.00    -0.458 OA
BRANCH  30  31
ATOM     31  C   UNL     1       0.169  -1.021   0.527  1.00  0.00     0.338 C 
ATOM     32  O   UNL     1       0.085  -2.138   0.952  1.00  0.00    -0.246 OA
BRANCH  31  33
ATOM     33  C   UNL     1       0.146  -0.635  -0.924  1.00  0.00     0.060 A 
ATOM     34  C   UNL     1       1.020   0.317  -1.451  1.00  0.00     0.016 A 
ATOM     35  C   UNL     1      -0.823  -1.193  -1.761  1.00  0.00     0.016 A 
ATOM     36  C   UNL     1       0.845   0.793  -2.760  1.00  0.00     0.010 A 
ATOM     37  C   UNL     1      -0.994  -0.730  -3.079  1.00  0.00     0.010 A 
ATOM     38  C   UNL     1      -0.165   0.275  -3.596  1.00  0.00    -0.014 A 
BRANCH  38  39
ATOM     39  C   UNL     1      -0.098   0.532  -5.067  1.00  0.00     0.031 A 
ATOM     40  C   UNL     1      -0.997   1.477  -5.819  1.00  0.00     0.074 A 
ATOM     41  C   UNL     1       0.867  -0.132  -5.734  1.00  0.00     0.049 A 
ATOM     42  N   UNL     1      -0.914   1.862  -7.071  1.00  0.00    -0.248 NA
ATOM     43  C   UNL     1      -2.136   2.051  -5.095  1.00  0.00     0.031 C 
ATOM     44  C   UNL     1       1.782  -1.090  -5.111  1.00  0.00     0.029 A 
ATOM     45  N   UNL     1       1.272  -0.082  -7.043  1.00  0.00    -0.354 N 
ATOM     46  C   UNL     1      -1.972   2.741  -7.285  1.00  0.00     0.074 A 
ATOM     47  C   UNL     1      -2.712   2.794  -6.038  1.00  0.00     0.031 C 
ATOM     48  C   UNL     1       2.691  -1.474  -6.011  1.00  0.00     0.029 A 
ATOM     49  C   UNL     1       2.395  -0.837  -7.291  1.00  0.00     0.049 A 
ATOM     50  H   UNL     1       0.806   0.440  -7.735  1.00  0.00     0.167 HD
ATOM     51  C   UNL     1      -2.284   3.438  -8.412  1.00  0.00     0.031 A 
ATOM     52  C   UNL     1       3.134  -0.993  -8.406  1.00  0.00     0.031 A 
ATOM     53  C   UNL     1      -1.552   3.334  -9.660  1.00  0.00     0.049 A 
ATOM     54  C   UNL     1       2.772  -0.224  -9.637  1.00  0.00     0.074 A 
ATOM     55  C   UNL     1      -1.785   4.002 -10.853  1.00  0.00     0.029 A 
ATOM     56  N   UNL     1      -0.452   2.515  -9.884  1.00  0.00    -0.354 N 
ATOM     57  N   UNL     1       1.793   0.630  -9.808  1.00  0.00    -0.248 NA
ATOM     58  C   UNL     1       3.619  -0.422 -10.819  1.00  0.00     0.031 C 
ATOM     59  C   UNL     1      -0.878   3.537 -11.809  1.00  0.00     0.029 A 
ATOM     60  C   UNL     1      -0.015   2.645 -11.196  1.00  0.00     0.049 A 
ATOM     61  H   UNL     1      -0.041   1.927  -9.209  1.00  0.00     0.167 HD
ATOM     62  C   UNL     1       1.912   1.086 -11.114  1.00  0.00     0.074 A 
ATOM     63  C   UNL     1       3.071   0.425 -11.682  1.00  0.00     0.031 C 
ATOM     64  C   UNL     1       1.128   1.974 -11.773  1.00  0.00     0.031 A 
BRANCH  51  65
ATOM     65  C   UNL     1      -3.461   4.397  -8.377  1.00  0.00    -0.014 A 
ATOM     66  C   UNL     1      -4.566   4.207  -9.233  1.00  0.00     0.010 A 
ATOM     67  C   UNL     1      -3.416   5.569  -7.597  1.00  0.00     0.010 A 
ATOM     68  C   UNL     1      -5.582   5.168  -9.325  1.00  0.00     0.020 A 
ATOM     69  C   UNL     1      -4.447   6.516  -7.660  1.00  0.00     0.020 A 
ATOM     70  C   UNL     1      -5.516   6.319  -8.537  1.00  0.00     0.054 A 
BRANCH  70  71
ATOM     71  S   UNL     1      -6.847   7.550  -8.659  1.00  0.00     0.124 S 
ATOM     72  O   UNL     1      -6.564   8.190  -9.939  1.00  0.00    -0.237 OA
ATOM     73  O   UNL     1      -8.052   6.723  -8.620  1.00  0.00    -0.237 OA
ATOM     74  O   UNL     1      -6.643   8.392  -7.481  1.00  0.00    -0.744 OA
ENDBRANCH  70  71
ENDBRANCH  51  65
BRANCH  52  75
ATOM     75  C   UNL     1       4.348  -1.851  -8.319  1.00  0.00    -0.014 A 
ATOM     76  C   UNL     1       4.222  -3.235  -8.089  1.00  0.00     0.010 A 
ATOM     77  C   UNL     1       5.620  -1.256  -8.253  1.00  0.00     0.010 A 
ATOM     78  C   UNL     1       5.328  -3.986  -7.688  1.00  0.00     0.020 A 
ATOM     79  C   UNL     1       6.736  -2.015  -7.889  1.00  0.00     0.020 A 
ATOM     80  C   UNL     1       6.572  -3.363  -7.563  1.00  0.00     0.054 A 
BRANCH  80  81
ATOM     81  S   UNL     1       7.960  -4.324  -6.899  1.00  0.00     0.124 S 
ATOM     82  O   UNL     1       7.604  -4.424  -5.486  1.00  0.00    -0.237 OA
ATOM     83  O   UNL     1       7.878  -5.568  -7.659  1.00  0.00    -0.237 OA
ATOM     84  O   UNL     1       9.124  -3.491  -7.192  1.00  0.00    -0.744 OA
ENDBRANCH  80  81
ENDBRANCH  52  75
BRANCH  64  85
ATOM     85  C   UNL     1       1.478   2.298 -13.206  1.00  0.00    -0.014 A 
ATOM     86  C   UNL     1       1.900   3.598 -13.545  1.00  0.00     0.010 A 
ATOM     87  C   UNL     1       1.290   1.355 -14.233  1.00  0.00     0.010 A 
ATOM     88  C   UNL     1       2.093   3.960 -14.882  1.00  0.00     0.020 A 
ATOM     89  C   UNL     1       1.511   1.704 -15.570  1.00  0.00     0.020 A 
ATOM     90  C   UNL     1       1.886   3.012 -15.887  1.00  0.00     0.054 A 
BRANCH  90  91
ATOM     91  S   UNL     1       2.106   3.510 -17.618  1.00  0.00     0.124 S 
ATOM     92  O   UNL     1       0.903   4.299 -17.866  1.00  0.00    -0.237 OA
ATOM     93  O   UNL     1       3.357   4.265 -17.579  1.00  0.00    -0.237 OA
ATOM     94  O   UNL     1       2.178   2.239 -18.335  1.00  0.00    -0.744 OA
ENDBRANCH  90  91
ENDBRANCH  64  85
ENDBRANCH  38  39
ENDBRANCH  31  33
ENDBRANCH  30  31
ENDBRANCH  29  30
ENDBRANCH   1  29
TORSDOF 16
