REMARK SMILES [NH3+][C@@H](Cc1c[nH]c2ccccc12)C(=O)N[C@@H](CS)C(=O)N[C@@H](CO)C(=O)OCCOC(=O)c1ccc(-c2c3nc(c(-c4ccc(S(=O)(=O)[O-])cc4)c4ccc([nH]4)c(-c4ccc(S(=O)(=O)[O-])cc4)c4nc(c(-c5ccc(S(=O)(=O)[O-])cc5)c5ccc2[nH]5)C=C4)C=C3)cc1
REMARK SMILES IDX 27 1 25 2 26 3 22 4 21 5 19 6 20 7 16 9 15 10 13 11 14 12
REMARK SMILES IDX 2 14 1 15 3 19 4 20 5 21 12 22 6 23 7 24 11 25 8 27 10 28
REMARK SMILES IDX 9 29 17 30 18 31 23 33 24 34 28 36 29 37 30 38 31 39 32 40
REMARK SMILES IDX 33 41 34 42 92 43 35 44 91 45 36 46 37 47 38 48 85 49 39 50
REMARK SMILES IDX 90 51 84 52 86 53 40 54 89 55 83 56 82 57 41 59 71 60 52 61
REMARK SMILES IDX 70 62 53 63 56 64 69 65 87 66 54 67 55 68 68 70 88 71 57 72
REMARK SMILES IDX 42 73 43 74 51 75 44 76 50 77 45 78 46 79 47 80 48 81 49 82
REMARK SMILES IDX 72 83 73 84 81 85 74 86 80 87 75 88 76 89 77 90 78 91 79 92
REMARK SMILES IDX 58 93 59 94 67 95 60 96 66 97 61 98 62 99 63 100 64 101
REMARK SMILES IDX 65 102
REMARK H PARENT 21 8 15 13 1 16 1 17 1 18 6 26 18 32 24 35 86 58 56 69
REMARK Flexibility Score: inf
ROOT
ATOM      1  O   UNL     1      -5.085   4.416   2.696  1.00  0.00    -0.460 OA
ENDROOT
BRANCH   1   2
ATOM      2  C   UNL     1      -5.491   3.286   2.049  1.00  0.00     0.331 C 
ATOM      3  O   UNL     1      -6.406   3.235   1.236  1.00  0.00    -0.250 OA
BRANCH   2   4
ATOM      4  C   UNL     1      -4.702   2.050   2.501  1.00  0.00     0.218 C 
BRANCH   4   5
ATOM      5  N   UNL     1      -3.540   2.370   3.339  1.00  0.00    -0.339 N 
ATOM      6  C   UNL     1      -2.323   1.782   3.430  1.00  0.00     0.244 C 
ATOM      7  O   UNL     1      -1.884   1.693   4.584  1.00  0.00    -0.273 OA
ATOM      8  H   UNL     1      -3.666   3.143   3.936  1.00  0.00     0.164 HD
BRANCH   6   9
ATOM      9  C   UNL     1      -1.541   1.189   2.222  1.00  0.00     0.181 C 
BRANCH   9  10
ATOM     10  N   UNL     1      -1.574  -0.271   2.219  1.00  0.00    -0.338 N 
ATOM     11  C   UNL     1      -0.611  -1.194   1.946  1.00  0.00     0.279 C 
ATOM     12  O   UNL     1      -0.964  -2.379   2.030  1.00  0.00    -0.268 OA
ATOM     13  H   UNL     1      -2.448  -0.657   2.456  1.00  0.00     0.164 HD
BRANCH  11  14
ATOM     14  C   UNL     1       0.851  -0.859   1.547  1.00  0.00     0.275 C 
BRANCH  14  15
ATOM     15  N   UNL     1       0.894   0.038   0.372  1.00  0.00    -0.347 N 
ATOM     16  H   UNL     1       1.866   0.240   0.135  1.00  0.00     0.345 HD
ATOM     17  H   UNL     1       0.410   0.908   0.591  1.00  0.00     0.345 HD
ATOM     18  H   UNL     1       0.438  -0.416  -0.419  1.00  0.00     0.345 HD
ENDBRANCH  14  15
BRANCH  14  19
ATOM     19  C   UNL     1       1.802  -0.540   2.728  1.00  0.00     0.113 C 
BRANCH  19  20
ATOM     20  C   UNL     1       1.751   0.856   3.277  1.00  0.00    -0.016 A 
ATOM     21  C   UNL     1       1.122   1.237   4.447  1.00  0.00     0.087 A 
ATOM     22  C   UNL     1       2.290   2.054   2.698  1.00  0.00     0.003 A 
ATOM     23  N   UNL     1       1.096   2.606   4.496  1.00  0.00    -0.361 N 
ATOM     24  C   UNL     1       1.767   3.131   3.417  1.00  0.00     0.046 A 
ATOM     25  C   UNL     1       3.106   2.332   1.581  1.00  0.00     0.010 A 
ATOM     26  H   UNL     1       0.660   3.136   5.201  1.00  0.00     0.166 HD
ATOM     27  C   UNL     1       1.939   4.463   3.022  1.00  0.00     0.026 A 
ATOM     28  C   UNL     1       3.316   3.659   1.191  1.00  0.00     0.001 A 
ATOM     29  C   UNL     1       2.720   4.706   1.889  1.00  0.00     0.002 A 
ENDBRANCH  19  20
ENDBRANCH  14  19
ENDBRANCH  11  14
ENDBRANCH   9  10
BRANCH   9  30
ATOM     30  C   UNL     1      -1.764   1.885   0.873  1.00  0.00     0.101 C 
BRANCH  30  31
ATOM     31  S   UNL     1      -2.685   0.878  -0.337  1.00  0.00    -0.177 SA
ATOM     32  H   UNL     1      -1.977  -0.248  -0.623  1.00  0.00     0.102 HD
ENDBRANCH  30  31
ENDBRANCH   9  30
ENDBRANCH   6   9
ENDBRANCH   4   5
BRANCH   4  33
ATOM     33  C   UNL     1      -5.660   1.144   3.293  1.00  0.00     0.193 C 
BRANCH  33  34
ATOM     34  O   UNL     1      -5.845   1.639   4.626  1.00  0.00    -0.394 OA
ATOM     35  H   UNL     1      -4.992   1.655   5.087  1.00  0.00     0.210 HD
ENDBRANCH  33  34
ENDBRANCH   4  33
ENDBRANCH   2   4
ENDBRANCH   1   2
BRANCH   1  36
ATOM     36  C   UNL     1      -5.788   5.635   2.375  1.00  0.00     0.274 C 
BRANCH  36  37
ATOM     37  C   UNL     1      -4.810   6.635   1.768  1.00  0.00     0.275 C 
BRANCH  37  38
ATOM     38  O   UNL     1      -4.359   6.110   0.509  1.00  0.00    -0.458 OA
BRANCH  38  39
ATOM     39  C   UNL     1      -3.039   6.242   0.234  1.00  0.00     0.338 C 
ATOM     40  O   UNL     1      -2.217   6.855   0.891  1.00  0.00    -0.246 OA
BRANCH  39  41
ATOM     41  C   UNL     1      -2.713   5.480  -0.996  1.00  0.00     0.060 A 
ATOM     42  C   UNL     1      -3.429   4.335  -1.331  1.00  0.00     0.016 A 
ATOM     43  C   UNL     1      -1.617   5.853  -1.779  1.00  0.00     0.016 A 
ATOM     44  C   UNL     1      -3.000   3.533  -2.392  1.00  0.00     0.010 A 
ATOM     45  C   UNL     1      -1.255   5.087  -2.901  1.00  0.00     0.010 A 
ATOM     46  C   UNL     1      -1.919   3.888  -3.214  1.00  0.00    -0.014 A 
BRANCH  46  47
ATOM     47  C   UNL     1      -1.473   3.009  -4.353  1.00  0.00     0.031 A 
ATOM     48  C   UNL     1      -0.003   2.709  -4.572  1.00  0.00     0.074 A 
ATOM     49  C   UNL     1      -2.355   2.440  -5.208  1.00  0.00     0.049 A 
ATOM     50  N   UNL     1       0.603   2.277  -5.652  1.00  0.00    -0.248 NA
ATOM     51  C   UNL     1       0.907   2.940  -3.438  1.00  0.00     0.031 C 
ATOM     52  C   UNL     1      -3.814   2.529  -5.127  1.00  0.00     0.029 A 
ATOM     53  N   UNL     1      -2.145   1.655  -6.322  1.00  0.00    -0.354 N 
ATOM     54  C   UNL     1       1.964   2.278  -5.360  1.00  0.00     0.074 A 
ATOM     55  C   UNL     1       2.096   2.731  -3.991  1.00  0.00     0.031 C 
ATOM     56  C   UNL     1      -4.363   1.767  -6.080  1.00  0.00     0.029 A 
ATOM     57  C   UNL     1      -3.308   1.282  -6.959  1.00  0.00     0.049 A 
ATOM     58  H   UNL     1      -1.251   1.386  -6.633  1.00  0.00     0.167 HD
ATOM     59  C   UNL     1       3.006   1.948  -6.165  1.00  0.00     0.031 A 
ATOM     60  C   UNL     1      -3.536   0.714  -8.160  1.00  0.00     0.031 A 
ATOM     61  C   UNL     1       2.867   1.408  -7.495  1.00  0.00     0.049 A 
ATOM     62  C   UNL     1      -2.382   0.425  -9.070  1.00  0.00     0.074 A 
ATOM     63  C   UNL     1       3.865   1.030  -8.379  1.00  0.00     0.029 A 
ATOM     64  N   UNL     1       1.661   1.139  -8.122  1.00  0.00    -0.354 N 
ATOM     65  N   UNL     1      -1.101   0.580  -8.844  1.00  0.00    -0.248 NA
ATOM     66  C   UNL     1      -2.707  -0.066 -10.417  1.00  0.00     0.031 C 
ATOM     67  C   UNL     1       3.262   0.574  -9.557  1.00  0.00     0.029 A 
ATOM     68  C   UNL     1       1.889   0.620  -9.387  1.00  0.00     0.049 A 
ATOM     69  H   UNL     1       0.772   1.294  -7.728  1.00  0.00     0.167 HD
ATOM     70  C   UNL     1      -0.466   0.215 -10.025  1.00  0.00     0.074 A 
ATOM     71  C   UNL     1      -1.500  -0.193 -10.953  1.00  0.00     0.031 C 
ATOM     72  C   UNL     1       0.858   0.231 -10.312  1.00  0.00     0.031 A 
BRANCH  59  73
ATOM     73  C   UNL     1       4.405   2.212  -5.668  1.00  0.00    -0.014 A 
ATOM     74  C   UNL     1       5.022   1.402  -4.700  1.00  0.00     0.010 A 
ATOM     75  C   UNL     1       5.149   3.253  -6.260  1.00  0.00     0.010 A 
ATOM     76  C   UNL     1       6.346   1.648  -4.313  1.00  0.00     0.020 A 
ATOM     77  C   UNL     1       6.478   3.486  -5.896  1.00  0.00     0.020 A 
ATOM     78  C   UNL     1       7.064   2.689  -4.912  1.00  0.00     0.054 A 
BRANCH  78  79
ATOM     79  S   UNL     1       8.787   2.966  -4.415  1.00  0.00     0.124 S 
ATOM     80  O   UNL     1       8.623   3.576  -3.097  1.00  0.00    -0.237 OA
ATOM     81  O   UNL     1       9.344   1.616  -4.415  1.00  0.00    -0.237 OA
ATOM     82  O   UNL     1       9.310   3.853  -5.451  1.00  0.00    -0.744 OA
ENDBRANCH  78  79
ENDBRANCH  59  73
BRANCH  60  83
ATOM     83  C   UNL     1      -4.942   0.527  -8.619  1.00  0.00    -0.014 A 
ATOM     84  C   UNL     1      -5.507  -0.753  -8.723  1.00  0.00     0.010 A 
ATOM     85  C   UNL     1      -5.744   1.655  -8.884  1.00  0.00     0.010 A 
ATOM     86  C   UNL     1      -6.858  -0.901  -9.057  1.00  0.00     0.020 A 
ATOM     87  C   UNL     1      -7.100   1.514  -9.179  1.00  0.00     0.020 A 
ATOM     88  C   UNL     1      -7.649   0.234  -9.267  1.00  0.00     0.054 A 
BRANCH  88  89
ATOM     89  S   UNL     1      -9.426   0.033  -9.572  1.00  0.00     0.124 S 
ATOM     90  O   UNL     1      -9.452  -0.332 -10.984  1.00  0.00    -0.237 OA
ATOM     91  O   UNL     1      -9.793  -1.028  -8.637  1.00  0.00    -0.237 OA
ATOM     92  O   UNL     1      -9.977   1.348  -9.252  1.00  0.00    -0.744 OA
ENDBRANCH  88  89
ENDBRANCH  60  83
BRANCH  72  93
ATOM     93  C   UNL     1       1.266  -0.226 -11.684  1.00  0.00    -0.014 A 
ATOM     94  C   UNL     1       1.089   0.604 -12.805  1.00  0.00     0.010 A 
ATOM     95  C   UNL     1       1.862  -1.489 -11.851  1.00  0.00     0.010 A 
ATOM     96  C   UNL     1       1.477   0.168 -14.074  1.00  0.00     0.020 A 
ATOM     97  C   UNL     1       2.271  -1.920 -13.115  1.00  0.00     0.020 A 
ATOM     98  C   UNL     1       2.063  -1.093 -14.221  1.00  0.00     0.054 A 
BRANCH  98  99
ATOM     99  S   UNL     1       2.591  -1.623 -15.874  1.00  0.00     0.124 S 
ATOM    100  O   UNL     1       1.317  -1.938 -16.514  1.00  0.00    -0.237 OA
ATOM    101  O   UNL     1       3.277  -0.440 -16.387  1.00  0.00    -0.237 OA
ATOM    102  O   UNL     1       3.456  -2.771 -15.610  1.00  0.00    -0.744 OA
ENDBRANCH  98  99
ENDBRANCH  72  93
ENDBRANCH  46  47
ENDBRANCH  39  41
ENDBRANCH  38  39
ENDBRANCH  37  38
ENDBRANCH  36  37
ENDBRANCH   1  36
TORSDOF 25
