REMARK SMILES CC[NH2+][C@H](CC(=O)Nc1cc(C)cc(C)c1)C(=O)OCCOC(=O)c1ccc(-c2c3nc(c(-c4ccc(S(=O)(=O)[O-])cc4)c4ccc([nH]4)c(-c4ccc(S(=O)(=O)[O-])cc4)c4nc(c(-c5ccc(S(=O)(=O)[O-])cc5)c5ccc2[nH]5)C=C4)C=C3)cc1
REMARK SMILES IDX 20 1 19 2 17 3 18 4 4 5 3 6 2 9 1 10 5 11 6 12 7 13 8 14
REMARK SMILES IDX 9 16 10 17 16 18 11 19 14 20 12 21 13 22 15 23 21 24 22 25
REMARK SMILES IDX 23 26 24 27 25 28 26 29 84 30 27 31 83 32 28 33 29 34 30 35
REMARK SMILES IDX 77 36 31 37 82 38 76 39 78 40 32 41 81 42 75 43 74 44 33 46
REMARK SMILES IDX 63 47 44 48 62 49 45 50 48 51 61 52 79 53 46 54 47 55 60 57
REMARK SMILES IDX 80 58 49 59 34 60 35 61 43 62 36 63 42 64 37 65 38 66 39 67
REMARK SMILES IDX 40 68 41 69 64 70 65 71 73 72 66 73 72 74 67 75 68 76 69 77
REMARK SMILES IDX 70 78 71 79 50 80 51 81 59 82 52 83 58 84 53 85 54 86 55 87
REMARK SMILES IDX 56 88 57 89
REMARK H PARENT 3 7 3 8 8 15 78 45 48 56
REMARK Flexibility Score: inf
ROOT
ATOM      1  C   UNL     1       2.869   3.155  -5.283  1.00  0.00     0.274 C 
ENDROOT
BRANCH   1   2
ATOM      2  O   UNL     1       2.567   2.708  -3.945  1.00  0.00    -0.458 OA
BRANCH   2   3
ATOM      3  C   UNL     1       1.528   3.338  -3.340  1.00  0.00     0.365 C 
ATOM      4  O   UNL     1       0.857   4.225  -3.865  1.00  0.00    -0.245 OA
BRANCH   3   5
ATOM      5  C   UNL     1       1.317   2.949  -1.864  1.00  0.00     0.302 C 
BRANCH   5   6
ATOM      6  N   UNL     1       2.238   3.794  -1.040  1.00  0.00    -0.334 N 
ATOM      7  H   UNL     1       3.200   3.574  -1.298  1.00  0.00     0.347 HD
ATOM      8  H   UNL     1       2.009   4.770  -1.229  1.00  0.00     0.347 HD
BRANCH   6   9
ATOM      9  C   UNL     1       2.077   3.574   0.400  1.00  0.00     0.257 C 
ATOM     10  C   UNL     1       2.259   4.860   1.190  1.00  0.00     0.071 C 
ENDBRANCH   6   9
ENDBRANCH   5   6
BRANCH   5  11
ATOM     11  C   UNL     1       1.363   1.447  -1.584  1.00  0.00     0.177 C 
BRANCH  11  12
ATOM     12  C   UNL     1       0.057   0.647  -1.628  1.00  0.00     0.231 C 
ATOM     13  O   UNL     1      -0.005  -0.375  -2.321  1.00  0.00    -0.274 OA
ATOM     14  N   UNL     1      -0.988   0.842  -0.770  1.00  0.00    -0.326 N 
ATOM     15  H   UNL     1      -1.641   0.105  -0.763  1.00  0.00     0.169 HD
BRANCH  14  16
ATOM     16  C   UNL     1      -1.305   1.888   0.097  1.00  0.00     0.041 A 
ATOM     17  C   UNL     1      -1.619   3.159  -0.383  1.00  0.00     0.029 A 
ATOM     18  C   UNL     1      -1.448   1.617   1.457  1.00  0.00     0.029 A 
ATOM     19  C   UNL     1      -1.890   4.213   0.495  1.00  0.00    -0.049 A 
ATOM     20  C   UNL     1      -1.767   2.647   2.353  1.00  0.00    -0.049 A 
ATOM     21  C   UNL     1      -2.106   5.604  -0.024  1.00  0.00     0.044 C 
ATOM     22  C   UNL     1      -1.953   3.949   1.867  1.00  0.00     0.007 A 
ATOM     23  C   UNL     1      -1.870   2.383   3.826  1.00  0.00     0.044 C 
ENDBRANCH  14  16
ENDBRANCH  11  12
ENDBRANCH   5  11
ENDBRANCH   3   5
ENDBRANCH   2   3
ENDBRANCH   1   2
BRANCH   1  24
ATOM     24  C   UNL     1       2.240   2.271  -6.364  1.00  0.00     0.275 C 
BRANCH  24  25
ATOM     25  O   UNL     1       0.802   2.348  -6.368  1.00  0.00    -0.458 OA
BRANCH  25  26
ATOM     26  C   UNL     1       0.199   1.403  -5.609  1.00  0.00     0.338 C 
ATOM     27  O   UNL     1       0.755   0.531  -4.968  1.00  0.00    -0.246 OA
BRANCH  26  28
ATOM     28  C   UNL     1      -1.254   1.627  -5.568  1.00  0.00     0.060 A 
ATOM     29  C   UNL     1      -1.820   2.116  -4.388  1.00  0.00     0.016 A 
ATOM     30  C   UNL     1      -2.066   1.251  -6.637  1.00  0.00     0.016 A 
ATOM     31  C   UNL     1      -3.204   2.211  -4.259  1.00  0.00     0.010 A 
ATOM     32  C   UNL     1      -3.456   1.363  -6.514  1.00  0.00     0.010 A 
ATOM     33  C   UNL     1      -4.035   1.828  -5.319  1.00  0.00    -0.014 A 
BRANCH  33  34
ATOM     34  C   UNL     1      -5.511   1.882  -5.166  1.00  0.00     0.031 A 
ATOM     35  C   UNL     1      -6.301   0.611  -5.020  1.00  0.00     0.074 A 
ATOM     36  C   UNL     1      -6.141   3.071  -5.149  1.00  0.00     0.049 A 
ATOM     37  N   UNL     1      -7.599   0.449  -4.968  1.00  0.00    -0.248 NA
ATOM     38  C   UNL     1      -5.532  -0.639  -4.920  1.00  0.00     0.031 C 
ATOM     39  C   UNL     1      -5.487   4.378  -5.233  1.00  0.00     0.029 A 
ATOM     40  N   UNL     1      -7.478   3.372  -5.058  1.00  0.00    -0.354 N 
ATOM     41  C   UNL     1      -7.806  -0.921  -4.858  1.00  0.00     0.074 A 
ATOM     42  C   UNL     1      -6.499  -1.545  -4.856  1.00  0.00     0.031 C 
ATOM     43  C   UNL     1      -6.423   5.340  -5.182  1.00  0.00     0.029 A 
ATOM     44  C   UNL     1      -7.743   4.719  -5.113  1.00  0.00     0.049 A 
ATOM     45  H   UNL     1      -8.179   2.687  -4.963  1.00  0.00     0.167 HD
ATOM     46  C   UNL     1      -8.977  -1.596  -4.770  1.00  0.00     0.031 A 
ATOM     47  C   UNL     1      -8.916   5.380  -5.132  1.00  0.00     0.031 A 
ATOM     48  C   UNL     1     -10.275  -0.976  -4.764  1.00  0.00     0.049 A 
ATOM     49  C   UNL     1     -10.204   4.605  -5.090  1.00  0.00     0.074 A 
ATOM     50  C   UNL     1     -11.518  -1.580  -4.667  1.00  0.00     0.029 A 
ATOM     51  N   UNL     1     -10.502   0.389  -4.857  1.00  0.00    -0.354 N 
ATOM     52  N   UNL     1     -10.381   3.309  -5.003  1.00  0.00    -0.248 NA
ATOM     53  C   UNL     1     -11.449   5.383  -5.156  1.00  0.00     0.031 C 
ATOM     54  C   UNL     1     -12.497  -0.582  -4.740  1.00  0.00     0.029 A 
ATOM     55  C   UNL     1     -11.863   0.645  -4.839  1.00  0.00     0.049 A 
ATOM     56  H   UNL     1      -9.798   1.074  -4.926  1.00  0.00     0.167 HD
ATOM     57  C   UNL     1     -11.758   3.117  -4.988  1.00  0.00     0.074 A 
ATOM     58  C   UNL     1     -12.366   4.429  -5.062  1.00  0.00     0.031 C 
ATOM     59  C   UNL     1     -12.454   1.956  -4.918  1.00  0.00     0.031 A 
BRANCH  46  60
ATOM     60  C   UNL     1      -8.907  -3.098  -4.712  1.00  0.00    -0.014 A 
ATOM     61  C   UNL     1      -8.521  -3.765  -3.536  1.00  0.00     0.010 A 
ATOM     62  C   UNL     1      -9.271  -3.852  -5.842  1.00  0.00     0.010 A 
ATOM     63  C   UNL     1      -8.467  -5.162  -3.503  1.00  0.00     0.020 A 
ATOM     64  C   UNL     1      -9.238  -5.249  -5.806  1.00  0.00     0.020 A 
ATOM     65  C   UNL     1      -8.819  -5.895  -4.641  1.00  0.00     0.054 A 
BRANCH  65  66
ATOM     66  S   UNL     1      -8.760  -7.707  -4.570  1.00  0.00     0.124 S 
ATOM     67  O   UNL     1      -7.327  -7.966  -4.686  1.00  0.00    -0.237 OA
ATOM     68  O   UNL     1      -9.346  -7.999  -3.264  1.00  0.00    -0.237 OA
ATOM     69  O   UNL     1      -9.564  -8.124  -5.716  1.00  0.00    -0.744 OA
ENDBRANCH  65  66
ENDBRANCH  46  60
BRANCH  47  70
ATOM     70  C   UNL     1      -8.925   6.864  -5.223  1.00  0.00    -0.014 A 
ATOM     71  C   UNL     1      -9.280   7.644  -4.109  1.00  0.00     0.010 A 
ATOM     72  C   UNL     1      -8.561   7.505  -6.421  1.00  0.00     0.010 A 
ATOM     73  C   UNL     1      -9.276   9.039  -4.193  1.00  0.00     0.020 A 
ATOM     74  C   UNL     1      -8.535   8.899  -6.503  1.00  0.00     0.020 A 
ATOM     75  C   UNL     1      -8.902   9.658  -5.389  1.00  0.00     0.054 A 
BRANCH  75  76
ATOM     76  S   UNL     1      -8.836  11.470  -5.460  1.00  0.00     0.124 S 
ATOM     77  O   UNL     1     -10.243  11.818  -5.622  1.00  0.00    -0.237 OA
ATOM     78  O   UNL     1      -8.241  11.818  -4.171  1.00  0.00    -0.237 OA
ATOM     79  O   UNL     1      -7.985  11.733  -6.619  1.00  0.00    -0.744 OA
ENDBRANCH  75  76
ENDBRANCH  47  70
BRANCH  59  80
ATOM     80  C   UNL     1     -13.955   2.054  -4.893  1.00  0.00    -0.014 A 
ATOM     81  C   UNL     1     -14.683   2.328  -6.063  1.00  0.00     0.010 A 
ATOM     82  C   UNL     1     -14.646   1.825  -3.690  1.00  0.00     0.010 A 
ATOM     83  C   UNL     1     -16.078   2.398  -6.026  1.00  0.00     0.020 A 
ATOM     84  C   UNL     1     -16.042   1.874  -3.652  1.00  0.00     0.020 A 
ATOM     85  C   UNL     1     -16.749   2.175  -4.819  1.00  0.00     0.054 A 
BRANCH  85  86
ATOM     86  S   UNL     1     -18.563   2.230  -4.798  1.00  0.00     0.124 S 
ATOM     87  O   UNL     1     -18.822   3.667  -4.788  1.00  0.00    -0.237 OA
ATOM     88  O   UNL     1     -18.923   1.535  -6.032  1.00  0.00    -0.237 OA
ATOM     89  O   UNL     1     -18.915   1.523  -3.569  1.00  0.00    -0.744 OA
ENDBRANCH  85  86
ENDBRANCH  59  80
ENDBRANCH  33  34
ENDBRANCH  26  28
ENDBRANCH  25  26
ENDBRANCH  24  25
ENDBRANCH   1  24
TORSDOF 19
