REMARK SMILES CCCc1cc2c(cc1Cl)C=C(C(=O)OCCOC(=O)c1ccc(-c3c4nc(c(-c5ccc(S(=O)(=O)[O-])cc5)c5ccc([nH]5)c(-c5ccc(S(=O)(=O)[O-])cc5)c5nc(c(-c6ccc(S(=O)(=O)[O-])cc6)c6ccc3[nH]6)C=C5)C=C4)cc1)[C@@H](C(F)(F)F)O2
REMARK SMILES IDX 17 1 16 2 15 3 13 4 14 5 12 6 4 7 5 8 9 9 6 10 8 11 10 12
REMARK SMILES IDX 7 13 86 14 11 15 81 16 3 17 2 18 1 19 82 20 83 21 84 22
REMARK SMILES IDX 85 23 18 24 19 25 20 26 21 27 22 28 80 29 23 30 79 31 24 32
REMARK SMILES IDX 25 33 26 34 73 35 27 36 78 37 72 38 74 39 28 40 77 41 71 42
REMARK SMILES IDX 70 43 29 45 59 46 40 47 58 48 41 49 44 50 57 51 75 52 42 53
REMARK SMILES IDX 43 54 56 56 76 57 45 58 30 59 31 60 39 61 32 62 38 63 33 64
REMARK SMILES IDX 34 65 35 66 36 67 37 68 60 69 61 70 69 71 62 72 68 73 63 74
REMARK SMILES IDX 64 75 65 76 66 77 67 78 46 79 47 80 55 81 48 82 54 83 49 84
REMARK SMILES IDX 50 85 51 86 52 87 53 88
REMARK H PARENT 74 44 44 55
REMARK Flexibility Score: inf
ROOT
ATOM      1  C   UNL     1      -3.473   3.920  -8.870  1.00  0.00     0.275 C 
ENDROOT
BRANCH   1   2
ATOM      2  C   UNL     1      -2.278   2.962  -8.810  1.00  0.00     0.275 C 
BRANCH   2   3
ATOM      3  O   UNL     1      -1.964   2.568  -7.456  1.00  0.00    -0.459 OA
BRANCH   3   4
ATOM      4  C   UNL     1      -0.873   3.152  -6.907  1.00  0.00     0.338 C 
ATOM      5  O   UNL     1      -0.131   3.953  -7.457  1.00  0.00    -0.246 OA
BRANCH   4   6
ATOM      6  C   UNL     1      -0.728   2.755  -5.489  1.00  0.00     0.087 C 
ATOM      7  C   UNL     1       0.298   2.572  -0.560  1.00  0.00    -0.026 A 
ATOM      8  C   UNL     1      -0.309   1.691  -1.475  1.00  0.00     0.052 A 
ATOM      9  C   UNL     1       0.571   3.883  -0.995  1.00  0.00     0.045 A 
ATOM     10  C   UNL     1      -0.499   2.051  -2.809  1.00  0.00     0.128 A 
ATOM     11  C   UNL     1       0.356   4.254  -2.321  1.00  0.00     0.032 A 
ATOM     12  Cl  UNL     1       1.208   5.088   0.070  1.00  0.00    -0.084 Cl
ATOM     13  C   UNL     1      -0.121   3.316  -3.238  1.00  0.00     0.019 A 
ATOM     14  O   UNL     1      -1.060   1.113  -3.630  1.00  0.00    -0.475 OA
ATOM     15  C   UNL     1      -0.219   3.656  -4.640  1.00  0.00     0.027 C 
ATOM     16  C   UNL     1      -1.042   1.347  -5.069  1.00  0.00     0.316 C 
BRANCH   7  17
ATOM     17  C   UNL     1       0.702   2.148   0.838  1.00  0.00     0.037 C 
BRANCH  17  18
ATOM     18  C   UNL     1       0.453   0.697   1.267  1.00  0.00     0.001 C 
ATOM     19  C   UNL     1       1.374  -0.313   0.592  1.00  0.00     0.004 C 
ENDBRANCH  17  18
ENDBRANCH   7  17
BRANCH  16  20
ATOM     20  C   UNL     1      -0.029   0.387  -5.714  1.00  0.00     0.430 C 
ATOM     21  F   UNL     1      -0.237  -0.894  -5.326  1.00  0.00    -0.167 F 
ATOM     22  F   UNL     1      -0.118   0.400  -7.067  1.00  0.00    -0.167 F 
ATOM     23  F   UNL     1       1.249   0.701  -5.395  1.00  0.00    -0.167 F 
ENDBRANCH  16  20
ENDBRANCH   4   6
ENDBRANCH   3   4
ENDBRANCH   2   3
ENDBRANCH   1   2
BRANCH   1  24
ATOM     24  O   UNL     1      -3.152   5.215  -8.328  1.00  0.00    -0.458 OA
BRANCH  24  25
ATOM     25  C   UNL     1      -3.504   5.391  -7.033  1.00  0.00     0.338 C 
ATOM     26  O   UNL     1      -4.051   4.581  -6.304  1.00  0.00    -0.246 OA
BRANCH  25  27
ATOM     27  C   UNL     1      -2.952   6.659  -6.535  1.00  0.00     0.060 A 
ATOM     28  C   UNL     1      -3.604   7.878  -6.643  1.00  0.00     0.016 A 
ATOM     29  C   UNL     1      -1.777   6.569  -5.802  1.00  0.00     0.016 A 
ATOM     30  C   UNL     1      -3.032   9.004  -6.028  1.00  0.00     0.010 A 
ATOM     31  C   UNL     1      -1.273   7.651  -5.094  1.00  0.00     0.010 A 
ATOM     32  C   UNL     1      -1.869   8.903  -5.229  1.00  0.00    -0.014 A 
BRANCH  32  33
ATOM     33  C   UNL     1      -1.287  10.091  -4.539  1.00  0.00     0.031 A 
ATOM     34  C   UNL     1       0.151  10.506  -4.766  1.00  0.00     0.074 A 
ATOM     35  C   UNL     1      -2.058  10.803  -3.690  1.00  0.00     0.049 A 
ATOM     36  N   UNL     1       0.770  11.580  -4.340  1.00  0.00    -0.248 NA
ATOM     37  C   UNL     1       1.022   9.597  -5.533  1.00  0.00     0.031 C 
ATOM     38  C   UNL     1      -3.422  10.443  -3.294  1.00  0.00     0.029 A 
ATOM     39  N   UNL     1      -1.831  11.992  -3.039  1.00  0.00    -0.354 N 
ATOM     40  C   UNL     1       2.084  11.469  -4.787  1.00  0.00     0.074 A 
ATOM     41  C   UNL     1       2.204  10.185  -5.432  1.00  0.00     0.031 C 
ATOM     42  C   UNL     1      -3.946  11.438  -2.565  1.00  0.00     0.029 A 
ATOM     43  C   UNL     1      -2.944  12.486  -2.394  1.00  0.00     0.049 A 
ATOM     44  H   UNL     1      -0.958  12.446  -3.034  1.00  0.00     0.167 HD
ATOM     45  C   UNL     1       3.085  12.378  -4.721  1.00  0.00     0.031 A 
ATOM     46  C   UNL     1      -3.154  13.662  -1.767  1.00  0.00     0.031 A 
ATOM     47  C   UNL     1       2.941  13.676  -4.117  1.00  0.00     0.049 A 
ATOM     48  C   UNL     1      -2.047  14.680  -1.745  1.00  0.00     0.074 A 
ATOM     49  C   UNL     1       3.868  14.701  -4.061  1.00  0.00     0.029 A 
ATOM     50  N   UNL     1       1.796  14.133  -3.482  1.00  0.00    -0.354 N 
ATOM     51  N   UNL     1      -0.846  14.597  -2.267  1.00  0.00    -0.248 NA
ATOM     52  C   UNL     1      -2.323  15.957  -1.073  1.00  0.00     0.031 C 
ATOM     53  C   UNL     1       3.309  15.751  -3.332  1.00  0.00     0.029 A 
ATOM     54  C   UNL     1       2.002  15.417  -3.012  1.00  0.00     0.049 A 
ATOM     55  H   UNL     1       0.962  13.620  -3.381  1.00  0.00     0.167 HD
ATOM     56  C   UNL     1      -0.232  15.817  -2.007  1.00  0.00     0.074 A 
ATOM     57  C   UNL     1      -1.201  16.629  -1.301  1.00  0.00     0.031 C 
ATOM     58  C   UNL     1       1.022  16.223  -2.324  1.00  0.00     0.031 A 
BRANCH  45  59
ATOM     59  C   UNL     1       4.410  12.047  -5.369  1.00  0.00    -0.014 A 
ATOM     60  C   UNL     1       5.584  11.991  -4.595  1.00  0.00     0.010 A 
ATOM     61  C   UNL     1       4.514  11.925  -6.768  1.00  0.00     0.010 A 
ATOM     62  C   UNL     1       6.835  11.861  -5.206  1.00  0.00     0.020 A 
ATOM     63  C   UNL     1       5.760  11.757  -7.381  1.00  0.00     0.020 A 
ATOM     64  C   UNL     1       6.915  11.756  -6.597  1.00  0.00     0.054 A 
BRANCH  64  65
ATOM     65  S   UNL     1       8.549  11.640  -7.377  1.00  0.00     0.124 S 
ATOM     66  O   UNL     1       9.065  12.996  -7.216  1.00  0.00    -0.237 OA
ATOM     67  O   UNL     1       9.212  10.613  -6.577  1.00  0.00    -0.237 OA
ATOM     68  O   UNL     1       8.246  11.246  -8.752  1.00  0.00    -0.744 OA
ENDBRANCH  64  65
ENDBRANCH  45  59
BRANCH  46  69
ATOM     69  C   UNL     1      -4.506  13.956  -1.207  1.00  0.00    -0.014 A 
ATOM     70  C   UNL     1      -5.017  13.199  -0.136  1.00  0.00     0.010 A 
ATOM     71  C   UNL     1      -5.333  14.922  -1.809  1.00  0.00     0.010 A 
ATOM     72  C   UNL     1      -6.344  13.353   0.276  1.00  0.00     0.020 A 
ATOM     73  C   UNL     1      -6.650  15.107  -1.374  1.00  0.00     0.020 A 
ATOM     74  C   UNL     1      -7.157  14.296  -0.357  1.00  0.00     0.054 A 
BRANCH  74  75
ATOM     75  S   UNL     1      -8.895  14.425   0.150  1.00  0.00     0.124 S 
ATOM     76  O   UNL     1      -9.465  13.209  -0.424  1.00  0.00    -0.237 OA
ATOM     77  O   UNL     1      -8.800  14.450   1.607  1.00  0.00    -0.237 OA
ATOM     78  O   UNL     1      -9.339  15.674  -0.465  1.00  0.00    -0.744 OA
ENDBRANCH  74  75
ENDBRANCH  46  69
BRANCH  58  79
ATOM     79  C   UNL     1       1.449  17.615  -1.934  1.00  0.00    -0.014 A 
ATOM     80  C   UNL     1       1.769  18.548  -2.940  1.00  0.00     0.010 A 
ATOM     81  C   UNL     1       1.700  17.943  -0.591  1.00  0.00     0.010 A 
ATOM     82  C   UNL     1       2.381  19.760  -2.615  1.00  0.00     0.020 A 
ATOM     83  C   UNL     1       2.279  19.172  -0.259  1.00  0.00     0.020 A 
ATOM     84  C   UNL     1       2.644  20.058  -1.276  1.00  0.00     0.054 A 
BRANCH  84  85
ATOM     85  S   UNL     1       3.496  21.608  -0.880  1.00  0.00     0.124 S 
ATOM     86  O   UNL     1       4.864  21.326  -1.307  1.00  0.00    -0.237 OA
ATOM     87  O   UNL     1       2.773  22.586  -1.689  1.00  0.00    -0.237 OA
ATOM     88  O   UNL     1       3.309  21.744   0.563  1.00  0.00    -0.744 OA
ENDBRANCH  84  85
ENDBRANCH  58  79
ENDBRANCH  32  33
ENDBRANCH  25  27
ENDBRANCH  24  25
ENDBRANCH   1  24
TORSDOF 17
