REMARK SMILES CC(C)(C)OC(=O)N1C[C@@H](Oc2cccnc2)C[C@H]1C(=O)OCCOC(=O)c1ccc(-c2c3nc(c(-c4ccc(S(=O)(=O)[O-])cc4)c4ccc([nH]4)c(-c4ccc(S(=O)(=O)[O-])cc4)c4nc(c(-c5ccc(S(=O)(=O)[O-])cc5)c5ccc2[nH]5)C=C4)C=C3)cc1
REMARK SMILES IDX 23 1 22 2 20 3 21 4 19 5 8 6 9 7 10 8 18 9 6 10 7 11 5 12
REMARK SMILES IDX 2 13 1 14 3 15 4 16 11 17 12 18 13 19 17 20 14 21 16 22
REMARK SMILES IDX 15 23 24 24 25 25 26 26 27 27 28 28 29 29 87 30 30 31 86 32
REMARK SMILES IDX 31 33 32 34 33 35 80 36 34 37 85 38 79 39 81 40 35 41 84 42
REMARK SMILES IDX 78 43 77 44 36 46 66 47 47 48 65 49 48 50 51 51 64 52 82 53
REMARK SMILES IDX 49 54 50 55 63 57 83 58 52 59 37 60 38 61 46 62 39 63 45 64
REMARK SMILES IDX 40 65 41 66 42 67 43 68 44 69 67 70 68 71 76 72 69 73 75 74
REMARK SMILES IDX 70 75 71 76 72 77 73 78 74 79 53 80 54 81 62 82 55 83 61 84
REMARK SMILES IDX 56 85 57 86 58 87 59 88 60 89
REMARK H PARENT 81 45 51 56
REMARK Flexibility Score: inf
ROOT
ATOM      1  C   UNL     1      -1.306   7.125   3.285  1.00  0.00     0.274 C 
ENDROOT
BRANCH   1   2
ATOM      2  O   UNL     1      -1.159   5.738   3.655  1.00  0.00    -0.461 OA
BRANCH   2   3
ATOM      3  C   UNL     1       0.127   5.293   3.744  1.00  0.00     0.329 C 
ATOM      4  O   UNL     1       1.099   6.024   3.615  1.00  0.00    -0.250 OA
BRANCH   3   5
ATOM      5  C   UNL     1       0.197   3.770   3.956  1.00  0.00     0.202 C 
ATOM      6  N   UNL     1       0.990   3.139   2.912  1.00  0.00    -0.291 N 
ATOM      7  C   UNL     1       2.301   2.697   3.362  1.00  0.00     0.169 C 
ATOM      8  C   UNL     1       2.198   2.652   4.881  1.00  0.00     0.195 C 
ATOM      9  C   UNL     1       0.850   3.292   5.255  1.00  0.00     0.084 C 
BRANCH   6  10
ATOM     10  C   UNL     1       0.434   2.916   1.684  1.00  0.00     0.411 C 
ATOM     11  O   UNL     1      -0.548   3.515   1.281  1.00  0.00    -0.224 OA
BRANCH  10  12
ATOM     12  O   UNL     1       1.046   1.888   1.052  1.00  0.00    -0.444 OA
BRANCH  12  13
ATOM     13  C   UNL     1       0.494   1.339  -0.168  1.00  0.00     0.106 C 
ATOM     14  C   UNL     1       1.167  -0.033  -0.309  1.00  0.00     0.056 C 
ATOM     15  C   UNL     1       0.894   2.240  -1.335  1.00  0.00     0.056 C 
ATOM     16  C   UNL     1      -1.025   1.113  -0.110  1.00  0.00     0.056 C 
ENDBRANCH  12  13
ENDBRANCH  10  12
ENDBRANCH   6  10
BRANCH   8  17
ATOM     17  O   UNL     1       3.318   3.010   5.687  1.00  0.00    -0.487 OA
BRANCH  17  18
ATOM     18  C   UNL     1       4.100   4.106   5.537  1.00  0.00     0.138 A 
ATOM     19  C   UNL     1       3.860   5.215   4.748  1.00  0.00     0.050 A 
ATOM     20  C   UNL     1       5.268   4.143   6.293  1.00  0.00     0.157 A 
ATOM     21  C   UNL     1       4.734   6.306   4.749  1.00  0.00     0.024 A 
ATOM     22  N   UNL     1       6.161   5.164   6.292  1.00  0.00    -0.261 NA
ATOM     23  C   UNL     1       5.871   6.232   5.526  1.00  0.00     0.111 A 
ENDBRANCH  17  18
ENDBRANCH   8  17
ENDBRANCH   3   5
ENDBRANCH   2   3
ENDBRANCH   1   2
BRANCH   1  24
ATOM     24  C   UNL     1      -1.758   7.980   4.467  1.00  0.00     0.275 C 
BRANCH  24  25
ATOM     25  O   UNL     1      -0.783   7.976   5.526  1.00  0.00    -0.458 OA
BRANCH  25  26
ATOM     26  C   UNL     1      -1.032   7.083   6.510  1.00  0.00     0.338 C 
ATOM     27  O   UNL     1      -1.970   6.306   6.585  1.00  0.00    -0.246 OA
BRANCH  26  28
ATOM     28  C   UNL     1       0.064   7.074   7.487  1.00  0.00     0.060 A 
ATOM     29  C   UNL     1       1.175   6.294   7.197  1.00  0.00     0.016 A 
ATOM     30  C   UNL     1      -0.087   7.635   8.752  1.00  0.00     0.016 A 
ATOM     31  C   UNL     1       2.056   5.934   8.208  1.00  0.00     0.010 A 
ATOM     32  C   UNL     1       0.884   7.389   9.732  1.00  0.00     0.010 A 
ATOM     33  C   UNL     1       1.944   6.498   9.485  1.00  0.00    -0.014 A 
BRANCH  33  34
ATOM     34  C   UNL     1       2.943   6.145  10.533  1.00  0.00     0.031 A 
ATOM     35  C   UNL     1       2.515   5.507  11.826  1.00  0.00     0.074 A 
ATOM     36  C   UNL     1       4.255   6.361  10.304  1.00  0.00     0.049 A 
ATOM     37  N   UNL     1       3.231   5.242  12.889  1.00  0.00    -0.248 NA
ATOM     38  C   UNL     1       1.098   5.129  11.948  1.00  0.00     0.031 C 
ATOM     39  C   UNL     1       4.812   6.920   9.072  1.00  0.00     0.029 A 
ATOM     40  N   UNL     1       5.362   6.102  11.075  1.00  0.00    -0.354 N 
ATOM     41  C   UNL     1       2.342   4.740  13.832  1.00  0.00     0.074 A 
ATOM     42  C   UNL     1       1.036   4.717  13.207  1.00  0.00     0.031 C 
ATOM     43  C   UNL     1       6.149   6.880   9.134  1.00  0.00     0.029 A 
ATOM     44  C   UNL     1       6.551   6.396  10.445  1.00  0.00     0.049 A 
ATOM     45  H   UNL     1       5.311   5.742  11.989  1.00  0.00     0.167 HD
ATOM     46  C   UNL     1       2.592   4.363  15.110  1.00  0.00     0.031 A 
ATOM     47  C   UNL     1       7.825   6.320  10.874  1.00  0.00     0.031 A 
ATOM     48  C   UNL     1       3.900   4.375  15.714  1.00  0.00     0.049 A 
ATOM     49  C   UNL     1       8.078   5.903  12.292  1.00  0.00     0.074 A 
ATOM     50  C   UNL     1       4.255   4.040  17.010  1.00  0.00     0.029 A 
ATOM     51  N   UNL     1       5.072   4.732  15.060  1.00  0.00    -0.354 N 
ATOM     52  N   UNL     1       7.214   5.510  13.198  1.00  0.00    -0.248 NA
ATOM     53  C   UNL     1       9.468   5.958  12.761  1.00  0.00     0.031 C 
ATOM     54  C   UNL     1       5.633   4.245  17.153  1.00  0.00     0.029 A 
ATOM     55  C   UNL     1       6.147   4.650  15.931  1.00  0.00     0.049 A 
ATOM     56  H   UNL     1       5.130   5.003  14.116  1.00  0.00     0.167 HD
ATOM     57  C   UNL     1       7.952   5.296  14.354  1.00  0.00     0.074 A 
ATOM     58  C   UNL     1       9.339   5.554  14.018  1.00  0.00     0.031 C 
ATOM     59  C   UNL     1       7.517   4.939  15.587  1.00  0.00     0.031 A 
BRANCH  46  60
ATOM     60  C   UNL     1       1.404   4.002  15.965  1.00  0.00    -0.014 A 
ATOM     61  C   UNL     1       0.685   2.809  15.780  1.00  0.00     0.010 A 
ATOM     62  C   UNL     1       0.994   4.897  16.972  1.00  0.00     0.010 A 
ATOM     63  C   UNL     1      -0.456   2.545  16.547  1.00  0.00     0.020 A 
ATOM     64  C   UNL     1      -0.128   4.625  17.759  1.00  0.00     0.020 A 
ATOM     65  C   UNL     1      -0.862   3.462  17.523  1.00  0.00     0.054 A 
BRANCH  65  66
ATOM     66  S   UNL     1      -2.360   3.113  18.485  1.00  0.00     0.124 S 
ATOM     67  O   UNL     1      -3.413   3.389  17.512  1.00  0.00    -0.237 OA
ATOM     68  O   UNL     1      -2.191   1.707  18.846  1.00  0.00    -0.237 OA
ATOM     69  O   UNL     1      -2.282   4.052  19.602  1.00  0.00    -0.744 OA
ENDBRANCH  65  66
ENDBRANCH  46  60
BRANCH  47  70
ATOM     70  C   UNL     1       8.941   6.708   9.963  1.00  0.00    -0.014 A 
ATOM     71  C   UNL     1       9.846   5.744   9.486  1.00  0.00     0.010 A 
ATOM     72  C   UNL     1       9.072   8.040   9.524  1.00  0.00     0.010 A 
ATOM     73  C   UNL     1      10.853   6.102   8.582  1.00  0.00     0.020 A 
ATOM     74  C   UNL     1      10.054   8.394   8.595  1.00  0.00     0.020 A 
ATOM     75  C   UNL     1      10.945   7.423   8.135  1.00  0.00     0.054 A 
BRANCH  75  76
ATOM     76  S   UNL     1      12.197   7.854   6.894  1.00  0.00     0.124 S 
ATOM     77  O   UNL     1      13.408   7.950   7.703  1.00  0.00    -0.237 OA
ATOM     78  O   UNL     1      12.142   6.723   5.971  1.00  0.00    -0.237 OA
ATOM     79  O   UNL     1      11.710   9.117   6.343  1.00  0.00    -0.744 OA
ENDBRANCH  75  76
ENDBRANCH  47  70
BRANCH  59  80
ATOM     80  C   UNL     1       8.556   4.828  16.669  1.00  0.00    -0.014 A 
ATOM     81  C   UNL     1       9.147   5.979  17.221  1.00  0.00     0.010 A 
ATOM     82  C   UNL     1       8.919   3.564  17.164  1.00  0.00     0.010 A 
ATOM     83  C   UNL     1      10.105   5.866  18.231  1.00  0.00     0.020 A 
ATOM     84  C   UNL     1       9.859   3.448  18.192  1.00  0.00     0.020 A 
ATOM     85  C   UNL     1      10.456   4.600  18.709  1.00  0.00     0.054 A 
BRANCH  85  86
ATOM     86  S   UNL     1      11.674   4.481  20.048  1.00  0.00     0.124 S 
ATOM     87  O   UNL     1      12.923   4.775  19.350  1.00  0.00    -0.237 OA
ATOM     88  O   UNL     1      11.222   5.505  20.986  1.00  0.00    -0.237 OA
ATOM     89  O   UNL     1      11.533   3.106  20.522  1.00  0.00    -0.744 OA
ENDBRANCH  85  86
ENDBRANCH  59  80
ENDBRANCH  33  34
ENDBRANCH  26  28
ENDBRANCH  25  26
ENDBRANCH  24  25
ENDBRANCH   1  24
TORSDOF 19
