REMARK SMILES CC1(C)CC[C@@]2(C(=O)OCCOC(=O)c3ccc(-c4c5nc(c(-c6ccc(S(=O)(=O)[O-])cc6)c6ccc([nH]6)c(-c6ccc(S(=O)(=O)[O-])cc6)c6nc(c(-c7ccc(S(=O)(=O)[O-])cc7)c7ccc4[nH]7)C=C6)C=C5)cc3)CC[C@@]3(C)C(=CC[C@H]4[C@@]5(C)CC[C@H](O)C(C)(C)[C@@H]5CC[C@]43C)[C@@H]2C1
REMARK SMILES IDX 11 1 10 2 9 3 7 4 8 5 6 6 1 7 2 8 3 9 4 10 98 11 5 12 97 13
REMARK SMILES IDX 79 14 75 15 77 16 80 17 76 18 78 19 95 20 81 21 82 22 94 23
REMARK SMILES IDX 96 24 83 25 93 26 84 27 85 28 92 29 86 30 89 31 87 32 90 33
REMARK SMILES IDX 91 34 88 35 12 37 13 38 14 39 15 40 16 41 74 42 17 43 73 44
REMARK SMILES IDX 18 45 19 46 20 47 67 48 21 49 72 50 66 51 68 52 22 53 71 54
REMARK SMILES IDX 65 55 64 56 23 58 53 59 34 60 52 61 35 62 38 63 51 64 69 65
REMARK SMILES IDX 36 66 37 67 50 69 70 70 39 71 24 72 25 73 33 74 26 75 32 76
REMARK SMILES IDX 27 77 28 78 29 79 30 80 31 81 54 82 55 83 63 84 56 85 62 86
REMARK SMILES IDX 57 87 58 88 59 89 60 90 61 91 40 92 41 93 49 94 42 95 48 96
REMARK SMILES IDX 43 97 44 98 45 99 46 100 47 101
REMARK H PARENT 88 36 68 57 38 68
REMARK Flexibility Score: inf
ROOT
ATOM      1  C   UNL     1      -3.364  -2.975   1.482  1.00  0.00     0.275 C 
ENDROOT
BRANCH   1   2
ATOM      2  C   UNL     1      -2.353  -2.126   0.770  1.00  0.00     0.274 C 
BRANCH   2   3
ATOM      3  O   UNL     1      -1.054  -2.556   0.974  1.00  0.00    -0.462 OA
BRANCH   3   4
ATOM      4  C   UNL     1      -0.672  -1.940   2.101  1.00  0.00     0.312 C 
ATOM      5  O   UNL     1      -0.567  -2.553   3.159  1.00  0.00    -0.252 OA
BRANCH   4   6
ATOM      6  C   UNL     1      -0.206  -0.493   1.890  1.00  0.00     0.075 C 
ATOM      7  C   UNL     1       3.010   0.041  -0.369  1.00  0.00     0.011 C 
ATOM      8  C   UNL     1       1.838  -0.955  -0.376  1.00  0.00    -0.035 C 
ATOM      9  C   UNL     1       2.030  -1.912  -1.577  1.00  0.00     0.011 C 
ATOM     10  C   UNL     1       1.870  -1.693   0.969  1.00  0.00     0.007 C 
ATOM     11  C   UNL     1       0.487  -0.264  -0.623  1.00  0.00     0.015 C 
ATOM     12  C   UNL     1       1.311  -0.809   2.143  1.00  0.00     0.020 C 
ATOM     13  C   UNL     1      -0.264   0.354   0.571  1.00  0.00     0.033 C 
ATOM     14  C   UNL     1      -1.613   0.950   0.079  1.00  0.00    -0.063 C 
ATOM     15  C   UNL     1      -1.034   0.347   2.902  1.00  0.00     0.020 C 
ATOM     16  C   UNL     1      -2.834   1.174   0.977  1.00  0.00    -0.006 C 
ATOM     17  C   UNL     1      -1.690   1.420  -1.187  1.00  0.00    -0.027 C 
ATOM     18  C   UNL     1      -2.556   0.605   2.460  1.00  0.00     0.013 C 
ATOM     19  C   UNL     1      -2.863   2.725   1.312  1.00  0.00     0.017 C 
ATOM     20  C   UNL     1      -4.245   0.643  -0.038  1.00  0.00    -0.020 C 
ATOM     21  C   UNL     1      -2.630   0.755  -2.167  1.00  0.00     0.032 C 
ATOM     22  C   UNL     1      -3.870   0.070  -1.561  1.00  0.00     0.006 C 
ATOM     23  C   UNL     1      -5.404  -0.270   0.529  1.00  0.00     0.008 C 
ATOM     24  C   UNL     1      -5.011   2.008  -0.321  1.00  0.00     0.012 C 
ATOM     25  C   UNL     1      -4.168  -1.482  -2.155  1.00  0.00    -0.025 C 
ATOM     26  C   UNL     1      -6.039  -1.417  -0.399  1.00  0.00     0.005 C 
ATOM     27  C   UNL     1      -4.964  -1.298  -3.474  1.00  0.00     0.012 C 
ATOM     28  C   UNL     1      -2.893  -2.303  -2.620  1.00  0.00     0.010 C 
ATOM     29  C   UNL     1      -5.029  -2.312  -1.162  1.00  0.00     0.003 C 
ATOM     30  C   UNL     1      -3.058  -3.830  -2.774  1.00  0.00     0.033 C 
ATOM     31  C   UNL     1      -5.273  -3.892  -1.438  1.00  0.00    -0.006 C 
ATOM     32  C   UNL     1      -3.851  -4.522  -1.668  1.00  0.00     0.120 C 
ATOM     33  C   UNL     1      -6.191  -4.279  -2.612  1.00  0.00     0.014 C 
ATOM     34  C   UNL     1      -5.907  -4.631  -0.218  1.00  0.00     0.014 C 
BRANCH  32  35
ATOM     35  O   UNL     1      -3.901  -5.931  -1.893  1.00  0.00    -0.393 OA
ATOM     36  H   UNL     1      -4.372  -6.111  -2.721  1.00  0.00     0.210 HD
ENDBRANCH  32  35
ENDBRANCH   4   6
ENDBRANCH   3   4
ENDBRANCH   2   3
ENDBRANCH   1   2
BRANCH   1  37
ATOM     37  O   UNL     1      -3.222  -2.963   2.870  1.00  0.00    -0.458 OA
BRANCH  37  38
ATOM     38  C   UNL     1      -4.461  -3.125   3.401  1.00  0.00     0.338 C 
ATOM     39  O   UNL     1      -5.388  -3.760   2.973  1.00  0.00    -0.246 OA
BRANCH  38  40
ATOM     40  C   UNL     1      -4.568  -1.988   4.299  1.00  0.00     0.060 A 
ATOM     41  C   UNL     1      -3.506  -1.732   5.165  1.00  0.00     0.016 A 
ATOM     42  C   UNL     1      -5.716  -1.186   4.215  1.00  0.00     0.016 A 
ATOM     43  C   UNL     1      -3.669  -0.751   6.099  1.00  0.00     0.010 A 
ATOM     44  C   UNL     1      -5.885  -0.197   5.159  1.00  0.00     0.010 A 
ATOM     45  C   UNL     1      -4.912  -0.104   6.160  1.00  0.00    -0.014 A 
BRANCH  45  46
ATOM     46  C   UNL     1      -5.334   0.205   7.522  1.00  0.00     0.031 A 
ATOM     47  C   UNL     1      -6.004  -0.913   8.276  1.00  0.00     0.074 A 
ATOM     48  C   UNL     1      -4.889   1.341   8.066  1.00  0.00     0.049 A 
ATOM     49  N   UNL     1      -6.300  -0.990   9.541  1.00  0.00    -0.248 NA
ATOM     50  C   UNL     1      -6.353  -2.133   7.516  1.00  0.00     0.031 C 
ATOM     51  C   UNL     1      -4.114   2.367   7.363  1.00  0.00     0.029 A 
ATOM     52  N   UNL     1      -4.978   1.787   9.344  1.00  0.00    -0.354 N 
ATOM     53  C   UNL     1      -6.851  -2.256   9.717  1.00  0.00     0.074 A 
ATOM     54  C   UNL     1      -6.883  -2.912   8.440  1.00  0.00     0.031 C 
ATOM     55  C   UNL     1      -3.787   3.331   8.238  1.00  0.00     0.029 A 
ATOM     56  C   UNL     1      -4.362   2.994   9.535  1.00  0.00     0.049 A 
ATOM     57  H   UNL     1      -5.439   1.293  10.060  1.00  0.00     0.167 HD
ATOM     58  C   UNL     1      -7.294  -2.817  10.861  1.00  0.00     0.031 A 
ATOM     59  C   UNL     1      -4.305   3.732  10.654  1.00  0.00     0.031 A 
ATOM     60  C   UNL     1      -7.286  -2.095  12.097  1.00  0.00     0.049 A 
ATOM     61  C   UNL     1      -4.933   3.143  11.887  1.00  0.00     0.074 A 
ATOM     62  C   UNL     1      -7.774  -2.477  13.328  1.00  0.00     0.029 A 
ATOM     63  N   UNL     1      -6.765  -0.814  12.237  1.00  0.00    -0.354 N 
ATOM     64  N   UNL     1      -5.492   1.962  12.043  1.00  0.00    -0.248 NA
ATOM     65  C   UNL     1      -4.918   3.973  13.091  1.00  0.00     0.031 C 
ATOM     66  C   UNL     1      -7.611  -1.394  14.197  1.00  0.00     0.029 A 
ATOM     67  C   UNL     1      -6.947  -0.371  13.528  1.00  0.00     0.049 A 
ATOM     68  H   UNL     1      -6.330  -0.299  11.519  1.00  0.00     0.167 HD
ATOM     69  C   UNL     1      -5.879   1.895  13.374  1.00  0.00     0.074 A 
ATOM     70  C   UNL     1      -5.466   3.152  13.977  1.00  0.00     0.031 C 
ATOM     71  C   UNL     1      -6.514   0.903  14.049  1.00  0.00     0.031 A 
BRANCH  58  72
ATOM     72  C   UNL     1      -7.890  -4.196  10.775  1.00  0.00    -0.014 A 
ATOM     73  C   UNL     1      -7.101  -5.332  10.505  1.00  0.00     0.010 A 
ATOM     74  C   UNL     1      -9.278  -4.354  10.931  1.00  0.00     0.010 A 
ATOM     75  C   UNL     1      -7.694  -6.592  10.371  1.00  0.00     0.020 A 
ATOM     76  C   UNL     1      -9.871  -5.616  10.826  1.00  0.00     0.020 A 
ATOM     77  C   UNL     1      -9.076  -6.726  10.537  1.00  0.00     0.054 A 
BRANCH  77  78
ATOM     78  S   UNL     1      -9.816  -8.377  10.403  1.00  0.00     0.124 S 
ATOM     79  O   UNL     1      -9.681  -8.658   8.976  1.00  0.00    -0.237 OA
ATOM     80  O   UNL     1      -8.970  -9.177  11.284  1.00  0.00    -0.237 OA
ATOM     81  O   UNL     1     -11.187  -8.183  10.870  1.00  0.00    -0.744 OA
ENDBRANCH  77  78
ENDBRANCH  58  72
BRANCH  59  82
ATOM     82  C   UNL     1      -3.682   5.079  10.620  1.00  0.00    -0.014 A 
ATOM     83  C   UNL     1      -2.521   5.367  11.354  1.00  0.00     0.010 A 
ATOM     84  C   UNL     1      -4.247   6.086   9.812  1.00  0.00     0.010 A 
ATOM     85  C   UNL     1      -1.950   6.643  11.300  1.00  0.00     0.020 A 
ATOM     86  C   UNL     1      -3.663   7.351   9.730  1.00  0.00     0.020 A 
ATOM     87  C   UNL     1      -2.525   7.626  10.487  1.00  0.00     0.054 A 
BRANCH  87  88
ATOM     88  S   UNL     1      -1.751   9.264  10.412  1.00  0.00     0.124 S 
ATOM     89  O   UNL     1      -2.036   9.795  11.741  1.00  0.00    -0.237 OA
ATOM     90  O   UNL     1      -0.353   8.938  10.145  1.00  0.00    -0.237 OA
ATOM     91  O   UNL     1      -2.451   9.924   9.311  1.00  0.00    -0.744 OA
ENDBRANCH  87  88
ENDBRANCH  59  82
BRANCH  71  92
ATOM     92  C   UNL     1      -6.761   1.140  15.508  1.00  0.00    -0.014 A 
ATOM     93  C   UNL     1      -7.722   2.069  15.940  1.00  0.00     0.010 A 
ATOM     94  C   UNL     1      -6.062   0.367  16.452  1.00  0.00     0.010 A 
ATOM     95  C   UNL     1      -7.948   2.252  17.302  1.00  0.00     0.020 A 
ATOM     96  C   UNL     1      -6.316   0.519  17.812  1.00  0.00     0.020 A 
ATOM     97  C   UNL     1      -7.245   1.474  18.228  1.00  0.00     0.054 A 
BRANCH  97  98
ATOM     98  S   UNL     1      -7.587   1.707  19.990  1.00  0.00     0.124 S 
ATOM     99  O   UNL     1      -6.969   3.004  20.248  1.00  0.00    -0.237 OA
ATOM    100  O   UNL     1      -9.047   1.684  20.036  1.00  0.00    -0.237 OA
ATOM    101  O   UNL     1      -6.931   0.566  20.625  1.00  0.00    -0.744 OA
ENDBRANCH  97  98
ENDBRANCH  71  92
ENDBRANCH  45  46
ENDBRANCH  38  40
ENDBRANCH  37  38
ENDBRANCH   1  37
TORSDOF 15
