REMARK SMILES Cc1cc(NC(=O)NCc2sccc2C)ccc1C(=O)OCCOC(=O)c1ccc(-c2c3nc(c(-c4ccc(S(=O)(=O)[O-])cc4)c4ccc([nH]4)c(-c4ccc(S(=O)(=O)[O-])cc4)c4nc(c(-c5ccc(S(=O)(=O)[O-])cc5)c5ccc2[nH]5)C=C4)C=C3)cc1
REMARK SMILES IDX 22 1 21 2 19 3 20 4 18 5 1 6 2 7 3 8 4 9 17 10 16 11 5 12
REMARK SMILES IDX 6 13 7 15 8 16 9 18 10 19 11 20 14 21 12 22 13 23 15 24
REMARK SMILES IDX 23 25 24 26 25 27 26 28 27 29 28 30 86 31 29 32 85 33 30 34
REMARK SMILES IDX 31 35 32 36 79 37 33 38 84 39 78 40 80 41 34 42 83 43 77 44
REMARK SMILES IDX 76 45 35 47 65 48 46 49 64 50 47 51 50 52 63 53 81 54 48 55
REMARK SMILES IDX 49 56 62 58 82 59 51 60 36 61 37 62 45 63 38 64 44 65 39 66
REMARK SMILES IDX 40 67 41 68 42 69 43 70 66 71 67 72 75 73 68 74 74 75 69 76
REMARK SMILES IDX 70 77 71 78 72 79 73 80 52 81 53 82 61 83 54 84 60 85 55 86
REMARK SMILES IDX 56 87 57 88 58 89 59 90
REMARK H PARENT 5 14 8 17 80 46 50 57
REMARK Flexibility Score: inf
ROOT
ATOM      1  C   UNL     1       3.462   2.559  -2.068  1.00  0.00     0.275 C 
ENDROOT
BRANCH   1   2
ATOM      2  O   UNL     1       2.344   1.667  -2.146  1.00  0.00    -0.458 OA
BRANCH   2   3
ATOM      3  C   UNL     1       2.034   1.016  -1.007  1.00  0.00     0.338 C 
ATOM      4  O   UNL     1       2.614   1.082   0.072  1.00  0.00    -0.246 OA
BRANCH   3   5
ATOM      5  C   UNL     1       0.968   0.049  -1.301  1.00  0.00     0.063 A 
ATOM      6  C   UNL     1       2.720  -1.495  -2.304  1.00  0.00     0.045 C 
ATOM      7  C   UNL     1       1.306  -1.167  -1.916  1.00  0.00    -0.035 A 
ATOM      8  C   UNL     1       0.337  -2.179  -1.960  1.00  0.00     0.030 A 
ATOM      9  C   UNL     1      -0.895  -2.005  -1.321  1.00  0.00     0.043 A 
ATOM     10  C   UNL     1      -0.329   0.274  -0.819  1.00  0.00     0.018 A 
ATOM     11  C   UNL     1      -1.279  -0.748  -0.860  1.00  0.00     0.027 A 
BRANCH   9  12
ATOM     12  N   UNL     1      -1.673  -3.109  -0.949  1.00  0.00    -0.308 N 
ATOM     13  C   UNL     1      -1.317  -4.249  -0.291  1.00  0.00     0.319 C 
ATOM     14  H   UNL     1      -2.623  -3.053  -1.201  1.00  0.00     0.171 HD
ATOM     15  O   UNL     1      -2.117  -5.189  -0.256  1.00  0.00    -0.248 OA
ATOM     16  N   UNL     1      -0.167  -4.361   0.425  1.00  0.00    -0.333 N 
ATOM     17  H   UNL     1      -0.029  -5.231   0.864  1.00  0.00     0.165 HD
BRANCH  16  18
ATOM     18  C   UNL     1       0.884  -3.391   0.638  1.00  0.00     0.165 C 
BRANCH  18  19
ATOM     19  C   UNL     1       1.742  -3.576   1.848  1.00  0.00     0.027 A 
ATOM     20  S   UNL     1       2.012  -2.167   2.810  1.00  0.00    -0.147 S 
ATOM     21  C   UNL     1       2.525  -4.642   2.267  1.00  0.00    -0.035 A 
ATOM     22  C   UNL     1       3.228  -2.932   3.714  1.00  0.00     0.065 A 
ATOM     23  C   UNL     1       3.389  -4.246   3.346  1.00  0.00     0.015 A 
ATOM     24  C   UNL     1       2.551  -6.010   1.675  1.00  0.00     0.045 C 
ENDBRANCH  18  19
ENDBRANCH  16  18
ENDBRANCH   9  12
ENDBRANCH   3   5
ENDBRANCH   2   3
ENDBRANCH   1   2
BRANCH   1  25
ATOM     25  C   UNL     1       3.335   3.637  -3.156  1.00  0.00     0.275 C 
BRANCH  25  26
ATOM     26  O   UNL     1       2.337   4.668  -2.970  1.00  0.00    -0.458 OA
BRANCH  26  27
ATOM     27  C   UNL     1       1.161   4.293  -2.399  1.00  0.00     0.338 C 
ATOM     28  O   UNL     1       0.314   3.620  -2.972  1.00  0.00    -0.246 OA
BRANCH  27  29
ATOM     29  C   UNL     1       1.261   4.545  -0.934  1.00  0.00     0.060 A 
ATOM     30  C   UNL     1       0.465   3.798  -0.061  1.00  0.00     0.016 A 
ATOM     31  C   UNL     1       2.365   5.254  -0.444  1.00  0.00     0.016 A 
ATOM     32  C   UNL     1       0.883   3.596   1.257  1.00  0.00     0.010 A 
ATOM     33  C   UNL     1       2.805   5.021   0.843  1.00  0.00     0.010 A 
ATOM     34  C   UNL     1       2.090   4.162   1.686  1.00  0.00    -0.014 A 
BRANCH  34  35
ATOM     35  C   UNL     1       2.517   4.167   3.083  1.00  0.00     0.031 A 
ATOM     36  C   UNL     1       3.166   3.025   3.766  1.00  0.00     0.074 A 
ATOM     37  C   UNL     1       2.226   5.312   3.735  1.00  0.00     0.049 A 
ATOM     38  N   UNL     1       3.019   2.771   5.026  1.00  0.00    -0.248 NA
ATOM     39  C   UNL     1       4.033   2.064   3.087  1.00  0.00     0.031 C 
ATOM     40  C   UNL     1       2.578   5.720   5.083  1.00  0.00     0.029 A 
ATOM     41  N   UNL     1       1.281   6.260   3.320  1.00  0.00    -0.354 N 
ATOM     42  C   UNL     1       3.921   1.784   5.368  1.00  0.00     0.074 A 
ATOM     43  C   UNL     1       4.485   1.331   4.116  1.00  0.00     0.031 C 
ATOM     44  C   UNL     1       1.650   6.603   5.500  1.00  0.00     0.029 A 
ATOM     45  C   UNL     1       0.613   6.660   4.470  1.00  0.00     0.049 A 
ATOM     46  H   UNL     1       1.123   6.577   2.401  1.00  0.00     0.167 HD
ATOM     47  C   UNL     1       4.216   1.545   6.679  1.00  0.00     0.031 A 
ATOM     48  C   UNL     1      -0.718   6.431   4.654  1.00  0.00     0.031 A 
ATOM     49  C   UNL     1       3.492   2.455   7.556  1.00  0.00     0.049 A 
ATOM     50  C   UNL     1      -0.942   5.680   5.937  1.00  0.00     0.074 A 
ATOM     51  C   UNL     1       3.851   3.688   8.074  1.00  0.00     0.029 A 
ATOM     52  N   UNL     1       2.118   2.328   7.727  1.00  0.00    -0.354 N 
ATOM     53  N   UNL     1      -0.124   4.779   6.409  1.00  0.00    -0.248 NA
ATOM     54  C   UNL     1      -2.093   5.926   6.796  1.00  0.00     0.031 C 
ATOM     55  C   UNL     1       2.665   4.358   8.452  1.00  0.00     0.029 A 
ATOM     56  C   UNL     1       1.596   3.509   8.220  1.00  0.00     0.049 A 
ATOM     57  H   UNL     1       1.596   1.518   7.526  1.00  0.00     0.167 HD
ATOM     58  C   UNL     1      -0.549   4.427   7.663  1.00  0.00     0.074 A 
ATOM     59  C   UNL     1      -1.808   5.133   7.841  1.00  0.00     0.031 C 
ATOM     60  C   UNL     1       0.181   3.652   8.514  1.00  0.00     0.031 A 
BRANCH  47  61
ATOM     61  C   UNL     1       5.409   0.733   7.131  1.00  0.00    -0.014 A 
ATOM     62  C   UNL     1       6.171   1.172   8.236  1.00  0.00     0.010 A 
ATOM     63  C   UNL     1       5.850  -0.441   6.492  1.00  0.00     0.010 A 
ATOM     64  C   UNL     1       7.367   0.546   8.616  1.00  0.00     0.020 A 
ATOM     65  C   UNL     1       7.057  -1.071   6.854  1.00  0.00     0.020 A 
ATOM     66  C   UNL     1       7.821  -0.557   7.901  1.00  0.00     0.054 A 
BRANCH  66  67
ATOM     67  S   UNL     1       9.435  -1.270   8.330  1.00  0.00     0.124 S 
ATOM     68  O   UNL     1      10.330  -0.121   8.205  1.00  0.00    -0.237 OA
ATOM     69  O   UNL     1       9.218  -1.753   9.690  1.00  0.00    -0.237 OA
ATOM     70  O   UNL     1       9.632  -2.312   7.324  1.00  0.00    -0.744 OA
ENDBRANCH  66  67
ENDBRANCH  47  61
BRANCH  48  71
ATOM     71  C   UNL     1      -1.571   6.269   3.434  1.00  0.00    -0.014 A 
ATOM     72  C   UNL     1      -1.546   7.277   2.442  1.00  0.00     0.010 A 
ATOM     73  C   UNL     1      -2.212   5.056   3.127  1.00  0.00     0.010 A 
ATOM     74  C   UNL     1      -2.049   7.046   1.157  1.00  0.00     0.020 A 
ATOM     75  C   UNL     1      -2.740   4.829   1.845  1.00  0.00     0.020 A 
ATOM     76  C   UNL     1      -2.629   5.814   0.860  1.00  0.00     0.054 A 
BRANCH  76  77
ATOM     77  S   UNL     1      -3.066   5.451  -0.868  1.00  0.00     0.124 S 
ATOM     78  O   UNL     1      -4.351   6.129  -1.007  1.00  0.00    -0.237 OA
ATOM     79  O   UNL     1      -1.952   6.051  -1.601  1.00  0.00    -0.237 OA
ATOM     80  O   UNL     1      -3.113   3.991  -0.896  1.00  0.00    -0.744 OA
ENDBRANCH  76  77
ENDBRANCH  48  71
BRANCH  60  81
ATOM     81  C   UNL     1      -0.332   3.120   9.823  1.00  0.00    -0.014 A 
ATOM     82  C   UNL     1      -1.681   2.807  10.045  1.00  0.00     0.010 A 
ATOM     83  C   UNL     1       0.590   2.794  10.844  1.00  0.00     0.010 A 
ATOM     84  C   UNL     1      -2.106   2.268  11.264  1.00  0.00     0.020 A 
ATOM     85  C   UNL     1       0.182   2.217  12.046  1.00  0.00     0.020 A 
ATOM     86  C   UNL     1      -1.171   1.982  12.259  1.00  0.00     0.054 A 
BRANCH  86  87
ATOM     87  S   UNL     1      -1.711   1.224  13.810  1.00  0.00     0.124 S 
ATOM     88  O   UNL     1      -1.924   2.394  14.657  1.00  0.00    -0.237 OA
ATOM     89  O   UNL     1      -2.923   0.503  13.424  1.00  0.00    -0.237 OA
ATOM     90  O   UNL     1      -0.583   0.375  14.181  1.00  0.00    -0.744 OA
ENDBRANCH  86  87
ENDBRANCH  60  81
ENDBRANCH  34  35
ENDBRANCH  27  29
ENDBRANCH  26  27
ENDBRANCH  25  26
ENDBRANCH   1  25
TORSDOF 17
