REMARK SMILES O=C(OCCOC(=O)c1ncoc1-c1cc(F)cc(F)c1)c1ccc(-c2c3nc(c(-c4ccc(S(=O)(=O)[O-])cc4)c4ccc([nH]4)c(-c4ccc(S(=O)(=O)[O-])cc4)c4nc(c(-c5ccc(S(=O)(=O)[O-])cc5)c5ccc2[nH]5)C=C4)C=C3)cc1
REMARK SMILES IDX 4 1 3 2 2 3 1 4 22 5 23 6 81 7 24 8 80 9 25 10 26 11 27 12
REMARK SMILES IDX 74 13 28 14 79 15 73 16 75 17 29 18 78 19 72 20 71 21 30 23
REMARK SMILES IDX 60 24 41 25 59 26 42 27 45 28 58 29 76 30 43 31 44 32 57 34
REMARK SMILES IDX 77 35 46 36 31 37 32 38 40 39 33 40 39 41 34 42 35 43 36 44
REMARK SMILES IDX 37 45 38 46 61 47 62 48 70 49 63 50 69 51 64 52 65 53 66 54
REMARK SMILES IDX 67 55 68 56 47 57 48 58 56 59 49 60 55 61 50 62 51 63 52 64
REMARK SMILES IDX 53 65 54 66 5 67 6 68 7 69 8 70 9 71 10 72 13 73 11 74 12 75
REMARK SMILES IDX 14 76 15 77 21 78 16 79 19 80 17 81 18 82 20 83
REMARK H PARENT 75 22 45 33
REMARK Flexibility Score: inf
ROOT
ATOM      1  C   UNL     1       4.951  -1.673  -0.847  1.00  0.00     0.275 C 
ENDROOT
BRANCH   1   2
ATOM      2  O   UNL     1       4.805  -1.244   0.525  1.00  0.00    -0.458 OA
BRANCH   2   3
ATOM      3  C   UNL     1       3.993  -0.219   0.862  1.00  0.00     0.338 C 
ATOM      4  O   UNL     1       2.937  -0.395   1.454  1.00  0.00    -0.246 OA
BRANCH   3   5
ATOM      5  C   UNL     1       4.505   1.152   0.567  1.00  0.00     0.060 A 
ATOM      6  C   UNL     1       5.648   1.401  -0.193  1.00  0.00     0.016 A 
ATOM      7  C   UNL     1       3.757   2.240   1.037  1.00  0.00     0.016 A 
ATOM      8  C   UNL     1       6.004   2.706  -0.523  1.00  0.00     0.010 A 
ATOM      9  C   UNL     1       4.074   3.544   0.668  1.00  0.00     0.010 A 
ATOM     10  C   UNL     1       5.221   3.782  -0.094  1.00  0.00    -0.014 A 
BRANCH  10  11
ATOM     11  C   UNL     1       5.720   5.157  -0.284  1.00  0.00     0.031 A 
ATOM     12  C   UNL     1       6.288   5.871   0.910  1.00  0.00     0.074 A 
ATOM     13  C   UNL     1       5.714   5.715  -1.509  1.00  0.00     0.049 A 
ATOM     14  N   UNL     1       6.885   7.030   0.971  1.00  0.00    -0.248 NA
ATOM     15  C   UNL     1       6.167   5.189   2.212  1.00  0.00     0.031 C 
ATOM     16  C   UNL     1       5.178   5.091  -2.722  1.00  0.00     0.029 A 
ATOM     17  N   UNL     1       6.189   6.925  -1.939  1.00  0.00    -0.354 N 
ATOM     18  C   UNL     1       7.217   7.206   2.310  1.00  0.00     0.074 A 
ATOM     19  C   UNL     1       6.690   6.078   3.039  1.00  0.00     0.031 C 
ATOM     20  C   UNL     1       5.366   5.922  -3.763  1.00  0.00     0.029 A 
ATOM     21  C   UNL     1       6.035   7.130  -3.290  1.00  0.00     0.049 A 
ATOM     22  H   UNL     1       6.603   7.585  -1.338  1.00  0.00     0.167 HD
ATOM     23  C   UNL     1       7.934   8.203   2.876  1.00  0.00     0.031 A 
ATOM     24  C   UNL     1       6.417   8.171  -4.055  1.00  0.00     0.031 A 
ATOM     25  C   UNL     1       8.451   9.314   2.131  1.00  0.00     0.049 A 
ATOM     26  C   UNL     1       7.195   9.282  -3.401  1.00  0.00     0.074 A 
ATOM     27  C   UNL     1       9.204  10.382   2.577  1.00  0.00     0.029 A 
ATOM     28  N   UNL     1       8.261   9.492   0.767  1.00  0.00    -0.354 N 
ATOM     29  N   UNL     1       7.554   9.404  -2.143  1.00  0.00    -0.248 NA
ATOM     30  C   UNL     1       7.647  10.377  -4.269  1.00  0.00     0.031 C 
ATOM     31  C   UNL     1       9.440  11.226   1.486  1.00  0.00     0.029 A 
ATOM     32  C   UNL     1       8.873  10.659   0.353  1.00  0.00     0.049 A 
ATOM     33  H   UNL     1       7.763   8.877   0.181  1.00  0.00     0.167 HD
ATOM     34  C   UNL     1       8.300  10.574  -2.073  1.00  0.00     0.074 A 
ATOM     35  C   UNL     1       8.348  11.116  -3.418  1.00  0.00     0.031 C 
ATOM     36  C   UNL     1       8.896  11.152  -1.001  1.00  0.00     0.031 A 
BRANCH  23  37
ATOM     37  C   UNL     1       8.180   8.112   4.359  1.00  0.00    -0.014 A 
ATOM     38  C   UNL     1       9.030   7.124   4.891  1.00  0.00     0.010 A 
ATOM     39  C   UNL     1       7.525   8.994   5.236  1.00  0.00     0.010 A 
ATOM     40  C   UNL     1       9.173   6.980   6.274  1.00  0.00     0.020 A 
ATOM     41  C   UNL     1       7.688   8.872   6.620  1.00  0.00     0.020 A 
ATOM     42  C   UNL     1       8.493   7.850   7.130  1.00  0.00     0.054 A 
BRANCH  42  43
ATOM     43  S   UNL     1       8.684   7.634   8.921  1.00  0.00     0.124 S 
ATOM     44  O   UNL     1       7.868   6.448   9.169  1.00  0.00    -0.237 OA
ATOM     45  O   UNL     1      10.124   7.447   9.071  1.00  0.00    -0.237 OA
ATOM     46  O   UNL     1       8.159   8.879   9.478  1.00  0.00    -0.744 OA
ENDBRANCH  42  43
ENDBRANCH  23  37
BRANCH  24  47
ATOM     47  C   UNL     1       6.105   8.185  -5.512  1.00  0.00    -0.014 A 
ATOM     48  C   UNL     1       7.118   8.016  -6.472  1.00  0.00     0.010 A 
ATOM     49  C   UNL     1       4.777   8.350  -5.948  1.00  0.00     0.010 A 
ATOM     50  C   UNL     1       6.812   8.028  -7.838  1.00  0.00     0.020 A 
ATOM     51  C   UNL     1       4.464   8.339  -7.312  1.00  0.00     0.020 A 
ATOM     52  C   UNL     1       5.486   8.188  -8.250  1.00  0.00     0.054 A 
BRANCH  52  53
ATOM     53  S   UNL     1       5.106   8.150 -10.025  1.00  0.00     0.124 S 
ATOM     54  O   UNL     1       5.624   9.438 -10.475  1.00  0.00    -0.237 OA
ATOM     55  O   UNL     1       5.847   6.976 -10.481  1.00  0.00    -0.237 OA
ATOM     56  O   UNL     1       3.652   8.012 -10.061  1.00  0.00    -0.744 OA
ENDBRANCH  52  53
ENDBRANCH  24  47
BRANCH  36  57
ATOM     57  C   UNL     1       9.670  12.415  -1.248  1.00  0.00    -0.014 A 
ATOM     58  C   UNL     1       9.009  13.636  -1.464  1.00  0.00     0.010 A 
ATOM     59  C   UNL     1      11.075  12.388  -1.185  1.00  0.00     0.010 A 
ATOM     60  C   UNL     1       9.744  14.809  -1.636  1.00  0.00     0.020 A 
ATOM     61  C   UNL     1      11.812  13.563  -1.332  1.00  0.00     0.020 A 
ATOM     62  C   UNL     1      11.141  14.765  -1.568  1.00  0.00     0.054 A 
BRANCH  62  63
ATOM     63  S   UNL     1      12.071  16.312  -1.736  1.00  0.00     0.124 S 
ATOM     64  O   UNL     1      12.008  16.548  -3.175  1.00  0.00    -0.237 OA
ATOM     65  O   UNL     1      11.303  17.241  -0.910  1.00  0.00    -0.237 OA
ATOM     66  O   UNL     1      13.395  15.976  -1.216  1.00  0.00    -0.744 OA
ENDBRANCH  62  63
ENDBRANCH  36  57
ENDBRANCH  10  11
ENDBRANCH   3   5
ENDBRANCH   2   3
ENDBRANCH   1   2
BRANCH   1  67
ATOM     67  C   UNL     1       3.770  -1.485  -1.807  1.00  0.00     0.275 C 
BRANCH  67  68
ATOM     68  O   UNL     1       3.363  -0.114  -1.924  1.00  0.00    -0.457 OA
BRANCH  68  69
ATOM     69  C   UNL     1       2.022   0.122  -1.774  1.00  0.00     0.361 C 
ATOM     70  O   UNL     1       1.178  -0.758  -1.633  1.00  0.00    -0.244 OA
BRANCH  69  71
ATOM     71  C   UNL     1       1.695   1.538  -1.750  1.00  0.00     0.194 A 
ATOM     72  N   UNL     1       2.385   2.529  -2.432  1.00  0.00    -0.209 NA
ATOM     73  C   UNL     1       0.658   2.113  -1.039  1.00  0.00     0.169 A 
ATOM     74  C   UNL     1       1.728   3.628  -2.132  1.00  0.00     0.309 A 
ATOM     75  O   UNL     1       0.669   3.458  -1.293  1.00  0.00    -0.443 OA
BRANCH  73  76
ATOM     76  C   UNL     1      -0.329   1.656  -0.080  1.00  0.00     0.026 A 
ATOM     77  C   UNL     1       0.051   1.341   1.229  1.00  0.00     0.051 A 
ATOM     78  C   UNL     1      -1.672   1.523  -0.435  1.00  0.00     0.051 A 
ATOM     79  C   UNL     1      -0.887   0.915   2.161  1.00  0.00     0.126 A 
ATOM     80  C   UNL     1      -2.596   1.077   0.511  1.00  0.00     0.126 A 
ATOM     81  F   UNL     1      -0.496   0.643   3.413  1.00  0.00    -0.207 F 
ATOM     82  C   UNL     1      -2.217   0.775   1.812  1.00  0.00     0.078 A 
ATOM     83  F   UNL     1      -3.880   0.938   0.158  1.00  0.00    -0.207 F 
ENDBRANCH  73  76
ENDBRANCH  69  71
ENDBRANCH  68  69
ENDBRANCH  67  68
ENDBRANCH   1  67
TORSDOF 15
