REMARK SMILES C[C@H]1[C@H](C(=O)OCCOC(=O)c2ccc(-c3c4nc(c(-c5ccc(S(=O)(=O)[O-])cc5)c5ccc([nH]5)c(-c5ccc(S(=O)(=O)[O-])cc5)c5nc(c(-c6ccc(S(=O)(=O)[O-])cc6)c6ccc3[nH]6)C=C5)C=C4)cc2)CC[N@@H+]1Cc1cscn1
REMARK SMILES IDX 8 1 7 2 6 3 4 4 5 5 3 6 1 7 2 8 74 9 72 10 73 11 75 13 76 14
REMARK SMILES IDX 77 15 80 16 78 17 79 18 9 19 10 20 11 21 12 22 13 23 71 24
REMARK SMILES IDX 14 25 70 26 15 27 16 28 17 29 64 30 18 31 69 32 63 33 65 34
REMARK SMILES IDX 19 35 68 36 62 37 61 38 20 40 50 41 31 42 49 43 32 44 35 45
REMARK SMILES IDX 48 46 66 47 33 48 34 49 47 51 67 52 36 53 21 54 22 55 30 56
REMARK SMILES IDX 23 57 29 58 24 59 25 60 26 61 27 62 28 63 51 64 52 65 60 66
REMARK SMILES IDX 53 67 59 68 54 69 55 70 56 71 57 72 58 73 37 74 38 75 46 76
REMARK SMILES IDX 39 77 45 78 40 79 41 80 42 81 43 82 44 83
REMARK H PARENT 74 12 65 39 35 50
REMARK Flexibility Score: inf
ROOT
ATOM      1  C   UNL     1       1.015   3.660   3.575  1.00  0.00     0.275 C 
ENDROOT
BRANCH   1   2
ATOM      2  C   UNL     1      -0.368   3.076   3.287  1.00  0.00     0.274 C 
BRANCH   2   3
ATOM      3  O   UNL     1      -0.265   1.984   2.354  1.00  0.00    -0.462 OA
BRANCH   3   4
ATOM      4  C   UNL     1      -0.756   2.179   1.109  1.00  0.00     0.315 C 
ATOM      5  O   UNL     1      -1.366   3.183   0.756  1.00  0.00    -0.252 OA
BRANCH   4   6
ATOM      6  C   UNL     1      -0.486   1.035   0.149  1.00  0.00     0.162 C 
ATOM      7  C   UNL     1       1.670  -0.216  -0.255  1.00  0.00     0.076 C 
ATOM      8  C   UNL     1       0.423  -0.103   0.637  1.00  0.00     0.195 C 
ATOM      9  N   UNL     1      -0.349  -1.347   0.472  1.00  0.00    -0.327 N 
ATOM     10  C   UNL     1      -1.796   0.386  -0.273  1.00  0.00     0.083 C 
ATOM     11  C   UNL     1      -1.466  -1.083  -0.424  1.00  0.00     0.263 C 
ATOM     12  H   UNL     1       0.241  -2.050   0.025  1.00  0.00     0.348 HD
BRANCH   9  13
ATOM     13  C   UNL     1      -0.664  -2.052   1.719  1.00  0.00     0.320 C 
BRANCH  13  14
ATOM     14  C   UNL     1      -1.449  -1.269   2.737  1.00  0.00     0.105 A 
ATOM     15  C   UNL     1      -2.802  -0.975   2.708  1.00  0.00     0.096 A 
ATOM     16  N   UNL     1      -0.800  -0.837   3.890  1.00  0.00    -0.244 NA
ATOM     17  S   UNL     1      -3.252  -0.075   4.095  1.00  0.00    -0.130 S 
ATOM     18  C   UNL     1      -1.643  -0.195   4.667  1.00  0.00     0.176 A 
ENDBRANCH  13  14
ENDBRANCH   9  13
ENDBRANCH   4   6
ENDBRANCH   3   4
ENDBRANCH   2   3
ENDBRANCH   1   2
BRANCH   1  19
ATOM     19  O   UNL     1       1.531   4.342   2.420  1.00  0.00    -0.458 OA
BRANCH  19  20
ATOM     20  C   UNL     1       2.265   3.570   1.587  1.00  0.00     0.338 C 
ATOM     21  O   UNL     1       2.587   2.406   1.738  1.00  0.00    -0.246 OA
BRANCH  20  22
ATOM     22  C   UNL     1       2.537   4.324   0.359  1.00  0.00     0.060 A 
ATOM     23  C   UNL     1       1.827   3.993  -0.797  1.00  0.00     0.016 A 
ATOM     24  C   UNL     1       3.536   5.293   0.332  1.00  0.00     0.016 A 
ATOM     25  C   UNL     1       2.131   4.609  -2.004  1.00  0.00     0.010 A 
ATOM     26  C   UNL     1       3.821   5.933  -0.874  1.00  0.00     0.010 A 
ATOM     27  C   UNL     1       3.131   5.583  -2.050  1.00  0.00    -0.014 A 
BRANCH  27  28
ATOM     28  C   UNL     1       3.499   6.224  -3.331  1.00  0.00     0.031 A 
ATOM     29  C   UNL     1       4.840   5.932  -3.933  1.00  0.00     0.074 A 
ATOM     30  C   UNL     1       2.650   7.087  -3.918  1.00  0.00     0.049 A 
ATOM     31  N   UNL     1       5.462   6.552  -4.900  1.00  0.00    -0.248 NA
ATOM     32  C   UNL     1       5.585   4.798  -3.362  1.00  0.00     0.031 C 
ATOM     33  C   UNL     1       1.292   7.387  -3.459  1.00  0.00     0.029 A 
ATOM     34  N   UNL     1       2.817   7.889  -5.017  1.00  0.00    -0.354 N 
ATOM     35  C   UNL     1       6.691   5.915  -5.023  1.00  0.00     0.074 A 
ATOM     36  C   UNL     1       6.725   4.858  -4.036  1.00  0.00     0.031 C 
ATOM     37  C   UNL     1       0.755   8.319  -4.263  1.00  0.00     0.029 A 
ATOM     38  C   UNL     1       1.754   8.731  -5.244  1.00  0.00     0.049 A 
ATOM     39  H   UNL     1       3.619   7.865  -5.588  1.00  0.00     0.167 HD
ATOM     40  C   UNL     1       7.700   6.203  -5.877  1.00  0.00     0.031 A 
ATOM     41  C   UNL     1       1.623   9.756  -6.107  1.00  0.00     0.031 A 
ATOM     42  C   UNL     1       7.639   7.256  -6.855  1.00  0.00     0.049 A 
ATOM     43  C   UNL     1       2.780  10.101  -7.002  1.00  0.00     0.074 A 
ATOM     44  C   UNL     1       8.604   7.641  -7.768  1.00  0.00     0.029 A 
ATOM     45  N   UNL     1       6.546   8.088  -7.050  1.00  0.00    -0.354 N 
ATOM     46  N   UNL     1       3.955   9.523  -7.084  1.00  0.00    -0.248 NA
ATOM     47  C   UNL     1       2.602  11.240  -7.912  1.00  0.00     0.031 C 
ATOM     48  C   UNL     1       8.108   8.733  -8.489  1.00  0.00     0.029 A 
ATOM     49  C   UNL     1       6.815   8.993  -8.059  1.00  0.00     0.049 A 
ATOM     50  H   UNL     1       5.702   8.040  -6.544  1.00  0.00     0.167 HD
ATOM     51  C   UNL     1       4.647  10.210  -8.074  1.00  0.00     0.074 A 
ATOM     52  C   UNL     1       3.759  11.245  -8.563  1.00  0.00     0.031 C 
ATOM     53  C   UNL     1       5.903  10.001  -8.539  1.00  0.00     0.031 A 
BRANCH  40  54
ATOM     54  C   UNL     1       8.969   5.405  -5.751  1.00  0.00    -0.014 A 
ATOM     55  C   UNL     1       9.040   4.067  -6.175  1.00  0.00     0.010 A 
ATOM     56  C   UNL     1      10.120   6.017  -5.220  1.00  0.00     0.010 A 
ATOM     57  C   UNL     1      10.228   3.343  -6.034  1.00  0.00     0.020 A 
ATOM     58  C   UNL     1      11.316   5.304  -5.099  1.00  0.00     0.020 A 
ATOM     59  C   UNL     1      11.357   3.965  -5.491  1.00  0.00     0.054 A 
BRANCH  59  60
ATOM     60  S   UNL     1      12.889   3.008  -5.330  1.00  0.00     0.124 S 
ATOM     61  O   UNL     1      12.590   2.152  -4.184  1.00  0.00    -0.237 OA
ATOM     62  O   UNL     1      12.980   2.325  -6.617  1.00  0.00    -0.237 OA
ATOM     63  O   UNL     1      13.911   4.027  -5.096  1.00  0.00    -0.744 OA
ENDBRANCH  59  60
ENDBRANCH  40  54
BRANCH  41  64
ATOM     64  C   UNL     1       0.366  10.553  -6.123  1.00  0.00    -0.014 A 
ATOM     65  C   UNL     1      -0.527  10.456  -7.203  1.00  0.00     0.010 A 
ATOM     66  C   UNL     1       0.041  11.390  -5.039  1.00  0.00     0.010 A 
ATOM     67  C   UNL     1      -1.719  11.188  -7.203  1.00  0.00     0.020 A 
ATOM     68  C   UNL     1      -1.161  12.102  -5.023  1.00  0.00     0.020 A 
ATOM     69  C   UNL     1      -2.030  12.004  -6.111  1.00  0.00     0.054 A 
BRANCH  69  70
ATOM     70  S   UNL     1      -3.610  12.896  -6.103  1.00  0.00     0.124 S 
ATOM     71  O   UNL     1      -3.348  13.985  -7.038  1.00  0.00    -0.237 OA
ATOM     72  O   UNL     1      -4.551  11.878  -6.565  1.00  0.00    -0.237 OA
ATOM     73  O   UNL     1      -3.771  13.293  -4.706  1.00  0.00    -0.744 OA
ENDBRANCH  69  70
ENDBRANCH  41  64
BRANCH  53  74
ATOM     74  C   UNL     1       6.378  10.867  -9.671  1.00  0.00    -0.014 A 
ATOM     75  C   UNL     1       6.812  12.184  -9.445  1.00  0.00     0.010 A 
ATOM     76  C   UNL     1       6.491  10.312 -10.958  1.00  0.00     0.010 A 
ATOM     77  C   UNL     1       7.349  12.934 -10.494  1.00  0.00     0.020 A 
ATOM     78  C   UNL     1       7.046  11.052 -12.003  1.00  0.00     0.020 A 
ATOM     79  C   UNL     1       7.469  12.361 -11.765  1.00  0.00     0.054 A 
BRANCH  79  80
ATOM     80  S   UNL     1       8.255  13.322 -13.088  1.00  0.00     0.124 S 
ATOM     81  O   UNL     1       7.201  14.268 -13.444  1.00  0.00    -0.237 OA
ATOM     82  O   UNL     1       9.418  13.899 -12.418  1.00  0.00    -0.237 OA
ATOM     83  O   UNL     1       8.564  12.320 -14.106  1.00  0.00    -0.744 OA
ENDBRANCH  79  80
ENDBRANCH  53  74
ENDBRANCH  27  28
ENDBRANCH  20  22
ENDBRANCH  19  20
ENDBRANCH   1  19
TORSDOF 16
