REMARK SMILES CC(C)[C@H]([NH2+]Cc1ccc(O)cn1)C(=O)OCCOC(=O)c1ccc(-c2c3nc(c(-c4ccc(S(=O)(=O)[O-])cc4)c4ccc([nH]4)c(-c4ccc(S(=O)(=O)[O-])cc4)c4nc(c(-c5ccc(S(=O)(=O)[O-])cc5)c5ccc2[nH]5)C=C4)C=C3)cc1
REMARK SMILES IDX 17 1 16 2 14 3 15 4 4 5 2 6 1 7 3 8 5 9 6 12 7 13 8 14 13 15
REMARK SMILES IDX 9 16 12 17 10 18 11 19 18 21 19 22 20 23 21 24 22 25 23 26
REMARK SMILES IDX 81 27 24 28 80 29 25 30 26 31 27 32 74 33 28 34 79 35 73 36
REMARK SMILES IDX 75 37 29 38 78 39 72 40 71 41 30 43 60 44 41 45 59 46 42 47
REMARK SMILES IDX 45 48 58 49 76 50 43 51 44 52 57 54 77 55 46 56 31 57 32 58
REMARK SMILES IDX 40 59 33 60 39 61 34 62 35 63 36 64 37 65 38 66 61 67 62 68
REMARK SMILES IDX 70 69 63 70 69 71 64 72 65 73 66 74 67 75 68 76 47 77 48 78
REMARK SMILES IDX 56 79 49 80 55 81 50 82 51 83 52 84 53 85 54 86
REMARK H PARENT 5 10 5 11 11 20 75 42 45 53
REMARK Flexibility Score: inf
ROOT
ATOM      1  C   UNL     1      -1.678   2.030  -4.456  1.00  0.00     0.274 C 
ENDROOT
BRANCH   1   2
ATOM      2  O   UNL     1      -0.966   1.734  -3.240  1.00  0.00    -0.458 OA
BRANCH   2   3
ATOM      3  C   UNL     1      -1.666   1.075  -2.271  1.00  0.00     0.365 C 
ATOM      4  O   UNL     1      -2.822   0.685  -2.398  1.00  0.00    -0.245 OA
BRANCH   3   5
ATOM      5  C   UNL     1      -0.897   0.963  -0.934  1.00  0.00     0.296 C 
BRANCH   5   6
ATOM      6  C   UNL     1      -1.419   2.040   0.066  1.00  0.00     0.053 C 
ATOM      7  C   UNL     1      -0.479   2.273   1.255  1.00  0.00     0.014 C 
ATOM      8  C   UNL     1      -1.778   3.386  -0.568  1.00  0.00     0.014 C 
ENDBRANCH   5   6
BRANCH   5   9
ATOM      9  N   UNL     1       0.579   0.950  -1.132  1.00  0.00    -0.329 N 
ATOM     10  H   UNL     1       1.035   1.287  -0.284  1.00  0.00     0.347 HD
ATOM     11  H   UNL     1       0.813   1.555  -1.919  1.00  0.00     0.347 HD
BRANCH   9  12
ATOM     12  C   UNL     1       1.047  -0.425  -1.426  1.00  0.00     0.318 C 
BRANCH  12  13
ATOM     13  C   UNL     1       2.556  -0.554  -1.480  1.00  0.00     0.095 A 
ATOM     14  C   UNL     1       3.317   0.324  -2.251  1.00  0.00     0.033 A 
ATOM     15  N   UNL     1       3.114  -1.573  -0.776  1.00  0.00    -0.251 NA
ATOM     16  C   UNL     1       4.700   0.165  -2.293  1.00  0.00     0.050 A 
ATOM     17  C   UNL     1       4.457  -1.722  -0.857  1.00  0.00     0.157 A 
ATOM     18  C   UNL     1       5.278  -0.879  -1.586  1.00  0.00     0.133 A 
BRANCH  18  19
ATOM     19  O   UNL     1       6.623  -1.089  -1.591  1.00  0.00    -0.506 OA
ATOM     20  H   UNL     1       7.184  -0.522  -2.082  1.00  0.00     0.293 HD
ENDBRANCH  18  19
ENDBRANCH  12  13
ENDBRANCH   9  12
ENDBRANCH   5   9
ENDBRANCH   3   5
ENDBRANCH   2   3
ENDBRANCH   1   2
BRANCH   1  21
ATOM     21  C   UNL     1      -1.360   1.022  -5.559  1.00  0.00     0.275 C 
BRANCH  21  22
ATOM     22  O   UNL     1      -1.857  -0.278  -5.206  1.00  0.00    -0.458 OA
BRANCH  22  23
ATOM     23  C   UNL     1      -0.912  -1.169  -4.833  1.00  0.00     0.338 C 
ATOM     24  O   UNL     1       0.297  -1.024  -4.852  1.00  0.00    -0.246 OA
BRANCH  23  25
ATOM     25  C   UNL     1      -1.566  -2.376  -4.312  1.00  0.00     0.060 A 
ATOM     26  C   UNL     1      -1.776  -2.491  -2.936  1.00  0.00     0.016 A 
ATOM     27  C   UNL     1      -1.854  -3.436  -5.169  1.00  0.00     0.016 A 
ATOM     28  C   UNL     1      -2.236  -3.689  -2.399  1.00  0.00     0.010 A 
ATOM     29  C   UNL     1      -2.340  -4.630  -4.632  1.00  0.00     0.010 A 
ATOM     30  C   UNL     1      -2.504  -4.773  -3.243  1.00  0.00    -0.014 A 
BRANCH  30  31
ATOM     31  C   UNL     1      -2.862  -6.088  -2.663  1.00  0.00     0.031 A 
ATOM     32  C   UNL     1      -1.852  -7.202  -2.689  1.00  0.00     0.074 A 
ATOM     33  C   UNL     1      -4.070  -6.277  -2.102  1.00  0.00     0.049 A 
ATOM     34  N   UNL     1      -1.996  -8.456  -2.348  1.00  0.00    -0.248 NA
ATOM     35  C   UNL     1      -0.503  -6.858  -3.169  1.00  0.00     0.031 C 
ATOM     36  C   UNL     1      -5.108  -5.255  -1.961  1.00  0.00     0.029 A 
ATOM     37  N   UNL     1      -4.626  -7.400  -1.546  1.00  0.00    -0.354 N 
ATOM     38  C   UNL     1      -0.769  -9.058  -2.601  1.00  0.00     0.074 A 
ATOM     39  C   UNL     1       0.104  -8.035  -3.134  1.00  0.00     0.031 C 
ATOM     40  C   UNL     1      -6.176  -5.799  -1.353  1.00  0.00     0.029 A 
ATOM     41  C   UNL     1      -5.916  -7.215  -1.109  1.00  0.00     0.049 A 
ATOM     42  H   UNL     1      -4.147  -8.257  -1.466  1.00  0.00     0.167 HD
ATOM     43  C   UNL     1      -0.406 -10.349  -2.410  1.00  0.00     0.031 A 
ATOM     44  C   UNL     1      -6.797  -8.095  -0.598  1.00  0.00     0.031 A 
ATOM     45  C   UNL     1      -1.278 -11.359  -1.871  1.00  0.00     0.049 A 
ATOM     46  C   UNL     1      -6.386  -9.533  -0.435  1.00  0.00     0.074 A 
ATOM     47  C   UNL     1      -1.012 -12.699  -1.650  1.00  0.00     0.029 A 
ATOM     48  N   UNL     1      -2.583 -11.136  -1.458  1.00  0.00    -0.354 N 
ATOM     49  N   UNL     1      -5.236 -10.098  -0.719  1.00  0.00    -0.248 NA
ATOM     50  C   UNL     1      -7.391 -10.451   0.116  1.00  0.00     0.031 C 
ATOM     51  C   UNL     1      -2.170 -13.293  -1.132  1.00  0.00     0.029 A 
ATOM     52  C   UNL     1      -3.139 -12.313  -0.989  1.00  0.00     0.049 A 
ATOM     53  H   UNL     1      -3.045 -10.267  -1.493  1.00  0.00     0.167 HD
ATOM     54  C   UNL     1      -5.373 -11.434  -0.360  1.00  0.00     0.074 A 
ATOM     55  C   UNL     1      -6.712 -11.589   0.172  1.00  0.00     0.031 C 
ATOM     56  C   UNL     1      -4.473 -12.443  -0.462  1.00  0.00     0.031 A 
BRANCH  43  57
ATOM     57  C   UNL     1       0.983 -10.744  -2.832  1.00  0.00    -0.014 A 
ATOM     58  C   UNL     1       2.111 -10.361  -2.085  1.00  0.00     0.010 A 
ATOM     59  C   UNL     1       1.159 -11.523  -3.990  1.00  0.00     0.010 A 
ATOM     60  C   UNL     1       3.394 -10.717  -2.512  1.00  0.00     0.020 A 
ATOM     61  C   UNL     1       2.438 -11.900  -4.407  1.00  0.00     0.020 A 
ATOM     62  C   UNL     1       3.550 -11.477  -3.675  1.00  0.00     0.054 A 
BRANCH  62  63
ATOM     63  S   UNL     1       5.223 -11.936  -4.205  1.00  0.00     0.124 S 
ATOM     64  O   UNL     1       5.707 -10.687  -4.788  1.00  0.00    -0.237 OA
ATOM     65  O   UNL     1       5.863 -12.333  -2.953  1.00  0.00    -0.237 OA
ATOM     66  O   UNL     1       4.999 -13.022  -5.157  1.00  0.00    -0.744 OA
ENDBRANCH  62  63
ENDBRANCH  43  57
BRANCH  44  67
ATOM     67  C   UNL     1      -8.166  -7.645  -0.229  1.00  0.00    -0.014 A 
ATOM     68  C   UNL     1      -8.549  -7.550   1.119  1.00  0.00     0.010 A 
ATOM     69  C   UNL     1      -9.092  -7.300  -1.231  1.00  0.00     0.010 A 
ATOM     70  C   UNL     1      -9.838  -7.130   1.460  1.00  0.00     0.020 A 
ATOM     71  C   UNL     1     -10.373  -6.856  -0.893  1.00  0.00     0.020 A 
ATOM     72  C   UNL     1     -10.742  -6.786   0.451  1.00  0.00     0.054 A 
BRANCH  72  73
ATOM     73  S   UNL     1     -12.393  -6.190   0.914  1.00  0.00     0.124 S 
ATOM     74  O   UNL     1     -13.079  -7.432   1.254  1.00  0.00    -0.237 OA
ATOM     75  O   UNL     1     -12.107  -5.297   2.034  1.00  0.00    -0.237 OA
ATOM     76  O   UNL     1     -12.865  -5.523  -0.297  1.00  0.00    -0.744 OA
ENDBRANCH  72  73
ENDBRANCH  44  67
BRANCH  56  77
ATOM     77  C   UNL     1      -4.896 -13.792   0.050  1.00  0.00    -0.014 A 
ATOM     78  C   UNL     1      -5.794 -14.597  -0.673  1.00  0.00     0.010 A 
ATOM     79  C   UNL     1      -4.358 -14.274   1.257  1.00  0.00     0.010 A 
ATOM     80  C   UNL     1      -6.176 -15.847  -0.178  1.00  0.00     0.020 A 
ATOM     81  C   UNL     1      -4.720 -15.532   1.743  1.00  0.00     0.020 A 
ATOM     82  C   UNL     1      -5.640 -16.304   1.031  1.00  0.00     0.054 A 
BRANCH  82  83
ATOM     83  S   UNL     1      -6.125 -17.941   1.643  1.00  0.00     0.124 S 
ATOM     84  O   UNL     1      -7.444 -17.673   2.211  1.00  0.00    -0.237 OA
ATOM     85  O   UNL     1      -6.117 -18.757   0.431  1.00  0.00    -0.237 OA
ATOM     86  O   UNL     1      -5.083 -18.268   2.614  1.00  0.00    -0.744 OA
ENDBRANCH  82  83
ENDBRANCH  56  77
ENDBRANCH  30  31
ENDBRANCH  23  25
ENDBRANCH  22  23
ENDBRANCH  21  22
ENDBRANCH   1  21
TORSDOF 19
