REMARK SMILES Cc1sc(C(=O)OCCOC(=O)c2ccc(-c3c4nc(c(-c5ccc(S(=O)(=O)[O-])cc5)c5ccc([nH]5)c(-c5ccc(S(=O)(=O)[O-])cc5)c5nc(c(-c6ccc(S(=O)(=O)[O-])cc6)c6ccc3[nH]6)C=C5)C=C4)cc2)cc1Br
REMARK SMILES IDX 10 1 9 2 8 3 7 4 5 5 6 6 4 7 1 8 2 9 3 10 74 11 73 12 75 13
REMARK SMILES IDX 11 14 12 15 13 16 14 17 72 18 15 19 71 20 16 21 17 22 18 23
REMARK SMILES IDX 65 24 19 25 70 26 64 27 66 28 20 29 69 30 63 31 62 32 21 34
REMARK SMILES IDX 51 35 32 36 50 37 33 38 36 39 49 40 67 41 34 42 35 43 48 45
REMARK SMILES IDX 68 46 37 47 22 48 23 49 31 50 24 51 30 52 25 53 26 54 27 55
REMARK SMILES IDX 28 56 29 57 52 58 53 59 61 60 54 61 60 62 55 63 56 64 57 65
REMARK SMILES IDX 58 66 59 67 38 68 39 69 47 70 40 71 46 72 41 73 42 74 43 75
REMARK SMILES IDX 44 76 45 77
REMARK H PARENT 66 33 36 44
REMARK Flexibility Score: inf
ROOT
ATOM      1  O   UNL     1      -5.004   3.636  -1.096  1.00  0.00    -0.458 OA
ENDROOT
BRANCH   1   2
ATOM      2  C   UNL     1      -4.151   4.795  -1.061  1.00  0.00     0.275 C 
BRANCH   2   3
ATOM      3  C   UNL     1      -3.272   4.817   0.194  1.00  0.00     0.275 C 
BRANCH   3   4
ATOM      4  O   UNL     1      -2.273   3.780   0.165  1.00  0.00    -0.458 OA
BRANCH   4   5
ATOM      5  C   UNL     1      -2.538   2.670   0.922  1.00  0.00     0.348 C 
ATOM      6  O   UNL     1      -3.521   2.551   1.637  1.00  0.00    -0.245 OA
BRANCH   5   7
ATOM      7  C   UNL     1      -1.522   1.657   0.688  1.00  0.00     0.114 A 
ATOM      8  C   UNL     1      -0.279  -2.040   0.256  1.00  0.00     0.057 C 
ATOM      9  C   UNL     1      -0.457  -0.564   0.380  1.00  0.00     0.017 A 
ATOM     10  S   UNL     1      -1.807   0.052   1.235  1.00  0.00    -0.132 S 
ATOM     11  C   UNL     1       0.305   0.469  -0.113  1.00  0.00     0.032 A 
ATOM     12  C   UNL     1      -0.298   1.745   0.052  1.00  0.00     0.043 A 
ATOM     13  Br  UNL     1       1.955   0.289  -1.016  1.00  0.00    -0.050 Br
ENDBRANCH   5   7
ENDBRANCH   4   5
ENDBRANCH   3   4
ENDBRANCH   2   3
ENDBRANCH   1   2
BRANCH   1  14
ATOM     14  C   UNL     1      -4.562   2.620  -1.873  1.00  0.00     0.338 C 
ATOM     15  O   UNL     1      -3.541   2.595  -2.540  1.00  0.00    -0.246 OA
BRANCH  14  16
ATOM     16  C   UNL     1      -5.435   1.447  -1.706  1.00  0.00     0.060 A 
ATOM     17  C   UNL     1      -4.947   0.392  -0.940  1.00  0.00     0.016 A 
ATOM     18  C   UNL     1      -6.654   1.327  -2.374  1.00  0.00     0.016 A 
ATOM     19  C   UNL     1      -5.654  -0.802  -0.849  1.00  0.00     0.010 A 
ATOM     20  C   UNL     1      -7.380   0.132  -2.263  1.00  0.00     0.010 A 
ATOM     21  C   UNL     1      -6.878  -0.949  -1.514  1.00  0.00    -0.014 A 
BRANCH  21  22
ATOM     22  C   UNL     1      -7.591  -2.253  -1.452  1.00  0.00     0.031 A 
ATOM     23  C   UNL     1      -7.705  -3.113  -2.683  1.00  0.00     0.074 A 
ATOM     24  C   UNL     1      -8.093  -2.692  -0.280  1.00  0.00     0.049 A 
ATOM     25  N   UNL     1      -8.340  -4.246  -2.843  1.00  0.00    -0.248 NA
ATOM     26  C   UNL     1      -7.012  -2.637  -3.891  1.00  0.00     0.031 C 
ATOM     27  C   UNL     1      -8.000  -1.984   0.999  1.00  0.00     0.029 A 
ATOM     28  N   UNL     1      -8.772  -3.846   0.029  1.00  0.00    -0.354 N 
ATOM     29  C   UNL     1      -8.152  -4.603  -4.174  1.00  0.00     0.074 A 
ATOM     30  C   UNL     1      -7.353  -3.560  -4.781  1.00  0.00     0.031 C 
ATOM     31  C   UNL     1      -8.580  -2.727   1.955  1.00  0.00     0.029 A 
ATOM     32  C   UNL     1      -9.140  -3.932   1.351  1.00  0.00     0.049 A 
ATOM     33  H   UNL     1      -8.976  -4.545  -0.634  1.00  0.00     0.167 HD
ATOM     34  C   UNL     1      -8.602  -5.700  -4.830  1.00  0.00     0.031 A 
ATOM     35  C   UNL     1      -9.871  -4.859   2.001  1.00  0.00     0.031 A 
ATOM     36  C   UNL     1      -9.384  -6.745  -4.220  1.00  0.00     0.049 A 
ATOM     37  C   UNL     1     -10.410  -6.037   1.236  1.00  0.00     0.074 A 
ATOM     38  C   UNL     1      -9.886  -7.896  -4.803  1.00  0.00     0.029 A 
ATOM     39  N   UNL     1      -9.774  -6.770  -2.889  1.00  0.00    -0.354 N 
ATOM     40  N   UNL     1     -10.243  -6.345  -0.028  1.00  0.00    -0.248 NA
ATOM     41  C   UNL     1     -11.242  -6.990   1.985  1.00  0.00     0.031 C 
ATOM     42  C   UNL     1     -10.618  -8.594  -3.837  1.00  0.00     0.029 A 
ATOM     43  C   UNL     1     -10.526  -7.906  -2.638  1.00  0.00     0.049 A 
ATOM     44  H   UNL     1      -9.549  -6.082  -2.222  1.00  0.00     0.167 HD
ATOM     45  C   UNL     1     -10.935  -7.535  -0.221  1.00  0.00     0.074 A 
ATOM     46  C   UNL     1     -11.505  -7.902   1.059  1.00  0.00     0.031 C 
ATOM     47  C   UNL     1     -11.088  -8.257  -1.359  1.00  0.00     0.031 A 
BRANCH  34  48
ATOM     48  C   UNL     1      -8.294  -5.812  -6.300  1.00  0.00    -0.014 A 
ATOM     49  C   UNL     1      -7.000  -6.119  -6.757  1.00  0.00     0.010 A 
ATOM     50  C   UNL     1      -9.331  -5.654  -7.238  1.00  0.00     0.010 A 
ATOM     51  C   UNL     1      -6.742  -6.231  -8.126  1.00  0.00     0.020 A 
ATOM     52  C   UNL     1      -9.082  -5.790  -8.607  1.00  0.00     0.020 A 
ATOM     53  C   UNL     1      -7.785  -6.063  -9.043  1.00  0.00     0.054 A 
BRANCH  53  54
ATOM     54  S   UNL     1      -7.428  -6.238 -10.814  1.00  0.00     0.124 S 
ATOM     55  O   UNL     1      -6.700  -5.004 -11.097  1.00  0.00    -0.237 OA
ATOM     56  O   UNL     1      -6.631  -7.461 -10.861  1.00  0.00    -0.237 OA
ATOM     57  O   UNL     1      -8.750  -6.336 -11.427  1.00  0.00    -0.744 OA
ENDBRANCH  53  54
ENDBRANCH  34  48
BRANCH  35  58
ATOM     58  C   UNL     1     -10.176  -4.686   3.449  1.00  0.00    -0.014 A 
ATOM     59  C   UNL     1      -9.625  -5.551   4.410  1.00  0.00     0.010 A 
ATOM     60  C   UNL     1     -11.027  -3.648   3.871  1.00  0.00     0.010 A 
ATOM     61  C   UNL     1      -9.934  -5.391   5.765  1.00  0.00     0.020 A 
ATOM     62  C   UNL     1     -11.315  -3.467   5.226  1.00  0.00     0.020 A 
ATOM     63  C   UNL     1     -10.777  -4.349   6.164  1.00  0.00     0.054 A 
BRANCH  63  64
ATOM     64  S   UNL     1     -11.131  -4.131   7.931  1.00  0.00     0.124 S 
ATOM     65  O   UNL     1     -12.082  -5.208   8.184  1.00  0.00    -0.237 OA
ATOM     66  O   UNL     1      -9.813  -4.293   8.541  1.00  0.00    -0.237 OA
ATOM     67  O   UNL     1     -11.680  -2.779   8.004  1.00  0.00    -0.744 OA
ENDBRANCH  63  64
ENDBRANCH  35  58
BRANCH  47  68
ATOM     68  C   UNL     1     -11.878  -9.535  -1.265  1.00  0.00    -0.014 A 
ATOM     69  C   UNL     1     -13.277  -9.517  -1.127  1.00  0.00     0.010 A 
ATOM     70  C   UNL     1     -11.214 -10.771  -1.364  1.00  0.00     0.010 A 
ATOM     71  C   UNL     1     -13.996 -10.714  -1.058  1.00  0.00     0.020 A 
ATOM     72  C   UNL     1     -11.931 -11.970  -1.321  1.00  0.00     0.020 A 
ATOM     73  C   UNL     1     -13.317 -11.933  -1.155  1.00  0.00     0.054 A 
BRANCH  73  74
ATOM     74  S   UNL     1     -14.275 -13.473  -1.104  1.00  0.00     0.124 S 
ATOM     75  O   UNL     1     -14.613 -13.575   0.313  1.00  0.00    -0.237 OA
ATOM     76  O   UNL     1     -15.395 -13.185  -1.998  1.00  0.00    -0.237 OA
ATOM     77  O   UNL     1     -13.337 -14.480  -1.596  1.00  0.00    -0.744 OA
ENDBRANCH  73  74
ENDBRANCH  47  68
ENDBRANCH  21  22
ENDBRANCH  14  16
ENDBRANCH   1  14
TORSDOF 14
