REMARK SMILES Cn1ccnc1N1[C@@H]2CC[C@H]1C[C@H](CC(=O)OCCOC(=O)c1ccc(-c3c4nc(c(-c5ccc(S(=O)(=O)[O-])cc5)c5ccc([nH]5)c(-c5ccc(S(=O)(=O)[O-])cc5)c5nc(c(-c6ccc(S(=O)(=O)[O-])cc6)c6ccc3[nH]6)C=C5)C=C4)cc1)C2
REMARK SMILES IDX 19 1 18 2 17 3 15 4 16 5 14 6 13 7 7 8 8 9 11 10 9 11 83 12
REMARK SMILES IDX 10 13 12 14 6 15 1 16 2 17 3 18 4 19 5 20 20 21 21 22 22 23
REMARK SMILES IDX 23 24 24 25 82 26 25 27 81 28 26 29 27 30 28 31 75 32 29 33
REMARK SMILES IDX 80 34 74 35 76 36 30 37 79 38 73 39 72 40 31 42 61 43 42 44
REMARK SMILES IDX 60 45 43 46 46 47 59 48 77 49 44 50 45 51 58 53 78 54 47 55
REMARK SMILES IDX 32 56 33 57 41 58 34 59 40 60 35 61 36 62 37 63 38 64 39 65
REMARK SMILES IDX 62 66 63 67 71 68 64 69 70 70 65 71 66 72 67 73 68 74 69 75
REMARK SMILES IDX 48 76 49 77 57 78 50 79 56 80 51 81 52 82 53 83 54 84 55 85
REMARK H PARENT 76 41 46 52
REMARK Flexibility Score: inf
ROOT
ATOM      1  C   UNL     1       3.800   6.932  -3.938  1.00  0.00     0.275 C 
ENDROOT
BRANCH   1   2
ATOM      2  C   UNL     1       4.427   6.760  -2.553  1.00  0.00     0.274 C 
BRANCH   2   3
ATOM      3  O   UNL     1       3.546   6.053  -1.659  1.00  0.00    -0.462 OA
BRANCH   3   4
ATOM      4  C   UNL     1       2.795   6.808  -0.819  1.00  0.00     0.306 C 
ATOM      5  O   UNL     1       2.859   8.027  -0.730  1.00  0.00    -0.252 OA
BRANCH   4   6
ATOM      6  C   UNL     1       1.903   5.964   0.069  1.00  0.00     0.126 C 
BRANCH   6   7
ATOM      7  C   UNL     1       1.047   4.910  -0.655  1.00  0.00     0.004 C 
ATOM      8  N   UNL     1       0.191   2.148  -0.293  1.00  0.00    -0.336 N 
ATOM      9  C   UNL     1      -0.840   3.196  -0.254  1.00  0.00     0.086 C 
ATOM     10  C   UNL     1       0.993   2.472  -1.475  1.00  0.00     0.086 C 
ATOM     11  C   UNL     1      -1.282   3.301  -1.723  1.00  0.00     0.027 C 
ATOM     12  C   UNL     1      -0.147   4.485   0.236  1.00  0.00     0.029 C 
ATOM     13  C   UNL     1      -0.068   2.823  -2.530  1.00  0.00     0.027 C 
ATOM     14  C   UNL     1       1.870   3.679  -1.101  1.00  0.00     0.029 C 
BRANCH   8  15
ATOM     15  C   UNL     1      -0.178   0.866  -0.042  1.00  0.00     0.205 A 
ATOM     16  C   UNL     1       2.163  -0.045   0.256  1.00  0.00     0.153 C 
ATOM     17  N   UNL     1       0.730  -0.152   0.150  1.00  0.00    -0.320 N 
ATOM     18  C   UNL     1       0.030  -1.321   0.298  1.00  0.00     0.109 A 
ATOM     19  C   UNL     1      -1.290  -0.948   0.262  1.00  0.00     0.133 A 
ATOM     20  N   UNL     1      -1.404   0.403   0.077  1.00  0.00    -0.221 NA
ENDBRANCH   8  15
ENDBRANCH   6   7
ENDBRANCH   4   6
ENDBRANCH   3   4
ENDBRANCH   2   3
ENDBRANCH   1   2
BRANCH   1  21
ATOM     21  O   UNL     1       2.744   7.909  -3.914  1.00  0.00    -0.458 OA
BRANCH  21  22
ATOM     22  C   UNL     1       1.492   7.409  -3.805  1.00  0.00     0.338 C 
ATOM     23  O   UNL     1       1.166   6.235  -3.789  1.00  0.00    -0.246 OA
BRANCH  22  24
ATOM     24  C   UNL     1       0.547   8.517  -3.591  1.00  0.00     0.060 A 
ATOM     25  C   UNL     1      -0.102   8.615  -2.356  1.00  0.00     0.016 A 
ATOM     26  C   UNL     1       0.260   9.415  -4.619  1.00  0.00     0.016 A 
ATOM     27  C   UNL     1      -1.047   9.618  -2.145  1.00  0.00     0.010 A 
ATOM     28  C   UNL     1      -0.687  10.422  -4.404  1.00  0.00     0.010 A 
ATOM     29  C   UNL     1      -1.353  10.524  -3.170  1.00  0.00    -0.014 A 
BRANCH  29  30
ATOM     30  C   UNL     1      -2.395  11.560  -2.964  1.00  0.00     0.031 A 
ATOM     31  C   UNL     1      -3.739  11.413  -3.620  1.00  0.00     0.074 A 
ATOM     32  C   UNL     1      -2.129  12.637  -2.199  1.00  0.00     0.049 A 
ATOM     33  N   UNL     1      -4.750  12.243  -3.624  1.00  0.00    -0.248 NA
ATOM     34  C   UNL     1      -3.975  10.172  -4.376  1.00  0.00     0.031 C 
ATOM     35  C   UNL     1      -0.870  12.883  -1.493  1.00  0.00     0.029 A 
ATOM     36  N   UNL     1      -2.901  13.731  -1.898  1.00  0.00    -0.354 N 
ATOM     37  C   UNL     1      -5.734  11.639  -4.398  1.00  0.00     0.074 A 
ATOM     38  C   UNL     1      -5.194  10.377  -4.857  1.00  0.00     0.031 C 
ATOM     39  C   UNL     1      -0.954  14.059  -0.849  1.00  0.00     0.029 A 
ATOM     40  C   UNL     1      -2.253  14.666  -1.126  1.00  0.00     0.049 A 
ATOM     41  H   UNL     1      -3.830  13.836  -2.206  1.00  0.00     0.167 HD
ATOM     42  C   UNL     1      -6.972  12.097  -4.699  1.00  0.00     0.031 A 
ATOM     43  C   UNL     1      -2.649  15.885  -0.711  1.00  0.00     0.031 A 
ATOM     44  C   UNL     1      -7.510  13.349  -4.234  1.00  0.00     0.049 A 
ATOM     45  C   UNL     1      -4.019  16.383  -1.085  1.00  0.00     0.074 A 
ATOM     46  C   UNL     1      -8.768  13.880  -4.460  1.00  0.00     0.029 A 
ATOM     47  N   UNL     1      -6.822  14.266  -3.455  1.00  0.00    -0.354 N 
ATOM     48  N   UNL     1      -4.947  15.785  -1.794  1.00  0.00    -0.248 NA
ATOM     49  C   UNL     1      -4.397  17.718  -0.601  1.00  0.00     0.031 C 
ATOM     50  C   UNL     1      -8.825  15.140  -3.855  1.00  0.00     0.029 A 
ATOM     51  C   UNL     1      -7.621  15.371  -3.211  1.00  0.00     0.049 A 
ATOM     52  H   UNL     1      -5.902  14.149  -3.124  1.00  0.00     0.167 HD
ATOM     53  C   UNL     1      -6.026  16.662  -1.822  1.00  0.00     0.074 A 
ATOM     54  C   UNL     1      -5.642  17.824  -1.048  1.00  0.00     0.031 C 
ATOM     55  C   UNL     1      -7.226  16.518  -2.436  1.00  0.00     0.031 A 
BRANCH  42  56
ATOM     56  C   UNL     1      -7.830  11.253  -5.602  1.00  0.00    -0.014 A 
ATOM     57  C   UNL     1      -8.447  10.079  -5.135  1.00  0.00     0.010 A 
ATOM     58  C   UNL     1      -8.072  11.678  -6.921  1.00  0.00     0.010 A 
ATOM     59  C   UNL     1      -9.272   9.331  -5.981  1.00  0.00     0.020 A 
ATOM     60  C   UNL     1      -8.913  10.944  -7.763  1.00  0.00     0.020 A 
ATOM     61  C   UNL     1      -9.498   9.768  -7.290  1.00  0.00     0.054 A 
BRANCH  61  62
ATOM     62  S   UNL     1     -10.603   8.800  -8.355  1.00  0.00     0.124 S 
ATOM     63  O   UNL     1      -9.767   7.649  -8.689  1.00  0.00    -0.237 OA
ATOM     64  O   UNL     1     -11.735   8.520  -7.476  1.00  0.00    -0.237 OA
ATOM     65  O   UNL     1     -10.892   9.703  -9.467  1.00  0.00    -0.744 OA
ENDBRANCH  61  62
ENDBRANCH  42  56
BRANCH  43  66
ATOM     66  C   UNL     1      -1.721  16.739   0.078  1.00  0.00    -0.014 A 
ATOM     67  C   UNL     1      -1.959  16.997   1.439  1.00  0.00     0.010 A 
ATOM     68  C   UNL     1      -0.590  17.307  -0.539  1.00  0.00     0.010 A 
ATOM     69  C   UNL     1      -1.095  17.824   2.163  1.00  0.00     0.020 A 
ATOM     70  C   UNL     1       0.289  18.112   0.189  1.00  0.00     0.020 A 
ATOM     71  C   UNL     1       0.023  18.378   1.533  1.00  0.00     0.054 A 
BRANCH  71  72
ATOM     72  S   UNL     1       1.156  19.416   2.498  1.00  0.00     0.124 S 
ATOM     73  O   UNL     1       0.425  20.678   2.567  1.00  0.00    -0.237 OA
ATOM     74  O   UNL     1       1.269  18.681   3.756  1.00  0.00    -0.237 OA
ATOM     75  O   UNL     1       2.371  19.438   1.688  1.00  0.00    -0.744 OA
ENDBRANCH  71  72
ENDBRANCH  43  66
BRANCH  55  76
ATOM     76  C   UNL     1      -8.227  17.630  -2.269  1.00  0.00    -0.014 A 
ATOM     77  C   UNL     1      -8.082  18.848  -2.956  1.00  0.00     0.010 A 
ATOM     78  C   UNL     1      -9.357  17.430  -1.456  1.00  0.00     0.010 A 
ATOM     79  C   UNL     1      -9.036  19.858  -2.809  1.00  0.00     0.020 A 
ATOM     80  C   UNL     1     -10.325  18.428  -1.326  1.00  0.00     0.020 A 
ATOM     81  C   UNL     1     -10.151  19.643  -1.993  1.00  0.00     0.054 A 
BRANCH  81  82
ATOM     82  S   UNL     1     -11.401  20.951  -1.853  1.00  0.00     0.124 S 
ATOM     83  O   UNL     1     -10.751  21.895  -0.949  1.00  0.00    -0.237 OA
ATOM     84  O   UNL     1     -11.551  21.404  -3.233  1.00  0.00    -0.237 OA
ATOM     85  O   UNL     1     -12.564  20.259  -1.301  1.00  0.00    -0.744 OA
ENDBRANCH  81  82
ENDBRANCH  55  76
ENDBRANCH  29  30
ENDBRANCH  22  24
ENDBRANCH  21  22
ENDBRANCH   1  21
TORSDOF 16
