REMARK SMILES O=C(OCCOC(=O)c1nccnc1C(=O)Nc1n[nH]c2ncccc12)c1ccc(-c2c3nc(c(-c4ccc(S(=O)(=O)[O-])cc4)c4ccc([nH]4)c(-c4ccc(S(=O)(=O)[O-])cc4)c4nc(c(-c5ccc(S(=O)(=O)[O-])cc5)c5ccc2[nH]5)C=C4)C=C3)cc1
REMARK SMILES IDX 4 1 3 2 2 3 1 4 27 5 28 6 86 7 29 8 85 9 30 10 31 11 32 12
REMARK SMILES IDX 79 13 33 14 84 15 78 16 80 17 34 18 83 19 77 20 76 21 35 23
REMARK SMILES IDX 65 24 46 25 64 26 47 27 50 28 63 29 81 30 48 31 49 32 62 34
REMARK SMILES IDX 82 35 51 36 36 37 37 38 45 39 38 40 44 41 39 42 40 43 41 44
REMARK SMILES IDX 42 45 43 46 66 47 67 48 75 49 68 50 74 51 69 52 70 53 71 54
REMARK SMILES IDX 72 55 73 56 52 57 53 58 61 59 54 60 60 61 55 62 56 63 57 64
REMARK SMILES IDX 58 65 59 66 5 67 6 68 7 69 8 70 9 71 10 72 14 73 11 74 13 75
REMARK SMILES IDX 12 76 15 77 16 78 17 79 18 81 19 82 26 83 20 84 21 85 25 86
REMARK SMILES IDX 22 88 24 89 23 90
REMARK H PARENT 80 22 50 33 17 80 20 87
REMARK Flexibility Score: inf
ROOT
ATOM      1  C   UNL     1       4.765   1.039  -0.381  1.00  0.00     0.275 C 
ENDROOT
BRANCH   1   2
ATOM      2  O   UNL     1       3.467   0.698  -1.074  1.00  0.00    -0.458 OA
BRANCH   2   3
ATOM      3  C   UNL     1       3.125   0.732  -2.407  1.00  0.00     0.338 C 
ATOM      4  O   UNL     1       2.854   1.744  -3.030  1.00  0.00    -0.246 OA
BRANCH   3   5
ATOM      5  C   UNL     1       2.934  -0.664  -2.978  1.00  0.00     0.060 A 
ATOM      6  C   UNL     1       2.470  -1.683  -2.171  1.00  0.00     0.016 A 
ATOM      7  C   UNL     1       3.328  -1.074  -4.234  1.00  0.00     0.016 A 
ATOM      8  C   UNL     1       2.991  -2.990  -2.296  1.00  0.00     0.010 A 
ATOM      9  C   UNL     1       3.663  -2.439  -4.433  1.00  0.00     0.010 A 
ATOM     10  C   UNL     1       3.812  -3.328  -3.346  1.00  0.00    -0.014 A 
BRANCH  10  11
ATOM     11  C   UNL     1       4.807  -4.496  -3.333  1.00  0.00     0.031 A 
ATOM     12  C   UNL     1       5.899  -4.477  -4.372  1.00  0.00     0.074 A 
ATOM     13  C   UNL     1       5.065  -5.443  -2.385  1.00  0.00     0.049 A 
ATOM     14  N   UNL     1       6.506  -5.461  -4.972  1.00  0.00    -0.248 NA
ATOM     15  C   UNL     1       6.380  -3.143  -4.774  1.00  0.00     0.031 C 
ATOM     16  C   UNL     1       4.696  -5.419  -0.978  1.00  0.00     0.029 A 
ATOM     17  N   UNL     1       5.733  -6.659  -2.478  1.00  0.00    -0.354 N 
ATOM     18  C   UNL     1       7.302  -4.859  -5.935  1.00  0.00     0.074 A 
ATOM     19  C   UNL     1       7.104  -3.433  -5.841  1.00  0.00     0.031 C 
ATOM     20  C   UNL     1       4.948  -6.606  -0.397  1.00  0.00     0.029 A 
ATOM     21  C   UNL     1       5.542  -7.489  -1.382  1.00  0.00     0.049 A 
ATOM     22  H   UNL     1       6.290  -6.908  -3.251  1.00  0.00     0.167 HD
ATOM     23  C   UNL     1       8.130  -5.450  -6.819  1.00  0.00     0.031 A 
ATOM     24  C   UNL     1       5.786  -8.807  -1.193  1.00  0.00     0.031 A 
ATOM     25  C   UNL     1       8.474  -6.840  -6.771  1.00  0.00     0.049 A 
ATOM     26  C   UNL     1       6.528  -9.543  -2.279  1.00  0.00     0.074 A 
ATOM     27  C   UNL     1       9.264  -7.561  -7.644  1.00  0.00     0.029 A 
ATOM     28  N   UNL     1       8.098  -7.703  -5.754  1.00  0.00    -0.354 N 
ATOM     29  N   UNL     1       7.063  -9.045  -3.368  1.00  0.00    -0.248 NA
ATOM     30  C   UNL     1       6.730 -10.990  -2.113  1.00  0.00     0.031 C 
ATOM     31  C   UNL     1       9.316  -8.881  -7.186  1.00  0.00     0.029 A 
ATOM     32  C   UNL     1       8.606  -8.963  -5.999  1.00  0.00     0.049 A 
ATOM     33  H   UNL     1       7.551  -7.454  -4.974  1.00  0.00     0.167 HD
ATOM     34  C   UNL     1       7.700 -10.107  -3.994  1.00  0.00     0.074 A 
ATOM     35  C   UNL     1       7.494 -11.273  -3.160  1.00  0.00     0.031 C 
ATOM     36  C   UNL     1       8.397 -10.110  -5.156  1.00  0.00     0.031 A 
BRANCH  23  37
ATOM     37  C   UNL     1       8.609  -4.617  -7.967  1.00  0.00    -0.014 A 
ATOM     38  C   UNL     1       9.599  -3.631  -7.838  1.00  0.00     0.010 A 
ATOM     39  C   UNL     1       8.021  -4.850  -9.225  1.00  0.00     0.010 A 
ATOM     40  C   UNL     1       9.983  -2.880  -8.952  1.00  0.00     0.020 A 
ATOM     41  C   UNL     1       8.425  -4.125 -10.344  1.00  0.00     0.020 A 
ATOM     42  C   UNL     1       9.399  -3.139 -10.198  1.00  0.00     0.054 A 
BRANCH  42  43
ATOM     43  S   UNL     1       9.970  -2.203 -11.641  1.00  0.00     0.124 S 
ATOM     44  O   UNL     1       9.399  -0.883 -11.388  1.00  0.00    -0.237 OA
ATOM     45  O   UNL     1      11.423  -2.293 -11.521  1.00  0.00    -0.237 OA
ATOM     46  O   UNL     1       9.394  -2.926 -12.772  1.00  0.00    -0.744 OA
ENDBRANCH  42  43
ENDBRANCH  23  37
BRANCH  24  47
ATOM     47  C   UNL     1       5.259  -9.555   0.000  1.00  0.00    -0.014 A 
ATOM     48  C   UNL     1       6.107 -10.219   0.908  1.00  0.00     0.010 A 
ATOM     49  C   UNL     1       3.867  -9.707   0.164  1.00  0.00     0.010 A 
ATOM     50  C   UNL     1       5.580 -11.041   1.919  1.00  0.00     0.020 A 
ATOM     51  C   UNL     1       3.335 -10.506   1.187  1.00  0.00     0.020 A 
ATOM     52  C   UNL     1       4.196 -11.186   2.046  1.00  0.00     0.054 A 
BRANCH  52  53
ATOM     53  S   UNL     1       3.532 -12.277   3.342  1.00  0.00     0.124 S 
ATOM     54  O   UNL     1       3.893 -13.600   2.842  1.00  0.00    -0.237 OA
ATOM     55  O   UNL     1       4.254 -11.831   4.531  1.00  0.00    -0.237 OA
ATOM     56  O   UNL     1       2.102 -11.978   3.340  1.00  0.00    -0.744 OA
ENDBRANCH  52  53
ENDBRANCH  24  47
BRANCH  36  57
ATOM     57  C   UNL     1       9.008 -11.408  -5.591  1.00  0.00    -0.014 A 
ATOM     58  C   UNL     1       8.205 -12.447  -6.090  1.00  0.00     0.010 A 
ATOM     59  C   UNL     1      10.406 -11.557  -5.574  1.00  0.00     0.010 A 
ATOM     60  C   UNL     1       8.792 -13.627  -6.547  1.00  0.00     0.020 A 
ATOM     61  C   UNL     1      10.997 -12.723  -6.058  1.00  0.00     0.020 A 
ATOM     62  C   UNL     1      10.184 -13.755  -6.531  1.00  0.00     0.054 A 
BRANCH  62  63
ATOM     63  S   UNL     1      10.921 -15.274  -7.189  1.00  0.00     0.124 S 
ATOM     64  O   UNL     1      10.609 -16.240  -6.140  1.00  0.00    -0.237 OA
ATOM     65  O   UNL     1      10.204 -15.457  -8.448  1.00  0.00    -0.237 OA
ATOM     66  O   UNL     1      12.337 -14.939  -7.328  1.00  0.00    -0.744 OA
ENDBRANCH  62  63
ENDBRANCH  36  57
ENDBRANCH  10  11
ENDBRANCH   3   5
ENDBRANCH   2   3
ENDBRANCH   1   2
BRANCH   1  67
ATOM     67  C   UNL     1       5.421   0.014   0.996  1.00  0.00     0.275 C 
BRANCH  67  68
ATOM     68  O   UNL     1       4.512  -1.570   1.933  1.00  0.00    -0.457 OA
BRANCH  68  69
ATOM     69  C   UNL     1       3.402  -2.482   2.269  1.00  0.00     0.359 C 
ATOM     70  O   UNL     1       3.285  -2.827   3.449  1.00  0.00    -0.244 OA
BRANCH  69  71
ATOM     71  C   UNL     1       2.360  -3.104   1.303  1.00  0.00     0.179 A 
ATOM     72  N   UNL     1       2.646  -4.452   1.180  1.00  0.00    -0.245 NA
ATOM     73  C   UNL     1       1.180  -2.618   0.703  1.00  0.00     0.161 A 
ATOM     74  C   UNL     1       1.827  -5.251   0.444  1.00  0.00     0.132 A 
ATOM     75  N   UNL     1       0.423  -3.463  -0.106  1.00  0.00    -0.247 NA
ATOM     76  C   UNL     1       0.748  -4.756  -0.227  1.00  0.00     0.132 A 
BRANCH  73  77
ATOM     77  C   UNL     1       0.445  -1.281   0.648  1.00  0.00     0.278 C 
ATOM     78  O   UNL     1      -0.739  -1.268   0.279  1.00  0.00    -0.267 OA
ATOM     79  N   UNL     1       0.933  -0.042   0.926  1.00  0.00    -0.303 N 
ATOM     80  H   UNL     1       0.355   0.718   0.686  1.00  0.00     0.172 HD
BRANCH  79  81
ATOM     81  C   UNL     1       2.112   0.263   1.491  1.00  0.00     0.164 A 
ATOM     82  N   UNL     1       2.067   1.051   2.576  1.00  0.00    -0.155 NA
ATOM     83  C   UNL     1       3.356  -0.299   1.200  1.00  0.00     0.063 A 
ATOM     84  N   UNL     1       3.128   0.748   3.363  1.00  0.00    -0.259 N 
ATOM     85  C   UNL     1       4.117   0.083   2.725  1.00  0.00     0.157 A 
ATOM     86  C   UNL     1       4.290  -1.446   0.077  1.00  0.00     0.017 A 
ATOM     87  H   UNL     1       3.175   0.991   4.316  1.00  0.00     0.192 HD
ATOM     88  N   UNL     1       5.601  -0.541   3.243  1.00  0.00    -0.237 NA
ATOM     89  C   UNL     1       5.833  -2.138   0.607  1.00  0.00     0.021 A 
ATOM     90  C   UNL     1       6.396  -1.641   2.163  1.00  0.00     0.113 A 
ENDBRANCH  79  81
ENDBRANCH  73  77
ENDBRANCH  69  71
ENDBRANCH  68  69
ENDBRANCH  67  68
ENDBRANCH   1  67
TORSDOF 16
