REMARK SMILES COc1cc2c(CC(=O)OCCOC(=O)c3ccc(-c4c5nc(c(-c6ccc(S(=O)(=O)[O-])cc6)c6ccc([nH]6)c(-c6ccc(S(=O)(=O)[O-])cc6)c6nc(c(-c7ccc(S(=O)(=O)[O-])cc7)c7ccc4[nH]7)C=C6)C=C5)cc3)c(C)n(C(=O)c3ccc(Cl)cc3)c2cc1Cl
REMARK SMILES IDX 11 1 10 2 8 3 9 4 7 5 6 6 3 7 4 8 90 9 5 10 89 11 91 12
REMARK SMILES IDX 88 13 76 14 78 15 77 16 2 17 1 18 79 19 80 20 81 21 82 22
REMARK SMILES IDX 87 23 83 24 86 25 84 26 85 27 12 28 13 29 14 30 15 31 16 32
REMARK SMILES IDX 17 33 75 34 18 35 74 36 19 37 20 38 21 39 68 40 22 41 73 42
REMARK SMILES IDX 67 43 69 44 23 45 72 46 66 47 65 48 24 50 54 51 35 52 53 53
REMARK SMILES IDX 36 54 39 55 52 56 70 57 37 58 38 59 51 61 71 62 40 63 25 64
REMARK SMILES IDX 26 65 34 66 27 67 33 68 28 69 29 70 30 71 31 72 32 73 55 74
REMARK SMILES IDX 56 75 64 76 57 77 63 78 58 79 59 80 60 81 61 82 62 83 41 84
REMARK SMILES IDX 42 85 50 86 43 87 49 88 44 89 45 90 46 91 47 92 48 93
REMARK H PARENT 69 49 39 60
REMARK Flexibility Score: inf
ROOT
ATOM      1  C   UNL     1      -1.578   0.782  -7.110  1.00  0.00     0.274 C 
ENDROOT
BRANCH   1   2
ATOM      2  O   UNL     1      -0.972   1.811  -6.293  1.00  0.00    -0.462 OA
BRANCH   2   3
ATOM      3  C   UNL     1      -1.785   2.852  -5.997  1.00  0.00     0.310 C 
ATOM      4  O   UNL     1      -2.955   2.929  -6.363  1.00  0.00    -0.252 OA
BRANCH   3   5
ATOM      5  C   UNL     1      -1.151   3.981  -5.235  1.00  0.00     0.160 C 
BRANCH   5   6
ATOM      6  C   UNL     1       0.272   3.912  -4.747  1.00  0.00    -0.008 A 
ATOM      7  C   UNL     1       1.338   1.268  -2.115  1.00  0.00     0.138 A 
ATOM      8  C   UNL     1       0.520   1.852  -3.104  1.00  0.00     0.058 A 
ATOM      9  C   UNL     1       2.593   1.805  -1.878  1.00  0.00     0.085 A 
ATOM     10  C   UNL     1       0.902   3.024  -3.811  1.00  0.00     0.008 A 
ATOM     11  C   UNL     1       2.994   2.960  -2.551  1.00  0.00     0.051 A 
ATOM     12  Cl  UNL     1       3.787   1.053  -0.878  1.00  0.00    -0.080 Cl
ATOM     13  C   UNL     1       2.176   3.541  -3.546  1.00  0.00     0.058 A 
ATOM     14  C   UNL     1       1.184   4.933  -5.003  1.00  0.00     0.028 A 
ATOM     15  N   UNL     1       2.410   4.592  -4.447  1.00  0.00    -0.280 N 
ATOM     16  C   UNL     1       0.924   6.200  -5.763  1.00  0.00     0.065 C 
BRANCH   7  17
ATOM     17  O   UNL     1       0.847   0.139  -1.509  1.00  0.00    -0.495 OA
ATOM     18  C   UNL     1       0.811   0.206  -0.080  1.00  0.00     0.278 C 
ENDBRANCH   7  17
BRANCH  15  19
ATOM     19  C   UNL     1       3.669   5.180  -4.749  1.00  0.00     0.262 C 
ATOM     20  O   UNL     1       3.739   6.097  -5.563  1.00  0.00    -0.268 OA
BRANCH  19  21
ATOM     21  C   UNL     1       4.942   4.728  -4.175  1.00  0.00     0.040 A 
ATOM     22  C   UNL     1       5.463   3.481  -4.539  1.00  0.00     0.015 A 
ATOM     23  C   UNL     1       5.542   5.508  -3.182  1.00  0.00     0.015 A 
ATOM     24  C   UNL     1       6.564   2.979  -3.847  1.00  0.00     0.021 A 
ATOM     25  C   UNL     1       6.647   5.001  -2.499  1.00  0.00     0.021 A 
ATOM     26  C   UNL     1       7.142   3.735  -2.824  1.00  0.00     0.041 A 
ATOM     27  Cl  UNL     1       8.460   3.084  -1.930  1.00  0.00    -0.084 Cl
ENDBRANCH  19  21
ENDBRANCH  15  19
ENDBRANCH   5   6
ENDBRANCH   3   5
ENDBRANCH   2   3
ENDBRANCH   1   2
BRANCH   1  28
ATOM     28  C   UNL     1      -1.947  -0.439  -6.263  1.00  0.00     0.275 C 
BRANCH  28  29
ATOM     29  O   UNL     1      -3.084  -0.119  -5.449  1.00  0.00    -0.458 OA
BRANCH  29  30
ATOM     30  C   UNL     1      -2.881  -0.034  -4.106  1.00  0.00     0.338 C 
ATOM     31  O   UNL     1      -1.992  -0.531  -3.464  1.00  0.00    -0.246 OA
BRANCH  30  32
ATOM     32  C   UNL     1      -3.739   1.089  -3.659  1.00  0.00     0.060 A 
ATOM     33  C   UNL     1      -5.024   1.257  -4.178  1.00  0.00     0.016 A 
ATOM     34  C   UNL     1      -3.115   2.117  -2.949  1.00  0.00     0.016 A 
ATOM     35  C   UNL     1      -5.602   2.519  -4.145  1.00  0.00     0.010 A 
ATOM     36  C   UNL     1      -3.673   3.384  -2.960  1.00  0.00     0.010 A 
ATOM     37  C   UNL     1      -4.878   3.597  -3.622  1.00  0.00    -0.014 A 
BRANCH  37  38
ATOM     38  C   UNL     1      -5.486   4.916  -3.587  1.00  0.00     0.031 A 
ATOM     39  C   UNL     1      -6.211   5.184  -2.331  1.00  0.00     0.074 A 
ATOM     40  C   UNL     1      -5.384   5.903  -4.495  1.00  0.00     0.049 A 
ATOM     41  N   UNL     1      -7.471   5.011  -2.125  1.00  0.00    -0.248 NA
ATOM     42  C   UNL     1      -5.435   5.521  -1.133  1.00  0.00     0.031 C 
ATOM     43  C   UNL     1      -4.484   6.048  -5.636  1.00  0.00     0.029 A 
ATOM     44  N   UNL     1      -6.094   7.066  -4.511  1.00  0.00    -0.354 N 
ATOM     45  C   UNL     1      -7.692   5.382  -0.808  1.00  0.00     0.074 A 
ATOM     46  C   UNL     1      -6.388   5.494  -0.201  1.00  0.00     0.031 C 
ATOM     47  C   UNL     1      -4.572   7.314  -6.118  1.00  0.00     0.029 A 
ATOM     48  C   UNL     1      -5.657   8.001  -5.433  1.00  0.00     0.049 A 
ATOM     49  H   UNL     1      -6.859   7.229  -3.913  1.00  0.00     0.167 HD
ATOM     50  C   UNL     1      -8.923   5.766  -0.373  1.00  0.00     0.031 A 
ATOM     51  C   UNL     1      -6.156   9.251  -5.594  1.00  0.00     0.031 A 
ATOM     52  C   UNL     1      -9.934   5.531  -1.375  1.00  0.00     0.049 A 
ATOM     53  C   UNL     1      -7.545   9.241  -5.067  1.00  0.00     0.074 A 
ATOM     54  C   UNL     1     -10.435   4.413  -2.010  1.00  0.00     0.029 A 
ATOM     55  N   UNL     1     -10.301   6.611  -2.145  1.00  0.00    -0.354 N 
ATOM     56  N   UNL     1      -8.521   8.564  -5.609  1.00  0.00    -0.248 NA
ATOM     57  C   UNL     1      -7.784   9.690  -3.704  1.00  0.00     0.031 C 
ATOM     58  C   UNL     1     -10.701   4.832  -3.345  1.00  0.00     0.029 A 
ATOM     59  C   UNL     1     -10.390   6.191  -3.447  1.00  0.00     0.049 A 
ATOM     60  H   UNL     1     -10.470   7.524  -1.818  1.00  0.00     0.167 HD
ATOM     61  C   UNL     1      -9.306   8.150  -4.542  1.00  0.00     0.074 A 
ATOM     62  C   UNL     1      -8.872   8.970  -3.416  1.00  0.00     0.031 C 
ATOM     63  C   UNL     1     -10.043   7.002  -4.603  1.00  0.00     0.031 A 
BRANCH  50  64
ATOM     64  C   UNL     1      -9.173   6.665   0.807  1.00  0.00    -0.014 A 
ATOM     65  C   UNL     1      -8.170   7.431   1.432  1.00  0.00     0.010 A 
ATOM     66  C   UNL     1     -10.507   6.941   1.171  1.00  0.00     0.010 A 
ATOM     67  C   UNL     1      -8.470   8.422   2.366  1.00  0.00     0.020 A 
ATOM     68  C   UNL     1     -10.823   7.967   2.069  1.00  0.00     0.020 A 
ATOM     69  C   UNL     1      -9.799   8.701   2.661  1.00  0.00     0.054 A 
BRANCH  69  70
ATOM     70  S   UNL     1     -10.151  10.102   3.746  1.00  0.00     0.124 S 
ATOM     71  O   UNL     1      -9.710   9.595   5.043  1.00  0.00    -0.237 OA
ATOM     72  O   UNL     1      -9.326  11.159   3.168  1.00  0.00    -0.237 OA
ATOM     73  O   UNL     1     -11.593  10.291   3.604  1.00  0.00    -0.744 OA
ENDBRANCH  69  70
ENDBRANCH  50  64
BRANCH  51  74
ATOM     74  C   UNL     1      -5.392  10.509  -5.785  1.00  0.00    -0.014 A 
ATOM     75  C   UNL     1      -4.061  10.596  -5.329  1.00  0.00     0.010 A 
ATOM     76  C   UNL     1      -6.058  11.707  -6.108  1.00  0.00     0.010 A 
ATOM     77  C   UNL     1      -3.448  11.835  -5.114  1.00  0.00     0.020 A 
ATOM     78  C   UNL     1      -5.449  12.955  -5.892  1.00  0.00     0.020 A 
ATOM     79  C   UNL     1      -4.161  13.008  -5.357  1.00  0.00     0.054 A 
BRANCH  79  80
ATOM     80  S   UNL     1      -3.408  14.587  -4.869  1.00  0.00     0.124 S 
ATOM     81  O   UNL     1      -3.389  14.476  -3.413  1.00  0.00    -0.237 OA
ATOM     82  O   UNL     1      -2.100  14.527  -5.518  1.00  0.00    -0.237 OA
ATOM     83  O   UNL     1      -4.322  15.590  -5.409  1.00  0.00    -0.744 OA
ENDBRANCH  79  80
ENDBRANCH  51  74
BRANCH  63  84
ATOM     84  C   UNL     1     -10.288   6.353  -5.949  1.00  0.00    -0.014 A 
ATOM     85  C   UNL     1     -11.620   6.030  -6.274  1.00  0.00     0.010 A 
ATOM     86  C   UNL     1      -9.258   5.859  -6.773  1.00  0.00     0.010 A 
ATOM     87  C   UNL     1     -11.916   5.189  -7.348  1.00  0.00     0.020 A 
ATOM     88  C   UNL     1      -9.551   5.034  -7.871  1.00  0.00     0.020 A 
ATOM     89  C   UNL     1     -10.878   4.677  -8.129  1.00  0.00     0.054 A 
BRANCH  89  90
ATOM     90  S   UNL     1     -11.296   3.502  -9.446  1.00  0.00     0.124 S 
ATOM     91  O   UNL     1     -11.646   2.301  -8.690  1.00  0.00    -0.237 OA
ATOM     92  O   UNL     1     -12.414   4.157 -10.123  1.00  0.00    -0.237 OA
ATOM     93  O   UNL     1     -10.071   3.403 -10.236  1.00  0.00    -0.744 OA
ENDBRANCH  89  90
ENDBRANCH  63  84
ENDBRANCH  37  38
ENDBRANCH  30  32
ENDBRANCH  29  30
ENDBRANCH  28  29
ENDBRANCH   1  28
TORSDOF 18
