REMARK SMILES COc1cccc(NC(=O)[C@@H]2[C@@H](C(=O)OCCOC(=O)c3ccc(-c4c5nc(c(-c6ccc(S(=O)(=O)[O-])cc6)c6ccc([nH]6)c(-c6ccc(S(=O)(=O)[O-])cc6)c6nc(c(-c7ccc(S(=O)(=O)[O-])cc7)c7ccc4[nH]7)C=C6)C=C5)cc3)[C@H]3C=C[C@@H]2C3)c1
REMARK SMILES IDX 16 1 15 2 13 3 14 4 12 5 11 6 84 7 81 8 83 9 85 10 82 11
REMARK SMILES IDX 9 12 8 13 10 15 7 16 3 17 4 18 86 19 5 20 6 21 2 22 1 23
REMARK SMILES IDX 17 24 18 25 19 26 20 27 21 28 22 29 80 30 23 31 79 32 24 33
REMARK SMILES IDX 25 34 26 35 73 36 27 37 78 38 72 39 74 40 28 41 77 42 71 43
REMARK SMILES IDX 70 44 29 46 59 47 40 48 58 49 41 50 44 51 57 52 75 53 42 54
REMARK SMILES IDX 43 55 56 57 76 58 45 59 30 60 31 61 39 62 32 63 38 64 33 65
REMARK SMILES IDX 34 66 35 67 36 68 37 69 60 70 61 71 69 72 62 73 68 74 63 75
REMARK SMILES IDX 64 76 65 77 66 78 67 79 46 80 47 81 55 82 48 83 54 84 49 85
REMARK SMILES IDX 50 86 51 87 52 88 53 89
REMARK H PARENT 8 14 74 45 44 56
REMARK Flexibility Score: inf
ROOT
ATOM      1  C   UNL     1      -1.003  -5.157   3.651  1.00  0.00     0.274 C 
ENDROOT
BRANCH   1   2
ATOM      2  O   UNL     1       0.424  -5.167   3.392  1.00  0.00    -0.462 OA
BRANCH   2   3
ATOM      3  C   UNL     1       1.163  -5.997   4.174  1.00  0.00     0.310 C 
ATOM      4  O   UNL     1       0.652  -6.769   4.978  1.00  0.00    -0.252 OA
BRANCH   3   5
ATOM      5  C   UNL     1       2.675  -5.757   4.058  1.00  0.00     0.119 C 
ATOM      6  C   UNL     1       3.453  -6.162   2.746  1.00  0.00     0.100 C 
ATOM      7  C   UNL     1       4.499  -7.202   3.305  1.00  0.00     0.025 C 
ATOM      8  C   UNL     1       3.385  -6.631   5.147  1.00  0.00     0.027 C 
ATOM      9  C   UNL     1       3.809  -8.440   3.788  1.00  0.00    -0.027 C 
ATOM     10  C   UNL     1       4.834  -6.588   4.676  1.00  0.00     0.017 C 
ATOM     11  C   UNL     1       3.139  -8.107   4.897  1.00  0.00    -0.027 C 
BRANCH   6  12
ATOM     12  C   UNL     1       4.323  -5.053   2.118  1.00  0.00     0.228 C 
ATOM     13  N   UNL     1       3.882  -3.849   1.697  1.00  0.00    -0.326 N 
ATOM     14  H   UNL     1       4.615  -3.203   1.577  1.00  0.00     0.169 HD
ATOM     15  O   UNL     1       5.551  -5.188   2.011  1.00  0.00    -0.274 OA
BRANCH  13  16
ATOM     16  C   UNL     1       2.640  -3.301   1.393  1.00  0.00     0.044 A 
ATOM     17  C   UNL     1       1.357  -1.276   1.079  1.00  0.00     0.120 A 
ATOM     18  C   UNL     1       0.215  -2.025   0.830  1.00  0.00     0.046 A 
ATOM     19  C   UNL     1       2.564  -1.903   1.367  1.00  0.00     0.072 A 
ATOM     20  C   UNL     1       0.319  -3.409   0.756  1.00  0.00     0.006 A 
ATOM     21  C   UNL     1       1.530  -4.051   1.034  1.00  0.00     0.026 A 
BRANCH  17  22
ATOM     22  O   UNL     1       1.303   0.090   1.077  1.00  0.00    -0.497 OA
ATOM     23  C   UNL     1       1.210   0.573  -0.265  1.00  0.00     0.278 C 
ENDBRANCH  17  22
ENDBRANCH  13  16
ENDBRANCH   6  12
ENDBRANCH   3   5
ENDBRANCH   2   3
ENDBRANCH   1   2
BRANCH   1  24
ATOM     24  C   UNL     1      -1.816  -5.832   2.546  1.00  0.00     0.275 C 
BRANCH  24  25
ATOM     25  O   UNL     1      -1.280  -7.129   2.273  1.00  0.00    -0.458 OA
BRANCH  25  26
ATOM     26  C   UNL     1      -0.836  -7.358   1.014  1.00  0.00     0.338 C 
ATOM     27  O   UNL     1      -0.944  -6.634   0.043  1.00  0.00    -0.246 OA
BRANCH  26  28
ATOM     28  C   UNL     1      -0.161  -8.668   1.011  1.00  0.00     0.060 A 
ATOM     29  C   UNL     1       0.705  -8.987   2.055  1.00  0.00     0.016 A 
ATOM     30  C   UNL     1      -0.370  -9.576  -0.026  1.00  0.00     0.016 A 
ATOM     31  C   UNL     1       1.364 -10.207   2.062  1.00  0.00     0.010 A 
ATOM     32  C   UNL     1       0.242 -10.835   0.026  1.00  0.00     0.010 A 
ATOM     33  C   UNL     1       1.118 -11.164   1.075  1.00  0.00    -0.014 A 
BRANCH  33  34
ATOM     34  C   UNL     1       1.791 -12.489   1.157  1.00  0.00     0.031 A 
ATOM     35  C   UNL     1       2.653 -12.965   0.020  1.00  0.00     0.074 A 
ATOM     36  C   UNL     1       1.662 -13.253   2.263  1.00  0.00     0.049 A 
ATOM     37  N   UNL     1       3.147 -14.155  -0.198  1.00  0.00    -0.248 NA
ATOM     38  C   UNL     1       2.997 -11.973  -1.011  1.00  0.00     0.031 C 
ATOM     39  C   UNL     1       0.935 -12.877   3.480  1.00  0.00     0.029 A 
ATOM     40  N   UNL     1       2.155 -14.502   2.554  1.00  0.00    -0.354 N 
ATOM     41  C   UNL     1       3.800 -14.075  -1.423  1.00  0.00     0.074 A 
ATOM     42  C   UNL     1       3.649 -12.716  -1.895  1.00  0.00     0.031 C 
ATOM     43  C   UNL     1       1.074 -13.845   4.398  1.00  0.00     0.029 A 
ATOM     44  C   UNL     1       1.789 -14.963   3.797  1.00  0.00     0.049 A 
ATOM     45  H   UNL     1       2.717 -15.018   1.931  1.00  0.00     0.167 HD
ATOM     46  C   UNL     1       4.452 -15.055  -2.094  1.00  0.00     0.031 A 
ATOM     47  C   UNL     1       1.947 -16.171   4.373  1.00  0.00     0.031 A 
ATOM     48  C   UNL     1       4.622 -16.393  -1.591  1.00  0.00     0.049 A 
ATOM     49  C   UNL     1       2.610 -17.262   3.581  1.00  0.00     0.074 A 
ATOM     50  C   UNL     1       5.247 -17.469  -2.198  1.00  0.00     0.029 A 
ATOM     51  N   UNL     1       4.180 -16.835  -0.352  1.00  0.00    -0.354 N 
ATOM     52  N   UNL     1       3.135 -17.203   2.380  1.00  0.00    -0.248 NA
ATOM     53  C   UNL     1       2.676 -18.588   4.208  1.00  0.00     0.031 C 
ATOM     54  C   UNL     1       5.138 -18.574  -1.347  1.00  0.00     0.029 A 
ATOM     55  C   UNL     1       4.502 -18.171  -0.183  1.00  0.00     0.049 A 
ATOM     56  H   UNL     1       3.707 -16.280   0.309  1.00  0.00     0.167 HD
ATOM     57  C   UNL     1       3.605 -18.483   2.111  1.00  0.00     0.074 A 
ATOM     58  C   UNL     1       3.323 -19.286   3.285  1.00  0.00     0.031 C 
ATOM     59  C   UNL     1       4.210 -18.953   0.993  1.00  0.00     0.031 A 
BRANCH  46  60
ATOM     60  C   UNL     1       4.963 -14.735  -3.475  1.00  0.00    -0.014 A 
ATOM     61  C   UNL     1       6.069 -13.893  -3.684  1.00  0.00     0.010 A 
ATOM     62  C   UNL     1       4.332 -15.321  -4.589  1.00  0.00     0.010 A 
ATOM     63  C   UNL     1       6.508 -13.611  -4.982  1.00  0.00     0.020 A 
ATOM     64  C   UNL     1       4.785 -15.065  -5.886  1.00  0.00     0.020 A 
ATOM     65  C   UNL     1       5.860 -14.197  -6.075  1.00  0.00     0.054 A 
BRANCH  65  66
ATOM     66  S   UNL     1       6.459 -13.828  -7.747  1.00  0.00     0.124 S 
ATOM     67  O   UNL     1       6.015 -12.448  -7.928  1.00  0.00    -0.237 OA
ATOM     68  O   UNL     1       7.902 -14.011  -7.619  1.00  0.00    -0.237 OA
ATOM     69  O   UNL     1       5.780 -14.814  -8.585  1.00  0.00    -0.744 OA
ENDBRANCH  65  66
ENDBRANCH  46  60
BRANCH  47  70
ATOM     70  C   UNL     1       1.390 -16.430   5.731  1.00  0.00    -0.014 A 
ATOM     71  C   UNL     1       2.236 -16.690   6.822  1.00  0.00     0.010 A 
ATOM     72  C   UNL     1      -0.002 -16.401   5.942  1.00  0.00     0.010 A 
ATOM     73  C   UNL     1       1.702 -16.921   8.095  1.00  0.00     0.020 A 
ATOM     74  C   UNL     1      -0.538 -16.595   7.218  1.00  0.00     0.020 A 
ATOM     75  C   UNL     1       0.318 -16.866   8.285  1.00  0.00     0.054 A 
BRANCH  75  76
ATOM     76  S   UNL     1      -0.352 -17.108   9.954  1.00  0.00     0.124 S 
ATOM     77  O   UNL     1      -0.196 -18.547  10.138  1.00  0.00    -0.237 OA
ATOM     78  O   UNL     1       0.519 -16.266  10.770  1.00  0.00    -0.237 OA
ATOM     79  O   UNL     1      -1.731 -16.637   9.840  1.00  0.00    -0.744 OA
ENDBRANCH  75  76
ENDBRANCH  47  70
BRANCH  59  80
ATOM     80  C   UNL     1       4.643 -20.393   1.001  1.00  0.00    -0.014 A 
ATOM     81  C   UNL     1       3.706 -21.437   0.906  1.00  0.00     0.010 A 
ATOM     82  C   UNL     1       6.014 -20.702   1.059  1.00  0.00     0.010 A 
ATOM     83  C   UNL     1       4.133 -22.768   0.901  1.00  0.00     0.020 A 
ATOM     84  C   UNL     1       6.446 -22.029   1.026  1.00  0.00     0.020 A 
ATOM     85  C   UNL     1       5.501 -23.055   0.961  1.00  0.00     0.054 A 
BRANCH  85  86
ATOM     86  S   UNL     1       6.032 -24.788   0.912  1.00  0.00     0.124 S 
ATOM     87  O   UNL     1       5.663 -25.256   2.245  1.00  0.00    -0.237 OA
ATOM     88  O   UNL     1       5.240 -25.334  -0.187  1.00  0.00    -0.237 OA
ATOM     89  O   UNL     1       7.468 -24.703   0.656  1.00  0.00    -0.744 OA
ENDBRANCH  85  86
ENDBRANCH  59  80
ENDBRANCH  33  34
ENDBRANCH  26  28
ENDBRANCH  25  26
ENDBRANCH  24  25
ENDBRANCH   1  24
TORSDOF 17
