REMARK SMILES [NH3+][C@H]1C=C[C@@H](C(=O)NC2(CC(=O)OCCOC(=O)c3ccc(-c4c5nc(c(-c6ccc(S(=O)(=O)[O-])cc6)c6ccc([nH]6)c(-c6ccc(S(=O)(=O)[O-])cc6)c6nc(c(-c7ccc(S(=O)(=O)[O-])cc7)c7ccc4[nH]7)C=C6)C=C5)cc3)CCC2)C1
REMARK SMILES IDX 14 1 13 2 11 3 12 4 10 5 9 6 79 7 81 8 80 9 8 10 6 11 7 12
REMARK SMILES IDX 5 14 2 15 3 16 82 17 4 18 1 19 15 23 16 24 17 25 18 26 19 27
REMARK SMILES IDX 20 28 78 29 21 30 77 31 22 32 23 33 24 34 71 35 25 36 76 37
REMARK SMILES IDX 70 38 72 39 26 40 75 41 69 42 68 43 27 45 57 46 38 47 56 48
REMARK SMILES IDX 39 49 42 50 55 51 73 52 40 53 41 54 54 56 74 57 43 58 28 59
REMARK SMILES IDX 29 60 37 61 30 62 36 63 31 64 32 65 33 66 34 67 35 68 58 69
REMARK SMILES IDX 59 70 67 71 60 72 66 73 61 74 62 75 63 76 64 77 65 78 44 79
REMARK SMILES IDX 45 80 53 81 46 82 52 83 47 84 48 85 49 86 50 87 51 88
REMARK H PARENT 8 13 1 20 1 21 1 22 72 44 42 55
REMARK Flexibility Score: inf
ROOT
ATOM      1  C   UNL     1       2.520  -4.295   0.379  1.00  0.00     0.274 C 
ENDROOT
BRANCH   1   2
ATOM      2  O   UNL     1       3.086  -3.109  -0.219  1.00  0.00    -0.462 OA
BRANCH   2   3
ATOM      3  C   UNL     1       4.433  -2.999  -0.117  1.00  0.00     0.308 C 
ATOM      4  O   UNL     1       5.149  -3.775   0.508  1.00  0.00    -0.252 OA
BRANCH   3   5
ATOM      5  C   UNL     1       5.019  -1.820  -0.845  1.00  0.00     0.151 C 
BRANCH   5   6
ATOM      6  C   UNL     1       4.105  -0.918  -1.694  1.00  0.00     0.051 C 
ATOM      7  C   UNL     1       4.890   0.352  -2.184  1.00  0.00     0.029 C 
ATOM      8  C   UNL     1       3.247   0.061  -0.870  1.00  0.00     0.029 C 
ATOM      9  C   UNL     1       4.398   1.082  -0.926  1.00  0.00     0.005 C 
BRANCH   6  10
ATOM     10  N   UNL     1       3.604  -1.645  -2.882  1.00  0.00    -0.350 N 
ATOM     11  C   UNL     1       2.488  -1.681  -3.654  1.00  0.00     0.227 C 
ATOM     12  O   UNL     1       2.662  -2.205  -4.766  1.00  0.00    -0.274 OA
ATOM     13  H   UNL     1       4.274  -2.290  -3.205  1.00  0.00     0.164 HD
BRANCH  11  14
ATOM     14  C   UNL     1       1.103  -1.125  -3.333  1.00  0.00     0.107 C 
ATOM     15  C   UNL     1      -0.393  -0.247  -1.623  1.00  0.00     0.205 C 
ATOM     16  C   UNL     1       0.123   0.837  -2.514  1.00  0.00     0.033 C 
ATOM     17  C   UNL     1       0.496  -1.455  -1.972  1.00  0.00     0.087 C 
ATOM     18  C   UNL     1       0.959   0.362  -3.447  1.00  0.00    -0.012 C 
BRANCH  15  19
ATOM     19  N   UNL     1      -0.310   0.123  -0.218  1.00  0.00    -0.352 N 
ATOM     20  H   UNL     1      -0.915   0.924  -0.041  1.00  0.00     0.345 HD
ATOM     21  H   UNL     1       0.653   0.366   0.013  1.00  0.00     0.345 HD
ATOM     22  H   UNL     1      -0.610  -0.663   0.358  1.00  0.00     0.345 HD
ENDBRANCH  15  19
ENDBRANCH  11  14
ENDBRANCH   6  10
ENDBRANCH   5   6
ENDBRANCH   3   5
ENDBRANCH   2   3
ENDBRANCH   1   2
BRANCH   1  23
ATOM     23  C   UNL     1       2.251  -5.356  -0.685  1.00  0.00     0.275 C 
BRANCH  23  24
ATOM     24  O   UNL     1       3.458  -5.617  -1.419  1.00  0.00    -0.458 OA
BRANCH  24  25
ATOM     25  C   UNL     1       3.355  -5.514  -2.765  1.00  0.00     0.338 C 
ATOM     26  O   UNL     1       2.341  -5.307  -3.408  1.00  0.00    -0.246 OA
BRANCH  25  27
ATOM     27  C   UNL     1       4.682  -5.723  -3.374  1.00  0.00     0.060 A 
ATOM     28  C   UNL     1       5.779  -4.958  -2.974  1.00  0.00     0.016 A 
ATOM     29  C   UNL     1       4.818  -6.656  -4.401  1.00  0.00     0.016 A 
ATOM     30  C   UNL     1       7.003  -5.087  -3.630  1.00  0.00     0.010 A 
ATOM     31  C   UNL     1       6.065  -6.841  -5.005  1.00  0.00     0.010 A 
ATOM     32  C   UNL     1       7.166  -6.046  -4.638  1.00  0.00    -0.014 A 
BRANCH  32  33
ATOM     33  C   UNL     1       8.479  -6.234  -5.310  1.00  0.00     0.031 A 
ATOM     34  C   UNL     1       8.614  -5.988  -6.789  1.00  0.00     0.074 A 
ATOM     35  C   UNL     1       9.544  -6.657  -4.599  1.00  0.00     0.049 A 
ATOM     36  N   UNL     1       9.615  -6.267  -7.584  1.00  0.00    -0.248 NA
ATOM     37  C   UNL     1       7.470  -5.351  -7.463  1.00  0.00     0.031 C 
ATOM     38  C   UNL     1       9.562  -6.894  -3.153  1.00  0.00     0.029 A 
ATOM     39  N   UNL     1      10.820  -6.971  -5.000  1.00  0.00    -0.354 N 
ATOM     40  C   UNL     1       9.211  -5.875  -8.855  1.00  0.00     0.074 A 
ATOM     41  C   UNL     1       7.870  -5.345  -8.728  1.00  0.00     0.031 C 
ATOM     42  C   UNL     1      10.787  -7.304  -2.789  1.00  0.00     0.029 A 
ATOM     43  C   UNL     1      11.619  -7.431  -3.980  1.00  0.00     0.049 A 
ATOM     44  H   UNL     1      11.132  -6.878  -5.929  1.00  0.00     0.167 HD
ATOM     45  C   UNL     1       9.895  -5.955 -10.023  1.00  0.00     0.031 A 
ATOM     46  C   UNL     1      12.866  -7.941  -4.001  1.00  0.00     0.031 A 
ATOM     47  C   UNL     1      11.233  -6.471 -10.142  1.00  0.00     0.049 A 
ATOM     48  C   UNL     1      13.581  -8.074  -5.316  1.00  0.00     0.074 A 
ATOM     49  C   UNL     1      12.011  -6.592 -11.281  1.00  0.00     0.029 A 
ATOM     50  N   UNL     1      11.996  -6.946  -9.086  1.00  0.00    -0.354 N 
ATOM     51  N   UNL     1      13.171  -7.730  -6.514  1.00  0.00    -0.248 NA
ATOM     52  C   UNL     1      14.922  -8.674  -5.285  1.00  0.00     0.031 C 
ATOM     53  C   UNL     1      13.230  -7.176 -10.919  1.00  0.00     0.029 A 
ATOM     54  C   UNL     1      13.229  -7.373  -9.548  1.00  0.00     0.049 A 
ATOM     55  H   UNL     1      11.704  -6.974  -8.146  1.00  0.00     0.167 HD
ATOM     56  C   UNL     1      14.210  -8.059  -7.376  1.00  0.00     0.074 A 
ATOM     57  C   UNL     1      15.273  -8.611  -6.562  1.00  0.00     0.031 C 
ATOM     58  C   UNL     1      14.276  -7.919  -8.723  1.00  0.00     0.031 A 
BRANCH  45  59
ATOM     59  C   UNL     1       9.196  -5.501 -11.276  1.00  0.00    -0.014 A 
ATOM     60  C   UNL     1       9.005  -4.135 -11.551  1.00  0.00     0.010 A 
ATOM     61  C   UNL     1       8.775  -6.455 -12.221  1.00  0.00     0.010 A 
ATOM     62  C   UNL     1       8.381  -3.733 -12.736  1.00  0.00     0.020 A 
ATOM     63  C   UNL     1       8.170  -6.056 -13.417  1.00  0.00     0.020 A 
ATOM     64  C   UNL     1       7.965  -4.697 -13.661  1.00  0.00     0.054 A 
BRANCH  64  65
ATOM     65  S   UNL     1       7.192  -4.148 -15.208  1.00  0.00     0.124 S 
ATOM     66  O   UNL     1       5.863  -3.746 -14.754  1.00  0.00    -0.237 OA
ATOM     67  O   UNL     1       8.065  -3.057 -15.635  1.00  0.00    -0.237 OA
ATOM     68  O   UNL     1       7.228  -5.337 -16.055  1.00  0.00    -0.744 OA
ENDBRANCH  64  65
ENDBRANCH  45  59
BRANCH  46  69
ATOM     69  C   UNL     1      13.499  -8.413  -2.739  1.00  0.00    -0.014 A 
ATOM     70  C   UNL     1      14.581  -7.715  -2.176  1.00  0.00     0.010 A 
ATOM     71  C   UNL     1      13.016  -9.566  -2.092  1.00  0.00     0.010 A 
ATOM     72  C   UNL     1      15.179  -8.171  -0.997  1.00  0.00     0.020 A 
ATOM     73  C   UNL     1      13.593 -10.008  -0.899  1.00  0.00     0.020 A 
ATOM     74  C   UNL     1      14.681  -9.315  -0.367  1.00  0.00     0.054 A 
BRANCH  74  75
ATOM     75  S   UNL     1      15.440  -9.864   1.188  1.00  0.00     0.124 S 
ATOM     76  O   UNL     1      16.655 -10.520   0.716  1.00  0.00    -0.237 OA
ATOM     77  O   UNL     1      15.637  -8.608   1.908  1.00  0.00    -0.237 OA
ATOM     78  O   UNL     1      14.430 -10.750   1.764  1.00  0.00    -0.744 OA
ENDBRANCH  74  75
ENDBRANCH  46  69
BRANCH  58  79
ATOM     79  C   UNL     1      15.554  -8.338  -9.395  1.00  0.00    -0.014 A 
ATOM     80  C   UNL     1      15.864  -9.697  -9.582  1.00  0.00     0.010 A 
ATOM     81  C   UNL     1      16.434  -7.357  -9.884  1.00  0.00     0.010 A 
ATOM     82  C   UNL     1      17.048 -10.067 -10.224  1.00  0.00     0.020 A 
ATOM     83  C   UNL     1      17.608  -7.723 -10.546  1.00  0.00     0.020 A 
ATOM     84  C   UNL     1      17.915  -9.077 -10.700  1.00  0.00     0.054 A 
BRANCH  84  85
ATOM     85  S   UNL     1      19.426  -9.580 -11.568  1.00  0.00     0.124 S 
ATOM     86  O   UNL     1      20.286  -9.996 -10.463  1.00  0.00    -0.237 OA
ATOM     87  O   UNL     1      18.956 -10.655 -12.438  1.00  0.00    -0.237 OA
ATOM     88  O   UNL     1      19.846  -8.365 -12.262  1.00  0.00    -0.744 OA
ENDBRANCH  84  85
ENDBRANCH  58  79
ENDBRANCH  32  33
ENDBRANCH  25  27
ENDBRANCH  24  25
ENDBRANCH  23  24
ENDBRANCH   1  23
TORSDOF 18
