REMARK SMILES CCC[C@@H](C)[C@H](NS(=O)(=O)c1ccc(C)c(C)c1)C(=O)OCCOC(=O)c1ccc(-c2c3nc(c(-c4ccc(S(=O)(=O)[O-])cc4)c4ccc([nH]4)c(-c4ccc(S(=O)(=O)[O-])cc4)c4nc(c(-c5ccc(S(=O)(=O)[O-])cc5)c5ccc2[nH]5)C=C4)C=C3)cc1
REMARK SMILES IDX 22 1 21 2 19 3 20 4 6 5 4 6 5 7 3 8 2 9 1 10 7 11 8 13 9 14
REMARK SMILES IDX 10 15 11 16 12 17 18 18 13 19 16 20 14 21 17 22 15 23 23 24
REMARK SMILES IDX 24 25 25 26 26 27 27 28 28 29 86 30 29 31 85 32 30 33 31 34
REMARK SMILES IDX 32 35 79 36 33 37 84 38 78 39 80 40 34 41 83 42 77 43 76 44
REMARK SMILES IDX 35 46 65 47 46 48 64 49 47 50 50 51 63 52 81 53 48 54 49 55
REMARK SMILES IDX 62 57 82 58 51 59 36 60 37 61 45 62 38 63 44 64 39 65 40 66
REMARK SMILES IDX 41 67 42 68 43 69 66 70 67 71 75 72 68 73 74 74 69 75 70 76
REMARK SMILES IDX 71 77 72 78 73 79 52 80 53 81 61 82 54 83 60 84 55 85 56 86
REMARK SMILES IDX 57 87 58 88 59 89
REMARK H PARENT 7 12 80 45 50 56
REMARK Flexibility Score: inf
ROOT
ATOM      1  C   UNL     1       1.178   1.480  -7.279  1.00  0.00     0.274 C 
ENDROOT
BRANCH   1   2
ATOM      2  O   UNL     1       1.129   1.168  -5.875  1.00  0.00    -0.461 OA
BRANCH   2   3
ATOM      3  C   UNL     1       1.312   2.222  -5.036  1.00  0.00     0.324 C 
ATOM      4  O   UNL     1       1.568   3.359  -5.426  1.00  0.00    -0.250 OA
BRANCH   3   5
ATOM      5  C   UNL     1       1.331   1.844  -3.559  1.00  0.00     0.182 C 
BRANCH   5   6
ATOM      6  C   UNL     1       2.842   1.934  -3.163  1.00  0.00     0.015 C 
ATOM      7  C   UNL     1       3.655   0.720  -3.627  1.00  0.00     0.010 C 
BRANCH   6   8
ATOM      8  C   UNL     1       3.059   2.259  -1.672  1.00  0.00     0.005 C 
BRANCH   8   9
ATOM      9  C   UNL     1       4.510   2.625  -1.303  1.00  0.00    -0.003 C 
ATOM     10  C   UNL     1       5.080   3.808  -2.080  1.00  0.00     0.004 C 
ENDBRANCH   8   9
ENDBRANCH   6   8
ENDBRANCH   5   6
BRANCH   5  11
ATOM     11  N   UNL     1       0.722   0.524  -3.176  1.00  0.00    -0.197 NA
ATOM     12  H   UNL     1       1.354   0.084  -2.508  1.00  0.00     0.142 HD
BRANCH  11  13
ATOM     13  S   UNL     1      -0.837   0.514  -2.476  1.00  0.00     0.241 S 
ATOM     14  O   UNL     1      -0.686  -0.387  -1.349  1.00  0.00    -0.207 OA
ATOM     15  O   UNL     1      -1.279   1.875  -2.289  1.00  0.00    -0.207 OA
BRANCH  13  16
ATOM     16  C   UNL     1      -1.950  -0.297  -3.604  1.00  0.00     0.082 A 
ATOM     17  C   UNL     1      -1.639  -0.431  -4.947  1.00  0.00     0.022 A 
ATOM     18  C   UNL     1      -3.195  -0.748  -3.146  1.00  0.00     0.025 A 
ATOM     19  C   UNL     1      -2.642  -0.748  -5.864  1.00  0.00     0.005 A 
ATOM     20  C   UNL     1      -4.176  -1.196  -4.059  1.00  0.00    -0.047 A 
ATOM     21  C   UNL     1      -3.936  -1.062  -5.438  1.00  0.00    -0.048 A 
ATOM     22  C   UNL     1      -5.447  -1.792  -3.521  1.00  0.00     0.044 C 
ATOM     23  C   UNL     1      -5.005  -1.240  -6.481  1.00  0.00     0.044 C 
ENDBRANCH  13  16
ENDBRANCH  11  13
ENDBRANCH   5  11
ENDBRANCH   3   5
ENDBRANCH   2   3
ENDBRANCH   1   2
BRANCH   1  24
ATOM     24  C   UNL     1      -0.184   1.887  -7.859  1.00  0.00     0.275 C 
BRANCH  24  25
ATOM     25  O   UNL     1      -0.657   3.172  -7.409  1.00  0.00    -0.458 OA
BRANCH  25  26
ATOM     26  C   UNL     1      -1.331   3.131  -6.240  1.00  0.00     0.338 C 
ATOM     27  O   UNL     1      -1.516   2.159  -5.534  1.00  0.00    -0.246 OA
BRANCH  26  28
ATOM     28  C   UNL     1      -1.836   4.419  -5.805  1.00  0.00     0.060 A 
ATOM     29  C   UNL     1      -1.145   5.096  -4.798  1.00  0.00     0.016 A 
ATOM     30  C   UNL     1      -3.105   4.816  -6.224  1.00  0.00     0.016 A 
ATOM     31  C   UNL     1      -1.714   6.224  -4.230  1.00  0.00     0.010 A 
ATOM     32  C   UNL     1      -3.663   5.963  -5.675  1.00  0.00     0.010 A 
ATOM     33  C   UNL     1      -2.954   6.682  -4.700  1.00  0.00    -0.014 A 
BRANCH  33  34
ATOM     34  C   UNL     1      -3.387   8.043  -4.349  1.00  0.00     0.031 A 
ATOM     35  C   UNL     1      -4.497   8.293  -3.385  1.00  0.00     0.074 A 
ATOM     36  C   UNL     1      -2.748   9.041  -4.986  1.00  0.00     0.049 A 
ATOM     37  N   UNL     1      -5.024   9.436  -3.035  1.00  0.00    -0.248 NA
ATOM     38  C   UNL     1      -5.104   7.119  -2.740  1.00  0.00     0.031 C 
ATOM     39  C   UNL     1      -1.655   8.854  -5.950  1.00  0.00     0.029 A 
ATOM     40  N   UNL     1      -2.912  10.395  -4.930  1.00  0.00    -0.354 N 
ATOM     41  C   UNL     1      -6.039   9.125  -2.141  1.00  0.00     0.074 A 
ATOM     42  C   UNL     1      -6.057   7.683  -2.006  1.00  0.00     0.031 C 
ATOM     43  C   UNL     1      -1.233  10.050  -6.376  1.00  0.00     0.029 A 
ATOM     44  C   UNL     1      -2.060  11.078  -5.762  1.00  0.00     0.049 A 
ATOM     45  H   UNL     1      -3.575  10.836  -4.352  1.00  0.00     0.167 HD
ATOM     46  C   UNL     1      -6.878   9.980  -1.509  1.00  0.00     0.031 A 
ATOM     47  C   UNL     1      -1.970  12.393  -6.021  1.00  0.00     0.031 A 
ATOM     48  C   UNL     1      -6.838  11.411  -1.691  1.00  0.00     0.049 A 
ATOM     49  C   UNL     1      -2.913  13.310  -5.311  1.00  0.00     0.074 A 
ATOM     50  C   UNL     1      -7.626  12.380  -1.096  1.00  0.00     0.029 A 
ATOM     51  N   UNL     1      -5.963  12.075  -2.542  1.00  0.00    -0.354 N 
ATOM     52  N   UNL     1      -3.858  13.005  -4.453  1.00  0.00    -0.248 NA
ATOM     53  C   UNL     1      -2.782  14.741  -5.597  1.00  0.00     0.031 C 
ATOM     54  C   UNL     1      -7.255  13.625  -1.620  1.00  0.00     0.029 A 
ATOM     55  C   UNL     1      -6.204  13.438  -2.506  1.00  0.00     0.049 A 
ATOM     56  H   UNL     1      -5.271  11.640  -3.091  1.00  0.00     0.167 HD
ATOM     57  C   UNL     1      -4.442  14.209  -4.094  1.00  0.00     0.074 A 
ATOM     58  C   UNL     1      -3.721  15.248  -4.810  1.00  0.00     0.031 C 
ATOM     59  C   UNL     1      -5.482  14.438  -3.255  1.00  0.00     0.031 A 
BRANCH  46  60
ATOM     60  C   UNL     1      -7.931   9.391  -0.608  1.00  0.00    -0.014 A 
ATOM     61  C   UNL     1      -7.601   8.840   0.644  1.00  0.00     0.010 A 
ATOM     62  C   UNL     1      -9.280   9.417  -1.005  1.00  0.00     0.010 A 
ATOM     63  C   UNL     1      -8.595   8.296   1.464  1.00  0.00     0.020 A 
ATOM     64  C   UNL     1     -10.280   8.892  -0.180  1.00  0.00     0.020 A 
ATOM     65  C   UNL     1      -9.929   8.319   1.044  1.00  0.00     0.054 A 
BRANCH  65  66
ATOM     66  S   UNL     1     -11.204   7.619   2.130  1.00  0.00     0.124 S 
ATOM     67  O   UNL     1     -11.001   6.184   1.946  1.00  0.00    -0.237 OA
ATOM     68  O   UNL     1     -10.834   8.142   3.443  1.00  0.00    -0.237 OA
ATOM     69  O   UNL     1     -12.452   8.145   1.583  1.00  0.00    -0.744 OA
ENDBRANCH  65  66
ENDBRANCH  46  60
BRANCH  47  70
ATOM     70  C   UNL     1      -0.958  12.870  -6.996  1.00  0.00    -0.014 A 
ATOM     71  C   UNL     1       0.210  13.510  -6.554  1.00  0.00     0.010 A 
ATOM     72  C   UNL     1      -1.106  12.578  -8.366  1.00  0.00     0.010 A 
ATOM     73  C   UNL     1       1.218  13.845  -7.463  1.00  0.00     0.020 A 
ATOM     74  C   UNL     1      -0.091  12.889  -9.273  1.00  0.00     0.020 A 
ATOM     75  C   UNL     1       1.064  13.525  -8.816  1.00  0.00     0.054 A 
BRANCH  75  76
ATOM     76  S   UNL     1       2.424  13.877  -9.964  1.00  0.00     0.124 S 
ATOM     77  O   UNL     1       2.265  15.309 -10.193  1.00  0.00    -0.237 OA
ATOM     78  O   UNL     1       3.603  13.486  -9.194  1.00  0.00    -0.237 OA
ATOM     79  O   UNL     1       2.131  13.020 -11.112  1.00  0.00    -0.744 OA
ENDBRANCH  75  76
ENDBRANCH  47  70
BRANCH  59  80
ATOM     80  C   UNL     1      -5.887  15.872  -3.082  1.00  0.00    -0.014 A 
ATOM     81  C   UNL     1      -6.605  16.541  -4.089  1.00  0.00     0.010 A 
ATOM     82  C   UNL     1      -5.554  16.552  -1.898  1.00  0.00     0.010 A 
ATOM     83  C   UNL     1      -6.951  17.883  -3.930  1.00  0.00     0.020 A 
ATOM     84  C   UNL     1      -5.919  17.888  -1.727  1.00  0.00     0.020 A 
ATOM     85  C   UNL     1      -6.600  18.550  -2.752  1.00  0.00     0.054 A 
BRANCH  85  86
ATOM     86  S   UNL     1      -7.078  20.287  -2.555  1.00  0.00     0.124 S 
ATOM     87  O   UNL     1      -6.080  20.970  -3.374  1.00  0.00    -0.237 OA
ATOM     88  O   UNL     1      -8.442  20.309  -3.078  1.00  0.00    -0.237 OA
ATOM     89  O   UNL     1      -6.966  20.514  -1.116  1.00  0.00    -0.744 OA
ENDBRANCH  85  86
ENDBRANCH  59  80
ENDBRANCH  33  34
ENDBRANCH  26  28
ENDBRANCH  25  26
ENDBRANCH  24  25
ENDBRANCH   1  24
TORSDOF 20
