REMARK SMILES O=C(OCCOC(=O)c1ccc(-c2c3nc(c(-c4ccc(S(=O)(=O)[O-])cc4)c4ccc([nH]4)c(-c4ccc(S(=O)(=O)[O-])cc4)c4nc(c(-c5ccc(S(=O)(=O)[O-])cc5)c5ccc2[nH]5)C=C4)C=C3)cc1)C1=Cc2c(ccc(Cl)c2Oc2ccccc2)O[C@H]1C(F)(F)F
REMARK SMILES IDX 5 1 4 2 3 3 2 4 1 5 69 6 70 7 86 8 71 9 85 10 72 11 77 12
REMARK SMILES IDX 73 13 75 14 74 15 76 16 87 17 88 18 89 19 90 20 78 21 79 22
REMARK SMILES IDX 80 23 84 24 81 25 83 26 82 27 6 28 7 29 8 30 9 31 10 32
REMARK SMILES IDX 68 33 11 34 67 35 12 36 13 37 14 38 61 39 15 40 66 41 60 42
REMARK SMILES IDX 62 43 16 44 65 45 59 46 58 47 17 49 47 50 28 51 46 52 29 53
REMARK SMILES IDX 32 54 45 55 63 56 30 57 31 58 44 60 64 61 33 62 18 63 19 64
REMARK SMILES IDX 27 65 20 66 26 67 21 68 22 69 23 70 24 71 25 72 48 73 49 74
REMARK SMILES IDX 57 75 50 76 56 77 51 78 52 79 53 80 54 81 55 82 34 83 35 84
REMARK SMILES IDX 43 85 36 86 42 87 37 88 38 89 39 90 40 91 41 92
REMARK H PARENT 62 48 32 59
REMARK Flexibility Score: inf
ROOT
ATOM      1  C   UNL     1       2.823  -0.762  -1.542  1.00  0.00     0.275 C 
ENDROOT
BRANCH   1   2
ATOM      2  C   UNL     1       2.338  -0.215  -0.189  1.00  0.00     0.275 C 
BRANCH   2   3
ATOM      3  O   UNL     1       2.254   1.210  -0.117  1.00  0.00    -0.459 OA
BRANCH   3   4
ATOM      4  C   UNL     1       3.291   1.882   0.414  1.00  0.00     0.338 C 
ATOM      5  O   UNL     1       3.136   2.791   1.217  1.00  0.00    -0.246 OA
BRANCH   4   6
ATOM      6  C   UNL     1       4.605   1.582  -0.181  1.00  0.00     0.088 C 
ATOM      7  C   UNL     1       4.981   0.423  -0.749  1.00  0.00     0.031 C 
ATOM      8  C   UNL     1       5.724   2.454   0.268  1.00  0.00     0.316 C 
ATOM      9  C   UNL     1       5.556  -0.495   0.258  1.00  0.00     0.062 A 
ATOM     10  O   UNL     1       6.878   1.596   0.637  1.00  0.00    -0.475 OA
ATOM     11  C   UNL     1       6.615   0.237   0.893  1.00  0.00     0.131 A 
ATOM     12  C   UNL     1       5.302  -1.919   0.481  1.00  0.00     0.156 A 
ATOM     13  C   UNL     1       7.532  -0.454   1.653  1.00  0.00     0.049 A 
ATOM     14  C   UNL     1       6.261  -2.545   1.291  1.00  0.00     0.084 A 
ATOM     15  C   UNL     1       7.357  -1.832   1.839  1.00  0.00     0.028 A 
ATOM     16  Cl  UNL     1       6.260  -4.264   1.518  1.00  0.00    -0.080 Cl
BRANCH   8  17
ATOM     17  C   UNL     1       5.957   3.467  -0.882  1.00  0.00     0.430 C 
ATOM     18  F   UNL     1       4.777   3.893  -1.411  1.00  0.00    -0.167 F 
ATOM     19  F   UNL     1       6.622   4.569  -0.480  1.00  0.00    -0.167 F 
ATOM     20  F   UNL     1       6.652   2.909  -1.903  1.00  0.00    -0.167 F 
ENDBRANCH   8  17
BRANCH  12  21
ATOM     21  O   UNL     1       4.618  -2.818  -0.379  1.00  0.00    -0.455 OA
BRANCH  21  22
ATOM     22  C   UNL     1       3.288  -3.295  -0.421  1.00  0.00     0.127 A 
ATOM     23  C   UNL     1       2.213  -3.092   0.455  1.00  0.00     0.047 A 
ATOM     24  C   UNL     1       2.960  -3.804  -1.715  1.00  0.00     0.047 A 
ATOM     25  C   UNL     1       0.867  -3.122  -0.045  1.00  0.00     0.004 A 
ATOM     26  C   UNL     1       1.632  -3.804  -2.214  1.00  0.00     0.004 A 
ATOM     27  C   UNL     1       0.588  -3.400  -1.390  1.00  0.00     0.000 A 
ENDBRANCH  21  22
ENDBRANCH  12  21
ENDBRANCH   4   6
ENDBRANCH   3   4
ENDBRANCH   2   3
ENDBRANCH   1   2
BRANCH   1  28
ATOM     28  O   UNL     1       2.637   0.113  -2.579  1.00  0.00    -0.458 OA
BRANCH  28  29
ATOM     29  C   UNL     1       1.338   0.106  -2.877  1.00  0.00     0.338 C 
ATOM     30  O   UNL     1       0.393  -0.515  -2.401  1.00  0.00    -0.246 OA
BRANCH  29  31
ATOM     31  C   UNL     1       1.280   1.279  -3.647  1.00  0.00     0.060 A 
ATOM     32  C   UNL     1       0.339   2.183  -3.181  1.00  0.00     0.016 A 
ATOM     33  C   UNL     1       2.277   1.501  -4.617  1.00  0.00     0.016 A 
ATOM     34  C   UNL     1       0.304   3.362  -3.825  1.00  0.00     0.010 A 
ATOM     35  C   UNL     1       2.304   2.721  -5.192  1.00  0.00     0.010 A 
ATOM     36  C   UNL     1       1.276   3.583  -4.815  1.00  0.00    -0.014 A 
BRANCH  36  37
ATOM     37  C   UNL     1       1.086   4.761  -5.592  1.00  0.00     0.031 A 
ATOM     38  C   UNL     1       0.411   4.553  -6.888  1.00  0.00     0.074 A 
ATOM     39  C   UNL     1       1.442   5.878  -4.958  1.00  0.00     0.049 A 
ATOM     40  N   UNL     1       0.063   5.453  -7.746  1.00  0.00    -0.248 NA
ATOM     41  C   UNL     1       0.077   3.164  -7.286  1.00  0.00     0.031 C 
ATOM     42  C   UNL     1       2.061   5.945  -3.621  1.00  0.00     0.029 A 
ATOM     43  N   UNL     1       1.291   7.160  -5.331  1.00  0.00    -0.354 N 
ATOM     44  C   UNL     1      -0.506   4.749  -8.790  1.00  0.00     0.074 A 
ATOM     45  C   UNL     1      -0.448   3.344  -8.486  1.00  0.00     0.031 C 
ATOM     46  C   UNL     1       2.213   7.231  -3.283  1.00  0.00     0.029 A 
ATOM     47  C   UNL     1       1.773   8.041  -4.405  1.00  0.00     0.049 A 
ATOM     48  H   UNL     1       0.877   7.436  -6.181  1.00  0.00     0.167 HD
ATOM     49  C   UNL     1      -1.021   5.293  -9.905  1.00  0.00     0.031 A 
ATOM     50  C   UNL     1       1.872   9.367  -4.529  1.00  0.00     0.031 A 
ATOM     51  C   UNL     1      -1.010   6.714 -10.093  1.00  0.00     0.049 A 
ATOM     52  C   UNL     1       1.340   9.924  -5.815  1.00  0.00     0.074 A 
ATOM     53  C   UNL     1      -1.480   7.450 -11.155  1.00  0.00     0.029 A 
ATOM     54  N   UNL     1      -0.480   7.613  -9.166  1.00  0.00    -0.354 N 
ATOM     55  N   UNL     1       0.764   9.278  -6.810  1.00  0.00    -0.248 NA
ATOM     56  C   UNL     1       1.463  11.363  -6.009  1.00  0.00     0.031 C 
ATOM     57  C   UNL     1      -1.172   8.790 -10.899  1.00  0.00     0.029 A 
ATOM     58  C   UNL     1      -0.572   8.898  -9.647  1.00  0.00     0.049 A 
ATOM     59  H   UNL     1      -0.095   7.363  -8.295  1.00  0.00     0.167 HD
ATOM     60  C   UNL     1       0.448  10.234  -7.754  1.00  0.00     0.074 A 
ATOM     61  C   UNL     1       0.866  11.508  -7.185  1.00  0.00     0.031 C 
ATOM     62  C   UNL     1      -0.119  10.097  -8.980  1.00  0.00     0.031 A 
BRANCH  49  63
ATOM     63  C   UNL     1      -1.531   4.367 -10.961  1.00  0.00    -0.014 A 
ATOM     64  C   UNL     1      -2.711   3.622 -10.784  1.00  0.00     0.010 A 
ATOM     65  C   UNL     1      -0.810   4.241 -12.160  1.00  0.00     0.010 A 
ATOM     66  C   UNL     1      -3.169   2.779 -11.799  1.00  0.00     0.020 A 
ATOM     67  C   UNL     1      -1.276   3.417 -13.185  1.00  0.00     0.020 A 
ATOM     68  C   UNL     1      -2.456   2.694 -12.999  1.00  0.00     0.054 A 
BRANCH  68  69
ATOM     69  S   UNL     1      -3.131   1.678 -14.340  1.00  0.00     0.124 S 
ATOM     70  O   UNL     1      -2.949   0.326 -13.818  1.00  0.00    -0.237 OA
ATOM     71  O   UNL     1      -4.515   2.139 -14.419  1.00  0.00    -0.237 OA
ATOM     72  O   UNL     1      -2.296   2.019 -15.489  1.00  0.00    -0.744 OA
ENDBRANCH  68  69
ENDBRANCH  49  63
BRANCH  50  73
ATOM     73  C   UNL     1       2.543  10.162  -3.480  1.00  0.00    -0.014 A 
ATOM     74  C   UNL     1       1.843  11.132  -2.751  1.00  0.00     0.010 A 
ATOM     75  C   UNL     1       3.902   9.927  -3.185  1.00  0.00     0.010 A 
ATOM     76  C   UNL     1       2.504  11.900  -1.790  1.00  0.00     0.020 A 
ATOM     77  C   UNL     1       4.558  10.667  -2.202  1.00  0.00     0.020 A 
ATOM     78  C   UNL     1       3.861  11.672  -1.533  1.00  0.00     0.054 A 
BRANCH  78  79
ATOM     79  S   UNL     1       4.707  12.719  -0.321  1.00  0.00     0.124 S 
ATOM     80  O   UNL     1       4.769  13.997  -1.023  1.00  0.00    -0.237 OA
ATOM     81  O   UNL     1       3.803  12.668   0.825  1.00  0.00    -0.237 OA
ATOM     82  O   UNL     1       5.991  12.050  -0.125  1.00  0.00    -0.744 OA
ENDBRANCH  78  79
ENDBRANCH  50  73
BRANCH  62  83
ATOM     83  C   UNL     1      -0.310  11.368  -9.739  1.00  0.00    -0.014 A 
ATOM     84  C   UNL     1       0.789  12.019 -10.322  1.00  0.00     0.010 A 
ATOM     85  C   UNL     1      -1.612  11.856  -9.935  1.00  0.00     0.010 A 
ATOM     86  C   UNL     1       0.586  13.166 -11.079  1.00  0.00     0.020 A 
ATOM     87  C   UNL     1      -1.820  12.979 -10.727  1.00  0.00     0.020 A 
ATOM     88  C   UNL     1      -0.717  13.632 -11.284  1.00  0.00     0.054 A 
BRANCH  88  89
ATOM     89  S   UNL     1      -0.955  15.078 -12.342  1.00  0.00     0.124 S 
ATOM     90  O   UNL     1      -0.451  16.156 -11.495  1.00  0.00    -0.237 OA
ATOM     91  O   UNL     1      -0.137  14.756 -13.508  1.00  0.00    -0.237 OA
ATOM     92  O   UNL     1      -2.396  15.096 -12.584  1.00  0.00    -0.744 OA
ENDBRANCH  88  89
ENDBRANCH  62  83
ENDBRANCH  36  37
ENDBRANCH  29  31
ENDBRANCH  28  29
ENDBRANCH   1  28
TORSDOF 17
