REMARK SMILES CCN1C[C@@H](C(=O)OCCOC(=O)c2ccc(-c3c4nc(c(-c5ccc(S(=O)(=O)[O-])cc5)c5ccc([nH]5)c(-c5ccc(S(=O)(=O)[O-])cc5)c5nc(c(-c6ccc(S(=O)(=O)[O-])cc6)c6ccc3[nH]6)C=C5)C=C4)cc2)CC1=O
REMARK SMILES IDX 10 1 9 2 8 3 6 4 7 5 5 6 3 7 4 8 75 9 74 10 76 11 2 12 1 13
REMARK SMILES IDX 11 14 12 15 13 16 14 17 15 18 73 19 16 20 72 21 17 22 18 23
REMARK SMILES IDX 19 24 66 25 20 26 71 27 65 28 67 29 21 30 70 31 64 32 63 33
REMARK SMILES IDX 22 35 52 36 33 37 51 38 34 39 37 40 50 41 68 42 35 43 36 44
REMARK SMILES IDX 49 46 69 47 38 48 23 49 24 50 32 51 25 52 31 53 26 54 27 55
REMARK SMILES IDX 28 56 29 57 30 58 53 59 54 60 62 61 55 62 61 63 56 64 57 65
REMARK SMILES IDX 58 66 59 67 60 68 39 69 40 70 48 71 41 72 47 73 42 74 43 75
REMARK SMILES IDX 44 76 45 77 46 78
REMARK H PARENT 67 34 37 45
REMARK Flexibility Score: inf
ROOT
ATOM      1  C   UNL     1       0.462   7.858   3.274  1.00  0.00     0.275 C 
ENDROOT
BRANCH   1   2
ATOM      2  C   UNL     1      -0.588   6.742   3.258  1.00  0.00     0.274 C 
BRANCH   2   3
ATOM      3  O   UNL     1       0.029   5.459   3.036  1.00  0.00    -0.462 OA
BRANCH   3   4
ATOM      4  C   UNL     1      -0.136   4.911   1.808  1.00  0.00     0.311 C 
ATOM      5  O   UNL     1      -0.872   5.360   0.936  1.00  0.00    -0.252 OA
BRANCH   4   6
ATOM      6  C   UNL     1       0.684   3.670   1.591  1.00  0.00     0.128 C 
ATOM      7  N   UNL     1       0.671   1.371   1.811  1.00  0.00    -0.342 N 
ATOM      8  C   UNL     1      -0.217   2.459   1.492  1.00  0.00     0.135 C 
ATOM      9  C   UNL     1       1.801   1.791   2.494  1.00  0.00     0.223 C 
ATOM     10  C   UNL     1       1.711   3.288   2.654  1.00  0.00     0.117 C 
ATOM     11  O   UNL     1       2.701   1.084   2.916  1.00  0.00    -0.275 OA
BRANCH   7  12
ATOM     12  C   UNL     1       0.425   0.008   1.385  1.00  0.00     0.116 C 
ATOM     13  C   UNL     1       0.930  -0.230  -0.030  1.00  0.00     0.027 C 
ENDBRANCH   7  12
ENDBRANCH   4   6
ENDBRANCH   3   4
ENDBRANCH   2   3
ENDBRANCH   1   2
BRANCH   1  14
ATOM     14  O   UNL     1       1.063   8.054   1.980  1.00  0.00    -0.458 OA
BRANCH  14  15
ATOM     15  C   UNL     1       2.166   7.305   1.746  1.00  0.00     0.338 C 
ATOM     16  O   UNL     1       2.685   6.504   2.505  1.00  0.00    -0.246 OA
BRANCH  15  17
ATOM     17  C   UNL     1       2.607   7.476   0.354  1.00  0.00     0.060 A 
ATOM     18  C   UNL     1       2.542   6.366  -0.489  1.00  0.00     0.016 A 
ATOM     19  C   UNL     1       3.175   8.669  -0.091  1.00  0.00     0.016 A 
ATOM     20  C   UNL     1       3.061   6.428  -1.776  1.00  0.00     0.010 A 
ATOM     21  C   UNL     1       3.685   8.738  -1.393  1.00  0.00     0.010 A 
ATOM     22  C   UNL     1       3.644   7.613  -2.238  1.00  0.00    -0.014 A 
BRANCH  22  23
ATOM     23  C   UNL     1       4.244   7.649  -3.593  1.00  0.00     0.031 A 
ATOM     24  C   UNL     1       5.737   7.701  -3.751  1.00  0.00     0.074 A 
ATOM     25  C   UNL     1       3.446   7.601  -4.677  1.00  0.00     0.049 A 
ATOM     26  N   UNL     1       6.446   7.819  -4.844  1.00  0.00    -0.248 NA
ATOM     27  C   UNL     1       6.537   7.608  -2.519  1.00  0.00     0.031 C 
ATOM     28  C   UNL     1       1.986   7.488  -4.649  1.00  0.00     0.029 A 
ATOM     29  N   UNL     1       3.752   7.638  -6.013  1.00  0.00    -0.354 N 
ATOM     30  C   UNL     1       7.773   7.843  -4.433  1.00  0.00     0.074 A 
ATOM     31  C   UNL     1       7.770   7.738  -2.989  1.00  0.00     0.031 C 
ATOM     32  C   UNL     1       1.525   7.457  -5.909  1.00  0.00     0.029 A 
ATOM     33  C   UNL     1       2.648   7.604  -6.831  1.00  0.00     0.049 A 
ATOM     34  H   UNL     1       4.675   7.684  -6.355  1.00  0.00     0.167 HD
ATOM     35  C   UNL     1       8.891   7.946  -5.191  1.00  0.00     0.031 A 
ATOM     36  C   UNL     1       2.547   7.712  -8.169  1.00  0.00     0.031 A 
ATOM     37  C   UNL     1       8.884   8.044  -6.627  1.00  0.00     0.049 A 
ATOM     38  C   UNL     1       3.797   7.890  -8.985  1.00  0.00     0.074 A 
ATOM     39  C   UNL     1       9.963   8.150  -7.488  1.00  0.00     0.029 A 
ATOM     40  N   UNL     1       7.743   8.047  -7.415  1.00  0.00    -0.354 N 
ATOM     41  N   UNL     1       5.044   7.932  -8.579  1.00  0.00    -0.248 NA
ATOM     42  C   UNL     1       3.628   8.039 -10.436  1.00  0.00     0.031 C 
ATOM     43  C   UNL     1       9.471   8.264  -8.793  1.00  0.00     0.029 A 
ATOM     44  C   UNL     1       8.089   8.174  -8.750  1.00  0.00     0.049 A 
ATOM     45  H   UNL     1       6.822   7.969  -7.075  1.00  0.00     0.167 HD
ATOM     46  C   UNL     1       5.810   8.095  -9.728  1.00  0.00     0.074 A 
ATOM     47  C   UNL     1       4.887   8.129 -10.844  1.00  0.00     0.031 C 
ATOM     48  C   UNL     1       7.156   8.208  -9.847  1.00  0.00     0.031 A 
BRANCH  35  49
ATOM     49  C   UNL     1      10.213   8.005  -4.475  1.00  0.00    -0.014 A 
ATOM     50  C   UNL     1      10.772   6.865  -3.870  1.00  0.00     0.010 A 
ATOM     51  C   UNL     1      10.924   9.219  -4.434  1.00  0.00     0.010 A 
ATOM     52  C   UNL     1      11.998   6.948  -3.203  1.00  0.00     0.020 A 
ATOM     53  C   UNL     1      12.161   9.300  -3.789  1.00  0.00     0.020 A 
ATOM     54  C   UNL     1      12.682   8.167  -3.162  1.00  0.00     0.054 A 
BRANCH  54  55
ATOM     55  S   UNL     1      14.277   8.246  -2.300  1.00  0.00     0.124 S 
ATOM     56  O   UNL     1      13.864   8.218  -0.900  1.00  0.00    -0.237 OA
ATOM     57  O   UNL     1      14.961   7.048  -2.778  1.00  0.00    -0.237 OA
ATOM     58  O   UNL     1      14.853   9.510  -2.753  1.00  0.00    -0.744 OA
ENDBRANCH  54  55
ENDBRANCH  35  49
BRANCH  36  59
ATOM     59  C   UNL     1       1.206   7.693  -8.814  1.00  0.00    -0.014 A 
ATOM     60  C   UNL     1       0.801   6.599  -9.597  1.00  0.00     0.010 A 
ATOM     61  C   UNL     1       0.317   8.768  -8.627  1.00  0.00     0.010 A 
ATOM     62  C   UNL     1      -0.465   6.585 -10.191  1.00  0.00     0.020 A 
ATOM     63  C   UNL     1      -0.959   8.746  -9.197  1.00  0.00     0.020 A 
ATOM     64  C   UNL     1      -1.338   7.657  -9.984  1.00  0.00     0.054 A 
BRANCH  64  65
ATOM     65  S   UNL     1      -2.999   7.592 -10.712  1.00  0.00     0.124 S 
ATOM     66  O   UNL     1      -2.727   7.889 -12.114  1.00  0.00    -0.237 OA
ATOM     67  O   UNL     1      -3.417   6.222 -10.424  1.00  0.00    -0.237 OA
ATOM     68  O   UNL     1      -3.732   8.624  -9.982  1.00  0.00    -0.744 OA
ENDBRANCH  64  65
ENDBRANCH  36  59
BRANCH  48  69
ATOM     69  C   UNL     1       7.715   8.348 -11.237  1.00  0.00    -0.014 A 
ATOM     70  C   UNL     1       7.600   9.556 -11.948  1.00  0.00     0.010 A 
ATOM     71  C   UNL     1       8.411   7.272 -11.816  1.00  0.00     0.010 A 
ATOM     72  C   UNL     1       8.150   9.675 -13.227  1.00  0.00     0.020 A 
ATOM     73  C   UNL     1       8.983   7.396 -13.084  1.00  0.00     0.020 A 
ATOM     74  C   UNL     1       8.838   8.593 -13.787  1.00  0.00     0.054 A 
BRANCH  74  75
ATOM     75  S   UNL     1       9.584   8.787 -15.429  1.00  0.00     0.124 S 
ATOM     76  O   UNL     1       8.418   8.703 -16.305  1.00  0.00    -0.237 OA
ATOM     77  O   UNL     1      10.213  10.103 -15.344  1.00  0.00    -0.237 OA
ATOM     78  O   UNL     1      10.515   7.664 -15.521  1.00  0.00    -0.744 OA
ENDBRANCH  74  75
ENDBRANCH  48  69
ENDBRANCH  22  23
ENDBRANCH  15  17
ENDBRANCH  14  15
ENDBRANCH   1  14
TORSDOF 15
