REMARK SMILES C[C@H](c1cnccn1)[N@@H+]1[C@@H](C(=O)OCCOC(=O)c2ccc(-c3c4nc(c(-c5ccc(S(=O)(=O)[O-])cc5)c5ccc([nH]5)c(-c5ccc(S(=O)(=O)[O-])cc5)c5nc(c(-c6ccc(S(=O)(=O)[O-])cc6)c6ccc3[nH]6)C=C5)C=C4)cc2)CC[C@H]2CCCC[C@H]21
REMARK SMILES IDX 15 1 14 2 13 3 11 4 12 5 10 6 9 7 86 8 79 10 81 11 85 12
REMARK SMILES IDX 80 13 82 14 84 15 83 16 2 17 1 18 3 19 4 20 8 21 5 22 7 23
REMARK SMILES IDX 6 24 16 25 17 26 18 27 19 28 20 29 78 30 21 31 77 32 22 33
REMARK SMILES IDX 23 34 24 35 71 36 25 37 76 38 70 39 72 40 26 41 75 42 69 43
REMARK SMILES IDX 68 44 27 46 57 47 38 48 56 49 39 50 42 51 55 52 73 53 40 54
REMARK SMILES IDX 41 55 54 57 74 58 43 59 28 60 29 61 37 62 30 63 36 64 31 65
REMARK SMILES IDX 32 66 33 67 34 68 35 69 58 70 59 71 67 72 60 73 66 74 61 75
REMARK SMILES IDX 62 76 63 77 64 78 65 79 44 80 45 81 53 82 46 83 52 84 47 85
REMARK SMILES IDX 48 86 49 87 50 88 51 89
REMARK H PARENT 9 9 72 45 42 56
REMARK Flexibility Score: inf
ROOT
ATOM      1  C   UNL     1      -1.286   4.228  -5.160  1.00  0.00     0.275 C 
ENDROOT
BRANCH   1   2
ATOM      2  C   UNL     1      -0.902   2.744  -5.088  1.00  0.00     0.274 C 
BRANCH   2   3
ATOM      3  O   UNL     1      -1.477   2.076  -3.948  1.00  0.00    -0.458 OA
BRANCH   3   4
ATOM      4  C   UNL     1      -0.689   2.039  -2.835  1.00  0.00     0.365 C 
ATOM      5  O   UNL     1       0.445   2.507  -2.809  1.00  0.00    -0.245 OA
BRANCH   4   6
ATOM      6  C   UNL     1      -1.370   1.368  -1.607  1.00  0.00     0.295 C 
ATOM      7  N   UNL     1      -0.941  -0.058  -1.377  1.00  0.00    -0.313 N 
ATOM      8  C   UNL     1      -1.682  -0.668  -0.233  1.00  0.00     0.188 C 
ATOM      9  H   UNL     1      -1.190  -0.635  -2.180  1.00  0.00     0.349 HD
ATOM     10  C   UNL     1      -2.892   1.532  -1.716  1.00  0.00     0.078 C 
ATOM     11  C   UNL     1      -3.225  -0.455  -0.261  1.00  0.00     0.048 C 
ATOM     12  C   UNL     1      -1.500  -2.195  -0.113  1.00  0.00     0.065 C 
ATOM     13  C   UNL     1      -3.584   1.010  -0.476  1.00  0.00     0.016 C 
ATOM     14  C   UNL     1      -3.989  -1.392  -1.226  1.00  0.00     0.010 C 
ATOM     15  C   UNL     1      -1.973  -2.962  -1.342  1.00  0.00     0.006 C 
ATOM     16  C   UNL     1      -3.112  -2.284  -2.095  1.00  0.00     0.001 C 
BRANCH   7  17
ATOM     17  C   UNL     1       0.568  -0.119  -1.258  1.00  0.00     0.233 C 
ATOM     18  C   UNL     1       1.096  -0.920  -2.456  1.00  0.00     0.083 C 
BRANCH  17  19
ATOM     19  C   UNL     1       1.220  -0.431   0.088  1.00  0.00     0.116 A 
ATOM     20  C   UNL     1       1.927  -1.607   0.336  1.00  0.00     0.141 A 
ATOM     21  N   UNL     1       1.160   0.544   1.039  1.00  0.00    -0.252 NA
ATOM     22  N   UNL     1       2.567  -1.865   1.503  1.00  0.00    -0.261 NA
ATOM     23  C   UNL     1       1.827   0.303   2.193  1.00  0.00     0.131 A 
ATOM     24  C   UNL     1       2.512  -0.876   2.420  1.00  0.00     0.131 A 
ENDBRANCH  17  19
ENDBRANCH   7  17
ENDBRANCH   4   6
ENDBRANCH   3   4
ENDBRANCH   2   3
ENDBRANCH   1   2
BRANCH   1  25
ATOM     25  O   UNL     1      -0.790   4.982  -4.036  1.00  0.00    -0.458 OA
BRANCH  25  26
ATOM     26  C   UNL     1      -1.700   5.216  -3.063  1.00  0.00     0.338 C 
ATOM     27  O   UNL     1      -2.879   4.890  -3.069  1.00  0.00    -0.246 OA
BRANCH  26  28
ATOM     28  C   UNL     1      -1.063   5.813  -1.878  1.00  0.00     0.060 A 
ATOM     29  C   UNL     1      -1.041   5.050  -0.709  1.00  0.00     0.016 A 
ATOM     30  C   UNL     1      -0.633   7.140  -1.858  1.00  0.00     0.016 A 
ATOM     31  C   UNL     1      -0.607   5.604   0.490  1.00  0.00     0.010 A 
ATOM     32  C   UNL     1      -0.206   7.705  -0.647  1.00  0.00     0.010 A 
ATOM     33  C   UNL     1      -0.216   6.946   0.538  1.00  0.00    -0.014 A 
BRANCH  33  34
ATOM     34  C   UNL     1       0.049   7.559   1.863  1.00  0.00     0.031 A 
ATOM     35  C   UNL     1      -1.005   8.422   2.503  1.00  0.00     0.074 A 
ATOM     36  C   UNL     1       1.180   7.271   2.533  1.00  0.00     0.049 A 
ATOM     37  N   UNL     1      -0.979   9.041   3.656  1.00  0.00    -0.248 NA
ATOM     38  C   UNL     1      -2.254   8.608   1.748  1.00  0.00     0.031 C 
ATOM     39  C   UNL     1       2.249   6.395   2.053  1.00  0.00     0.029 A 
ATOM     40  N   UNL     1       1.607   7.673   3.774  1.00  0.00    -0.354 N 
ATOM     41  C   UNL     1      -2.195   9.706   3.757  1.00  0.00     0.074 A 
ATOM     42  C   UNL     1      -2.932   9.424   2.543  1.00  0.00     0.031 C 
ATOM     43  C   UNL     1       3.204   6.315   2.995  1.00  0.00     0.029 A 
ATOM     44  C   UNL     1       2.830   7.158   4.128  1.00  0.00     0.049 A 
ATOM     45  H   UNL     1       1.087   8.274   4.355  1.00  0.00     0.167 HD
ATOM     46  C   UNL     1      -2.660  10.480   4.767  1.00  0.00     0.031 A 
ATOM     47  C   UNL     1       3.572   7.352   5.237  1.00  0.00     0.031 A 
ATOM     48  C   UNL     1      -1.935  10.756   5.978  1.00  0.00     0.049 A 
ATOM     49  C   UNL     1       3.053   8.248   6.327  1.00  0.00     0.074 A 
ATOM     50  C   UNL     1      -2.318  11.541   7.053  1.00  0.00     0.029 A 
ATOM     51  N   UNL     1      -0.680  10.250   6.280  1.00  0.00    -0.354 N 
ATOM     52  N   UNL     1       1.912   8.892   6.392  1.00  0.00    -0.248 NA
ATOM     53  C   UNL     1       3.922   8.440   7.497  1.00  0.00     0.031 C 
ATOM     54  C   UNL     1      -1.279  11.533   7.992  1.00  0.00     0.029 A 
ATOM     55  C   UNL     1      -0.268  10.713   7.518  1.00  0.00     0.049 A 
ATOM     56  H   UNL     1      -0.159   9.650   5.699  1.00  0.00     0.167 HD
ATOM     57  C   UNL     1       1.922   9.557   7.613  1.00  0.00     0.074 A 
ATOM     58  C   UNL     1       3.173   9.220   8.263  1.00  0.00     0.031 C 
ATOM     59  C   UNL     1       0.982  10.375   8.147  1.00  0.00     0.031 A 
BRANCH  46  60
ATOM     60  C   UNL     1      -4.008  11.118   4.575  1.00  0.00    -0.014 A 
ATOM     61  C   UNL     1      -5.193  10.372   4.698  1.00  0.00     0.010 A 
ATOM     62  C   UNL     1      -4.088  12.490   4.275  1.00  0.00     0.010 A 
ATOM     63  C   UNL     1      -6.434  10.978   4.483  1.00  0.00     0.020 A 
ATOM     64  C   UNL     1      -5.327  13.104   4.079  1.00  0.00     0.020 A 
ATOM     65  C   UNL     1      -6.492  12.338   4.164  1.00  0.00     0.054 A 
BRANCH  65  66
ATOM     66  S   UNL     1      -8.113  13.107   3.889  1.00  0.00     0.124 S 
ATOM     67  O   UNL     1      -8.428  12.663   2.534  1.00  0.00    -0.237 OA
ATOM     68  O   UNL     1      -8.933  12.523   4.947  1.00  0.00    -0.237 OA
ATOM     69  O   UNL     1      -7.845  14.536   4.031  1.00  0.00    -0.744 OA
ENDBRANCH  65  66
ENDBRANCH  46  60
BRANCH  47  70
ATOM     70  C   UNL     1       4.900   6.696   5.361  1.00  0.00    -0.014 A 
ATOM     71  C   UNL     1       5.091   5.627   6.254  1.00  0.00     0.010 A 
ATOM     72  C   UNL     1       5.981   7.137   4.577  1.00  0.00     0.010 A 
ATOM     73  C   UNL     1       6.344   5.017   6.366  1.00  0.00     0.020 A 
ATOM     74  C   UNL     1       7.228   6.515   4.670  1.00  0.00     0.020 A 
ATOM     75  C   UNL     1       7.405   5.465   5.572  1.00  0.00     0.054 A 
BRANCH  75  76
ATOM     76  S   UNL     1       9.006   4.619   5.683  1.00  0.00     0.124 S 
ATOM     77  O   UNL     1       9.574   5.203   6.893  1.00  0.00    -0.237 OA
ATOM     78  O   UNL     1       8.618   3.213   5.779  1.00  0.00    -0.237 OA
ATOM     79  O   UNL     1       9.670   4.988   4.434  1.00  0.00    -0.744 OA
ENDBRANCH  75  76
ENDBRANCH  47  70
BRANCH  59  80
ATOM     80  C   UNL     1       1.266  10.944   9.510  1.00  0.00    -0.014 A 
ATOM     81  C   UNL     1       2.188  11.992   9.679  1.00  0.00     0.010 A 
ATOM     82  C   UNL     1       0.584  10.440  10.631  1.00  0.00     0.010 A 
ATOM     83  C   UNL     1       2.454  12.499  10.954  1.00  0.00     0.020 A 
ATOM     84  C   UNL     1       0.832  10.958  11.905  1.00  0.00     0.020 A 
ATOM     85  C   UNL     1       1.780  11.972  12.060  1.00  0.00     0.054 A 
BRANCH  85  86
ATOM     86  S   UNL     1       2.122  12.655  13.706  1.00  0.00     0.124 S 
ATOM     87  O   UNL     1       3.363  11.972  14.064  1.00  0.00    -0.237 OA
ATOM     88  O   UNL     1       2.245  14.087  13.447  1.00  0.00    -0.237 OA
ATOM     89  O   UNL     1       0.950  12.269  14.488  1.00  0.00    -0.744 OA
ENDBRANCH  85  86
ENDBRANCH  59  80
ENDBRANCH  33  34
ENDBRANCH  26  28
ENDBRANCH  25  26
ENDBRANCH   1  25
TORSDOF 16
