REMARK SMILES Cc1cc(C(=O)OCCOC(=O)c2ccc(-c3c4nc(c(-c5ccc(S(=O)(=O)[O-])cc5)c5ccc([nH]5)c(-c5ccc(S(=O)(=O)[O-])cc5)c5nc(c(-c6ccc(S(=O)(=O)[O-])cc6)c6ccc3[nH]6)C=C5)C=C4)cc2)cc(S(=O)(=O)NNC(=O)c2c[nH]c3ccccc23)c1C
REMARK SMILES IDX 8 1 7 2 5 3 6 4 4 5 1 6 2 7 3 8 91 9 74 10 92 11 73 12 75 13
REMARK SMILES IDX 76 14 77 15 78 16 79 18 80 19 81 21 82 22 83 23 90 24 84 25
REMARK SMILES IDX 85 26 89 27 86 29 88 30 87 31 9 32 10 33 11 34 12 35 13 36
REMARK SMILES IDX 14 37 72 38 15 39 71 40 16 41 17 42 18 43 65 44 19 45 70 46
REMARK SMILES IDX 64 47 66 48 20 49 69 50 63 51 62 52 21 54 51 55 32 56 50 57
REMARK SMILES IDX 33 58 36 59 49 60 67 61 34 62 35 63 48 65 68 66 37 67 22 68
REMARK SMILES IDX 23 69 31 70 24 71 30 72 25 73 26 74 27 75 28 76 29 77 52 78
REMARK SMILES IDX 53 79 61 80 54 81 60 82 55 83 56 84 57 85 58 86 59 87 38 88
REMARK SMILES IDX 39 89 47 90 40 91 46 92 41 93 42 94 43 95 44 96 45 97
REMARK H PARENT 78 17 79 20 84 28 66 53 36 64
REMARK Flexibility Score: inf
ROOT
ATOM      1  C   UNL     1      -3.989   3.333   0.302  1.00  0.00     0.275 C 
ENDROOT
BRANCH   1   2
ATOM      2  O   UNL     1      -2.896   2.400   0.093  1.00  0.00    -0.458 OA
BRANCH   2   3
ATOM      3  C   UNL     1      -2.826   1.297   0.896  1.00  0.00     0.338 C 
ATOM      4  O   UNL     1      -3.579   1.036   1.819  1.00  0.00    -0.246 OA
BRANCH   3   5
ATOM      5  C   UNL     1      -1.689   0.400   0.501  1.00  0.00     0.061 A 
ATOM      6  C   UNL     1       1.955   1.162  -0.081  1.00  0.00     0.044 C 
ATOM      7  C   UNL     1       0.688   0.344   0.049  1.00  0.00    -0.046 A 
ATOM      8  C   UNL     1      -0.487   1.062   0.251  1.00  0.00     0.019 A 
ATOM      9  C   UNL     1       0.642  -1.089   0.043  1.00  0.00    -0.028 A 
ATOM     10  C   UNL     1      -0.611  -1.801   0.220  1.00  0.00     0.088 A 
ATOM     11  C   UNL     1       1.953  -1.832  -0.092  1.00  0.00     0.046 C 
ATOM     12  C   UNL     1      -1.754  -1.036   0.496  1.00  0.00     0.037 A 
BRANCH  10  13
ATOM     13  S   UNL     1      -0.597  -3.671   0.052  1.00  0.00     0.257 S 
ATOM     14  O   UNL     1      -0.134  -3.876  -1.309  1.00  0.00    -0.205 OA
ATOM     15  O   UNL     1       0.183  -4.133   1.183  1.00  0.00    -0.205 OA
BRANCH  13  16
ATOM     16  N   UNL     1      -2.171  -4.637   0.157  1.00  0.00    -0.123 NA
ATOM     17  H   UNL     1      -2.894  -4.051   0.575  1.00  0.00     0.167 HD
BRANCH  16  18
ATOM     18  N   UNL     1      -2.616  -5.073  -1.179  1.00  0.00    -0.273 N 
ATOM     19  C   UNL     1      -3.140  -5.813  -2.224  1.00  0.00     0.268 C 
ATOM     20  H   UNL     1      -2.358  -4.270  -1.687  1.00  0.00     0.186 HD
ATOM     21  O   UNL     1      -2.828  -4.902  -3.067  1.00  0.00    -0.268 OA
BRANCH  19  22
ATOM     22  C   UNL     1      -3.832  -7.327  -2.958  1.00  0.00     0.066 A 
ATOM     23  C   UNL     1      -2.721  -6.804  -4.369  1.00  0.00     0.097 A 
ATOM     24  C   UNL     1      -5.712  -7.652  -3.907  1.00  0.00     0.012 A 
ATOM     25  N   UNL     1      -3.735  -6.495  -5.910  1.00  0.00    -0.360 N 
ATOM     26  C   UNL     1      -5.524  -7.052  -5.683  1.00  0.00     0.046 A 
ATOM     27  C   UNL     1      -7.009  -8.237  -3.787  1.00  0.00     0.011 A 
ATOM     28  H   UNL     1      -3.381  -6.092  -6.735  1.00  0.00     0.166 HD
ATOM     29  C   UNL     1      -6.528  -7.020  -6.632  1.00  0.00     0.027 A 
ATOM     30  C   UNL     1      -7.879  -8.267  -4.952  1.00  0.00     0.001 A 
ATOM     31  C   UNL     1      -7.674  -7.689  -6.249  1.00  0.00     0.002 A 
ENDBRANCH  19  22
ENDBRANCH  16  18
ENDBRANCH  13  16
ENDBRANCH  10  13
ENDBRANCH   3   5
ENDBRANCH   2   3
ENDBRANCH   1   2
BRANCH   1  32
ATOM     32  C   UNL     1      -4.923   3.395  -0.913  1.00  0.00     0.275 C 
BRANCH  32  33
ATOM     33  O   UNL     1      -5.646   2.167  -1.038  1.00  0.00    -0.458 OA
BRANCH  33  34
ATOM     34  C   UNL     1      -5.003   1.238  -1.772  1.00  0.00     0.338 C 
ATOM     35  O   UNL     1      -3.983   1.360  -2.428  1.00  0.00    -0.246 OA
BRANCH  34  36
ATOM     36  C   UNL     1      -5.623  -0.049  -1.492  1.00  0.00     0.060 A 
ATOM     37  C   UNL     1      -5.051  -0.798  -0.478  1.00  0.00     0.016 A 
ATOM     38  C   UNL     1      -6.606  -0.581  -2.309  1.00  0.00     0.016 A 
ATOM     39  C   UNL     1      -5.271  -2.149  -0.414  1.00  0.00     0.010 A 
ATOM     40  C   UNL     1      -6.964  -1.913  -2.128  1.00  0.00     0.010 A 
ATOM     41  C   UNL     1      -6.223  -2.718  -1.250  1.00  0.00    -0.014 A 
BRANCH  41  42
ATOM     42  C   UNL     1      -6.228  -4.180  -1.386  1.00  0.00     0.031 A 
ATOM     43  C   UNL     1      -5.769  -4.675  -2.738  1.00  0.00     0.074 A 
ATOM     44  C   UNL     1      -6.323  -4.994  -0.283  1.00  0.00     0.049 A 
ATOM     45  N   UNL     1      -5.424  -5.897  -2.846  1.00  0.00    -0.248 NA
ATOM     46  C   UNL     1      -5.460  -3.897  -3.938  1.00  0.00     0.031 C 
ATOM     47  C   UNL     1      -6.440  -4.482   1.095  1.00  0.00     0.029 A 
ATOM     48  N   UNL     1      -6.258  -6.377  -0.078  1.00  0.00    -0.354 N 
ATOM     49  C   UNL     1      -4.624  -6.231  -4.234  1.00  0.00     0.074 A 
ATOM     50  C   UNL     1      -4.825  -4.728  -4.787  1.00  0.00     0.031 C 
ATOM     51  C   UNL     1      -6.359  -5.490   1.972  1.00  0.00     0.029 A 
ATOM     52  C   UNL     1      -6.365  -6.761   1.258  1.00  0.00     0.049 A 
ATOM     53  H   UNL     1      -6.147  -7.022  -0.813  1.00  0.00     0.167 HD
ATOM     54  C   UNL     1      -4.117  -8.037  -4.766  1.00  0.00     0.031 A 
ATOM     55  C   UNL     1      -6.521  -7.945   1.909  1.00  0.00     0.031 A 
ATOM     56  C   UNL     1      -4.312  -9.566  -3.928  1.00  0.00     0.049 A 
ATOM     57  C   UNL     1      -6.554  -9.248   1.151  1.00  0.00     0.074 A 
ATOM     58  C   UNL     1      -4.237 -10.858  -4.466  1.00  0.00     0.029 A 
ATOM     59  N   UNL     1      -4.840  -9.817  -2.621  1.00  0.00    -0.354 N 
ATOM     60  N   UNL     1      -6.138  -9.512  -0.063  1.00  0.00    -0.248 NA
ATOM     61  C   UNL     1      -7.102 -10.415   1.866  1.00  0.00     0.031 C 
ATOM     62  C   UNL     1      -5.036 -11.734  -3.696  1.00  0.00     0.029 A 
ATOM     63  C   UNL     1      -5.371 -11.107  -2.515  1.00  0.00     0.049 A 
ATOM     64  H   UNL     1      -4.830  -9.162  -1.886  1.00  0.00     0.167 HD
ATOM     65  C   UNL     1      -6.370 -10.874  -0.260  1.00  0.00     0.074 A 
ATOM     66  C   UNL     1      -6.940 -11.381   0.973  1.00  0.00     0.031 C 
ATOM     67  C   UNL     1      -6.096 -11.629  -1.359  1.00  0.00     0.031 A 
BRANCH  54  68
ATOM     68  C   UNL     1      -3.656  -8.755  -6.351  1.00  0.00    -0.014 A 
ATOM     69  C   UNL     1      -2.453  -8.478  -7.038  1.00  0.00     0.010 A 
ATOM     70  C   UNL     1      -4.697  -9.388  -7.085  1.00  0.00     0.010 A 
ATOM     71  C   UNL     1      -2.446  -8.493  -8.442  1.00  0.00     0.020 A 
ATOM     72  C   UNL     1      -4.669  -9.459  -8.477  1.00  0.00     0.020 A 
ATOM     73  C   UNL     1      -3.581  -8.915  -9.147  1.00  0.00     0.054 A 
BRANCH  73  74
ATOM     74  S   UNL     1      -3.696  -8.556 -10.922  1.00  0.00     0.124 S 
ATOM     75  O   UNL     1      -3.599  -7.097 -10.936  1.00  0.00    -0.237 OA
ATOM     76  O   UNL     1      -2.545  -9.268 -11.465  1.00  0.00    -0.237 OA
ATOM     77  O   UNL     1      -5.002  -9.087 -11.307  1.00  0.00    -0.744 OA
ENDBRANCH  73  74
ENDBRANCH  54  68
BRANCH  55  78
ATOM     78  C   UNL     1      -6.817  -7.963   3.397  1.00  0.00    -0.014 A 
ATOM     79  C   UNL     1      -6.013  -8.656   4.323  1.00  0.00     0.010 A 
ATOM     80  C   UNL     1      -7.967  -7.305   3.888  1.00  0.00     0.010 A 
ATOM     81  C   UNL     1      -6.338  -8.671   5.692  1.00  0.00     0.020 A 
ATOM     82  C   UNL     1      -8.272  -7.281   5.254  1.00  0.00     0.020 A 
ATOM     83  C   UNL     1      -7.459  -7.971   6.150  1.00  0.00     0.054 A 
BRANCH  83  84
ATOM     84  S   UNL     1      -7.827  -7.936   7.931  1.00  0.00     0.124 S 
ATOM     85  O   UNL     1      -8.253  -9.309   8.183  1.00  0.00    -0.237 OA
ATOM     86  O   UNL     1      -6.542  -7.554   8.511  1.00  0.00    -0.237 OA
ATOM     87  O   UNL     1      -8.877  -6.926   8.044  1.00  0.00    -0.744 OA
ENDBRANCH  83  84
ENDBRANCH  55  78
BRANCH  67  88
ATOM     88  C   UNL     1      -6.480 -13.109  -1.311  1.00  0.00    -0.014 A 
ATOM     89  C   UNL     1      -7.798 -13.568  -1.086  1.00  0.00     0.010 A 
ATOM     90  C   UNL     1      -5.478 -14.080  -1.497  1.00  0.00     0.010 A 
ATOM     91  C   UNL     1      -8.088 -14.943  -1.008  1.00  0.00     0.020 A 
ATOM     92  C   UNL     1      -5.767 -15.450  -1.466  1.00  0.00     0.020 A 
ATOM     93  C   UNL     1      -7.069 -15.877  -1.204  1.00  0.00     0.054 A 
BRANCH  93  94
ATOM     94  S   UNL     1      -7.460 -17.651  -1.147  1.00  0.00     0.124 S 
ATOM     95  O   UNL     1      -7.746 -17.860   0.269  1.00  0.00    -0.237 OA
ATOM     96  O   UNL     1      -8.610 -17.755  -2.042  1.00  0.00    -0.237 OA
ATOM     97  O   UNL     1      -6.240 -18.292  -1.635  1.00  0.00    -0.744 OA
ENDBRANCH  93  94
ENDBRANCH  67  88
ENDBRANCH  41  42
ENDBRANCH  34  36
ENDBRANCH  33  34
ENDBRANCH  32  33
ENDBRANCH   1  32
TORSDOF 18
