REMARK SMILES Cc1c(C(=O)OCCOC(=O)c2ccc(-c3c4nc(c(-c5ccc(S(=O)(=O)[O-])cc5)c5ccc([nH]5)c(-c5ccc(S(=O)(=O)[O-])cc5)c5nc(c(-c6ccc(S(=O)(=O)[O-])cc6)c6ccc3[nH]6)C=C5)C=C4)cc2)sc2ncnc(NCc3cn4c(n3)SCC4)c12
REMARK SMILES IDX 7 1 6 2 4 3 5 4 3 5 1 6 2 7 88 8 72 9 73 10 77 11 74 12
REMARK SMILES IDX 76 13 75 14 78 15 79 17 80 18 81 19 84 20 82 21 83 22 87 23
REMARK SMILES IDX 85 24 86 25 8 26 9 27 10 28 11 29 12 30 13 31 71 32 14 33
REMARK SMILES IDX 70 34 15 35 16 36 17 37 64 38 18 39 69 40 63 41 65 42 19 43
REMARK SMILES IDX 68 44 62 45 61 46 20 48 50 49 31 50 49 51 32 52 35 53 48 54
REMARK SMILES IDX 66 55 33 56 34 57 47 59 67 60 36 61 21 62 22 63 30 64 23 65
REMARK SMILES IDX 29 66 24 67 25 68 26 69 27 70 28 71 51 72 52 73 60 74 53 75
REMARK SMILES IDX 59 76 54 77 55 78 56 79 57 80 58 81 37 82 38 83 46 84 39 85
REMARK SMILES IDX 45 86 40 87 41 88 42 89 43 90 44 91
REMARK H PARENT 78 16 65 47 35 58
REMARK Flexibility Score: inf
ROOT
ATOM      1  C   UNL     1       4.002   3.989  -2.154  1.00  0.00     0.275 C 
ENDROOT
BRANCH   1   2
ATOM      2  O   UNL     1       2.788   3.992  -1.383  1.00  0.00    -0.458 OA
BRANCH   2   3
ATOM      3  C   UNL     1       1.979   2.899  -1.559  1.00  0.00     0.348 C 
ATOM      4  O   UNL     1       2.170   2.043  -2.402  1.00  0.00    -0.245 OA
BRANCH   3   5
ATOM      5  C   UNL     1       0.908   2.854  -0.567  1.00  0.00     0.118 A 
ATOM      6  C   UNL     1       0.984   0.369  -0.198  1.00  0.00     0.047 C 
ATOM      7  C   UNL     1       0.365   1.709   0.018  1.00  0.00    -0.012 A 
ATOM      8  C   UNL     1      -0.803   2.004   0.848  1.00  0.00     0.058 A 
ATOM      9  S   UNL     1       0.167   4.270  -0.000  1.00  0.00    -0.108 S 
ATOM     10  C   UNL     1      -0.949   3.389   0.931  1.00  0.00     0.129 A 
ATOM     11  C   UNL     1      -1.768   1.262   1.591  1.00  0.00     0.138 A 
ATOM     12  N   UNL     1      -1.860   4.079   1.637  1.00  0.00    -0.225 NA
ATOM     13  N   UNL     1      -2.682   1.954   2.318  1.00  0.00    -0.219 NA
ATOM     14  C   UNL     1      -2.675   3.288   2.318  1.00  0.00     0.225 A 
BRANCH  11  15
ATOM     15  N   UNL     1      -1.986  -0.074   1.732  1.00  0.00    -0.364 N 
ATOM     16  H   UNL     1      -2.592  -0.275   2.482  1.00  0.00     0.162 HD
BRANCH  15  17
ATOM     17  C   UNL     1      -1.549  -1.262   1.054  1.00  0.00     0.172 C 
BRANCH  17  18
ATOM     18  C   UNL     1      -0.903  -2.298   1.926  1.00  0.00     0.079 A 
ATOM     19  C   UNL     1       0.355  -2.299   2.523  1.00  0.00     0.113 A 
ATOM     20  N   UNL     1      -1.575  -3.488   2.188  1.00  0.00    -0.226 NA
ATOM     21  N   UNL     1       0.443  -3.519   3.102  1.00  0.00    -0.325 N 
ATOM     22  C   UNL     1      -0.722  -4.181   2.885  1.00  0.00     0.168 A 
ATOM     23  C   UNL     1       1.537  -4.286   3.663  1.00  0.00     0.135 C 
ATOM     24  S   UNL     1      -0.629  -5.847   3.296  1.00  0.00    -0.086 SA
ATOM     25  C   UNL     1       1.212  -5.742   3.312  1.00  0.00     0.100 C 
ENDBRANCH  17  18
ENDBRANCH  15  17
ENDBRANCH  11  15
ENDBRANCH   3   5
ENDBRANCH   2   3
ENDBRANCH   1   2
BRANCH   1  26
ATOM     26  C   UNL     1       5.188   3.438  -1.366  1.00  0.00     0.275 C 
BRANCH  26  27
ATOM     27  O   UNL     1       5.146   2.019  -1.186  1.00  0.00    -0.458 OA
BRANCH  27  28
ATOM     28  C   UNL     1       4.536   1.636  -0.043  1.00  0.00     0.338 C 
ATOM     29  O   UNL     1       3.731   2.280   0.610  1.00  0.00    -0.246 OA
BRANCH  28  30
ATOM     30  C   UNL     1       5.098   0.377   0.451  1.00  0.00     0.060 A 
ATOM     31  C   UNL     1       4.339  -0.341   1.379  1.00  0.00     0.016 A 
ATOM     32  C   UNL     1       6.443   0.072   0.207  1.00  0.00     0.016 A 
ATOM     33  C   UNL     1       4.963  -1.291   2.157  1.00  0.00     0.010 A 
ATOM     34  C   UNL     1       7.065  -0.884   0.987  1.00  0.00     0.010 A 
ATOM     35  C   UNL     1       6.337  -1.508   2.001  1.00  0.00    -0.014 A 
BRANCH  35  36
ATOM     36  C   UNL     1       6.958  -2.484   2.885  1.00  0.00     0.031 A 
ATOM     37  C   UNL     1       6.394  -3.854   2.733  1.00  0.00     0.074 A 
ATOM     38  C   UNL     1       8.002  -2.179   3.682  1.00  0.00     0.049 A 
ATOM     39  N   UNL     1       5.748  -4.562   3.602  1.00  0.00    -0.248 NA
ATOM     40  C   UNL     1       6.393  -4.427   1.374  1.00  0.00     0.031 C 
ATOM     41  C   UNL     1       8.772  -0.930   3.716  1.00  0.00     0.029 A 
ATOM     42  N   UNL     1       8.681  -2.975   4.552  1.00  0.00    -0.354 N 
ATOM     43  C   UNL     1       5.470  -5.769   2.965  1.00  0.00     0.074 A 
ATOM     44  C   UNL     1       5.708  -5.553   1.561  1.00  0.00     0.031 C 
ATOM     45  C   UNL     1       9.946  -1.148   4.351  1.00  0.00     0.029 A 
ATOM     46  C   UNL     1       9.947  -2.499   4.884  1.00  0.00     0.049 A 
ATOM     47  H   UNL     1       8.311  -3.812   4.914  1.00  0.00     0.167 HD
ATOM     48  C   UNL     1       5.321  -6.933   3.655  1.00  0.00     0.031 A 
ATOM     49  C   UNL     1      10.947  -3.202   5.474  1.00  0.00     0.031 A 
ATOM     50  C   UNL     1       5.090  -6.710   5.055  1.00  0.00     0.049 A 
ATOM     51  C   UNL     1      10.322  -4.377   6.127  1.00  0.00     0.074 A 
ATOM     52  C   UNL     1       4.092  -6.149   5.820  1.00  0.00     0.029 A 
ATOM     53  N   UNL     1       6.184  -6.817   5.881  1.00  0.00    -0.354 N 
ATOM     54  N   UNL     1       9.500  -4.291   7.135  1.00  0.00    -0.248 NA
ATOM     55  C   UNL     1      10.272  -5.626   5.383  1.00  0.00     0.031 C 
ATOM     56  C   UNL     1       4.760  -5.519   6.904  1.00  0.00     0.029 A 
ATOM     57  C   UNL     1       6.122  -5.804   6.798  1.00  0.00     0.049 A 
ATOM     58  H   UNL     1       6.887  -7.503   5.822  1.00  0.00     0.167 HD
ATOM     59  C   UNL     1       8.554  -5.277   6.904  1.00  0.00     0.074 A 
ATOM     60  C   UNL     1       9.137  -6.130   5.872  1.00  0.00     0.031 C 
ATOM     61  C   UNL     1       7.279  -5.150   7.371  1.00  0.00     0.031 A 
BRANCH  48  62
ATOM     62  C   UNL     1       5.838  -8.256   3.136  1.00  0.00    -0.014 A 
ATOM     63  C   UNL     1       5.622  -9.418   3.903  1.00  0.00     0.010 A 
ATOM     64  C   UNL     1       6.779  -8.349   2.087  1.00  0.00     0.010 A 
ATOM     65  C   UNL     1       6.364 -10.585   3.677  1.00  0.00     0.020 A 
ATOM     66  C   UNL     1       7.490  -9.520   1.825  1.00  0.00     0.020 A 
ATOM     67  C   UNL     1       7.304 -10.621   2.647  1.00  0.00     0.054 A 
BRANCH  67  68
ATOM     68  S   UNL     1       8.341 -12.088   2.439  1.00  0.00     0.124 S 
ATOM     69  O   UNL     1       9.115 -12.084   3.676  1.00  0.00    -0.237 OA
ATOM     70  O   UNL     1       7.346 -13.150   2.313  1.00  0.00    -0.237 OA
ATOM     71  O   UNL     1       9.098 -11.801   1.223  1.00  0.00    -0.744 OA
ENDBRANCH  67  68
ENDBRANCH  48  62
BRANCH  49  72
ATOM     72  C   UNL     1      12.407  -3.132   5.193  1.00  0.00    -0.014 A 
ATOM     73  C   UNL     1      13.330  -3.830   5.997  1.00  0.00     0.010 A 
ATOM     74  C   UNL     1      12.871  -2.620   3.964  1.00  0.00     0.010 A 
ATOM     75  C   UNL     1      14.644  -4.068   5.554  1.00  0.00     0.020 A 
ATOM     76  C   UNL     1      14.181  -2.844   3.522  1.00  0.00     0.020 A 
ATOM     77  C   UNL     1      15.054  -3.592   4.307  1.00  0.00     0.054 A 
BRANCH  77  78
ATOM     78  S   UNL     1      16.689  -4.057   3.664  1.00  0.00     0.124 S 
ATOM     79  O   UNL     1      17.592  -3.347   4.565  1.00  0.00    -0.237 OA
ATOM     80  O   UNL     1      16.678  -5.511   3.795  1.00  0.00    -0.237 OA
ATOM     81  O   UNL     1      16.671  -3.562   2.288  1.00  0.00    -0.744 OA
ENDBRANCH  77  78
ENDBRANCH  49  72
BRANCH  61  82
ATOM     82  C   UNL     1       6.979  -4.090   8.407  1.00  0.00    -0.014 A 
ATOM     83  C   UNL     1       7.051  -2.706   8.156  1.00  0.00     0.010 A 
ATOM     84  C   UNL     1       6.393  -4.527   9.608  1.00  0.00     0.010 A 
ATOM     85  C   UNL     1       6.538  -1.786   9.085  1.00  0.00     0.020 A 
ATOM     86  C   UNL     1       5.864  -3.619  10.525  1.00  0.00     0.020 A 
ATOM     87  C   UNL     1       5.936  -2.252  10.260  1.00  0.00     0.054 A 
BRANCH  87  88
ATOM     88  S   UNL     1       5.176  -1.068  11.409  1.00  0.00     0.124 S 
ATOM     89  O   UNL     1       6.334  -0.360  11.947  1.00  0.00    -0.237 OA
ATOM     90  O   UNL     1       4.307  -0.284  10.535  1.00  0.00    -0.237 OA
ATOM     91  O   UNL     1       4.471  -1.919  12.367  1.00  0.00    -0.744 OA
ENDBRANCH  87  88
ENDBRANCH  61  82
ENDBRANCH  35  36
ENDBRANCH  28  30
ENDBRANCH  27  28
ENDBRANCH  26  27
ENDBRANCH   1  26
TORSDOF 17
