REMARK SMILES Cc1oc2c(C)c3oc(=O)c(CCC(=O)N[C@H](Cc4ccc(Cl)cc4)C(=O)OCCOC(=O)c4ccc(-c5c6nc(c(-c7ccc(S(=O)(=O)[O-])cc7)c7ccc([nH]7)c(-c7ccc(S(=O)(=O)[O-])cc7)c7nc(c(-c8ccc(S(=O)(=O)[O-])cc8)c8ccc5[nH]8)C=C7)C=C6)cc4)c(C)c3cc2c1C
REMARK SMILES IDX 29 1 28 2 26 3 27 4 17 5 16 6 14 7 15 8 13 10 12 11 11 12
REMARK SMILES IDX 1 13 2 14 3 15 99 16 4 17 98 18 100 19 5 20 97 21 6 22 7 23
REMARK SMILES IDX 96 24 8 25 94 26 9 27 95 28 10 29 18 30 19 31 20 32 25 33
REMARK SMILES IDX 21 34 24 35 22 36 23 37 30 38 31 39 32 40 33 41 34 42 35 43
REMARK SMILES IDX 93 44 36 45 92 46 37 47 38 48 39 49 86 50 40 51 91 52 85 53
REMARK SMILES IDX 87 54 41 55 90 56 84 57 83 58 42 60 72 61 53 62 71 63 54 64
REMARK SMILES IDX 57 65 70 66 88 67 55 68 56 69 69 71 89 72 58 73 43 74 44 75
REMARK SMILES IDX 52 76 45 77 51 78 46 79 47 80 48 81 49 82 50 83 73 84 74 85
REMARK SMILES IDX 82 86 75 87 81 88 76 89 77 90 78 91 79 92 80 93 59 94 60 95
REMARK SMILES IDX 68 96 61 97 67 98 62 99 63 100 64 101 65 102 66 103
REMARK H PARENT 16 9 87 59 57 70
REMARK Flexibility Score: inf
ROOT
ATOM      1  C   UNL     1      -0.622   5.539   5.341  1.00  0.00     0.274 C 
ENDROOT
BRANCH   1   2
ATOM      2  O   UNL     1       0.375   5.960   4.386  1.00  0.00    -0.461 OA
BRANCH   2   3
ATOM      3  C   UNL     1      -0.066   6.661   3.312  1.00  0.00     0.329 C 
ATOM      4  O   UNL     1      -1.260   6.929   3.156  1.00  0.00    -0.250 OA
BRANCH   3   5
ATOM      5  C   UNL     1       1.020   6.814   1.993  1.00  0.00     0.196 C 
BRANCH   5   6
ATOM      6  N   UNL     1       0.214   5.580   1.253  1.00  0.00    -0.342 N 
ATOM      7  C   UNL     1       0.268   4.218   1.272  1.00  0.00     0.221 C 
ATOM      8  O   UNL     1      -0.572   3.575   0.644  1.00  0.00    -0.275 OA
ATOM      9  H   UNL     1      -0.483   5.912   0.642  1.00  0.00     0.164 HD
BRANCH   7  10
ATOM     10  C   UNL     1       1.369   3.534   2.049  1.00  0.00     0.105 C 
BRANCH  10  11
ATOM     11  C   UNL     1       2.747   4.040   1.640  1.00  0.00     0.053 C 
BRANCH  11  12
ATOM     12  C   UNL     1       2.627   5.519   1.513  1.00  0.00     0.042 A 
ATOM     13  C   UNL     1       0.586  13.843  -1.212  1.00  0.00     0.088 C 
ATOM     14  C   UNL     1       0.708  12.411  -0.855  1.00  0.00     0.105 A 
ATOM     15  O   UNL     1       0.840  12.150   0.468  1.00  0.00    -0.461 OA
ATOM     16  C   UNL     1       0.752  11.239  -1.581  1.00  0.00    -0.002 A 
ATOM     17  C   UNL     1       1.021  10.809   0.642  1.00  0.00     0.141 A 
ATOM     18  C   UNL     1       1.020  10.184  -0.633  1.00  0.00     0.025 A 
ATOM     19  C   UNL     1       0.623  11.085  -3.051  1.00  0.00     0.049 C 
ATOM     20  C   UNL     1       1.229  10.260   1.931  1.00  0.00     0.036 A 
ATOM     21  C   UNL     1       1.313   8.794  -0.852  1.00  0.00     0.024 A 
ATOM     22  C   UNL     1       1.458  11.006   3.184  1.00  0.00     0.052 C 
ATOM     23  C   UNL     1       1.476   8.929   1.754  1.00  0.00     0.145 A 
ATOM     24  C   UNL     1       1.624   8.066   0.267  1.00  0.00     0.022 A 
ATOM     25  O   UNL     1       1.914   7.952   3.241  1.00  0.00    -0.422 OA
ATOM     26  C   UNL     1       2.244   6.300   0.222  1.00  0.00    -0.030 A 
ATOM     27  C   UNL     1       2.552   6.269   3.303  1.00  0.00     0.339 A 
ATOM     28  C   UNL     1       2.205   5.719  -1.159  1.00  0.00     0.046 C 
ATOM     29  O   UNL     1       2.991   5.752   4.319  1.00  0.00    -0.246 OA
ENDBRANCH  11  12
ENDBRANCH  10  11
ENDBRANCH   7  10
ENDBRANCH   5   6
BRANCH   5  30
ATOM     30  C   UNL     1       3.072   7.545   1.793  1.00  0.00     0.072 C 
BRANCH  30  31
ATOM     31  C   UNL     1       3.958   8.903   2.336  1.00  0.00    -0.045 A 
ATOM     32  C   UNL     1       4.334   9.886   1.386  1.00  0.00     0.005 A 
ATOM     33  C   UNL     1       4.334   9.084   3.679  1.00  0.00     0.005 A 
ATOM     34  C   UNL     1       4.940  11.076   1.794  1.00  0.00     0.021 A 
ATOM     35  C   UNL     1       4.954  10.276   4.076  1.00  0.00     0.021 A 
ATOM     36  C   UNL     1       5.231  11.273   3.140  1.00  0.00     0.041 A 
ATOM     37  Cl  UNL     1       5.900  12.771   3.651  1.00  0.00    -0.084 Cl
ENDBRANCH  30  31
ENDBRANCH   5  30
ENDBRANCH   3   5
ENDBRANCH   2   3
ENDBRANCH   1   2
BRANCH   1  38
ATOM     38  C   UNL     1      -0.968   6.598   6.392  1.00  0.00     0.275 C 
BRANCH  38  39
ATOM     39  O   UNL     1      -1.545   7.781   5.806  1.00  0.00    -0.458 OA
BRANCH  39  40
ATOM     40  C   UNL     1      -0.649   8.775   5.611  1.00  0.00     0.338 C 
ATOM     41  O   UNL     1       0.539   8.735   5.898  1.00  0.00    -0.246 OA
BRANCH  40  42
ATOM     42  C   UNL     1      -1.254   9.989   5.030  1.00  0.00     0.060 A 
ATOM     43  C   UNL     1      -1.869  10.017   3.769  1.00  0.00     0.016 A 
ATOM     44  C   UNL     1      -0.956  11.181   5.680  1.00  0.00     0.016 A 
ATOM     45  C   UNL     1      -2.128  11.247   3.131  1.00  0.00     0.010 A 
ATOM     46  C   UNL     1      -1.218  12.393   5.047  1.00  0.00     0.010 A 
ATOM     47  C   UNL     1      -1.786  12.453   3.755  1.00  0.00    -0.014 A 
BRANCH  47  48
ATOM     48  C   UNL     1      -2.079  13.781   3.117  1.00  0.00     0.031 A 
ATOM     49  C   UNL     1      -2.772  14.676   4.093  1.00  0.00     0.074 A 
ATOM     50  C   UNL     1      -1.203  14.511   2.377  1.00  0.00     0.049 A 
ATOM     51  N   UNL     1      -2.064  15.359   4.946  1.00  0.00    -0.248 NA
ATOM     52  C   UNL     1      -4.178  14.524   4.454  1.00  0.00     0.031 C 
ATOM     53  C   UNL     1       0.251  14.383   2.502  1.00  0.00     0.029 A 
ATOM     54  N   UNL     1      -1.371  15.725   1.716  1.00  0.00    -0.354 N 
ATOM     55  C   UNL     1      -2.849  15.491   6.064  1.00  0.00     0.074 A 
ATOM     56  C   UNL     1      -4.185  15.082   5.674  1.00  0.00     0.031 C 
ATOM     57  C   UNL     1       0.835  15.531   2.123  1.00  0.00     0.029 A 
ATOM     58  C   UNL     1      -0.182  16.440   1.620  1.00  0.00     0.049 A 
ATOM     59  H   UNL     1      -2.232  16.040   1.358  1.00  0.00     0.167 HD
ATOM     60  C   UNL     1      -2.337  15.761   7.293  1.00  0.00     0.031 A 
ATOM     61  C   UNL     1      -0.018  17.778   1.460  1.00  0.00     0.031 A 
ATOM     62  C   UNL     1      -0.912  15.940   7.483  1.00  0.00     0.049 A 
ATOM     63  C   UNL     1       0.305  18.267   2.843  1.00  0.00     0.074 A 
ATOM     64  C   UNL     1      -0.048  15.960   8.565  1.00  0.00     0.029 A 
ATOM     65  N   UNL     1      -0.099  16.157   6.396  1.00  0.00    -0.354 N 
ATOM     66  N   UNL     1       1.455  18.210   3.460  1.00  0.00    -0.248 NA
ATOM     67  C   UNL     1      -0.843  18.600   3.707  1.00  0.00     0.031 C 
ATOM     68  C   UNL     1       1.206  16.484   8.113  1.00  0.00     0.029 A 
ATOM     69  C   UNL     1       1.059  16.803   6.778  1.00  0.00     0.049 A 
ATOM     70  H   UNL     1      -0.312  15.888   5.473  1.00  0.00     0.167 HD
ATOM     71  C   UNL     1       1.112  18.172   4.805  1.00  0.00     0.074 A 
ATOM     72  C   UNL     1      -0.275  18.574   4.905  1.00  0.00     0.031 C 
ATOM     73  C   UNL     1       1.811  17.482   5.750  1.00  0.00     0.031 A 
BRANCH  60  74
ATOM     74  C   UNL     1      -3.270  16.001   8.412  1.00  0.00    -0.014 A 
ATOM     75  C   UNL     1      -3.606  17.338   8.677  1.00  0.00     0.010 A 
ATOM     76  C   UNL     1      -3.778  14.975   9.221  1.00  0.00     0.010 A 
ATOM     77  C   UNL     1      -4.439  17.657   9.742  1.00  0.00     0.020 A 
ATOM     78  C   UNL     1      -4.618  15.292  10.293  1.00  0.00     0.020 A 
ATOM     79  C   UNL     1      -4.939  16.631  10.546  1.00  0.00     0.054 A 
BRANCH  79  80
ATOM     80  S   UNL     1      -6.007  17.093  11.935  1.00  0.00     0.124 S 
ATOM     81  O   UNL     1      -5.133  17.953  12.727  1.00  0.00    -0.237 OA
ATOM     82  O   UNL     1      -7.114  17.766  11.260  1.00  0.00    -0.237 OA
ATOM     83  O   UNL     1      -6.344  15.812  12.552  1.00  0.00    -0.744 OA
ENDBRANCH  79  80
ENDBRANCH  60  74
BRANCH  61  84
ATOM     84  C   UNL     1      -0.876  18.516   0.496  1.00  0.00    -0.014 A 
ATOM     85  C   UNL     1      -0.947  18.012  -0.822  1.00  0.00     0.010 A 
ATOM     86  C   UNL     1      -1.564  19.706   0.776  1.00  0.00     0.010 A 
ATOM     87  C   UNL     1      -1.755  18.612  -1.790  1.00  0.00     0.020 A 
ATOM     88  C   UNL     1      -2.399  20.300  -0.180  1.00  0.00     0.020 A 
ATOM     89  C   UNL     1      -2.502  19.739  -1.452  1.00  0.00     0.054 A 
BRANCH  89  90
ATOM     90  S   UNL     1      -3.656  20.415  -2.675  1.00  0.00     0.124 S 
ATOM     91  O   UNL     1      -2.754  21.018  -3.651  1.00  0.00    -0.237 OA
ATOM     92  O   UNL     1      -4.364  19.219  -3.127  1.00  0.00    -0.237 OA
ATOM     93  O   UNL     1      -4.464  21.353  -1.901  1.00  0.00    -0.744 OA
ENDBRANCH  89  90
ENDBRANCH  61  84
BRANCH  73  94
ATOM     94  C   UNL     1       3.292  17.390   5.620  1.00  0.00    -0.014 A 
ATOM     95  C   UNL     1       4.039  18.570   5.434  1.00  0.00     0.010 A 
ATOM     96  C   UNL     1       3.982  16.178   5.787  1.00  0.00     0.010 A 
ATOM     97  C   UNL     1       5.434  18.547   5.423  1.00  0.00     0.020 A 
ATOM     98  C   UNL     1       5.384  16.148   5.773  1.00  0.00     0.020 A 
ATOM     99  C   UNL     1       6.101  17.335   5.601  1.00  0.00     0.054 A 
BRANCH  99 100
ATOM    100  S   UNL     1       7.913  17.353   5.643  1.00  0.00     0.124 S 
ATOM    101  O   UNL     1       8.258  17.922   4.342  1.00  0.00    -0.237 OA
ATOM    102  O   UNL     1       8.191  18.212   6.793  1.00  0.00    -0.237 OA
ATOM    103  O   UNL     1       8.278  15.949   5.822  1.00  0.00    -0.744 OA
ENDBRANCH  99 100
ENDBRANCH  73  94
ENDBRANCH  47  48
ENDBRANCH  40  42
ENDBRANCH  39  40
ENDBRANCH  38  39
ENDBRANCH   1  38
TORSDOF 20
