REMARK SMILES O=C(Cn1c2ccccc2c(=O)c2ccccc21)N[C@@H](Cc1ccccc1)C(=O)OCCOC(=O)c1ccc(-c2c3nc(c(-c4ccc(S(=O)(=O)[O-])cc4)c4ccc([nH]4)c(-c4ccc(S(=O)(=O)[O-])cc4)c4nc(c(-c5ccc(S(=O)(=O)[O-])cc5)c5ccc2[nH]5)C=C4)C=C3)cc1
REMARK SMILES IDX 31 1 30 2 28 3 29 4 20 5 19 6 1 7 2 8 3 10 4 11 5 12 18 13
REMARK SMILES IDX 6 14 10 15 13 16 17 17 7 18 9 19 11 20 14 21 16 22 8 23
REMARK SMILES IDX 12 24 15 25 21 26 22 27 23 28 27 29 24 30 26 31 25 32 32 33
REMARK SMILES IDX 33 34 34 35 35 36 36 37 37 38 95 39 38 40 94 41 39 42 40 43
REMARK SMILES IDX 41 44 88 45 42 46 93 47 87 48 89 49 43 50 92 51 86 52 85 53
REMARK SMILES IDX 44 55 74 56 55 57 73 58 56 59 59 60 72 61 90 62 57 63 58 64
REMARK SMILES IDX 71 66 91 67 60 68 45 69 46 70 54 71 47 72 53 73 48 74 49 75
REMARK SMILES IDX 50 76 51 77 52 78 75 79 76 80 84 81 77 82 83 83 78 84 79 85
REMARK SMILES IDX 80 86 81 87 82 88 61 89 62 90 70 91 63 92 69 93 64 94 65 95
REMARK SMILES IDX 66 96 67 97 68 98
REMARK H PARENT 19 9 89 54 59 65
REMARK Flexibility Score: inf
ROOT
ATOM      1  C   UNL     1       3.637  -4.951   1.456  1.00  0.00     0.274 C 
ENDROOT
BRANCH   1   2
ATOM      2  O   UNL     1       3.441  -3.725   0.714  1.00  0.00    -0.461 OA
BRANCH   2   3
ATOM      3  C   UNL     1       2.389  -3.702  -0.148  1.00  0.00     0.329 C 
ATOM      4  O   UNL     1       1.623  -4.645  -0.324  1.00  0.00    -0.250 OA
BRANCH   3   5
ATOM      5  C   UNL     1       2.352  -2.445  -1.046  1.00  0.00     0.196 C 
BRANCH   5   6
ATOM      6  N   UNL     1       3.057  -1.232  -0.598  1.00  0.00    -0.341 N 
ATOM      7  O   UNL     1       1.435  -0.399   0.777  1.00  0.00    -0.273 OA
ATOM      8  C   UNL     1       2.567  -0.311   0.312  1.00  0.00     0.240 C 
ATOM      9  H   UNL     1       3.950  -1.062  -0.976  1.00  0.00     0.164 HD
BRANCH   8  10
ATOM     10  C   UNL     1       3.466   0.925   0.526  1.00  0.00     0.222 C 
BRANCH  10  11
ATOM     11  N   UNL     1       4.272   1.065   1.778  1.00  0.00    -0.331 N 
ATOM     12  C   UNL     1       4.479   2.402   2.252  1.00  0.00     0.053 A 
ATOM     13  C   UNL     1       5.006  -0.005   2.341  1.00  0.00     0.053 A 
ATOM     14  C   UNL     1       4.089   3.566   1.561  1.00  0.00     0.027 A 
ATOM     15  C   UNL     1       5.177   2.618   3.458  1.00  0.00     0.046 A 
ATOM     16  C   UNL     1       5.648   0.146   3.586  1.00  0.00     0.046 A 
ATOM     17  C   UNL     1       5.231  -1.237   1.726  1.00  0.00     0.027 A 
ATOM     18  C   UNL     1       4.405   4.854   2.030  1.00  0.00     0.002 A 
ATOM     19  C   UNL     1       5.500   3.902   3.930  1.00  0.00     0.014 A 
ATOM     20  C   UNL     1       5.658   1.465   4.236  1.00  0.00     0.197 A 
ATOM     21  C   UNL     1       6.385  -0.885   4.202  1.00  0.00     0.014 A 
ATOM     22  C   UNL     1       5.979  -2.269   2.313  1.00  0.00     0.002 A 
ATOM     23  C   UNL     1       5.120   5.023   3.208  1.00  0.00     0.001 A 
ATOM     24  O   UNL     1       6.144   1.616   5.353  1.00  0.00    -0.288 OA
ATOM     25  C   UNL     1       6.541  -2.104   3.565  1.00  0.00     0.001 A 
ENDBRANCH  10  11
ENDBRANCH   8  10
ENDBRANCH   5   6
BRANCH   5  26
ATOM     26  C   UNL     1       2.869  -2.886  -2.442  1.00  0.00     0.072 C 
BRANCH  26  27
ATOM     27  C   UNL     1       4.348  -3.239  -2.460  1.00  0.00    -0.045 A 
ATOM     28  C   UNL     1       5.319  -2.244  -2.648  1.00  0.00     0.004 A 
ATOM     29  C   UNL     1       4.771  -4.554  -2.216  1.00  0.00     0.004 A 
ATOM     30  C   UNL     1       6.676  -2.541  -2.520  1.00  0.00     0.000 A 
ATOM     31  C   UNL     1       6.130  -4.854  -2.112  1.00  0.00     0.000 A 
ATOM     32  C   UNL     1       7.081  -3.845  -2.248  1.00  0.00     0.000 A 
ENDBRANCH  26  27
ENDBRANCH   5  26
ENDBRANCH   3   5
ENDBRANCH   2   3
ENDBRANCH   1   2
BRANCH   1  33
ATOM     33  C   UNL     1       3.337  -4.771   2.944  1.00  0.00     0.275 C 
BRANCH  33  34
ATOM     34  O   UNL     1       1.961  -4.429   3.136  1.00  0.00    -0.458 OA
BRANCH  34  35
ATOM     35  C   UNL     1       1.707  -3.100   3.142  1.00  0.00     0.338 C 
ATOM     36  O   UNL     1       2.510  -2.184   3.102  1.00  0.00    -0.246 OA
BRANCH  35  37
ATOM     37  C   UNL     1       0.257  -2.945   3.084  1.00  0.00     0.060 A 
ATOM     38  C   UNL     1      -0.506  -3.159   4.228  1.00  0.00     0.016 A 
ATOM     39  C   UNL     1      -0.337  -2.614   1.865  1.00  0.00     0.016 A 
ATOM     40  C   UNL     1      -1.889  -3.072   4.131  1.00  0.00     0.010 A 
ATOM     41  C   UNL     1      -1.713  -2.490   1.775  1.00  0.00     0.010 A 
ATOM     42  C   UNL     1      -2.494  -2.748   2.903  1.00  0.00    -0.014 A 
BRANCH  42  43
ATOM     43  C   UNL     1      -3.961  -2.682   2.802  1.00  0.00     0.031 A 
ATOM     44  C   UNL     1      -4.705  -3.779   2.107  1.00  0.00     0.074 A 
ATOM     45  C   UNL     1      -4.589  -1.637   3.369  1.00  0.00     0.049 A 
ATOM     46  N   UNL     1      -5.994  -3.969   2.036  1.00  0.00    -0.248 NA
ATOM     47  C   UNL     1      -3.905  -4.793   1.397  1.00  0.00     0.031 C 
ATOM     48  C   UNL     1      -3.913  -0.515   4.025  1.00  0.00     0.029 A 
ATOM     49  N   UNL     1      -5.921  -1.361   3.513  1.00  0.00    -0.354 N 
ATOM     50  C   UNL     1      -6.160  -5.133   1.297  1.00  0.00     0.074 A 
ATOM     51  C   UNL     1      -4.848  -5.573   0.885  1.00  0.00     0.031 C 
ATOM     52  C   UNL     1      -4.837   0.299   4.555  1.00  0.00     0.029 A 
ATOM     53  C   UNL     1      -6.165  -0.226   4.249  1.00  0.00     0.049 A 
ATOM     54  H   UNL     1      -6.634  -1.921   3.129  1.00  0.00     0.167 HD
ATOM     55  C   UNL     1      -7.313  -5.785   1.023  1.00  0.00     0.031 A 
ATOM     56  C   UNL     1      -7.331   0.315   4.650  1.00  0.00     0.031 A 
ATOM     57  C   UNL     1      -8.602  -5.306   1.448  1.00  0.00     0.049 A 
ATOM     58  C   UNL     1      -8.600  -0.419   4.316  1.00  0.00     0.074 A 
ATOM     59  C   UNL     1      -9.840  -5.888   1.250  1.00  0.00     0.029 A 
ATOM     60  N   UNL     1      -8.818  -4.131   2.157  1.00  0.00    -0.354 N 
ATOM     61  N   UNL     1      -8.743  -1.557   3.676  1.00  0.00    -0.248 NA
ATOM     62  C   UNL     1      -9.859   0.183   4.768  1.00  0.00     0.031 C 
ATOM     63  C   UNL     1     -10.808  -5.031   1.776  1.00  0.00     0.029 A 
ATOM     64  C   UNL     1     -10.171  -3.954   2.377  1.00  0.00     0.049 A 
ATOM     65  H   UNL     1      -8.111  -3.515   2.458  1.00  0.00     0.167 HD
ATOM     66  C   UNL     1     -10.107  -1.815   3.656  1.00  0.00     0.074 A 
ATOM     67  C   UNL     1     -10.744  -0.726   4.372  1.00  0.00     0.031 C 
ATOM     68  C   UNL     1     -10.774  -2.853   3.092  1.00  0.00     0.031 A 
BRANCH  55  69
ATOM     69  C   UNL     1      -7.243  -7.081   0.258  1.00  0.00    -0.014 A 
ATOM     70  C   UNL     1      -7.843  -7.186  -1.010  1.00  0.00     0.010 A 
ATOM     71  C   UNL     1      -6.686  -8.234   0.843  1.00  0.00     0.010 A 
ATOM     72  C   UNL     1      -7.923  -8.421  -1.661  1.00  0.00     0.020 A 
ATOM     73  C   UNL     1      -6.736  -9.465   0.183  1.00  0.00     0.020 A 
ATOM     74  C   UNL     1      -7.380  -9.556  -1.053  1.00  0.00     0.054 A 
BRANCH  74  75
ATOM     75  S   UNL     1      -7.536 -11.157  -1.891  1.00  0.00     0.124 S 
ATOM     76  O   UNL     1      -8.953 -11.461  -1.714  1.00  0.00    -0.237 OA
ATOM     77  O   UNL     1      -7.123 -10.845  -3.257  1.00  0.00    -0.237 OA
ATOM     78  O   UNL     1      -6.615 -12.022  -1.155  1.00  0.00    -0.744 OA
ENDBRANCH  74  75
ENDBRANCH  55  69
BRANCH  56  79
ATOM     79  C   UNL     1      -7.308   1.564   5.459  1.00  0.00    -0.014 A 
ATOM     80  C   UNL     1      -6.827   2.764   4.898  1.00  0.00     0.010 A 
ATOM     81  C   UNL     1      -7.643   1.540   6.824  1.00  0.00     0.010 A 
ATOM     82  C   UNL     1      -6.619   3.892   5.696  1.00  0.00     0.020 A 
ATOM     83  C   UNL     1      -7.467   2.679   7.620  1.00  0.00     0.020 A 
ATOM     84  C   UNL     1      -6.926   3.836   7.057  1.00  0.00     0.054 A 
BRANCH  84  85
ATOM     85  S   UNL     1      -6.581   5.291   8.086  1.00  0.00     0.124 S 
ATOM     86  O   UNL     1      -5.125   5.246   8.193  1.00  0.00    -0.237 OA
ATOM     87  O   UNL     1      -7.119   6.385   7.280  1.00  0.00    -0.237 OA
ATOM     88  O   UNL     1      -7.308   5.017   9.322  1.00  0.00    -0.744 OA
ENDBRANCH  84  85
ENDBRANCH  56  79
BRANCH  68  89
ATOM     89  C   UNL     1     -12.275  -2.867   3.200  1.00  0.00    -0.014 A 
ATOM     90  C   UNL     1     -12.912  -3.883   3.937  1.00  0.00     0.010 A 
ATOM     91  C   UNL     1     -13.054  -1.976   2.442  1.00  0.00     0.010 A 
ATOM     92  C   UNL     1     -14.297  -4.041   3.873  1.00  0.00     0.020 A 
ATOM     93  C   UNL     1     -14.444  -2.109   2.404  1.00  0.00     0.020 A 
ATOM     94  C   UNL     1     -15.052  -3.160   3.095  1.00  0.00     0.054 A 
BRANCH  94  95
ATOM     95  S   UNL     1     -16.843  -3.417   2.976  1.00  0.00     0.124 S 
ATOM     96  O   UNL     1     -16.929  -4.578   2.096  1.00  0.00    -0.237 OA
ATOM     97  O   UNL     1     -17.226  -3.650   4.367  1.00  0.00    -0.237 OA
ATOM     98  O   UNL     1     -17.332  -2.163   2.406  1.00  0.00    -0.744 OA
ENDBRANCH  94  95
ENDBRANCH  68  89
ENDBRANCH  42  43
ENDBRANCH  35  37
ENDBRANCH  34  35
ENDBRANCH  33  34
ENDBRANCH   1  33
TORSDOF 19
