REMARK SMILES Nc1cc([N+](=O)[O-])ccc1[C@H]([NH3+])C(=O)OCCOC(=O)c1ccc(-c2c3nc(c(-c4ccc(S(=O)(=O)[O-])cc4)c4ccc([nH]4)c(-c4ccc(S(=O)(=O)[O-])cc4)c4nc(c(-c5ccc(S(=O)(=O)[O-])cc5)c5ccc2[nH]5)C=C4)C=C3)cc1
REMARK SMILES IDX 17 1 16 2 15 3 13 4 14 5 11 6 10 7 2 8 3 9 4 10 9 11 8 12
REMARK SMILES IDX 1 13 5 16 6 17 7 18 12 19 18 23 19 24 20 25 21 26 22 27
REMARK SMILES IDX 80 28 23 29 79 30 24 31 25 32 26 33 73 34 27 35 78 36 72 37
REMARK SMILES IDX 74 38 28 39 77 40 71 41 70 42 29 44 59 45 40 46 58 47 41 48
REMARK SMILES IDX 44 49 57 50 75 51 42 52 43 53 56 55 76 56 45 57 30 58 31 59
REMARK SMILES IDX 39 60 32 61 38 62 33 63 34 64 35 65 36 66 37 67 60 68 61 69
REMARK SMILES IDX 69 70 62 71 68 72 63 73 64 74 65 75 66 76 67 77 46 78 47 79
REMARK SMILES IDX 55 80 48 81 54 82 49 83 50 84 51 85 52 86 53 87
REMARK H PARENT 1 14 1 15 12 20 12 21 12 22 74 43 44 54
REMARK Flexibility Score: inf
ROOT
ATOM      1  C   UNL     1      -0.419   3.537   4.032  1.00  0.00     0.275 C 
ENDROOT
BRANCH   1   2
ATOM      2  C   UNL     1      -0.796   4.417   2.836  1.00  0.00     0.274 C 
BRANCH   2   3
ATOM      3  O   UNL     1      -0.795   3.667   1.611  1.00  0.00    -0.457 OA
BRANCH   3   4
ATOM      4  C   UNL     1       0.336   3.713   0.848  1.00  0.00     0.369 C 
ATOM      5  O   UNL     1       1.313   4.406   1.120  1.00  0.00    -0.245 OA
BRANCH   4   6
ATOM      6  C   UNL     1       0.268   2.773  -0.388  1.00  0.00     0.325 C 
BRANCH   6   7
ATOM      7  C   UNL     1       0.286   3.484  -1.747  1.00  0.00     0.044 A 
ATOM      8  C   UNL     1       0.182   2.755  -2.959  1.00  0.00     0.048 A 
ATOM      9  C   UNL     1       0.043   3.443  -4.173  1.00  0.00     0.111 A 
ATOM     10  C   UNL     1       0.150   4.837  -4.214  1.00  0.00     0.271 A 
ATOM     11  C   UNL     1       0.436   4.886  -1.827  1.00  0.00     0.020 A 
ATOM     12  C   UNL     1       0.384   5.561  -3.047  1.00  0.00     0.086 A 
BRANCH   8  13
ATOM     13  N   UNL     1       0.116   1.359  -2.985  1.00  0.00    -0.398 N 
ATOM     14  H   UNL     1       0.044   0.886  -3.845  1.00  0.00     0.156 HD
ATOM     15  H   UNL     1       0.140   0.849  -2.143  1.00  0.00     0.156 HD
ENDBRANCH   8  13
BRANCH  10  16
ATOM     16  N   UNL     1       0.011   5.542  -5.492  1.00  0.00     0.062 N 
ATOM     17  O   UNL     1      -0.224   4.864  -6.503  1.00  0.00    -0.258 OA
ATOM     18  O   UNL     1       0.119   6.777  -5.487  1.00  0.00    -0.258 OA
ENDBRANCH  10  16
ENDBRANCH   6   7
BRANCH   6  19
ATOM     19  N   UNL     1      -0.889   1.852  -0.263  1.00  0.00    -0.342 N 
ATOM     20  H   UNL     1      -1.755   2.391  -0.271  1.00  0.00     0.345 HD
ATOM     21  H   UNL     1      -0.819   1.335   0.614  1.00  0.00     0.345 HD
ATOM     22  H   UNL     1      -0.889   1.198  -1.045  1.00  0.00     0.345 HD
ENDBRANCH   6  19
ENDBRANCH   4   6
ENDBRANCH   3   4
ENDBRANCH   2   3
ENDBRANCH   1   2
BRANCH   1  23
ATOM     23  O   UNL     1       0.990   3.245   4.070  1.00  0.00    -0.458 OA
BRANCH  23  24
ATOM     24  C   UNL     1       1.376   2.153   3.367  1.00  0.00     0.338 C 
ATOM     25  O   UNL     1       0.659   1.382   2.749  1.00  0.00    -0.246 OA
BRANCH  24  26
ATOM     26  C   UNL     1       2.847   2.095   3.304  1.00  0.00     0.060 A 
ATOM     27  C   UNL     1       3.433   1.992   2.039  1.00  0.00     0.016 A 
ATOM     28  C   UNL     1       3.637   2.074   4.454  1.00  0.00     0.016 A 
ATOM     29  C   UNL     1       4.810   1.848   1.913  1.00  0.00     0.010 A 
ATOM     30  C   UNL     1       5.023   1.931   4.328  1.00  0.00     0.010 A 
ATOM     31  C   UNL     1       5.613   1.801   3.058  1.00  0.00    -0.014 A 
BRANCH  31  32
ATOM     32  C   UNL     1       7.066   1.554   2.912  1.00  0.00     0.031 A 
ATOM     33  C   UNL     1       7.626   0.202   3.248  1.00  0.00     0.074 A 
ATOM     34  C   UNL     1       7.868   2.527   2.444  1.00  0.00     0.049 A 
ATOM     35  N   UNL     1       8.870  -0.200   3.241  1.00  0.00    -0.248 NA
ATOM     36  C   UNL     1       6.658  -0.833   3.641  1.00  0.00     0.031 C 
ATOM     37  C   UNL     1       7.428   3.862   2.037  1.00  0.00     0.029 A 
ATOM     38  N   UNL     1       9.223   2.541   2.235  1.00  0.00    -0.354 N 
ATOM     39  C   UNL     1       8.840  -1.527   3.650  1.00  0.00     0.074 A 
ATOM     40  C   UNL     1       7.454  -1.858   3.910  1.00  0.00     0.031 C 
ATOM     41  C   UNL     1       8.496   4.569   1.633  1.00  0.00     0.029 A 
ATOM     42  C   UNL     1       9.697   3.753   1.795  1.00  0.00     0.049 A 
ATOM     43  H   UNL     1       9.801   1.758   2.386  1.00  0.00     0.167 HD
ATOM     44  C   UNL     1       9.873  -2.390   3.798  1.00  0.00     0.031 A 
ATOM     45  C   UNL     1      10.959   4.170   1.577  1.00  0.00     0.031 A 
ATOM     46  C   UNL     1      11.249  -2.051   3.548  1.00  0.00     0.049 A 
ATOM     47  C   UNL     1      12.096   3.214   1.801  1.00  0.00     0.074 A 
ATOM     48  C   UNL     1      12.371  -2.852   3.671  1.00  0.00     0.029 A 
ATOM     49  N   UNL     1      11.691  -0.805   3.128  1.00  0.00    -0.354 N 
ATOM     50  N   UNL     1      12.053   1.963   2.195  1.00  0.00    -0.248 NA
ATOM     51  C   UNL     1      13.451   3.722   1.549  1.00  0.00     0.031 C 
ATOM     52  C   UNL     1      13.496  -2.077   3.367  1.00  0.00     0.029 A 
ATOM     53  C   UNL     1      13.070  -0.808   3.006  1.00  0.00     0.049 A 
ATOM     54  H   UNL     1      11.110  -0.032   2.944  1.00  0.00     0.167 HD
ATOM     55  C   UNL     1      13.373   1.531   2.229  1.00  0.00     0.074 A 
ATOM     56  C   UNL     1      14.190   2.648   1.797  1.00  0.00     0.031 C 
ATOM     57  C   UNL     1      13.866   0.318   2.585  1.00  0.00     0.031 A 
BRANCH  44  58
ATOM     58  C   UNL     1       9.546  -3.770   4.302  1.00  0.00    -0.014 A 
ATOM     59  C   UNL     1       8.896  -4.712   3.484  1.00  0.00     0.010 A 
ATOM     60  C   UNL     1       9.889  -4.126   5.619  1.00  0.00     0.010 A 
ATOM     61  C   UNL     1       8.547  -5.967   3.992  1.00  0.00     0.020 A 
ATOM     62  C   UNL     1       9.563  -5.388   6.123  1.00  0.00     0.020 A 
ATOM     63  C   UNL     1       8.873  -6.292   5.313  1.00  0.00     0.054 A 
BRANCH  63  64
ATOM     64  S   UNL     1       8.393  -7.919   5.957  1.00  0.00     0.124 S 
ATOM     65  O   UNL     1       6.962  -7.738   6.189  1.00  0.00    -0.237 OA
ATOM     66  O   UNL     1       8.742  -8.817   4.859  1.00  0.00    -0.237 OA
ATOM     67  O   UNL     1       9.206  -8.068   7.162  1.00  0.00    -0.744 OA
ENDBRANCH  63  64
ENDBRANCH  44  58
BRANCH  45  68
ATOM     68  C   UNL     1      11.201   5.578   1.163  1.00  0.00    -0.014 A 
ATOM     69  C   UNL     1      11.601   5.886  -0.148  1.00  0.00     0.010 A 
ATOM     70  C   UNL     1      10.985   6.625   2.079  1.00  0.00     0.010 A 
ATOM     71  C   UNL     1      11.780   7.217  -0.536  1.00  0.00     0.020 A 
ATOM     72  C   UNL     1      11.139   7.957   1.687  1.00  0.00     0.020 A 
ATOM     73  C   UNL     1      11.543   8.245   0.382  1.00  0.00     0.054 A 
BRANCH  73  74
ATOM     74  S   UNL     1      11.699   9.968  -0.165  1.00  0.00     0.124 S 
ATOM     75  O   UNL     1      13.146  10.149  -0.187  1.00  0.00    -0.237 OA
ATOM     76  O   UNL     1      11.043   9.947  -1.470  1.00  0.00    -0.237 OA
ATOM     77  O   UNL     1      10.988  10.718   0.868  1.00  0.00    -0.744 OA
ENDBRANCH  73  74
ENDBRANCH  45  68
BRANCH  57  78
ATOM     78  C   UNL     1      15.357   0.132   2.506  1.00  0.00    -0.014 A 
ATOM     79  C   UNL     1      16.211   0.702   3.466  1.00  0.00     0.010 A 
ATOM     80  C   UNL     1      15.904  -0.668   1.487  1.00  0.00     0.010 A 
ATOM     81  C   UNL     1      17.591   0.498   3.391  1.00  0.00     0.020 A 
ATOM     82  C   UNL     1      17.281  -0.893   1.422  1.00  0.00     0.020 A 
ATOM     83  C   UNL     1      18.118  -0.297   2.368  1.00  0.00     0.054 A 
BRANCH  83  84
ATOM     84  S   UNL     1      19.908  -0.586   2.315  1.00  0.00     0.124 S 
ATOM     85  O   UNL     1      20.403   0.679   1.778  1.00  0.00    -0.237 OA
ATOM     86  O   UNL     1      20.235  -0.844   3.716  1.00  0.00    -0.237 OA
ATOM     87  O   UNL     1      20.046  -1.738   1.428  1.00  0.00    -0.744 OA
ENDBRANCH  83  84
ENDBRANCH  57  78
ENDBRANCH  31  32
ENDBRANCH  24  26
ENDBRANCH  23  24
ENDBRANCH   1  23
TORSDOF 18
