REMARK SMILES C[C@@H](Oc1ccccc1Cl)C(=O)N1CC[C@H](C(=O)OCCOC(=O)c2ccc(-c3c4nc(c(-c5ccc(S(=O)(=O)[O-])cc5)c5ccc([nH]5)c(-c5ccc(S(=O)(=O)[O-])cc5)c5nc(c(-c6ccc(S(=O)(=O)[O-])cc6)c6ccc3[nH]6)C=C5)C=C4)cc2)[C@@H]1C
REMARK SMILES IDX 20 1 19 2 17 3 18 4 16 5 13 6 14 7 85 8 15 9 86 10 11 11
REMARK SMILES IDX 12 12 2 13 1 14 3 15 4 16 5 17 9 18 6 19 8 20 10 21 7 22
REMARK SMILES IDX 21 23 22 24 23 25 24 26 25 27 26 28 84 29 27 30 83 31 28 32
REMARK SMILES IDX 29 33 30 34 77 35 31 36 82 37 76 38 78 39 32 40 81 41 75 42
REMARK SMILES IDX 74 43 33 45 63 46 44 47 62 48 45 49 48 50 61 51 79 52 46 53
REMARK SMILES IDX 47 54 60 56 80 57 49 58 34 59 35 60 43 61 36 62 42 63 37 64
REMARK SMILES IDX 38 65 39 66 40 67 41 68 64 69 65 70 73 71 66 72 72 73 67 74
REMARK SMILES IDX 68 75 69 76 70 77 71 78 50 79 51 80 59 81 52 82 58 83 53 84
REMARK SMILES IDX 54 85 55 86 56 87 57 88
REMARK H PARENT 78 44 48 55
REMARK Flexibility Score: inf
ROOT
ATOM      1  C   UNL     1      -5.492  -0.489   3.348  1.00  0.00     0.274 C 
ENDROOT
BRANCH   1   2
ATOM      2  O   UNL     1      -4.588  -1.050   2.376  1.00  0.00    -0.462 OA
BRANCH   2   3
ATOM      3  C   UNL     1      -3.267  -0.980   2.679  1.00  0.00     0.311 C 
ATOM      4  O   UNL     1      -2.817  -0.416   3.671  1.00  0.00    -0.252 OA
BRANCH   3   5
ATOM      5  C   UNL     1      -2.375  -1.679   1.671  1.00  0.00     0.123 C 
ATOM      6  N   UNL     1      -1.614  -1.093  -0.500  1.00  0.00    -0.336 N 
ATOM      7  C   UNL     1      -2.920  -1.696  -0.672  1.00  0.00     0.121 C 
ATOM      8  C   UNL     1      -1.413  -0.739   0.909  1.00  0.00     0.096 C 
ATOM      9  C   UNL     1      -3.079  -2.515   0.593  1.00  0.00     0.039 C 
ATOM     10  C   UNL     1      -1.681   0.754   1.124  1.00  0.00     0.032 C 
BRANCH   6  11
ATOM     11  C   UNL     1      -0.721  -1.046  -1.552  1.00  0.00     0.263 C 
ATOM     12  O   UNL     1      -1.109  -1.239  -2.712  1.00  0.00    -0.271 OA
BRANCH  11  13
ATOM     13  C   UNL     1       0.783  -0.806  -1.300  1.00  0.00     0.259 C 
ATOM     14  C   UNL     1       1.109   0.607  -0.840  1.00  0.00     0.064 C 
BRANCH  13  15
ATOM     15  O   UNL     1       1.276  -1.779  -0.367  1.00  0.00    -0.479 OA
BRANCH  15  16
ATOM     16  C   UNL     1       2.571  -2.147  -0.626  1.00  0.00     0.139 A 
ATOM     17  C   UNL     1       2.850  -2.962  -1.726  1.00  0.00     0.048 A 
ATOM     18  C   UNL     1       3.600  -1.773   0.245  1.00  0.00     0.083 A 
ATOM     19  C   UNL     1       4.165  -3.348  -1.992  1.00  0.00     0.004 A 
ATOM     20  C   UNL     1       4.915  -2.155  -0.026  1.00  0.00     0.024 A 
ATOM     21  Cl  UNL     1       3.287  -0.832   1.657  1.00  0.00    -0.080 Cl
ATOM     22  C   UNL     1       5.197  -2.936  -1.149  1.00  0.00     0.002 A 
ENDBRANCH  15  16
ENDBRANCH  13  15
ENDBRANCH  11  13
ENDBRANCH   6  11
ENDBRANCH   3   5
ENDBRANCH   2   3
ENDBRANCH   1   2
BRANCH   1  23
ATOM     23  C   UNL     1      -6.007  -1.540   4.341  1.00  0.00     0.275 C 
BRANCH  23  24
ATOM     24  O   UNL     1      -4.993  -1.969   5.270  1.00  0.00    -0.458 OA
BRANCH  24  25
ATOM     25  C   UNL     1      -4.252  -3.026   4.858  1.00  0.00     0.338 C 
ATOM     26  O   UNL     1      -4.382  -3.645   3.815  1.00  0.00    -0.246 OA
BRANCH  25  27
ATOM     27  C   UNL     1      -3.125  -3.253   5.781  1.00  0.00     0.060 A 
ATOM     28  C   UNL     1      -1.839  -3.252   5.234  1.00  0.00     0.016 A 
ATOM     29  C   UNL     1      -3.312  -3.549   7.132  1.00  0.00     0.016 A 
ATOM     30  C   UNL     1      -0.736  -3.555   6.019  1.00  0.00     0.010 A 
ATOM     31  C   UNL     1      -2.199  -3.856   7.926  1.00  0.00     0.010 A 
ATOM     32  C   UNL     1      -0.907  -3.873   7.370  1.00  0.00    -0.014 A 
BRANCH  32  33
ATOM     33  C   UNL     1       0.279  -4.280   8.158  1.00  0.00     0.031 A 
ATOM     34  C   UNL     1       0.494  -5.730   8.490  1.00  0.00     0.074 A 
ATOM     35  C   UNL     1       1.201  -3.361   8.498  1.00  0.00     0.049 A 
ATOM     36  N   UNL     1       1.458  -6.284   9.177  1.00  0.00    -0.248 NA
ATOM     37  C   UNL     1      -0.505  -6.681   7.976  1.00  0.00     0.031 C 
ATOM     38  C   UNL     1       1.136  -1.936   8.166  1.00  0.00     0.029 A 
ATOM     39  N   UNL     1       2.383  -3.491   9.181  1.00  0.00    -0.354 N 
ATOM     40  C   UNL     1       1.175  -7.644   9.197  1.00  0.00     0.074 A 
ATOM     41  C   UNL     1      -0.059  -7.830   8.463  1.00  0.00     0.031 C 
ATOM     42  C   UNL     1       2.240  -1.328   8.630  1.00  0.00     0.029 A 
ATOM     43  C   UNL     1       3.064  -2.307   9.332  1.00  0.00     0.049 A 
ATOM     44  H   UNL     1       2.712  -4.351   9.530  1.00  0.00     0.167 HD
ATOM     45  C   UNL     1       1.879  -8.646   9.776  1.00  0.00     0.031 A 
ATOM     46  C   UNL     1       4.214  -2.038   9.980  1.00  0.00     0.031 A 
ATOM     47  C   UNL     1       3.107  -8.455  10.503  1.00  0.00     0.049 A 
ATOM     48  C   UNL     1       4.943  -3.157  10.669  1.00  0.00     0.074 A 
ATOM     49  C   UNL     1       3.889  -9.403  11.139  1.00  0.00     0.029 A 
ATOM     50  N   UNL     1       3.733  -7.231  10.687  1.00  0.00    -0.354 N 
ATOM     51  N   UNL     1       4.643  -4.434  10.710  1.00  0.00    -0.248 NA
ATOM     52  C   UNL     1       6.162  -2.799  11.406  1.00  0.00     0.031 C 
ATOM     53  C   UNL     1       4.968  -8.746  11.742  1.00  0.00     0.029 A 
ATOM     54  C   UNL     1       4.882  -7.396  11.442  1.00  0.00     0.049 A 
ATOM     55  H   UNL     1       3.409  -6.372  10.332  1.00  0.00     0.167 HD
ATOM     56  C   UNL     1       5.642  -5.033  11.467  1.00  0.00     0.074 A 
ATOM     57  C   UNL     1       6.565  -3.983  11.848  1.00  0.00     0.031 C 
ATOM     58  C   UNL     1       5.781  -6.335  11.820  1.00  0.00     0.031 A 
BRANCH  45  59
ATOM     59  C   UNL     1       1.307 -10.034   9.684  1.00  0.00    -0.014 A 
ATOM     60  C   UNL     1       1.355 -10.767   8.485  1.00  0.00     0.010 A 
ATOM     61  C   UNL     1       0.726 -10.620  10.824  1.00  0.00     0.010 A 
ATOM     62  C   UNL     1       0.797 -12.047   8.418  1.00  0.00     0.020 A 
ATOM     63  C   UNL     1       0.186 -11.907  10.766  1.00  0.00     0.020 A 
ATOM     64  C   UNL     1       0.208 -12.606   9.557  1.00  0.00     0.054 A 
BRANCH  64  65
ATOM     65  S   UNL     1      -0.504 -14.271   9.448  1.00  0.00     0.124 S 
ATOM     66  O   UNL     1      -1.754 -14.016   8.736  1.00  0.00    -0.237 OA
ATOM     67  O   UNL     1       0.508 -15.007   8.695  1.00  0.00    -0.237 OA
ATOM     68  O   UNL     1      -0.654 -14.675  10.844  1.00  0.00    -0.744 OA
ENDBRANCH  64  65
ENDBRANCH  45  59
BRANCH  46  69
ATOM     69  C   UNL     1       4.723  -0.642  10.036  1.00  0.00    -0.014 A 
ATOM     70  C   UNL     1       5.874  -0.266   9.324  1.00  0.00     0.010 A 
ATOM     71  C   UNL     1       4.041   0.327  10.796  1.00  0.00     0.010 A 
ATOM     72  C   UNL     1       6.340   1.051   9.377  1.00  0.00     0.020 A 
ATOM     73  C   UNL     1       4.489   1.650  10.832  1.00  0.00     0.020 A 
ATOM     74  C   UNL     1       5.644   2.001  10.130  1.00  0.00     0.054 A 
BRANCH  74  75
ATOM     75  S   UNL     1       6.227   3.720  10.139  1.00  0.00     0.124 S 
ATOM     76  O   UNL     1       7.350   3.654  11.069  1.00  0.00    -0.237 OA
ATOM     77  O   UNL     1       6.577   3.946   8.739  1.00  0.00    -0.237 OA
ATOM     78  O   UNL     1       5.065   4.471  10.610  1.00  0.00    -0.744 OA
ENDBRANCH  74  75
ENDBRANCH  46  69
BRANCH  58  79
ATOM     79  C   UNL     1       6.985  -6.694  12.647  1.00  0.00    -0.014 A 
ATOM     80  C   UNL     1       7.047  -6.367  14.013  1.00  0.00     0.010 A 
ATOM     81  C   UNL     1       8.052  -7.395  12.057  1.00  0.00     0.010 A 
ATOM     82  C   UNL     1       8.173  -6.706  14.768  1.00  0.00     0.020 A 
ATOM     83  C   UNL     1       9.169  -7.755  12.814  1.00  0.00     0.020 A 
ATOM     84  C   UNL     1       9.229  -7.393  14.162  1.00  0.00     0.054 A 
BRANCH  84  85
ATOM     85  S   UNL     1      10.669  -7.849  15.166  1.00  0.00     0.124 S 
ATOM     86  O   UNL     1      11.393  -6.584  15.251  1.00  0.00    -0.237 OA
ATOM     87  O   UNL     1      10.062  -8.312  16.412  1.00  0.00    -0.237 OA
ATOM     88  O   UNL     1      11.324  -8.890  14.377  1.00  0.00    -0.744 OA
ENDBRANCH  84  85
ENDBRANCH  58  79
ENDBRANCH  32  33
ENDBRANCH  25  27
ENDBRANCH  24  25
ENDBRANCH  23  24
ENDBRANCH   1  23
TORSDOF 18
