REMARK SMILES O=C1CC[C@@H](CC(=O)N2CCC(Oc3ccccc3)(C(=O)OCCOC(=O)c3ccc(-c4c5nc(c(-c6ccc(S(=O)(=O)[O-])cc6)c6ccc([nH]6)c(-c6ccc(S(=O)(=O)[O-])cc6)c6nc(c(-c7ccc(S(=O)(=O)[O-])cc7)c7ccc4[nH]7)C=C6)C=C5)cc3)CC2)N1
REMARK SMILES IDX 24 1 23 2 22 3 20 4 21 5 12 6 7 7 8 8 9 9 10 10 89 11 11 12
REMARK SMILES IDX 88 13 6 14 5 15 1 16 2 17 3 18 90 19 4 20 13 22 14 23 15 24
REMARK SMILES IDX 19 25 16 26 18 27 17 28 25 29 26 30 27 31 28 32 29 33 87 34
REMARK SMILES IDX 30 35 86 36 31 37 32 38 33 39 80 40 34 41 85 42 79 43 81 44
REMARK SMILES IDX 35 45 84 46 78 47 77 48 36 50 66 51 47 52 65 53 48 54 51 55
REMARK SMILES IDX 64 56 82 57 49 58 50 59 63 61 83 62 52 63 37 64 38 65 46 66
REMARK SMILES IDX 39 67 45 68 40 69 41 70 42 71 43 72 44 73 67 74 68 75 76 76
REMARK SMILES IDX 69 77 75 78 70 79 71 80 72 81 73 82 74 83 53 84 54 85 62 86
REMARK SMILES IDX 55 87 61 88 56 89 57 90 58 91 59 92 60 93
REMARK H PARENT 90 21 81 49 51 60
REMARK Flexibility Score: inf
ROOT
ATOM      1  C   UNL     1      -0.875   4.008  -5.330  1.00  0.00     0.275 C 
ENDROOT
BRANCH   1   2
ATOM      2  C   UNL     1       0.506   3.536  -5.782  1.00  0.00     0.274 C 
BRANCH   2   3
ATOM      3  O   UNL     1       0.652   2.107  -5.621  1.00  0.00    -0.459 OA
BRANCH   3   4
ATOM      4  C   UNL     1       1.382   1.707  -4.543  1.00  0.00     0.350 C 
ATOM      5  O   UNL     1       1.818   2.488  -3.701  1.00  0.00    -0.247 OA
BRANCH   4   6
ATOM      6  C   UNL     1       1.645   0.184  -4.497  1.00  0.00     0.209 C 
ATOM      7  C   UNL     1      -1.218  -2.261  -2.720  1.00  0.00     0.224 C 
ATOM      8  O   UNL     1      -1.468  -3.228  -3.447  1.00  0.00    -0.275 OA
ATOM      9  N   UNL     1      -0.644  -1.112  -3.242  1.00  0.00    -0.342 N 
ATOM     10  C   UNL     1      -0.727  -0.824  -4.672  1.00  0.00     0.124 C 
ATOM     11  C   UNL     1       0.165  -0.176  -2.499  1.00  0.00     0.124 C 
ATOM     12  C   UNL     1       0.648  -0.666  -5.317  1.00  0.00     0.082 C 
ATOM     13  C   UNL     1       1.598  -0.225  -3.006  1.00  0.00     0.082 C 
BRANCH   7  14
ATOM     14  C   UNL     1      -1.731  -2.264  -1.277  1.00  0.00     0.125 C 
BRANCH  14  15
ATOM     15  C   UNL     1      -0.796  -2.376  -0.068  1.00  0.00     0.091 C 
ATOM     16  O   UNL     1       2.657  -2.055   0.444  1.00  0.00    -0.275 OA
ATOM     17  C   UNL     1       1.454  -1.926   0.450  1.00  0.00     0.220 C 
ATOM     18  C   UNL     1       0.664  -0.945   1.276  1.00  0.00     0.102 C 
ATOM     19  N   UNL     1       0.580  -2.657  -0.331  1.00  0.00    -0.353 N 
ATOM     20  C   UNL     1      -0.768  -1.109   0.783  1.00  0.00     0.035 C 
ATOM     21  H   UNL     1       0.877  -3.311  -1.004  1.00  0.00     0.163 HD
ENDBRANCH  14  15
ENDBRANCH   7  14
BRANCH   6  22
ATOM     22  O   UNL     1       2.972   0.139  -5.108  1.00  0.00    -0.475 OA
BRANCH  22  23
ATOM     23  C   UNL     1       3.722  -0.959  -4.795  1.00  0.00     0.121 A 
ATOM     24  C   UNL     1       4.618  -0.895  -3.729  1.00  0.00     0.046 A 
ATOM     25  C   UNL     1       3.623  -2.118  -5.562  1.00  0.00     0.046 A 
ATOM     26  C   UNL     1       5.333  -2.034  -3.361  1.00  0.00     0.004 A 
ATOM     27  C   UNL     1       4.332  -3.258  -5.188  1.00  0.00     0.004 A 
ATOM     28  C   UNL     1       5.176  -3.220  -4.078  1.00  0.00     0.000 A 
ENDBRANCH  22  23
ENDBRANCH   6  22
ENDBRANCH   4   6
ENDBRANCH   3   4
ENDBRANCH   2   3
ENDBRANCH   1   2
BRANCH   1  29
ATOM     29  O   UNL     1      -0.977   3.934  -3.896  1.00  0.00    -0.458 OA
BRANCH  29  30
ATOM     30  C   UNL     1      -2.003   3.203  -3.401  1.00  0.00     0.338 C 
ATOM     31  O   UNL     1      -2.864   2.626  -4.045  1.00  0.00    -0.246 OA
BRANCH  30  32
ATOM     32  C   UNL     1      -1.929   3.131  -1.923  1.00  0.00     0.060 A 
ATOM     33  C   UNL     1      -0.709   2.903  -1.300  1.00  0.00     0.016 A 
ATOM     34  C   UNL     1      -3.098   3.108  -1.157  1.00  0.00     0.016 A 
ATOM     35  C   UNL     1      -0.686   2.489   0.033  1.00  0.00     0.010 A 
ATOM     36  C   UNL     1      -3.043   2.837   0.225  1.00  0.00     0.010 A 
ATOM     37  C   UNL     1      -1.843   2.454   0.842  1.00  0.00    -0.014 A 
BRANCH  37  38
ATOM     38  C   UNL     1      -1.766   1.952   2.270  1.00  0.00     0.031 A 
ATOM     39  C   UNL     1      -2.711   0.881   2.812  1.00  0.00     0.074 A 
ATOM     40  C   UNL     1      -0.745   2.329   3.076  1.00  0.00     0.049 A 
ATOM     41  N   UNL     1      -2.724   0.325   4.005  1.00  0.00    -0.248 NA
ATOM     42  C   UNL     1      -3.721   0.314   1.901  1.00  0.00     0.031 C 
ATOM     43  C   UNL     1       0.313   3.279   2.722  1.00  0.00     0.029 A 
ATOM     44  N   UNL     1      -0.392   1.921   4.346  1.00  0.00    -0.354 N 
ATOM     45  C   UNL     1      -3.718  -0.650   3.980  1.00  0.00     0.074 A 
ATOM     46  C   UNL     1      -4.304  -0.607   2.659  1.00  0.00     0.031 C 
ATOM     47  C   UNL     1       1.244   3.288   3.683  1.00  0.00     0.029 A 
ATOM     48  C   UNL     1       0.768   2.500   4.812  1.00  0.00     0.049 A 
ATOM     49  H   UNL     1      -0.920   1.276   4.870  1.00  0.00     0.167 HD
ATOM     50  C   UNL     1      -4.115  -1.511   4.952  1.00  0.00     0.031 A 
ATOM     51  C   UNL     1       1.361   2.497   6.025  1.00  0.00     0.031 A 
ATOM     52  C   UNL     1      -3.600  -1.544   6.298  1.00  0.00     0.049 A 
ATOM     53  C   UNL     1       0.726   1.757   7.163  1.00  0.00     0.074 A 
ATOM     54  C   UNL     1      -4.029  -2.325   7.361  1.00  0.00     0.029 A 
ATOM     55  N   UNL     1      -2.573  -0.754   6.780  1.00  0.00    -0.354 N 
ATOM     56  N   UNL     1      -0.275   0.913   7.135  1.00  0.00    -0.248 NA
ATOM     57  C   UNL     1       1.267   2.011   8.507  1.00  0.00     0.031 C 
ATOM     58  C   UNL     1      -3.322  -1.939   8.506  1.00  0.00     0.029 A 
ATOM     59  C   UNL     1      -2.403  -0.973   8.139  1.00  0.00     0.049 A 
ATOM     60  H   UNL     1      -2.041  -0.128   6.238  1.00  0.00     0.167 HD
ATOM     61  C   UNL     1      -0.493   0.547   8.459  1.00  0.00     0.074 A 
ATOM     62  C   UNL     1       0.501   1.231   9.258  1.00  0.00     0.031 C 
ATOM     63  C   UNL     1      -1.449  -0.273   8.959  1.00  0.00     0.031 A 
BRANCH  50  64
ATOM     64  C   UNL     1      -5.245  -2.458   4.633  1.00  0.00    -0.014 A 
ATOM     65  C   UNL     1      -5.030  -3.649   3.918  1.00  0.00     0.010 A 
ATOM     66  C   UNL     1      -6.529  -2.185   5.143  1.00  0.00     0.010 A 
ATOM     67  C   UNL     1      -6.088  -4.540   3.700  1.00  0.00     0.020 A 
ATOM     68  C   UNL     1      -7.582  -3.081   4.942  1.00  0.00     0.020 A 
ATOM     69  C   UNL     1      -7.358  -4.248   4.211  1.00  0.00     0.054 A 
BRANCH  69  70
ATOM     70  S   UNL     1      -8.709  -5.426   3.927  1.00  0.00     0.124 S 
ATOM     71  O   UNL     1      -8.940  -5.276   2.492  1.00  0.00    -0.237 OA
ATOM     72  O   UNL     1      -8.119  -6.696   4.340  1.00  0.00    -0.237 OA
ATOM     73  O   UNL     1      -9.785  -4.933   4.784  1.00  0.00    -0.744 OA
ENDBRANCH  69  70
ENDBRANCH  50  64
BRANCH  51  74
ATOM     74  C   UNL     1       2.540   3.381   6.263  1.00  0.00    -0.014 A 
ATOM     75  C   UNL     1       3.799   2.861   6.607  1.00  0.00     0.010 A 
ATOM     76  C   UNL     1       2.392   4.776   6.125  1.00  0.00     0.010 A 
ATOM     77  C   UNL     1       4.889   3.721   6.788  1.00  0.00     0.020 A 
ATOM     78  C   UNL     1       3.484   5.631   6.259  1.00  0.00     0.020 A 
ATOM     79  C   UNL     1       4.726   5.099   6.599  1.00  0.00     0.054 A 
BRANCH  79  80
ATOM     80  S   UNL     1       6.164   6.195   6.743  1.00  0.00     0.124 S 
ATOM     81  O   UNL     1       6.310   6.313   8.190  1.00  0.00    -0.237 OA
ATOM     82  O   UNL     1       7.210   5.441   6.058  1.00  0.00    -0.237 OA
ATOM     83  O   UNL     1       5.733   7.410   6.055  1.00  0.00    -0.744 OA
ENDBRANCH  79  80
ENDBRANCH  51  74
BRANCH  63  84
ATOM     84  C   UNL     1      -1.489  -0.469  10.450  1.00  0.00    -0.014 A 
ATOM     85  C   UNL     1      -1.926   0.565  11.299  1.00  0.00     0.010 A 
ATOM     86  C   UNL     1      -1.117  -1.702  11.014  1.00  0.00     0.010 A 
ATOM     87  C   UNL     1      -1.961   0.380  12.684  1.00  0.00     0.020 A 
ATOM     88  C   UNL     1      -1.177  -1.901  12.398  1.00  0.00     0.020 A 
ATOM     89  C   UNL     1      -1.585  -0.853  13.225  1.00  0.00     0.054 A 
BRANCH  89  90
ATOM     90  S   UNL     1      -1.672  -1.077  15.024  1.00  0.00     0.124 S 
ATOM     91  O   UNL     1      -0.547  -0.269  15.486  1.00  0.00    -0.237 OA
ATOM     92  O   UNL     1      -2.997  -0.554  15.348  1.00  0.00    -0.237 OA
ATOM     93  O   UNL     1      -1.518  -2.519  15.201  1.00  0.00    -0.744 OA
ENDBRANCH  89  90
ENDBRANCH  63  84
ENDBRANCH  37  38
ENDBRANCH  30  32
ENDBRANCH  29  30
ENDBRANCH   1  29
TORSDOF 18
