REMARK SMILES C[C@@H](Oc1ccc(N)cc1)C(=O)OCCOC(=O)c1ccc(-c2c3nc(c(-c4ccc(S(=O)(=O)[O-])cc4)c4ccc([nH]4)c(-c4ccc(S(=O)(=O)[O-])cc4)c4nc(c(-c5ccc(S(=O)(=O)[O-])cc5)c5ccc2[nH]5)C=C4)C=C3)cc1
REMARK SMILES IDX 14 1 13 2 11 3 12 4 2 5 1 6 3 7 4 8 5 9 10 10 6 11 9 12 7 13
REMARK SMILES IDX 8 14 15 17 16 18 17 19 18 20 19 21 20 22 78 23 21 24 77 25
REMARK SMILES IDX 22 26 23 27 24 28 71 29 25 30 76 31 70 32 72 33 26 34 75 35
REMARK SMILES IDX 69 36 68 37 27 39 57 40 38 41 56 42 39 43 42 44 55 45 73 46
REMARK SMILES IDX 40 47 41 48 54 50 74 51 43 52 28 53 29 54 37 55 30 56 36 57
REMARK SMILES IDX 31 58 32 59 33 60 34 61 35 62 58 63 59 64 67 65 60 66 66 67
REMARK SMILES IDX 61 68 62 69 63 70 64 71 65 72 44 73 45 74 53 75 46 76 52 77
REMARK SMILES IDX 47 78 48 79 49 80 50 81 51 82
REMARK H PARENT 8 15 8 16 72 38 42 49
REMARK Flexibility Score: inf
ROOT
ATOM      1  C   UNL     1      -3.061   1.194  -0.801  1.00  0.00     0.274 C 
ENDROOT
BRANCH   1   2
ATOM      2  O   UNL     1      -1.656   0.902  -0.923  1.00  0.00    -0.459 OA
BRANCH   2   3
ATOM      3  C   UNL     1      -0.797   1.825  -0.406  1.00  0.00     0.347 C 
ATOM      4  O   UNL     1      -1.139   2.899   0.078  1.00  0.00    -0.248 OA
BRANCH   3   5
ATOM      5  C   UNL     1       0.663   1.378  -0.494  1.00  0.00     0.279 C 
ATOM      6  C   UNL     1       0.810  -0.130  -0.303  1.00  0.00     0.066 C 
BRANCH   5   7
ATOM      7  O   UNL     1       1.186   1.773  -1.770  1.00  0.00    -0.479 OA
BRANCH   7   8
ATOM      8  C   UNL     1       2.498   2.151  -1.661  1.00  0.00     0.120 A 
ATOM      9  C   UNL     1       3.503   1.206  -1.842  1.00  0.00     0.048 A 
ATOM     10  C   UNL     1       2.817   3.485  -1.434  1.00  0.00     0.048 A 
ATOM     11  C   UNL     1       4.841   1.590  -1.728  1.00  0.00     0.029 A 
ATOM     12  C   UNL     1       4.160   3.863  -1.333  1.00  0.00     0.029 A 
ATOM     13  C   UNL     1       5.181   2.913  -1.436  1.00  0.00     0.032 A 
BRANCH  13  14
ATOM     14  N   UNL     1       6.513   3.302  -1.401  1.00  0.00    -0.399 N 
ATOM     15  H   UNL     1       7.225   2.626  -1.474  1.00  0.00     0.156 HD
ATOM     16  H   UNL     1       6.746   4.253  -1.303  1.00  0.00     0.156 HD
ENDBRANCH  13  14
ENDBRANCH   7   8
ENDBRANCH   5   7
ENDBRANCH   3   5
ENDBRANCH   2   3
ENDBRANCH   1   2
BRANCH   1  17
ATOM     17  C   UNL     1      -3.685   0.379   0.331  1.00  0.00     0.275 C 
BRANCH  17  18
ATOM     18  O   UNL     1      -3.157   0.790   1.606  1.00  0.00    -0.458 OA
BRANCH  18  19
ATOM     19  C   UNL     1      -2.304  -0.081   2.192  1.00  0.00     0.338 C 
ATOM     20  O   UNL     1      -1.962  -1.176   1.784  1.00  0.00    -0.246 OA
BRANCH  19  21
ATOM     21  C   UNL     1      -1.751   0.527   3.410  1.00  0.00     0.060 A 
ATOM     22  C   UNL     1      -0.478   1.099   3.357  1.00  0.00     0.016 A 
ATOM     23  C   UNL     1      -2.440   0.429   4.620  1.00  0.00     0.016 A 
ATOM     24  C   UNL     1       0.125   1.558   4.527  1.00  0.00     0.010 A 
ATOM     25  C   UNL     1      -1.839   0.904   5.790  1.00  0.00     0.010 A 
ATOM     26  C   UNL     1      -0.543   1.449   5.754  1.00  0.00    -0.014 A 
BRANCH  26  27
ATOM     27  C   UNL     1       0.144   1.843   7.008  1.00  0.00     0.031 A 
ATOM     28  C   UNL     1       0.669   0.784   7.938  1.00  0.00     0.074 A 
ATOM     29  C   UNL     1       0.315   3.145   7.305  1.00  0.00     0.049 A 
ATOM     30  N   UNL     1       1.261   0.922   9.097  1.00  0.00    -0.248 NA
ATOM     31  C   UNL     1       0.506  -0.613   7.507  1.00  0.00     0.031 C 
ATOM     32  C   UNL     1      -0.114   4.267   6.469  1.00  0.00     0.029 A 
ATOM     33  N   UNL     1       0.900   3.741   8.393  1.00  0.00    -0.354 N 
ATOM     34  C   UNL     1       1.523  -0.367   9.544  1.00  0.00     0.074 A 
ATOM     35  C   UNL     1       1.014  -1.274   8.537  1.00  0.00     0.031 C 
ATOM     36  C   UNL     1       0.234   5.417   7.070  1.00  0.00     0.029 A 
ATOM     37  C   UNL     1       0.875   5.114   8.347  1.00  0.00     0.049 A 
ATOM     38  H   UNL     1       1.300   3.233   9.135  1.00  0.00     0.167 HD
ATOM     39  C   UNL     1       2.133  -0.761  10.688  1.00  0.00     0.031 A 
ATOM     40  C   UNL     1       1.306   6.025   9.240  1.00  0.00     0.031 A 
ATOM     41  C   UNL     1       2.642   0.137  11.689  1.00  0.00     0.049 A 
ATOM     42  C   UNL     1       1.940   5.563  10.523  1.00  0.00     0.074 A 
ATOM     43  C   UNL     1       3.283  -0.170  12.878  1.00  0.00     0.029 A 
ATOM     44  N   UNL     1       2.567   1.519  11.621  1.00  0.00    -0.354 N 
ATOM     45  N   UNL     1       2.177   4.339  10.930  1.00  0.00    -0.248 NA
ATOM     46  C   UNL     1       2.364   6.607  11.466  1.00  0.00     0.031 C 
ATOM     47  C   UNL     1       3.567   1.029  13.543  1.00  0.00     0.029 A 
ATOM     48  C   UNL     1       3.136   2.081  12.751  1.00  0.00     0.049 A 
ATOM     49  H   UNL     1       2.169   2.027  10.877  1.00  0.00     0.167 HD
ATOM     50  C   UNL     1       2.794   4.466  12.169  1.00  0.00     0.074 A 
ATOM     51  C   UNL     1       2.903   5.886  12.440  1.00  0.00     0.031 C 
ATOM     52  C   UNL     1       3.233   3.495  13.007  1.00  0.00     0.031 A 
BRANCH  39  53
ATOM     53  C   UNL     1       2.247  -2.242  10.926  1.00  0.00    -0.014 A 
ATOM     54  C   UNL     1       3.189  -3.020  10.231  1.00  0.00     0.010 A 
ATOM     55  C   UNL     1       1.401  -2.861  11.864  1.00  0.00     0.010 A 
ATOM     56  C   UNL     1       3.252  -4.401  10.436  1.00  0.00     0.020 A 
ATOM     57  C   UNL     1       1.474  -4.239  12.086  1.00  0.00     0.020 A 
ATOM     58  C   UNL     1       2.385  -5.003  11.354  1.00  0.00     0.054 A 
BRANCH  58  59
ATOM     59  S   UNL     1       2.477  -6.798  11.601  1.00  0.00     0.124 S 
ATOM     60  O   UNL     1       1.742  -7.298  10.441  1.00  0.00    -0.237 OA
ATOM     61  O   UNL     1       3.915  -7.056  11.590  1.00  0.00    -0.237 OA
ATOM     62  O   UNL     1       1.822  -7.002  12.890  1.00  0.00    -0.744 OA
ENDBRANCH  58  59
ENDBRANCH  39  53
BRANCH  40  63
ATOM     63  C   UNL     1       1.145   7.474   8.952  1.00  0.00    -0.014 A 
ATOM     64  C   UNL     1       2.257   8.257   8.598  1.00  0.00     0.010 A 
ATOM     65  C   UNL     1      -0.126   8.073   9.016  1.00  0.00     0.010 A 
ATOM     66  C   UNL     1       2.103   9.618   8.320  1.00  0.00     0.020 A 
ATOM     67  C   UNL     1      -0.287   9.429   8.718  1.00  0.00     0.020 A 
ATOM     68  C   UNL     1       0.831  10.195   8.381  1.00  0.00     0.054 A 
BRANCH  68  69
ATOM     69  S   UNL     1       0.637  11.948   7.954  1.00  0.00     0.124 S 
ATOM     70  O   UNL     1       1.061  12.608   9.184  1.00  0.00    -0.237 OA
ATOM     71  O   UNL     1       1.536  12.101   6.811  1.00  0.00    -0.237 OA
ATOM     72  O   UNL     1      -0.784  12.063   7.636  1.00  0.00    -0.744 OA
ENDBRANCH  68  69
ENDBRANCH  40  63
BRANCH  52  73
ATOM     73  C   UNL     1       3.895   3.937  14.282  1.00  0.00    -0.014 A 
ATOM     74  C   UNL     1       3.135   4.410  15.366  1.00  0.00     0.010 A 
ATOM     75  C   UNL     1       5.293   3.846  14.408  1.00  0.00     0.010 A 
ATOM     76  C   UNL     1       3.767   4.815  16.546  1.00  0.00     0.020 A 
ATOM     77  C   UNL     1       5.925   4.232  15.592  1.00  0.00     0.020 A 
ATOM     78  C   UNL     1       5.159   4.729  16.649  1.00  0.00     0.054 A 
BRANCH  78  79
ATOM     79  S   UNL     1       5.960   5.227  18.199  1.00  0.00     0.124 S 
ATOM     80  O   UNL     1       6.004   6.680  18.064  1.00  0.00    -0.237 OA
ATOM     81  O   UNL     1       5.044   4.718  19.218  1.00  0.00    -0.237 OA
ATOM     82  O   UNL     1       7.256   4.555  18.146  1.00  0.00    -0.744 OA
ENDBRANCH  78  79
ENDBRANCH  52  73
ENDBRANCH  26  27
ENDBRANCH  19  21
ENDBRANCH  18  19
ENDBRANCH  17  18
ENDBRANCH   1  17
TORSDOF 17
