REMARK SMILES O=C(OCCOC(=O)c1cccc(CN2C(=O)S/C(=C/c3ccc(Cl)cc3)C2=O)c1)c1ccc(-c2c3nc(c(-c4ccc(S(=O)(=O)[O-])cc4)c4ccc([nH]4)c(-c4ccc(S(=O)(=O)[O-])cc4)c4nc(c(-c5ccc(S(=O)(=O)[O-])cc5)c5ccc2[nH]5)C=C4)C=C3)cc1
REMARK SMILES IDX 4 1 3 2 2 3 1 4 31 5 32 6 90 7 33 8 89 9 34 10 35 11 36 12
REMARK SMILES IDX 83 13 37 14 88 15 82 16 84 17 38 18 87 19 81 20 80 21 39 23
REMARK SMILES IDX 69 24 50 25 68 26 51 27 54 28 67 29 85 30 52 31 53 32 66 34
REMARK SMILES IDX 86 35 55 36 40 37 41 38 49 39 42 40 48 41 43 42 44 43 45 44
REMARK SMILES IDX 46 45 47 46 70 47 71 48 79 49 72 50 78 51 73 52 74 53 75 54
REMARK SMILES IDX 76 55 77 56 56 57 57 58 65 59 58 60 64 61 59 62 60 63 61 64
REMARK SMILES IDX 62 65 63 66 5 67 6 68 7 69 8 70 9 71 10 72 30 73 11 74 13 75
REMARK SMILES IDX 12 76 14 77 15 78 16 79 28 80 17 81 18 82 19 83 29 84 20 85
REMARK SMILES IDX 21 86 22 87 27 88 23 89 26 90 24 91 25 92
REMARK H PARENT 84 22 54 33
REMARK Flexibility Score: inf
ROOT
ATOM      1  C   UNL     1       4.262  -1.318   0.726  1.00  0.00     0.275 C 
ENDROOT
BRANCH   1   2
ATOM      2  O   UNL     1       3.188  -0.433   1.079  1.00  0.00    -0.458 OA
BRANCH   2   3
ATOM      3  C   UNL     1       3.004   0.867   0.747  1.00  0.00     0.338 C 
ATOM      4  O   UNL     1       2.141   1.503   1.352  1.00  0.00    -0.246 OA
BRANCH   3   5
ATOM      5  C   UNL     1       3.681   1.536  -0.415  1.00  0.00     0.060 A 
ATOM      6  C   UNL     1       4.904   1.178  -0.992  1.00  0.00     0.016 A 
ATOM      7  C   UNL     1       2.986   2.613  -0.990  1.00  0.00     0.016 A 
ATOM      8  C   UNL     1       5.387   1.807  -2.144  1.00  0.00     0.010 A 
ATOM      9  C   UNL     1       3.453   3.237  -2.148  1.00  0.00     0.010 A 
ATOM     10  C   UNL     1       4.667   2.840  -2.730  1.00  0.00    -0.014 A 
BRANCH  10  11
ATOM     11  C   UNL     1       5.267   3.677  -3.791  1.00  0.00     0.031 A 
ATOM     12  C   UNL     1       5.679   5.064  -3.405  1.00  0.00     0.074 A 
ATOM     13  C   UNL     1       5.456   3.242  -5.051  1.00  0.00     0.049 A 
ATOM     14  N   UNL     1       6.069   6.048  -4.164  1.00  0.00    -0.248 NA
ATOM     15  C   UNL     1       5.685   5.364  -1.962  1.00  0.00     0.031 C 
ATOM     16  C   UNL     1       5.300   1.869  -5.521  1.00  0.00     0.029 A 
ATOM     17  N   UNL     1       5.747   3.946  -6.195  1.00  0.00    -0.354 N 
ATOM     18  C   UNL     1       6.414   7.066  -3.288  1.00  0.00     0.074 A 
ATOM     19  C   UNL     1       6.083   6.625  -1.954  1.00  0.00     0.031 C 
ATOM     20  C   UNL     1       5.329   1.858  -6.868  1.00  0.00     0.029 A 
ATOM     21  C   UNL     1       5.503   3.221  -7.342  1.00  0.00     0.049 A 
ATOM     22  H   UNL     1       6.092   4.868  -6.196  1.00  0.00     0.167 HD
ATOM     23  C   UNL     1       7.013   8.244  -3.572  1.00  0.00     0.031 A 
ATOM     24  C   UNL     1       5.365   3.637  -8.615  1.00  0.00     0.031 A 
ATOM     25  C   UNL     1       7.294   8.673  -4.910  1.00  0.00     0.049 A 
ATOM     26  C   UNL     1       5.730   5.059  -8.935  1.00  0.00     0.074 A 
ATOM     27  C   UNL     1       7.912   9.832  -5.335  1.00  0.00     0.029 A 
ATOM     28  N   UNL     1       6.941   7.959  -6.048  1.00  0.00    -0.354 N 
ATOM     29  N   UNL     1       6.089   6.011  -8.108  1.00  0.00    -0.248 NA
ATOM     30  C   UNL     1       5.761   5.438 -10.352  1.00  0.00     0.031 C 
ATOM     31  C   UNL     1       7.867   9.852  -6.733  1.00  0.00     0.029 A 
ATOM     32  C   UNL     1       7.289   8.671  -7.178  1.00  0.00     0.049 A 
ATOM     33  H   UNL     1       6.506   7.076  -6.048  1.00  0.00     0.167 HD
ATOM     34  C   UNL     1       6.496   7.068  -8.910  1.00  0.00     0.074 A 
ATOM     35  C   UNL     1       6.270   6.662 -10.283  1.00  0.00     0.031 C 
ATOM     36  C   UNL     1       7.067   8.239  -8.537  1.00  0.00     0.031 A 
BRANCH  23  37
ATOM     37  C   UNL     1       7.350   9.124  -2.404  1.00  0.00    -0.014 A 
ATOM     38  C   UNL     1       8.317   8.734  -1.456  1.00  0.00     0.010 A 
ATOM     39  C   UNL     1       6.638  10.318  -2.206  1.00  0.00     0.010 A 
ATOM     40  C   UNL     1       8.504   9.479  -0.290  1.00  0.00     0.020 A 
ATOM     41  C   UNL     1       6.847  11.084  -1.058  1.00  0.00     0.020 A 
ATOM     42  C   UNL     1       7.755  10.643  -0.093  1.00  0.00     0.054 A 
BRANCH  42  43
ATOM     43  S   UNL     1       7.977  11.565   1.452  1.00  0.00     0.124 S 
ATOM     44  O   UNL     1       7.319  10.690   2.420  1.00  0.00    -0.237 OA
ATOM     45  O   UNL     1       9.430  11.648   1.569  1.00  0.00    -0.237 OA
ATOM     46  O   UNL     1       7.301  12.834   1.198  1.00  0.00    -0.744 OA
ENDBRANCH  42  43
ENDBRANCH  23  37
BRANCH  24  47
ATOM     47  C   UNL     1       4.841   2.732  -9.673  1.00  0.00    -0.014 A 
ATOM     48  C   UNL     1       5.702   2.061 -10.555  1.00  0.00     0.010 A 
ATOM     49  C   UNL     1       3.449   2.593  -9.838  1.00  0.00     0.010 A 
ATOM     50  C   UNL     1       5.183   1.292 -11.604  1.00  0.00     0.020 A 
ATOM     51  C   UNL     1       2.927   1.820 -10.881  1.00  0.00     0.020 A 
ATOM     52  C   UNL     1       3.799   1.187 -11.769  1.00  0.00     0.054 A 
BRANCH  52  53
ATOM     53  S   UNL     1       3.151   0.235 -13.173  1.00  0.00     0.124 S 
ATOM     54  O   UNL     1       3.507   1.079 -14.308  1.00  0.00    -0.237 OA
ATOM     55  O   UNL     1       3.880  -1.026 -13.070  1.00  0.00    -0.237 OA
ATOM     56  O   UNL     1       1.720   0.140 -12.889  1.00  0.00    -0.744 OA
ENDBRANCH  52  53
ENDBRANCH  24  47
BRANCH  36  57
ATOM     57  C   UNL     1       7.593   9.134  -9.620  1.00  0.00    -0.014 A 
ATOM     58  C   UNL     1       6.742   9.919 -10.411  1.00  0.00     0.010 A 
ATOM     59  C   UNL     1       8.989   9.279  -9.746  1.00  0.00     0.010 A 
ATOM     60  C   UNL     1       7.280  10.848 -11.303  1.00  0.00     0.020 A 
ATOM     61  C   UNL     1       9.528  10.227 -10.612  1.00  0.00     0.020 A 
ATOM     62  C   UNL     1       8.669  11.008 -11.385  1.00  0.00     0.054 A 
BRANCH  62  63
ATOM     63  S   UNL     1       9.335  12.312 -12.452  1.00  0.00     0.124 S 
ATOM     64  O   UNL     1       9.098  11.766 -13.785  1.00  0.00    -0.237 OA
ATOM     65  O   UNL     1       8.518  13.468 -12.090  1.00  0.00    -0.237 OA
ATOM     66  O   UNL     1      10.739  12.402 -12.055  1.00  0.00    -0.744 OA
ENDBRANCH  62  63
ENDBRANCH  36  57
ENDBRANCH  10  11
ENDBRANCH   3   5
ENDBRANCH   2   3
ENDBRANCH   1   2
BRANCH   1  67
ATOM     67  C   UNL     1       4.045  -2.091  -0.582  1.00  0.00     0.275 C 
BRANCH  67  68
ATOM     68  O   UNL     1       3.487  -1.290  -1.640  1.00  0.00    -0.458 OA
BRANCH  68  69
ATOM     69  C   UNL     1       2.136  -1.369  -1.776  1.00  0.00     0.338 C 
ATOM     70  O   UNL     1       1.393  -2.122  -1.169  1.00  0.00    -0.246 OA
BRANCH  69  71
ATOM     71  C   UNL     1       1.642  -0.264  -2.631  1.00  0.00     0.060 A 
ATOM     72  C   UNL     1       0.646   0.557  -2.089  1.00  0.00     0.016 A 
ATOM     73  C   UNL     1       2.144  -0.005  -3.912  1.00  0.00     0.021 A 
ATOM     74  C   UNL     1       0.191   1.668  -2.797  1.00  0.00     0.001 A 
ATOM     75  C   UNL     1       1.660   1.100  -4.644  1.00  0.00    -0.027 A 
ATOM     76  C   UNL     1       0.701   1.941  -4.063  1.00  0.00     0.005 A 
BRANCH  75  77
ATOM     77  C   UNL     1       2.174   1.419  -6.029  1.00  0.00     0.165 C 
BRANCH  77  78
ATOM     78  N   UNL     1       1.282   1.012  -7.086  1.00  0.00    -0.264 N 
ATOM     79  C   UNL     1       0.266   1.806  -7.529  1.00  0.00     0.293 C 
ATOM     80  C   UNL     1       1.522  -0.154  -7.772  1.00  0.00     0.268 C 
ATOM     81  O   UNL     1      -0.027   2.923  -7.139  1.00  0.00    -0.261 OA
ATOM     82  S   UNL     1      -0.616   0.984  -8.803  1.00  0.00    -0.022 SA
ATOM     83  C   UNL     1       0.478  -0.358  -8.817  1.00  0.00     0.083 C 
ATOM     84  O   UNL     1       2.458  -0.905  -7.534  1.00  0.00    -0.268 OA
ATOM     85  C   UNL     1       0.361  -1.381  -9.676  1.00  0.00     0.029 C 
BRANCH  85  86
ATOM     86  C   UNL     1       1.285  -2.516  -9.779  1.00  0.00    -0.024 A 
ATOM     87  C   UNL     1       1.909  -2.761 -11.005  1.00  0.00     0.009 A 
ATOM     88  C   UNL     1       1.594  -3.334  -8.686  1.00  0.00     0.009 A 
ATOM     89  C   UNL     1       2.896  -3.743 -11.118  1.00  0.00     0.021 A 
ATOM     90  C   UNL     1       2.587  -4.310  -8.793  1.00  0.00     0.021 A 
ATOM     91  C   UNL     1       3.244  -4.501 -10.007  1.00  0.00     0.041 A 
ATOM     92  Cl  UNL     1       4.496  -5.677 -10.120  1.00  0.00    -0.084 Cl
ENDBRANCH  85  86
ENDBRANCH  77  78
ENDBRANCH  75  77
ENDBRANCH  69  71
ENDBRANCH  68  69
ENDBRANCH  67  68
ENDBRANCH   1  67
TORSDOF 17
