REMARK SMILES O=C(OCCOC(=O)c1ccc(-c2c3nc(c(-c4ccc(S(=O)(=O)[O-])cc4)c4ccc([nH]4)c(-c4ccc(S(=O)(=O)[O-])cc4)c4nc(c(-c5ccc(S(=O)(=O)[O-])cc5)c5ccc2[nH]5)C=C4)C=C3)cc1)C1=Cc2cc(OC(F)(F)F)ccc2O[C@@H]1C(F)(F)F
REMARK SMILES IDX 5 1 4 2 3 3 2 4 1 5 69 6 70 7 83 8 71 9 82 10 72 11 81 12
REMARK SMILES IDX 73 13 80 14 79 15 84 16 85 17 86 18 87 19 74 20 75 21 76 22
REMARK SMILES IDX 77 23 78 24 6 25 7 26 8 27 9 28 10 29 68 30 11 31 67 32
REMARK SMILES IDX 12 33 13 34 14 35 61 36 15 37 66 38 60 39 62 40 16 41 65 42
REMARK SMILES IDX 59 43 58 44 17 46 47 47 28 48 46 49 29 50 32 51 45 52 63 53
REMARK SMILES IDX 30 54 31 55 44 57 64 58 33 59 18 60 19 61 27 62 20 63 26 64
REMARK SMILES IDX 21 65 22 66 23 67 24 68 25 69 48 70 49 71 57 72 50 73 56 74
REMARK SMILES IDX 51 75 52 76 53 77 54 78 55 79 34 80 35 81 43 82 36 83 42 84
REMARK SMILES IDX 37 85 38 86 39 87 40 88 41 89
REMARK H PARENT 62 45 32 56
REMARK Flexibility Score: inf
ROOT
ATOM      1  C   UNL     1       4.712   0.335   0.932  1.00  0.00     0.275 C 
ENDROOT
BRANCH   1   2
ATOM      2  C   UNL     1       3.874  -0.826  -0.699  1.00  0.00     0.275 C 
BRANCH   2   3
ATOM      3  O   UNL     1       2.905  -2.028  -0.571  1.00  0.00    -0.459 OA
BRANCH   3   4
ATOM      4  C   UNL     1       3.059  -2.700   0.576  1.00  0.00     0.338 C 
ATOM      5  O   UNL     1       2.395  -3.590   1.040  1.00  0.00    -0.246 OA
BRANCH   4   6
ATOM      6  C   UNL     1       3.960  -1.741   1.172  1.00  0.00     0.087 C 
ATOM      7  C   UNL     1       5.325  -1.871   0.716  1.00  0.00     0.027 C 
ATOM      8  C   UNL     1       2.817  -0.215   0.907  1.00  0.00     0.316 C 
ATOM      9  C   UNL     1       6.087  -0.713  -0.390  1.00  0.00     0.021 A 
ATOM     10  O   UNL     1       3.603   1.020  -0.375  1.00  0.00    -0.475 OA
ATOM     11  C   UNL     1       7.310  -1.056  -0.870  1.00  0.00     0.058 A 
ATOM     12  C   UNL     1       5.268   0.654  -1.050  1.00  0.00     0.128 A 
ATOM     13  C   UNL     1       7.804  -0.270  -1.917  1.00  0.00     0.130 A 
ATOM     14  C   UNL     1       5.803   1.376  -2.082  1.00  0.00     0.051 A 
ATOM     15  C   UNL     1       7.087   0.866  -2.502  1.00  0.00     0.050 A 
BRANCH   8  16
ATOM     16  C   UNL     1       2.448  -0.180   2.482  1.00  0.00     0.430 C 
ATOM     17  F   UNL     1       1.158   0.132   2.668  1.00  0.00    -0.167 F 
ATOM     18  F   UNL     1       2.531  -1.444   3.010  1.00  0.00    -0.167 F 
ATOM     19  F   UNL     1       3.248   0.506   3.313  1.00  0.00    -0.167 F 
ENDBRANCH   8  16
BRANCH  13  20
ATOM     20  O   UNL     1       9.035  -0.764  -2.263  1.00  0.00    -0.406 OA
BRANCH  20  21
ATOM     21  C   UNL     1       9.751  -0.277  -3.367  1.00  0.00     0.573 C 
ATOM     22  F   UNL     1       9.092  -0.532  -4.514  1.00  0.00    -0.132 F 
ATOM     23  F   UNL     1       9.989   1.042  -3.251  1.00  0.00    -0.132 F 
ATOM     24  F   UNL     1      10.940  -0.922  -3.408  1.00  0.00    -0.132 F 
ENDBRANCH  20  21
ENDBRANCH  13  20
ENDBRANCH   4   6
ENDBRANCH   3   4
ENDBRANCH   2   3
ENDBRANCH   1   2
BRANCH   1  25
ATOM     25  O   UNL     1       3.944   1.749   1.635  1.00  0.00    -0.458 OA
BRANCH  25  26
ATOM     26  C   UNL     1       2.978   2.711   1.408  1.00  0.00     0.338 C 
ATOM     27  O   UNL     1       2.455   3.053   0.362  1.00  0.00    -0.246 OA
BRANCH  26  28
ATOM     28  C   UNL     1       2.311   2.957   2.731  1.00  0.00     0.060 A 
ATOM     29  C   UNL     1       0.958   2.586   2.872  1.00  0.00     0.016 A 
ATOM     30  C   UNL     1       3.098   3.128   3.869  1.00  0.00     0.016 A 
ATOM     31  C   UNL     1       0.479   2.145   4.123  1.00  0.00     0.010 A 
ATOM     32  C   UNL     1       2.616   2.692   5.108  1.00  0.00     0.010 A 
ATOM     33  C   UNL     1       1.335   2.120   5.234  1.00  0.00    -0.014 A 
BRANCH  33  34
ATOM     34  C   UNL     1       0.835   1.778   6.594  1.00  0.00     0.031 A 
ATOM     35  C   UNL     1       0.306   2.944   7.375  1.00  0.00     0.074 A 
ATOM     36  C   UNL     1       0.915   0.555   7.166  1.00  0.00     0.049 A 
ATOM     37  N   UNL     1      -0.095   3.009   8.613  1.00  0.00    -0.248 NA
ATOM     38  C   UNL     1       0.269   4.230   6.652  1.00  0.00     0.031 C 
ATOM     39  C   UNL     1       1.412  -0.668   6.533  1.00  0.00     0.029 A 
ATOM     40  N   UNL     1       0.587   0.144   8.443  1.00  0.00    -0.354 N 
ATOM     41  C   UNL     1      -0.419   4.343   8.816  1.00  0.00     0.074 A 
ATOM     42  C   UNL     1      -0.105   5.061   7.605  1.00  0.00     0.031 C 
ATOM     43  C   UNL     1       1.362  -1.682   7.422  1.00  0.00     0.029 A 
ATOM     44  C   UNL     1       0.848  -1.188   8.699  1.00  0.00     0.049 A 
ATOM     45  H   UNL     1       0.199   0.750   9.115  1.00  0.00     0.167 HD
ATOM     46  C   UNL     1      -0.957   4.928   9.907  1.00  0.00     0.031 A 
ATOM     47  C   UNL     1       0.690  -1.913   9.832  1.00  0.00     0.031 A 
ATOM     48  C   UNL     1      -1.241   4.229  11.122  1.00  0.00     0.049 A 
ATOM     49  C   UNL     1       0.132  -1.226  11.065  1.00  0.00     0.074 A 
ATOM     50  C   UNL     1      -1.795   4.722  12.286  1.00  0.00     0.029 A 
ATOM     51  N   UNL     1      -0.979   2.883  11.329  1.00  0.00    -0.354 N 
ATOM     52  N   UNL     1      -0.243   0.025  11.218  1.00  0.00    -0.248 NA
ATOM     53  C   UNL     1      -0.038  -2.048  12.276  1.00  0.00     0.031 C 
ATOM     54  C   UNL     1      -1.818   3.683  13.221  1.00  0.00     0.029 A 
ATOM     55  C   UNL     1      -1.343   2.530  12.614  1.00  0.00     0.049 A 
ATOM     56  H   UNL     1      -0.591   2.272  10.662  1.00  0.00     0.167 HD
ATOM     57  C   UNL     1      -0.728   0.125  12.521  1.00  0.00     0.074 A 
ATOM     58  C   UNL     1      -0.608  -1.191  13.113  1.00  0.00     0.031 C 
ATOM     59  C   UNL     1      -1.232   1.205  13.170  1.00  0.00     0.031 A 
BRANCH  46  60
ATOM     60  C   UNL     1      -1.232   6.399   9.805  1.00  0.00    -0.014 A 
ATOM     61  C   UNL     1      -2.228   6.885   8.935  1.00  0.00     0.010 A 
ATOM     62  C   UNL     1      -0.447   7.308  10.532  1.00  0.00     0.010 A 
ATOM     63  C   UNL     1      -2.394   8.257   8.752  1.00  0.00     0.020 A 
ATOM     64  C   UNL     1      -0.637   8.683  10.379  1.00  0.00     0.020 A 
ATOM     65  C   UNL     1      -1.595   9.147   9.475  1.00  0.00     0.054 A 
BRANCH  65  66
ATOM     66  S   UNL     1      -1.843  10.924   9.227  1.00  0.00     0.124 S 
ATOM     67  O   UNL     1      -1.280  11.124   7.893  1.00  0.00    -0.237 OA
ATOM     68  O   UNL     1      -3.294  11.059   9.321  1.00  0.00    -0.237 OA
ATOM     69  O   UNL     1      -1.090  11.535  10.319  1.00  0.00    -0.744 OA
ENDBRANCH  65  66
ENDBRANCH  46  60
BRANCH  47  70
ATOM     70  C   UNL     1       1.042  -3.370   9.892  1.00  0.00    -0.014 A 
ATOM     71  C   UNL     1       0.042  -4.348  10.071  1.00  0.00     0.010 A 
ATOM     72  C   UNL     1       2.383  -3.794   9.837  1.00  0.00     0.010 A 
ATOM     73  C   UNL     1       0.373  -5.704  10.216  1.00  0.00     0.020 A 
ATOM     74  C   UNL     1       2.718  -5.152   9.954  1.00  0.00     0.020 A 
ATOM     75  C   UNL     1       1.711  -6.099  10.153  1.00  0.00     0.054 A 
BRANCH  75  76
ATOM     76  S   UNL     1       2.114  -7.866  10.302  1.00  0.00     0.124 S 
ATOM     77  O   UNL     1       1.821  -8.132  11.707  1.00  0.00    -0.237 OA
ATOM     78  O   UNL     1       1.202  -8.479   9.340  1.00  0.00    -0.237 OA
ATOM     79  O   UNL     1       3.528  -7.928   9.937  1.00  0.00    -0.744 OA
ENDBRANCH  75  76
ENDBRANCH  47  70
BRANCH  59  80
ATOM     80  C   UNL     1      -1.749   1.016  14.572  1.00  0.00    -0.014 A 
ATOM     81  C   UNL     1      -0.878   0.820  15.657  1.00  0.00     0.010 A 
ATOM     82  C   UNL     1      -3.129   1.159  14.817  1.00  0.00     0.010 A 
ATOM     83  C   UNL     1      -1.381   0.751  16.960  1.00  0.00     0.020 A 
ATOM     84  C   UNL     1      -3.631   1.124  16.119  1.00  0.00     0.020 A 
ATOM     85  C   UNL     1      -2.753   0.910  17.183  1.00  0.00     0.054 A 
BRANCH  85  86
ATOM     86  S   UNL     1      -3.370   0.888  18.888  1.00  0.00     0.124 S 
ATOM     87  O   UNL     1      -3.241  -0.523  19.240  1.00  0.00    -0.237 OA
ATOM     88  O   UNL     1      -2.450   1.793  19.572  1.00  0.00    -0.237 OA
ATOM     89  O   UNL     1      -4.741   1.378  18.768  1.00  0.00    -0.744 OA
ENDBRANCH  85  86
ENDBRANCH  59  80
ENDBRANCH  33  34
ENDBRANCH  26  28
ENDBRANCH  25  26
ENDBRANCH   1  25
TORSDOF 17
