REMARK SMILES C[C@]12C(=O)N(c3ccc(C(=O)OCCOC(=O)c4ccc(-c5c6nc(c(-c7ccc(S(=O)(=O)[O-])cc7)c7ccc([nH]7)c(-c7ccc(S(=O)(=O)[O-])cc7)c7nc(c(-c8ccc(S(=O)(=O)[O-])cc8)c8ccc5[nH]8)C=C7)C=C6)cc4)cc3)C(=O)[C@H]1[C@H]1c3ccccc3[C@@H]2c2ccccc21
REMARK SMILES IDX 14 1 13 2 12 3 10 4 11 5 9 6 6 7 7 8 79 9 8 10 78 11 5 12
REMARK SMILES IDX 1 13 2 14 3 15 82 16 90 17 4 18 80 19 83 20 89 21 91 22
REMARK SMILES IDX 81 23 84 24 96 25 88 26 92 27 85 28 95 29 87 30 93 31 86 32
REMARK SMILES IDX 94 33 15 34 16 35 17 36 18 37 19 38 77 39 20 40 76 41 21 42
REMARK SMILES IDX 22 43 23 44 70 45 24 46 75 47 69 48 71 49 25 50 74 51 68 52
REMARK SMILES IDX 67 53 26 55 56 56 37 57 55 58 38 59 41 60 54 61 72 62 39 63
REMARK SMILES IDX 40 64 53 66 73 67 42 68 27 69 28 70 36 71 29 72 35 73 30 74
REMARK SMILES IDX 31 75 32 76 33 77 34 78 57 79 58 80 66 81 59 82 65 83 60 84
REMARK SMILES IDX 61 85 62 86 63 87 64 88 43 89 44 90 52 91 45 92 51 93 46 94
REMARK SMILES IDX 47 95 48 96 49 97 50 98
REMARK H PARENT 71 54 41 65
REMARK Flexibility Score: inf
ROOT
ATOM      1  C   UNL     1       3.037  11.247  -2.030  1.00  0.00     0.275 C 
ENDROOT
BRANCH   1   2
ATOM      2  C   UNL     1       2.383  11.098  -0.654  1.00  0.00     0.275 C 
BRANCH   2   3
ATOM      3  O   UNL     1       2.490   9.741  -0.172  1.00  0.00    -0.458 OA
BRANCH   3   4
ATOM      4  C   UNL     1       1.358   9.006  -0.253  1.00  0.00     0.338 C 
ATOM      5  O   UNL     1       0.257   9.398  -0.610  1.00  0.00    -0.246 OA
BRANCH   4   6
ATOM      6  C   UNL     1       1.643   7.576  -0.015  1.00  0.00     0.060 A 
ATOM      7  C   UNL     1       1.915   4.770   0.329  1.00  0.00     0.052 A 
ATOM      8  C   UNL     1       1.359   5.327  -0.834  1.00  0.00     0.028 A 
ATOM      9  C   UNL     1       2.364   5.662   1.314  1.00  0.00     0.028 A 
ATOM     10  C   UNL     1       1.193   6.694  -0.985  1.00  0.00     0.018 A 
ATOM     11  C   UNL     1       2.252   7.064   1.133  1.00  0.00     0.018 A 
BRANCH   7  12
ATOM     12  N   UNL     1       1.787   3.357   0.521  1.00  0.00    -0.250 N 
ATOM     13  C   UNL     1       1.026   0.183  -0.035  1.00  0.00     0.024 C 
ATOM     14  C   UNL     1       0.352   1.557   0.155  1.00  0.00     0.071 C 
ATOM     15  C   UNL     1       1.266   2.560  -0.476  1.00  0.00     0.241 C 
ATOM     16  C   UNL     1       0.310   1.986   1.651  1.00  0.00     0.107 C 
ATOM     17  C   UNL     1      -1.085   1.662  -0.456  1.00  0.00     0.066 C 
ATOM     18  O   UNL     1       1.518   2.572  -1.674  1.00  0.00    -0.273 OA
ATOM     19  C   UNL     1       1.641   2.730   1.769  1.00  0.00     0.238 C 
ATOM     20  C   UNL     1      -1.165   1.792   2.196  1.00  0.00     0.063 C 
ATOM     21  C   UNL     1      -1.765   2.943   0.070  1.00  0.00    -0.036 A 
ATOM     22  C   UNL     1      -1.851   0.511   0.181  1.00  0.00    -0.036 A 
ATOM     23  O   UNL     1       2.329   2.827   2.771  1.00  0.00    -0.274 OA
ATOM     24  C   UNL     1      -1.915   2.980   1.495  1.00  0.00    -0.036 A 
ATOM     25  C   UNL     1      -1.847   0.545   1.605  1.00  0.00    -0.036 A 
ATOM     26  C   UNL     1      -2.097   4.052  -0.692  1.00  0.00     0.005 A 
ATOM     27  C   UNL     1      -2.564  -0.446  -0.529  1.00  0.00     0.005 A 
ATOM     28  C   UNL     1      -2.365   4.124   2.143  1.00  0.00     0.004 A 
ATOM     29  C   UNL     1      -2.593  -0.393   2.306  1.00  0.00     0.004 A 
ATOM     30  C   UNL     1      -2.547   5.202  -0.035  1.00  0.00     0.000 A 
ATOM     31  C   UNL     1      -3.300  -1.384   0.185  1.00  0.00     0.000 A 
ATOM     32  C   UNL     1      -2.677   5.238   1.364  1.00  0.00     0.000 A 
ATOM     33  C   UNL     1      -3.316  -1.357   1.589  1.00  0.00     0.000 A 
ENDBRANCH   7  12
ENDBRANCH   4   6
ENDBRANCH   3   4
ENDBRANCH   2   3
ENDBRANCH   1   2
BRANCH   1  34
ATOM     34  O   UNL     1       2.183  10.727  -3.066  1.00  0.00    -0.458 OA
BRANCH  34  35
ATOM     35  C   UNL     1       2.496   9.491  -3.516  1.00  0.00     0.338 C 
ATOM     36  O   UNL     1       3.413   8.776  -3.154  1.00  0.00    -0.246 OA
BRANCH  35  37
ATOM     37  C   UNL     1       1.495   9.082  -4.512  1.00  0.00     0.060 A 
ATOM     38  C   UNL     1       1.757   9.181  -5.877  1.00  0.00     0.016 A 
ATOM     39  C   UNL     1       0.308   8.511  -4.063  1.00  0.00     0.016 A 
ATOM     40  C   UNL     1       0.800   8.721  -6.791  1.00  0.00     0.010 A 
ATOM     41  C   UNL     1      -0.578   7.936  -4.967  1.00  0.00     0.010 A 
ATOM     42  C   UNL     1      -0.369   8.076  -6.345  1.00  0.00    -0.014 A 
BRANCH  42  43
ATOM     43  C   UNL     1      -1.426   7.607  -7.284  1.00  0.00     0.031 A 
ATOM     44  C   UNL     1      -2.825   8.167  -7.167  1.00  0.00     0.074 A 
ATOM     45  C   UNL     1      -1.154   6.666  -8.210  1.00  0.00     0.049 A 
ATOM     46  N   UNL     1      -3.906   7.830  -7.821  1.00  0.00    -0.248 NA
ATOM     47  C   UNL     1      -3.046   9.228  -6.165  1.00  0.00     0.031 C 
ATOM     48  C   UNL     1       0.152   6.038  -8.419  1.00  0.00     0.029 A 
ATOM     49  N   UNL     1      -1.957   6.078  -9.159  1.00  0.00    -0.354 N 
ATOM     50  C   UNL     1      -4.926   8.620  -7.301  1.00  0.00     0.074 A 
ATOM     51  C   UNL     1      -4.357   9.405  -6.232  1.00  0.00     0.031 C 
ATOM     52  C   UNL     1       0.075   5.199  -9.465  1.00  0.00     0.029 A 
ATOM     53  C   UNL     1      -1.297   5.179  -9.966  1.00  0.00     0.049 A 
ATOM     54  H   UNL     1      -2.916   6.280  -9.252  1.00  0.00     0.167 HD
ATOM     55  C   UNL     1      -6.214   8.716  -7.704  1.00  0.00     0.031 A 
ATOM     56  C   UNL     1      -1.740   4.425 -10.993  1.00  0.00     0.031 A 
ATOM     57  C   UNL     1      -6.765   7.968  -8.800  1.00  0.00     0.049 A 
ATOM     58  C   UNL     1      -3.186   4.520 -11.401  1.00  0.00     0.074 A 
ATOM     59  C   UNL     1      -8.050   8.021  -9.308  1.00  0.00     0.029 A 
ATOM     60  N   UNL     1      -6.063   7.054  -9.571  1.00  0.00    -0.354 N 
ATOM     61  N   UNL     1      -4.128   5.289 -10.909  1.00  0.00    -0.248 NA
ATOM     62  C   UNL     1      -3.634   3.653 -12.502  1.00  0.00     0.031 C 
ATOM     63  C   UNL     1      -8.142   7.098 -10.349  1.00  0.00     0.029 A 
ATOM     64  C   UNL     1      -6.894   6.524 -10.540  1.00  0.00     0.049 A 
ATOM     65  H   UNL     1      -5.115   6.819  -9.448  1.00  0.00     0.167 HD
ATOM     66  C   UNL     1      -5.269   5.021 -11.657  1.00  0.00     0.074 A 
ATOM     67  C   UNL     1      -4.902   4.025 -12.641  1.00  0.00     0.031 C 
ATOM     68  C   UNL     1      -6.508   5.553 -11.534  1.00  0.00     0.031 A 
BRANCH  55  69
ATOM     69  C   UNL     1      -7.120   9.695  -7.001  1.00  0.00    -0.014 A 
ATOM     70  C   UNL     1      -8.238   9.232  -6.282  1.00  0.00     0.010 A 
ATOM     71  C   UNL     1      -6.944  11.081  -7.171  1.00  0.00     0.010 A 
ATOM     72  C   UNL     1      -9.184  10.132  -5.785  1.00  0.00     0.020 A 
ATOM     73  C   UNL     1      -7.870  11.985  -6.647  1.00  0.00     0.020 A 
ATOM     74  C   UNL     1      -9.000  11.504  -5.982  1.00  0.00     0.054 A 
BRANCH  74  75
ATOM     75  S   UNL     1     -10.265  12.654  -5.378  1.00  0.00     0.124 S 
ATOM     76  O   UNL     1     -11.353  12.444  -6.329  1.00  0.00    -0.237 OA
ATOM     77  O   UNL     1     -10.511  12.174  -4.020  1.00  0.00    -0.237 OA
ATOM     78  O   UNL     1      -9.609  13.958  -5.458  1.00  0.00    -0.744 OA
ENDBRANCH  74  75
ENDBRANCH  55  69
BRANCH  56  79
ATOM     79  C   UNL     1      -0.780   3.561 -11.739  1.00  0.00    -0.014 A 
ATOM     80  C   UNL     1      -0.168   2.455 -11.120  1.00  0.00     0.010 A 
ATOM     81  C   UNL     1      -0.413   3.890 -13.057  1.00  0.00     0.010 A 
ATOM     82  C   UNL     1       0.829   1.730 -11.781  1.00  0.00     0.020 A 
ATOM     83  C   UNL     1       0.561   3.147 -13.734  1.00  0.00     0.020 A 
ATOM     84  C   UNL     1       1.197   2.091 -13.079  1.00  0.00     0.054 A 
BRANCH  84  85
ATOM     85  S   UNL     1       2.528   1.168 -13.898  1.00  0.00     0.124 S 
ATOM     86  O   UNL     1       3.712   1.679 -13.212  1.00  0.00    -0.237 OA
ATOM     87  O   UNL     1       2.180  -0.220 -13.606  1.00  0.00    -0.237 OA
ATOM     88  O   UNL     1       2.402   1.557 -15.301  1.00  0.00    -0.744 OA
ENDBRANCH  84  85
ENDBRANCH  56  79
BRANCH  68  89
ATOM     89  C   UNL     1      -7.589   5.112 -12.485  1.00  0.00    -0.014 A 
ATOM     90  C   UNL     1      -8.121   6.038 -13.403  1.00  0.00     0.010 A 
ATOM     91  C   UNL     1      -8.217   3.866 -12.322  1.00  0.00     0.010 A 
ATOM     92  C   UNL     1      -9.303   5.754 -14.089  1.00  0.00     0.020 A 
ATOM     93  C   UNL     1      -9.385   3.567 -13.030  1.00  0.00     0.020 A 
ATOM     94  C   UNL     1      -9.940   4.528 -13.880  1.00  0.00     0.054 A 
BRANCH  94  95
ATOM     95  S   UNL     1     -11.531   4.223 -14.696  1.00  0.00     0.124 S 
ATOM     96  O   UNL     1     -12.436   5.078 -13.934  1.00  0.00    -0.237 OA
ATOM     97  O   UNL     1     -11.272   4.645 -16.070  1.00  0.00    -0.237 OA
ATOM     98  O   UNL     1     -11.736   2.786 -14.522  1.00  0.00    -0.744 OA
ENDBRANCH  94  95
ENDBRANCH  68  89
ENDBRANCH  42  43
ENDBRANCH  35  37
ENDBRANCH  34  35
ENDBRANCH   1  34
TORSDOF 15
