REMARK SMILES CC(C)=CC[C@@]1(C(=O)OCCOC(=O)c2ccc(-c3c4nc(c(-c5ccc(S(=O)(=O)[O-])cc5)c5ccc([nH]5)c(-c5ccc(S(=O)(=O)[O-])cc5)c5nc(c(-c6ccc(S(=O)(=O)[O-])cc6)c6ccc3[nH]6)C=C5)C=C4)cc2)CCC[C@H](C)C1
REMARK SMILES IDX 11 1 10 2 9 3 7 4 8 5 6 6 75 7 80 8 76 9 78 10 77 11 79 12
REMARK SMILES IDX 5 13 4 14 1 15 2 16 3 17 12 18 13 19 14 20 15 21 16 22 74 23
REMARK SMILES IDX 17 24 73 25 18 26 19 27 20 28 67 29 21 30 72 31 66 32 68 33
REMARK SMILES IDX 22 34 71 35 65 36 64 37 23 39 53 40 34 41 52 42 35 43 38 44
REMARK SMILES IDX 51 45 69 46 36 47 37 48 50 50 70 51 39 52 24 53 25 54 33 55
REMARK SMILES IDX 26 56 32 57 27 58 28 59 29 60 30 61 31 62 54 63 55 64 63 65
REMARK SMILES IDX 56 66 62 67 57 68 58 69 59 70 60 71 61 72 40 73 41 74 49 75
REMARK SMILES IDX 42 76 48 77 43 78 44 79 45 80 46 81 47 82
REMARK H PARENT 68 38 38 49
REMARK Flexibility Score: inf
ROOT
ATOM      1  C   UNL     1      -0.436  -0.316  -1.040  1.00  0.00     0.275 C 
ENDROOT
BRANCH   1   2
ATOM      2  C   UNL     1      -0.546  -1.838  -1.169  1.00  0.00     0.274 C 
BRANCH   2   3
ATOM      3  O   UNL     1       0.719  -2.502  -0.965  1.00  0.00    -0.462 OA
BRANCH   3   4
ATOM      4  C   UNL     1       1.463  -2.782  -2.066  1.00  0.00     0.312 C 
ATOM      5  O   UNL     1       1.088  -2.520  -3.203  1.00  0.00    -0.252 OA
BRANCH   4   6
ATOM      6  C   UNL     1       2.745  -3.597  -1.755  1.00  0.00     0.072 C 
ATOM      7  C   UNL     1       3.696  -3.483  -2.992  1.00  0.00     0.019 C 
ATOM      8  C   UNL     1       2.269  -5.071  -1.631  1.00  0.00     0.022 C 
ATOM      9  C   UNL     1       4.819  -4.508  -3.024  1.00  0.00     0.001 C 
ATOM     10  C   UNL     1       3.367  -6.143  -1.778  1.00  0.00    -0.013 C 
ATOM     11  C   UNL     1       4.250  -5.912  -3.009  1.00  0.00     0.003 C 
ATOM     12  C   UNL     1       2.748  -7.540  -1.863  1.00  0.00     0.007 C 
BRANCH   6  13
ATOM     13  C   UNL     1       3.569  -3.113  -0.513  1.00  0.00     0.046 C 
BRANCH  13  14
ATOM     14  C   UNL     1       2.874  -2.534   0.689  1.00  0.00    -0.027 C 
ATOM     15  C   UNL     1       3.277  -4.406   2.308  1.00  0.00     0.039 C 
ATOM     16  C   UNL     1       2.747  -3.058   1.922  1.00  0.00    -0.080 C 
ATOM     17  C   UNL     1       2.056  -2.257   2.994  1.00  0.00     0.039 C 
ENDBRANCH  13  14
ENDBRANCH   6  13
ENDBRANCH   4   6
ENDBRANCH   3   4
ENDBRANCH   2   3
ENDBRANCH   1   2
BRANCH   1  18
ATOM     18  O   UNL     1       0.152   0.270  -2.216  1.00  0.00    -0.458 OA
BRANCH  18  19
ATOM     19  C   UNL     1       1.451   0.627  -2.101  1.00  0.00     0.338 C 
ATOM     20  O   UNL     1       2.146   0.571  -1.101  1.00  0.00    -0.246 OA
BRANCH  19  21
ATOM     21  C   UNL     1       1.992   0.938  -3.433  1.00  0.00     0.060 A 
ATOM     22  C   UNL     1       2.846  -0.008  -3.996  1.00  0.00     0.016 A 
ATOM     23  C   UNL     1       1.750   2.141  -4.090  1.00  0.00     0.016 A 
ATOM     24  C   UNL     1       3.475   0.226  -5.210  1.00  0.00     0.010 A 
ATOM     25  C   UNL     1       2.377   2.381  -5.321  1.00  0.00     0.010 A 
ATOM     26  C   UNL     1       3.251   1.429  -5.883  1.00  0.00    -0.014 A 
BRANCH  26  27
ATOM     27  C   UNL     1       3.994   1.704  -7.135  1.00  0.00     0.031 A 
ATOM     28  C   UNL     1       5.109   2.709  -7.127  1.00  0.00     0.074 A 
ATOM     29  C   UNL     1       3.711   1.014  -8.257  1.00  0.00     0.049 A 
ATOM     30  N   UNL     1       5.801   3.182  -8.130  1.00  0.00    -0.248 NA
ATOM     31  C   UNL     1       5.499   3.250  -5.815  1.00  0.00     0.031 C 
ATOM     32  C   UNL     1       2.715  -0.054  -8.367  1.00  0.00     0.029 A 
ATOM     33  N   UNL     1       4.243   1.105  -9.518  1.00  0.00    -0.354 N 
ATOM     34  C   UNL     1       6.683   4.103  -7.579  1.00  0.00     0.074 A 
ATOM     35  C   UNL     1       6.439   4.121  -6.152  1.00  0.00     0.031 C 
ATOM     36  C   UNL     1       2.710  -0.520  -9.627  1.00  0.00     0.029 A 
ATOM     37  C   UNL     1       3.656   0.255 -10.425  1.00  0.00     0.049 A 
ATOM     38  H   UNL     1       4.974   1.722  -9.752  1.00  0.00     0.167 HD
ATOM     39  C   UNL     1       7.605   4.869  -8.208  1.00  0.00     0.031 A 
ATOM     40  C   UNL     1       3.831   0.140 -11.755  1.00  0.00     0.031 A 
ATOM     41  C   UNL     1       7.845   4.839  -9.626  1.00  0.00     0.049 A 
ATOM     42  C   UNL     1       4.811   1.050 -12.444  1.00  0.00     0.074 A 
ATOM     43  C   UNL     1       8.732   5.599 -10.367  1.00  0.00     0.029 A 
ATOM     44  N   UNL     1       7.199   3.994 -10.516  1.00  0.00    -0.354 N 
ATOM     45  N   UNL     1       5.591   1.966 -11.920  1.00  0.00    -0.248 NA
ATOM     46  C   UNL     1       4.926   0.921 -13.903  1.00  0.00     0.031 C 
ATOM     47  C   UNL     1       8.597   5.237 -11.713  1.00  0.00     0.029 A 
ATOM     48  C   UNL     1       7.658   4.221 -11.802  1.00  0.00     0.049 A 
ATOM     49  H   UNL     1       6.514   3.331 -10.270  1.00  0.00     0.167 HD
ATOM     50  C   UNL     1       6.295   2.517 -12.984  1.00  0.00     0.074 A 
ATOM     51  C   UNL     1       5.863   1.819 -14.178  1.00  0.00     0.031 C 
ATOM     52  C   UNL     1       7.212   3.515 -12.976  1.00  0.00     0.031 A 
BRANCH  39  53
ATOM     53  C   UNL     1       8.380   5.844  -7.365  1.00  0.00    -0.014 A 
ATOM     54  C   UNL     1       9.413   5.415  -6.513  1.00  0.00     0.010 A 
ATOM     55  C   UNL     1       8.073   7.215  -7.438  1.00  0.00     0.010 A 
ATOM     56  C   UNL     1      10.099   6.338  -5.718  1.00  0.00     0.020 A 
ATOM     57  C   UNL     1       8.771   8.142  -6.660  1.00  0.00     0.020 A 
ATOM     58  C   UNL     1       9.767   7.695  -5.790  1.00  0.00     0.054 A 
BRANCH  58  59
ATOM     59  S   UNL     1      10.672   8.875  -4.751  1.00  0.00     0.124 S 
ATOM     60  O   UNL     1      10.066   8.649  -3.442  1.00  0.00    -0.237 OA
ATOM     61  O   UNL     1      12.057   8.431  -4.887  1.00  0.00    -0.237 OA
ATOM     62  O   UNL     1      10.375  10.170  -5.359  1.00  0.00    -0.744 OA
ENDBRANCH  58  59
ENDBRANCH  39  53
BRANCH  40  63
ATOM     63  C   UNL     1       3.014  -0.833 -12.530  1.00  0.00    -0.014 A 
ATOM     64  C   UNL     1       3.599  -1.983 -13.087  1.00  0.00     0.010 A 
ATOM     65  C   UNL     1       1.634  -0.616 -12.700  1.00  0.00     0.010 A 
ATOM     66  C   UNL     1       2.819  -2.894 -13.807  1.00  0.00     0.020 A 
ATOM     67  C   UNL     1       0.848  -1.536 -13.398  1.00  0.00     0.020 A 
ATOM     68  C   UNL     1       1.448  -2.665 -13.957  1.00  0.00     0.054 A 
BRANCH  68  69
ATOM     69  S   UNL     1       0.439  -3.888 -14.840  1.00  0.00     0.124 S 
ATOM     70  O   UNL     1       0.732  -3.571 -16.234  1.00  0.00    -0.237 OA
ATOM     71  O   UNL     1       0.975  -5.157 -14.354  1.00  0.00    -0.237 OA
ATOM     72  O   UNL     1      -0.922  -3.587 -14.400  1.00  0.00    -0.744 OA
ENDBRANCH  68  69
ENDBRANCH  40  63
BRANCH  52  73
ATOM     73  C   UNL     1       7.828   3.894 -14.293  1.00  0.00    -0.014 A 
ATOM     74  C   UNL     1       7.118   4.668 -15.227  1.00  0.00     0.010 A 
ATOM     75  C   UNL     1       9.154   3.517 -14.575  1.00  0.00     0.010 A 
ATOM     76  C   UNL     1       7.716   5.040 -16.434  1.00  0.00     0.020 A 
ATOM     77  C   UNL     1       9.762   3.904 -15.771  1.00  0.00     0.020 A 
ATOM     78  C   UNL     1       9.034   4.654 -16.699  1.00  0.00     0.054 A 
BRANCH  78  79
ATOM     79  S   UNL     1       9.810   5.188 -18.249  1.00  0.00     0.124 S 
ATOM     80  O   UNL     1       9.224   4.264 -19.216  1.00  0.00    -0.237 OA
ATOM     81  O   UNL     1       9.376   6.579 -18.366  1.00  0.00    -0.237 OA
ATOM     82  O   UNL     1      11.238   5.008 -18.000  1.00  0.00    -0.744 OA
ENDBRANCH  78  79
ENDBRANCH  52  73
ENDBRANCH  26  27
ENDBRANCH  19  21
ENDBRANCH  18  19
ENDBRANCH   1  18
TORSDOF 16
