REMARK SMILES Cc1c(CC(=O)OCCOC(=O)c2ccc(-c3c4nc(c(-c5ccc(S(=O)(=O)[O-])cc5)c5ccc([nH]5)c(-c5ccc(S(=O)(=O)[O-])cc5)c5nc(c(-c6ccc(S(=O)(=O)[O-])cc6)c6ccc3[nH]6)C=C5)C=C4)cc2)cc(-c2ccccc2)cc1-c1ccccc1
REMARK SMILES IDX 9 1 8 2 7 3 5 4 6 5 4 6 3 7 1 8 2 9 82 10 73 11 81 12 74 13
REMARK SMILES IDX 83 14 84 15 88 16 85 17 87 18 86 19 75 20 76 21 80 22 77 23
REMARK SMILES IDX 79 24 78 25 10 26 11 27 12 28 13 29 14 30 72 31 15 32 71 33
REMARK SMILES IDX 16 34 17 35 18 36 65 37 19 38 70 39 64 40 66 41 20 42 69 43
REMARK SMILES IDX 63 44 62 45 21 47 51 48 32 49 50 50 33 51 36 52 49 53 67 54
REMARK SMILES IDX 34 55 35 56 48 58 68 59 37 60 22 61 23 62 31 63 24 64 30 65
REMARK SMILES IDX 25 66 26 67 27 68 28 69 29 70 52 71 53 72 61 73 54 74 60 75
REMARK SMILES IDX 55 76 56 77 57 78 58 79 59 80 38 81 39 82 47 83 40 84 46 85
REMARK SMILES IDX 41 86 42 87 43 88 44 89 45 90
REMARK H PARENT 66 46 36 57
REMARK Flexibility Score: inf
ROOT
ATOM      1  C   UNL     1      -1.733  -3.683   4.263  1.00  0.00     0.275 C 
ENDROOT
BRANCH   1   2
ATOM      2  C   UNL     1      -0.363  -4.350   4.388  1.00  0.00     0.274 C 
BRANCH   2   3
ATOM      3  O   UNL     1       0.573  -3.594   3.604  1.00  0.00    -0.462 OA
BRANCH   3   4
ATOM      4  C   UNL     1       0.545  -3.825   2.169  1.00  0.00     0.310 C 
ATOM      5  O   UNL     1       0.213  -5.046   2.054  1.00  0.00    -0.252 OA
BRANCH   4   6
ATOM      6  C   UNL     1       0.959  -2.322   0.664  1.00  0.00     0.158 C 
BRANCH   6   7
ATOM      7  C   UNL     1       0.266  -0.802   0.220  1.00  0.00    -0.033 A 
ATOM      8  C   UNL     1       2.531   0.390   0.320  1.00  0.00     0.045 C 
ATOM      9  C   UNL     1       1.026   0.404   0.190  1.00  0.00    -0.039 A 
ATOM     10  C   UNL     1       0.345   1.635  -0.016  1.00  0.00    -0.015 A 
ATOM     11  C   UNL     1      -1.057  -0.746  -0.260  1.00  0.00     0.013 A 
ATOM     12  C   UNL     1      -1.054   1.637  -0.173  1.00  0.00     0.017 A 
ATOM     13  C   UNL     1      -1.767   0.452  -0.297  1.00  0.00    -0.017 A 
BRANCH  10  14
ATOM     14  C   UNL     1       1.029   2.934  -0.059  1.00  0.00    -0.018 A 
ATOM     15  C   UNL     1       0.898   3.845   0.999  1.00  0.00     0.009 A 
ATOM     16  C   UNL     1       1.810   3.297  -1.169  1.00  0.00     0.009 A 
ATOM     17  C   UNL     1       1.547   5.079   0.957  1.00  0.00     0.001 A 
ATOM     18  C   UNL     1       2.472   4.524  -1.203  1.00  0.00     0.001 A 
ATOM     19  C   UNL     1       2.340   5.414  -0.140  1.00  0.00     0.000 A 
ENDBRANCH  10  14
BRANCH  13  20
ATOM     20  C   UNL     1      -3.230   0.413  -0.335  1.00  0.00    -0.018 A 
ATOM     21  C   UNL     1      -3.929  -0.124   0.760  1.00  0.00     0.009 A 
ATOM     22  C   UNL     1      -3.963   0.829  -1.447  1.00  0.00     0.009 A 
ATOM     23  C   UNL     1      -5.307  -0.322   0.720  1.00  0.00     0.001 A 
ATOM     24  C   UNL     1      -5.352   0.666  -1.477  1.00  0.00     0.001 A 
ATOM     25  C   UNL     1      -6.020   0.074  -0.404  1.00  0.00     0.000 A 
ENDBRANCH  13  20
ENDBRANCH   6   7
ENDBRANCH   4   6
ENDBRANCH   3   4
ENDBRANCH   2   3
ENDBRANCH   1   2
BRANCH   1  26
ATOM     26  O   UNL     1      -2.441  -3.915   3.020  1.00  0.00    -0.458 OA
BRANCH  26  27
ATOM     27  C   UNL     1      -2.370  -3.163   1.889  1.00  0.00     0.338 C 
ATOM     28  O   UNL     1      -3.341  -2.928   1.190  1.00  0.00    -0.246 OA
BRANCH  27  29
ATOM     29  C   UNL     1      -1.015  -2.791   1.418  1.00  0.00     0.060 A 
ATOM     30  C   UNL     1      -0.287  -3.960   0.251  1.00  0.00     0.016 A 
ATOM     31  C   UNL     1       0.044  -1.800   2.488  1.00  0.00     0.016 A 
ATOM     32  C   UNL     1       1.492  -4.338   0.350  1.00  0.00     0.010 A 
ATOM     33  C   UNL     1       1.811  -2.156   2.564  1.00  0.00     0.010 A 
ATOM     34  C   UNL     1       2.497  -3.507   1.575  1.00  0.00    -0.014 A 
BRANCH  34  35
ATOM     35  C   UNL     1       3.596  -4.171   2.260  1.00  0.00     0.031 A 
ATOM     36  C   UNL     1       4.862  -3.445   2.383  1.00  0.00     0.074 A 
ATOM     37  C   UNL     1       3.328  -5.282   2.993  1.00  0.00     0.049 A 
ATOM     38  N   UNL     1       5.960  -3.996   2.748  1.00  0.00    -0.248 NA
ATOM     39  C   UNL     1       5.030  -2.035   2.039  1.00  0.00     0.031 C 
ATOM     40  C   UNL     1       4.107  -5.861   4.085  1.00  0.00     0.029 A 
ATOM     41  N   UNL     1       2.306  -6.213   2.845  1.00  0.00    -0.354 N 
ATOM     42  C   UNL     1       6.827  -2.982   3.067  1.00  0.00     0.074 A 
ATOM     43  C   UNL     1       6.284  -1.808   2.441  1.00  0.00     0.031 C 
ATOM     44  C   UNL     1       3.719  -7.139   4.267  1.00  0.00     0.029 A 
ATOM     45  C   UNL     1       2.780  -7.468   3.207  1.00  0.00     0.049 A 
ATOM     46  H   UNL     1       1.394  -6.016   2.534  1.00  0.00     0.167 HD
ATOM     47  C   UNL     1       7.806  -3.244   3.974  1.00  0.00     0.031 A 
ATOM     48  C   UNL     1       2.922  -8.455   2.271  1.00  0.00     0.031 A 
ATOM     49  C   UNL     1       7.869  -4.684   4.261  1.00  0.00     0.049 A 
ATOM     50  C   UNL     1       4.398  -8.718   1.983  1.00  0.00     0.074 A 
ATOM     51  C   UNL     1       7.531  -5.481   5.339  1.00  0.00     0.029 A 
ATOM     52  N   UNL     1       7.988  -5.548   3.180  1.00  0.00    -0.354 N 
ATOM     53  N   UNL     1       5.378  -8.075   2.565  1.00  0.00    -0.248 NA
ATOM     54  C   UNL     1       4.900  -9.672   0.998  1.00  0.00     0.031 C 
ATOM     55  C   UNL     1       7.387  -6.827   4.862  1.00  0.00     0.029 A 
ATOM     56  C   UNL     1       7.696  -6.856   3.512  1.00  0.00     0.049 A 
ATOM     57  H   UNL     1       8.251  -5.260   2.277  1.00  0.00     0.167 HD
ATOM     58  C   UNL     1       6.585  -8.443   2.045  1.00  0.00     0.074 A 
ATOM     59  C   UNL     1       6.229  -9.445   1.050  1.00  0.00     0.031 C 
ATOM     60  C   UNL     1       7.761  -7.872   2.457  1.00  0.00     0.031 A 
BRANCH  47  61
ATOM     61  C   UNL     1       8.568  -2.185   4.733  1.00  0.00    -0.014 A 
ATOM     62  C   UNL     1       9.548  -2.582   5.663  1.00  0.00     0.010 A 
ATOM     63  C   UNL     1       8.319  -0.797   4.651  1.00  0.00     0.010 A 
ATOM     64  C   UNL     1      10.232  -1.652   6.464  1.00  0.00     0.020 A 
ATOM     65  C   UNL     1       9.012   0.145   5.424  1.00  0.00     0.020 A 
ATOM     66  C   UNL     1       9.961  -0.291   6.336  1.00  0.00     0.054 A 
BRANCH  66  67
ATOM     67  S   UNL     1      10.849   0.895   7.378  1.00  0.00     0.124 S 
ATOM     68  O   UNL     1      10.410   0.520   8.719  1.00  0.00    -0.237 OA
ATOM     69  O   UNL     1      12.245   0.606   7.064  1.00  0.00    -0.237 OA
ATOM     70  O   UNL     1      10.368   2.195   6.912  1.00  0.00    -0.744 OA
ENDBRANCH  66  67
ENDBRANCH  47  61
BRANCH  48  71
ATOM     71  C   UNL     1       1.760  -8.549   1.319  1.00  0.00    -0.014 A 
ATOM     72  C   UNL     1       0.512  -8.921   1.877  1.00  0.00     0.010 A 
ATOM     73  C   UNL     1       1.749  -7.934   0.055  1.00  0.00     0.010 A 
ATOM     74  C   UNL     1      -0.701  -8.553   1.279  1.00  0.00     0.020 A 
ATOM     75  C   UNL     1       0.527  -7.576  -0.560  1.00  0.00     0.020 A 
ATOM     76  C   UNL     1      -0.688  -7.846   0.080  1.00  0.00     0.054 A 
BRANCH  76  77
ATOM     77  S   UNL     1      -2.264  -7.152  -0.524  1.00  0.00     0.124 S 
ATOM     78  O   UNL     1      -3.023  -8.349  -0.869  1.00  0.00    -0.237 OA
ATOM     79  O   UNL     1      -2.747  -6.414   0.639  1.00  0.00    -0.237 OA
ATOM     80  O   UNL     1      -1.860  -6.325  -1.660  1.00  0.00    -0.744 OA
ENDBRANCH  76  77
ENDBRANCH  48  71
BRANCH  60  81
ATOM     81  C   UNL     1       9.117  -8.185   1.859  1.00  0.00    -0.014 A 
ATOM     82  C   UNL     1       9.473  -9.450   1.375  1.00  0.00     0.010 A 
ATOM     83  C   UNL     1      10.137  -7.200   1.853  1.00  0.00     0.010 A 
ATOM     84  C   UNL     1      10.739  -9.685   0.818  1.00  0.00     0.020 A 
ATOM     85  C   UNL     1      11.406  -7.424   1.325  1.00  0.00     0.020 A 
ATOM     86  C   UNL     1      11.692  -8.665   0.784  1.00  0.00     0.054 A 
BRANCH  86  87
ATOM     87  S   UNL     1      13.322  -8.989   0.078  1.00  0.00     0.124 S 
ATOM     88  O   UNL     1      13.717 -10.221   0.755  1.00  0.00    -0.237 OA
ATOM     89  O   UNL     1      13.012  -9.122  -1.343  1.00  0.00    -0.237 OA
ATOM     90  O   UNL     1      14.102  -7.807   0.437  1.00  0.00    -0.744 OA
ENDBRANCH  86  87
ENDBRANCH  60  81
ENDBRANCH  34  35
ENDBRANCH  27  29
ENDBRANCH  26  27
ENDBRANCH   1  26
TORSDOF 17
