REMARK SMILES O=C(C[C@@H]1CSCC[NH2+]1)NC[C@@H](C(=O)OCCOC(=O)c1ccc(-c2c3nc(c(-c4ccc(S(=O)(=O)[O-])cc4)c4ccc([nH]4)c(-c4ccc(S(=O)(=O)[O-])cc4)c4nc(c(-c5ccc(S(=O)(=O)[O-])cc5)c5ccc2[nH]5)C=C4)C=C3)cc1)c1ccccc1
REMARK SMILES IDX 16 1 15 2 13 3 14 4 12 5 11 6 10 7 1 8 2 9 3 11 4 12 5 13
REMARK SMILES IDX 9 14 6 15 8 16 7 19 81 20 82 21 86 22 83 23 85 24 84 25
REMARK SMILES IDX 17 26 18 27 19 28 20 29 21 30 22 31 80 32 23 33 79 34 24 35
REMARK SMILES IDX 25 36 26 37 73 38 27 39 78 40 72 41 74 42 28 43 77 44 71 45
REMARK SMILES IDX 70 46 29 48 59 49 40 50 58 51 41 52 44 53 57 54 75 55 42 56
REMARK SMILES IDX 43 57 56 59 76 60 45 61 30 62 31 63 39 64 32 65 38 66 33 67
REMARK SMILES IDX 34 68 35 69 36 70 37 71 60 72 61 73 69 74 62 75 68 76 63 77
REMARK SMILES IDX 64 78 65 79 66 80 67 81 46 82 47 83 55 84 48 85 54 86 49 87
REMARK SMILES IDX 50 88 51 89 52 90 53 91
REMARK H PARENT 10 10 9 17 9 18 74 47 44 58
REMARK Flexibility Score: inf
ROOT
ATOM      1  C   UNL     1       6.264  -3.397   0.895  1.00  0.00     0.274 C 
ENDROOT
BRANCH   1   2
ATOM      2  O   UNL     1       4.866  -3.034   0.861  1.00  0.00    -0.462 OA
BRANCH   2   3
ATOM      3  C   UNL     1       3.969  -4.053   0.730  1.00  0.00     0.315 C 
ATOM      4  O   UNL     1       4.309  -5.230   0.669  1.00  0.00    -0.251 OA
BRANCH   3   5
ATOM      5  C   UNL     1       2.514  -3.566   0.554  1.00  0.00     0.148 C 
BRANCH   5   6
ATOM      6  C   UNL     1       2.308  -2.111   1.022  1.00  0.00     0.136 C 
BRANCH   6   7
ATOM      7  N   UNL     1       2.966  -1.101   0.203  1.00  0.00    -0.355 N 
ATOM      8  O   UNL     1       1.065   0.088  -0.286  1.00  0.00    -0.275 OA
ATOM      9  C   UNL     1       2.287  -0.026  -0.318  1.00  0.00     0.226 C 
ATOM     10  H   UNL     1       3.928  -1.191   0.018  1.00  0.00     0.163 HD
BRANCH   9  11
ATOM     11  C   UNL     1       3.151   1.044  -0.944  1.00  0.00     0.165 C 
BRANCH  11  12
ATOM     12  C   UNL     1       3.853   2.034   0.013  1.00  0.00     0.201 C 
ATOM     13  C   UNL     1       5.317   1.663   0.319  1.00  0.00     0.135 C 
ATOM     14  N   UNL     1       3.091   2.495   1.187  1.00  0.00    -0.342 N 
ATOM     15  S   UNL     1       5.503   0.368   1.564  1.00  0.00    -0.150 SA
ATOM     16  C   UNL     1       3.106   1.593   2.349  1.00  0.00     0.271 C 
ATOM     17  H   UNL     1       2.120   2.622   0.900  1.00  0.00     0.346 HD
ATOM     18  H   UNL     1       3.545   3.355   1.495  1.00  0.00     0.346 HD
ATOM     19  C   UNL     1       4.483   1.147   2.857  1.00  0.00     0.131 C 
ENDBRANCH  11  12
ENDBRANCH   9  11
ENDBRANCH   6   7
ENDBRANCH   5   6
BRANCH   5  20
ATOM     20  C   UNL     1       1.506  -4.541   1.199  1.00  0.00    -0.032 A 
ATOM     21  C   UNL     1       0.668  -4.187   2.274  1.00  0.00     0.004 A 
ATOM     22  C   UNL     1       1.422  -5.863   0.723  1.00  0.00     0.004 A 
ATOM     23  C   UNL     1      -0.202  -5.117   2.853  1.00  0.00     0.000 A 
ATOM     24  C   UNL     1       0.570  -6.798   1.319  1.00  0.00     0.000 A 
ATOM     25  C   UNL     1      -0.244  -6.424   2.383  1.00  0.00     0.000 A 
ENDBRANCH   5  20
ENDBRANCH   3   5
ENDBRANCH   2   3
ENDBRANCH   1   2
BRANCH   1  26
ATOM     26  C   UNL     1       6.861  -3.261   2.296  1.00  0.00     0.275 C 
BRANCH  26  27
ATOM     27  O   UNL     1       6.264  -4.208   3.196  1.00  0.00    -0.458 OA
BRANCH  27  28
ATOM     28  C   UNL     1       5.397  -3.683   4.091  1.00  0.00     0.338 C 
ATOM     29  O   UNL     1       5.106  -2.510   4.253  1.00  0.00    -0.246 OA
BRANCH  28  30
ATOM     30  C   UNL     1       4.715  -4.775   4.792  1.00  0.00     0.060 A 
ATOM     31  C   UNL     1       3.525  -5.236   4.239  1.00  0.00     0.016 A 
ATOM     32  C   UNL     1       5.147  -5.237   6.035  1.00  0.00     0.016 A 
ATOM     33  C   UNL     1       2.720  -6.114   4.953  1.00  0.00     0.010 A 
ATOM     34  C   UNL     1       4.352  -6.154   6.737  1.00  0.00     0.010 A 
ATOM     35  C   UNL     1       3.111  -6.567   6.217  1.00  0.00    -0.014 A 
BRANCH  35  36
ATOM     36  C   UNL     1       2.146  -7.365   7.016  1.00  0.00     0.031 A 
ATOM     37  C   UNL     1       1.495  -6.748   8.226  1.00  0.00     0.074 A 
ATOM     38  C   UNL     1       1.760  -8.587   6.602  1.00  0.00     0.049 A 
ATOM     39  N   UNL     1       0.652  -7.281   9.074  1.00  0.00    -0.248 NA
ATOM     40  C   UNL     1       1.831  -5.344   8.517  1.00  0.00     0.031 C 
ATOM     41  C   UNL     1       2.236  -9.262   5.393  1.00  0.00     0.029 A 
ATOM     42  N   UNL     1       0.848  -9.464   7.135  1.00  0.00    -0.354 N 
ATOM     43  C   UNL     1       0.393  -6.296  10.020  1.00  0.00     0.074 A 
ATOM     44  C   UNL     1       1.163  -5.131   9.641  1.00  0.00     0.031 C 
ATOM     45  C   UNL     1       1.578 -10.425   5.252  1.00  0.00     0.029 A 
ATOM     46  C   UNL     1       0.680 -10.606   6.389  1.00  0.00     0.049 A 
ATOM     47  H   UNL     1       0.360  -9.291   7.972  1.00  0.00     0.167 HD
ATOM     48  C   UNL     1      -0.408  -6.356  11.111  1.00  0.00     0.031 A 
ATOM     49  C   UNL     1      -0.098 -11.685   6.603  1.00  0.00     0.031 A 
ATOM     50  C   UNL     1      -1.196  -7.501  11.477  1.00  0.00     0.049 A 
ATOM     51  C   UNL     1      -0.949 -11.745   7.842  1.00  0.00     0.074 A 
ATOM     52  C   UNL     1      -2.004  -7.674  12.588  1.00  0.00     0.029 A 
ATOM     53  N   UNL     1      -1.290  -8.664  10.729  1.00  0.00    -0.354 N 
ATOM     54  N   UNL     1      -1.116 -10.836   8.772  1.00  0.00    -0.248 NA
ATOM     55  C   UNL     1      -1.705 -12.986   8.067  1.00  0.00     0.031 C 
ATOM     56  C   UNL     1      -2.568  -8.954  12.523  1.00  0.00     0.029 A 
ATOM     57  C   UNL     1      -2.138  -9.561  11.354  1.00  0.00     0.049 A 
ATOM     58  H   UNL     1      -0.823  -8.827   9.878  1.00  0.00     0.167 HD
ATOM     59  C   UNL     1      -2.001 -11.392   9.688  1.00  0.00     0.074 A 
ATOM     60  C   UNL     1      -2.351 -12.706   9.191  1.00  0.00     0.031 C 
ATOM     61  C   UNL     1      -2.476 -10.864  10.843  1.00  0.00     0.031 A 
BRANCH  48  62
ATOM     62  C   UNL     1      -0.415  -5.158  12.017  1.00  0.00    -0.014 A 
ATOM     63  C   UNL     1      -1.130  -3.993  11.689  1.00  0.00     0.010 A 
ATOM     64  C   UNL     1       0.317  -5.202  13.218  1.00  0.00     0.010 A 
ATOM     65  C   UNL     1      -1.076  -2.875  12.527  1.00  0.00     0.020 A 
ATOM     66  C   UNL     1       0.358  -4.093  14.066  1.00  0.00     0.020 A 
ATOM     67  C   UNL     1      -0.322  -2.928  13.704  1.00  0.00     0.054 A 
BRANCH  67  68
ATOM     68  S   UNL     1      -0.252  -1.464  14.773  1.00  0.00     0.124 S 
ATOM     69  O   UNL     1       0.725  -0.631  14.075  1.00  0.00    -0.237 OA
ATOM     70  O   UNL     1      -1.628  -0.974  14.745  1.00  0.00    -0.237 OA
ATOM     71  O   UNL     1       0.189  -1.998  16.059  1.00  0.00    -0.744 OA
ENDBRANCH  67  68
ENDBRANCH  48  62
BRANCH  49  72
ATOM     72  C   UNL     1      -0.088 -12.815   5.636  1.00  0.00    -0.014 A 
ATOM     73  C   UNL     1      -1.205 -13.067   4.820  1.00  0.00     0.010 A 
ATOM     74  C   UNL     1       1.041 -13.646   5.528  1.00  0.00     0.010 A 
ATOM     75  C   UNL     1      -1.197 -14.139   3.922  1.00  0.00     0.020 A 
ATOM     76  C   UNL     1       1.062 -14.703   4.615  1.00  0.00     0.020 A 
ATOM     77  C   UNL     1      -0.064 -14.951   3.826  1.00  0.00     0.054 A 
BRANCH  77  78
ATOM     78  S   UNL     1      -0.044 -16.306   2.619  1.00  0.00     0.124 S 
ATOM     79  O   UNL     1      -0.764 -17.356   3.332  1.00  0.00    -0.237 OA
ATOM     80  O   UNL     1      -0.740 -15.726   1.473  1.00  0.00    -0.237 OA
ATOM     81  O   UNL     1       1.382 -16.551   2.412  1.00  0.00    -0.744 OA
ENDBRANCH  77  78
ENDBRANCH  49  72
BRANCH  61  82
ATOM     82  C   UNL     1      -3.442 -11.700  11.634  1.00  0.00    -0.014 A 
ATOM     83  C   UNL     1      -2.992 -12.781  12.412  1.00  0.00     0.010 A 
ATOM     84  C   UNL     1      -4.810 -11.376  11.630  1.00  0.00     0.010 A 
ATOM     85  C   UNL     1      -3.900 -13.544  13.151  1.00  0.00     0.020 A 
ATOM     86  C   UNL     1      -5.718 -12.125  12.382  1.00  0.00     0.020 A 
ATOM     87  C   UNL     1      -5.259 -13.214  13.127  1.00  0.00     0.054 A 
BRANCH  87  88
ATOM     88  S   UNL     1      -6.420 -14.191  14.121  1.00  0.00     0.124 S 
ATOM     89  O   UNL     1      -6.633 -15.361  13.274  1.00  0.00    -0.237 OA
ATOM     90  O   UNL     1      -5.671 -14.434  15.352  1.00  0.00    -0.237 OA
ATOM     91  O   UNL     1      -7.574 -13.307  14.268  1.00  0.00    -0.744 OA
ENDBRANCH  87  88
ENDBRANCH  61  82
ENDBRANCH  35  36
ENDBRANCH  28  30
ENDBRANCH  27  28
ENDBRANCH  26  27
ENDBRANCH   1  26
TORSDOF 19
