REMARK SMILES COc1cc2nc(SCC(=O)OCCOC(=O)c3ccc(-c4c5nc(c(-c6ccc(S(=O)(=O)[O-])cc6)c6ccc([nH]6)c(-c6ccc(S(=O)(=O)[O-])cc6)c6nc(c(-c7ccc(S(=O)(=O)[O-])cc7)c7ccc4[nH]7)C=C6)C=C5)cc3)nc(O)c2cc1OC
REMARK SMILES IDX 13 1 12 2 10 3 11 4 9 5 8 6 7 7 3 8 4 9 83 10 5 11 82 12
REMARK SMILES IDX 6 13 81 14 79 15 78 16 2 17 1 18 84 19 85 20 80 21 14 23
REMARK SMILES IDX 15 24 16 25 17 26 18 27 19 28 77 29 20 30 76 31 21 32 22 33
REMARK SMILES IDX 23 34 70 35 24 36 75 37 69 38 71 39 25 40 74 41 68 42 67 43
REMARK SMILES IDX 26 45 56 46 37 47 55 48 38 49 41 50 54 51 72 52 39 53 40 54
REMARK SMILES IDX 53 56 73 57 42 58 27 59 28 60 36 61 29 62 35 63 30 64 31 65
REMARK SMILES IDX 32 66 33 67 34 68 57 69 58 70 66 71 59 72 65 73 60 74 61 75
REMARK SMILES IDX 62 76 63 77 64 78 43 79 44 80 52 81 45 82 51 83 46 84 47 85
REMARK SMILES IDX 48 86 49 87 50 88
REMARK H PARENT 80 22 71 44 41 55
REMARK Flexibility Score: inf
ROOT
ATOM      1  C   UNL     1      -1.462   9.544  -1.720  1.00  0.00     0.274 C 
ENDROOT
BRANCH   1   2
ATOM      2  O   UNL     1      -1.818   8.439  -2.579  1.00  0.00    -0.461 OA
BRANCH   2   3
ATOM      3  C   UNL     1      -1.759   8.684  -3.913  1.00  0.00     0.316 C 
ATOM      4  O   UNL     1      -1.412   9.761  -4.395  1.00  0.00    -0.251 OA
BRANCH   3   5
ATOM      5  C   UNL     1      -2.188   7.546  -4.810  1.00  0.00     0.200 C 
BRANCH   5   6
ATOM      6  S   UNL     1      -2.736   6.032  -3.995  1.00  0.00    -0.074 SA
BRANCH   6   7
ATOM      7  C   UNL     1      -1.213   5.139  -3.780  1.00  0.00     0.192 A 
ATOM      8  C   UNL     1       0.807   1.389  -1.714  1.00  0.00     0.162 A 
ATOM      9  C   UNL     1      -0.328   2.117  -2.092  1.00  0.00     0.079 A 
ATOM     10  C   UNL     1       2.087   1.846  -2.050  1.00  0.00     0.161 A 
ATOM     11  C   UNL     1      -0.232   3.303  -2.800  1.00  0.00     0.083 A 
ATOM     12  C   UNL     1       2.190   2.991  -2.841  1.00  0.00     0.066 A 
ATOM     13  N   UNL     1      -1.339   4.006  -3.068  1.00  0.00    -0.222 NA
ATOM     14  C   UNL     1       1.028   3.709  -3.221  1.00  0.00     0.066 A 
ATOM     15  C   UNL     1       1.004   4.835  -4.034  1.00  0.00     0.223 A 
ATOM     16  N   UNL     1      -0.076   5.575  -4.339  1.00  0.00    -0.187 NA
BRANCH   8  17
ATOM     17  O   UNL     1       0.546   0.201  -1.080  1.00  0.00    -0.493 OA
ATOM     18  C   UNL     1       1.152   0.105   0.205  1.00  0.00     0.278 C 
ENDBRANCH   8  17
BRANCH  10  19
ATOM     19  O   UNL     1       3.164   1.114  -1.632  1.00  0.00    -0.493 OA
ATOM     20  C   UNL     1       4.394   1.824  -1.503  1.00  0.00     0.278 C 
ENDBRANCH  10  19
BRANCH  15  21
ATOM     21  O   UNL     1       2.154   5.234  -4.653  1.00  0.00    -0.493 OA
ATOM     22  H   UNL     1       2.151   5.992  -5.204  1.00  0.00     0.295 HD
ENDBRANCH  15  21
ENDBRANCH   6   7
ENDBRANCH   5   6
ENDBRANCH   3   5
ENDBRANCH   2   3
ENDBRANCH   1   2
BRANCH   1  23
ATOM     23  C   UNL     1      -0.018   9.434  -1.242  1.00  0.00     0.275 C 
BRANCH  23  24
ATOM     24  O   UNL     1       0.875   9.454  -2.367  1.00  0.00    -0.458 OA
BRANCH  24  25
ATOM     25  C   UNL     1       1.525   8.296  -2.609  1.00  0.00     0.338 C 
ATOM     26  O   UNL     1       1.493   7.271  -1.944  1.00  0.00    -0.246 OA
BRANCH  25  27
ATOM     27  C   UNL     1       2.341   8.444  -3.821  1.00  0.00     0.060 A 
ATOM     28  C   UNL     1       3.729   8.421  -3.703  1.00  0.00     0.016 A 
ATOM     29  C   UNL     1       1.735   8.484  -5.081  1.00  0.00     0.016 A 
ATOM     30  C   UNL     1       4.515   8.461  -4.855  1.00  0.00     0.010 A 
ATOM     31  C   UNL     1       2.522   8.460  -6.233  1.00  0.00     0.010 A 
ATOM     32  C   UNL     1       3.918   8.468  -6.128  1.00  0.00    -0.014 A 
BRANCH  32  33
ATOM     33  C   UNL     1       4.768   8.504  -7.343  1.00  0.00     0.031 A 
ATOM     34  C   UNL     1       4.859   9.762  -8.158  1.00  0.00     0.074 A 
ATOM     35  C   UNL     1       5.480   7.416  -7.694  1.00  0.00     0.049 A 
ATOM     36  N   UNL     1       5.674  10.040  -9.141  1.00  0.00    -0.248 NA
ATOM     37  C   UNL     1       3.918  10.846  -7.830  1.00  0.00     0.031 C 
ATOM     38  C   UNL     1       5.440   6.124  -7.006  1.00  0.00     0.029 A 
ATOM     39  N   UNL     1       6.393   7.231  -8.702  1.00  0.00    -0.354 N 
ATOM     40  C   UNL     1       5.372  11.341  -9.523  1.00  0.00     0.074 A 
ATOM     41  C   UNL     1       4.249  11.770  -8.720  1.00  0.00     0.031 C 
ATOM     42  C   UNL     1       6.321   5.293  -7.588  1.00  0.00     0.029 A 
ATOM     43  C   UNL     1       6.982   5.988  -8.691  1.00  0.00     0.049 A 
ATOM     44  H   UNL     1       6.606   7.922  -9.370  1.00  0.00     0.167 HD
ATOM     45  C   UNL     1       6.001  12.121 -10.431  1.00  0.00     0.031 A 
ATOM     46  C   UNL     1       7.965   5.475  -9.459  1.00  0.00     0.031 A 
ATOM     47  C   UNL     1       7.106  11.684 -11.239  1.00  0.00     0.049 A 
ATOM     48  C   UNL     1       8.620   6.344 -10.498  1.00  0.00     0.074 A 
ATOM     49  C   UNL     1       7.832  12.415 -12.162  1.00  0.00     0.029 A 
ATOM     50  N   UNL     1       7.639  10.405 -11.228  1.00  0.00    -0.354 N 
ATOM     51  N   UNL     1       8.385   7.604 -10.780  1.00  0.00    -0.248 NA
ATOM     52  C   UNL     1       9.685   5.734 -11.308  1.00  0.00     0.031 C 
ATOM     53  C   UNL     1       8.770  11.562 -12.750  1.00  0.00     0.029 A 
ATOM     54  C   UNL     1       8.667  10.316 -12.150  1.00  0.00     0.049 A 
ATOM     55  H   UNL     1       7.332   9.669 -10.651  1.00  0.00     0.167 HD
ATOM     56  C   UNL     1       9.288   7.944 -11.781  1.00  0.00     0.074 A 
ATOM     57  C   UNL     1      10.079   6.761 -12.052  1.00  0.00     0.031 C 
ATOM     58  C   UNL     1       9.448   9.133 -12.412  1.00  0.00     0.031 A 
BRANCH  45  59
ATOM     59  C   UNL     1       5.536  13.544 -10.575  1.00  0.00    -0.014 A 
ATOM     60  C   UNL     1       4.900  13.968 -11.754  1.00  0.00     0.010 A 
ATOM     61  C   UNL     1       5.816  14.486  -9.567  1.00  0.00     0.010 A 
ATOM     62  C   UNL     1       4.566  15.314 -11.931  1.00  0.00     0.020 A 
ATOM     63  C   UNL     1       5.463  15.827  -9.731  1.00  0.00     0.020 A 
ATOM     64  C   UNL     1       4.857  16.236 -10.922  1.00  0.00     0.054 A 
BRANCH  64  65
ATOM     65  S   UNL     1       4.422  17.979 -11.168  1.00  0.00     0.124 S 
ATOM     66  O   UNL     1       5.489  18.441 -12.051  1.00  0.00    -0.237 OA
ATOM     67  O   UNL     1       3.094  17.897 -11.770  1.00  0.00    -0.237 OA
ATOM     68  O   UNL     1       4.447  18.530  -9.814  1.00  0.00    -0.744 OA
ENDBRANCH  64  65
ENDBRANCH  45  59
BRANCH  46  69
ATOM     69  C   UNL     1       8.433   4.086  -9.206  1.00  0.00    -0.014 A 
ATOM     70  C   UNL     1       7.620   2.986  -9.536  1.00  0.00     0.010 A 
ATOM     71  C   UNL     1       9.664   3.860  -8.565  1.00  0.00     0.010 A 
ATOM     72  C   UNL     1       8.009   1.689  -9.190  1.00  0.00     0.020 A 
ATOM     73  C   UNL     1      10.066   2.561  -8.236  1.00  0.00     0.020 A 
ATOM     74  C   UNL     1       9.222   1.486  -8.527  1.00  0.00     0.054 A 
BRANCH  74  75
ATOM     75  S   UNL     1       9.685  -0.199  -8.041  1.00  0.00     0.124 S 
ATOM     76  O   UNL     1       8.860  -0.404  -6.854  1.00  0.00    -0.237 OA
ATOM     77  O   UNL     1       9.310  -0.986  -9.213  1.00  0.00    -0.237 OA
ATOM     78  O   UNL     1      11.122  -0.101  -7.795  1.00  0.00    -0.744 OA
ENDBRANCH  74  75
ENDBRANCH  46  69
BRANCH  58  79
ATOM     79  C   UNL     1      10.514   9.246 -13.469  1.00  0.00    -0.014 A 
ATOM     80  C   UNL     1      11.646  10.049 -13.231  1.00  0.00     0.010 A 
ATOM     81  C   UNL     1      10.318   8.695 -14.746  1.00  0.00     0.010 A 
ATOM     82  C   UNL     1      12.540  10.336 -14.264  1.00  0.00     0.020 A 
ATOM     83  C   UNL     1      11.225   8.960 -15.777  1.00  0.00     0.020 A 
ATOM     84  C   UNL     1      12.314   9.803 -15.536  1.00  0.00     0.054 A 
BRANCH  84  85
ATOM     85  S   UNL     1      13.453  10.230 -16.882  1.00  0.00     0.124 S 
ATOM     86  O   UNL     1      13.001  11.568 -17.252  1.00  0.00    -0.237 OA
ATOM     87  O   UNL     1      14.761  10.164 -16.233  1.00  0.00    -0.237 OA
ATOM     88  O   UNL     1      13.208   9.190 -17.879  1.00  0.00    -0.744 OA
ENDBRANCH  84  85
ENDBRANCH  58  79
ENDBRANCH  32  33
ENDBRANCH  25  27
ENDBRANCH  24  25
ENDBRANCH  23  24
ENDBRANCH   1  23
TORSDOF 19
