REMARK SMILES Cc1cccc(C(=O)[C@H](C)[C@@H](C)C(=O)OCCOC(=O)c2ccc(-c3c4nc(c(-c5ccc(S(=O)(=O)[O-])cc5)c5ccc([nH]5)c(-c5ccc(S(=O)(=O)[O-])cc5)c5nc(c(-c6ccc(S(=O)(=O)[O-])cc6)c6ccc3[nH]6)C=C5)C=C4)cc2)c1C
REMARK SMILES IDX 16 1 15 2 13 3 14 4 11 5 12 6 9 7 10 8 7 9 8 10 6 11 1 12
REMARK SMILES IDX 2 13 3 14 81 15 4 16 82 17 5 18 17 19 18 20 19 21 20 22
REMARK SMILES IDX 21 23 22 24 80 25 23 26 79 27 24 28 25 29 26 30 73 31 27 32
REMARK SMILES IDX 78 33 72 34 74 35 28 36 77 37 71 38 70 39 29 41 59 42 40 43
REMARK SMILES IDX 58 44 41 45 44 46 57 47 75 48 42 49 43 50 56 52 76 53 45 54
REMARK SMILES IDX 30 55 31 56 39 57 32 58 38 59 33 60 34 61 35 62 36 63 37 64
REMARK SMILES IDX 60 65 61 66 69 67 62 68 68 69 63 70 64 71 65 72 66 73 67 74
REMARK SMILES IDX 46 75 47 76 55 77 48 78 54 79 49 80 50 81 51 82 52 83 53 84
REMARK H PARENT 74 40 44 51
REMARK Flexibility Score: inf
ROOT
ATOM      1  C   UNL     1      -5.057  -6.032  -1.476  1.00  0.00     0.274 C 
ENDROOT
BRANCH   1   2
ATOM      2  O   UNL     1      -3.836  -5.373  -1.082  1.00  0.00    -0.462 OA
BRANCH   2   3
ATOM      3  C   UNL     1      -3.541  -4.250  -1.788  1.00  0.00     0.309 C 
ATOM      4  O   UNL     1      -4.233  -3.807  -2.700  1.00  0.00    -0.252 OA
BRANCH   3   5
ATOM      5  C   UNL     1      -2.206  -3.620  -1.414  1.00  0.00     0.106 C 
ATOM      6  C   UNL     1      -1.291  -3.807  -2.627  1.00  0.00     0.021 C 
BRANCH   5   7
ATOM      7  C   UNL     1      -1.575  -4.135  -0.094  1.00  0.00     0.072 C 
ATOM      8  C   UNL     1      -0.157  -3.584   0.116  1.00  0.00     0.017 C 
BRANCH   7   9
ATOM      9  C   UNL     1      -2.413  -3.655   1.102  1.00  0.00     0.166 C 
ATOM     10  O   UNL     1      -2.631  -2.447   1.200  1.00  0.00    -0.294 OA
BRANCH   9  11
ATOM     11  C   UNL     1      -2.971  -4.624   2.132  1.00  0.00     0.021 A 
ATOM     12  C   UNL     1      -5.238  -4.683   5.251  1.00  0.00     0.044 C 
ATOM     13  C   UNL     1      -4.349  -5.107   4.109  1.00  0.00    -0.047 A 
ATOM     14  C   UNL     1      -4.231  -6.478   3.846  1.00  0.00     0.004 A 
ATOM     15  C   UNL     1      -3.677  -4.165   3.282  1.00  0.00    -0.037 A 
ATOM     16  C   UNL     1      -3.477  -6.926   2.773  1.00  0.00     0.001 A 
ATOM     17  C   UNL     1      -3.765  -2.692   3.618  1.00  0.00     0.045 C 
ATOM     18  C   UNL     1      -2.862  -6.010   1.921  1.00  0.00     0.012 A 
ENDBRANCH   9  11
ENDBRANCH   7   9
ENDBRANCH   5   7
ENDBRANCH   3   5
ENDBRANCH   2   3
ENDBRANCH   1   2
BRANCH   1  19
ATOM     19  C   UNL     1      -6.258  -5.545  -0.669  1.00  0.00     0.275 C 
BRANCH  19  20
ATOM     20  O   UNL     1      -6.363  -4.115  -0.749  1.00  0.00    -0.458 OA
BRANCH  20  21
ATOM     21  C   UNL     1      -6.340  -3.472   0.440  1.00  0.00     0.338 C 
ATOM     22  O   UNL     1      -6.337  -3.981   1.547  1.00  0.00    -0.246 OA
BRANCH  21  23
ATOM     23  C   UNL     1      -6.420  -2.018   0.241  1.00  0.00     0.060 A 
ATOM     24  C   UNL     1      -5.413  -1.311  -0.420  1.00  0.00     0.016 A 
ATOM     25  C   UNL     1      -7.485  -1.343   0.838  1.00  0.00     0.016 A 
ATOM     26  C   UNL     1      -5.455   0.083  -0.455  1.00  0.00     0.010 A 
ATOM     27  C   UNL     1      -7.549   0.046   0.766  1.00  0.00     0.010 A 
ATOM     28  C   UNL     1      -6.525   0.770   0.135  1.00  0.00    -0.014 A 
BRANCH  28  29
ATOM     29  C   UNL     1      -6.607   2.248   0.087  1.00  0.00     0.031 A 
ATOM     30  C   UNL     1      -6.421   3.059   1.337  1.00  0.00     0.074 A 
ATOM     31  C   UNL     1      -6.910   2.848  -1.078  1.00  0.00     0.049 A 
ATOM     32  N   UNL     1      -6.619   4.338   1.526  1.00  0.00    -0.248 NA
ATOM     33  C   UNL     1      -5.960   2.336   2.533  1.00  0.00     0.031 C 
ATOM     34  C   UNL     1      -7.089   2.162  -2.360  1.00  0.00     0.029 A 
ATOM     35  N   UNL     1      -7.139   4.168  -1.370  1.00  0.00    -0.354 N 
ATOM     36  C   UNL     1      -6.334   4.572   2.865  1.00  0.00     0.074 A 
ATOM     37  C   UNL     1      -5.954   3.301   3.445  1.00  0.00     0.031 C 
ATOM     38  C   UNL     1      -7.401   3.066  -3.300  1.00  0.00     0.029 A 
ATOM     39  C   UNL     1      -7.497   4.383  -2.679  1.00  0.00     0.049 A 
ATOM     40  H   UNL     1      -7.056   4.890  -0.706  1.00  0.00     0.167 HD
ATOM     41  C   UNL     1      -6.392   5.742   3.548  1.00  0.00     0.031 A 
ATOM     42  C   UNL     1      -7.893   5.508  -3.302  1.00  0.00     0.031 A 
ATOM     43  C   UNL     1      -6.773   7.000   2.960  1.00  0.00     0.049 A 
ATOM     44  C   UNL     1      -7.985   6.784  -2.518  1.00  0.00     0.074 A 
ATOM     45  C   UNL     1      -6.859   8.243   3.563  1.00  0.00     0.029 A 
ATOM     46  N   UNL     1      -7.128   7.176   1.631  1.00  0.00    -0.354 N 
ATOM     47  N   UNL     1      -7.730   6.986  -1.247  1.00  0.00    -0.248 NA
ATOM     48  C   UNL     1      -8.423   7.980  -3.248  1.00  0.00     0.031 C 
ATOM     49  C   UNL     1      -7.300   9.165   2.605  1.00  0.00     0.029 A 
ATOM     50  C   UNL     1      -7.449   8.503   1.397  1.00  0.00     0.049 A 
ATOM     51  H   UNL     1      -7.150   6.462   0.953  1.00  0.00     0.167 HD
ATOM     52  C   UNL     1      -7.965   8.337  -1.026  1.00  0.00     0.074 A 
ATOM     53  C   UNL     1      -8.370   8.905  -2.298  1.00  0.00     0.031 C 
ATOM     54  C   UNL     1      -7.856   9.044   0.125  1.00  0.00     0.031 A 
BRANCH  41  55
ATOM     55  C   UNL     1      -6.073   5.705   5.018  1.00  0.00    -0.014 A 
ATOM     56  C   UNL     1      -4.748   5.586   5.474  1.00  0.00     0.010 A 
ATOM     57  C   UNL     1      -7.112   5.827   5.958  1.00  0.00     0.010 A 
ATOM     58  C   UNL     1      -4.472   5.552   6.845  1.00  0.00     0.020 A 
ATOM     59  C   UNL     1      -6.839   5.812   7.329  1.00  0.00     0.020 A 
ATOM     60  C   UNL     1      -5.521   5.657   7.764  1.00  0.00     0.054 A 
BRANCH  60  61
ATOM     61  S   UNL     1      -5.141   5.622   9.538  1.00  0.00     0.124 S 
ATOM     62  O   UNL     1      -4.924   4.197   9.772  1.00  0.00    -0.237 OA
ATOM     63  O   UNL     1      -3.949   6.461   9.633  1.00  0.00    -0.237 OA
ATOM     64  O   UNL     1      -6.340   6.179  10.160  1.00  0.00    -0.744 OA
ENDBRANCH  60  61
ENDBRANCH  41  55
BRANCH  42  65
ATOM     65  C   UNL     1      -8.255   5.455  -4.742  1.00  0.00    -0.014 A 
ATOM     66  C   UNL     1      -7.388   5.979  -5.714  1.00  0.00     0.010 A 
ATOM     67  C   UNL     1      -9.446   4.825  -5.150  1.00  0.00     0.010 A 
ATOM     68  C   UNL     1      -7.703   5.874  -7.072  1.00  0.00     0.020 A 
ATOM     69  C   UNL     1      -9.754   4.699  -6.507  1.00  0.00     0.020 A 
ATOM     70  C   UNL     1      -8.883   5.231  -7.460  1.00  0.00     0.054 A 
BRANCH  70  71
ATOM     71  S   UNL     1      -9.236   5.028  -9.228  1.00  0.00     0.124 S 
ATOM     72  O   UNL     1      -9.767   6.340  -9.583  1.00  0.00    -0.237 OA
ATOM     73  O   UNL     1      -7.924   4.706  -9.783  1.00  0.00    -0.237 OA
ATOM     74  O   UNL     1     -10.201   3.931  -9.258  1.00  0.00    -0.744 OA
ENDBRANCH  70  71
ENDBRANCH  42  65
BRANCH  54  75
ATOM     75  C   UNL     1      -8.157  10.514   0.053  1.00  0.00    -0.014 A 
ATOM     76  C   UNL     1      -9.483  10.977   0.003  1.00  0.00     0.010 A 
ATOM     77  C   UNL     1      -7.101  11.442   0.073  1.00  0.00     0.010 A 
ATOM     78  C   UNL     1      -9.748  12.348  -0.051  1.00  0.00     0.020 A 
ATOM     79  C   UNL     1      -7.363  12.813   0.037  1.00  0.00     0.020 A 
ATOM     80  C   UNL     1      -8.685  13.258  -0.039  1.00  0.00     0.054 A 
BRANCH  80  81
ATOM     81  S   UNL     1      -9.049  15.034  -0.071  1.00  0.00     0.124 S 
ATOM     82  O   UNL     1      -9.335  15.259  -1.485  1.00  0.00    -0.237 OA
ATOM     83  O   UNL     1     -10.195  15.148   0.828  1.00  0.00    -0.237 OA
ATOM     84  O   UNL     1      -7.817  15.647   0.421  1.00  0.00    -0.744 OA
ENDBRANCH  80  81
ENDBRANCH  54  75
ENDBRANCH  28  29
ENDBRANCH  21  23
ENDBRANCH  20  21
ENDBRANCH  19  20
ENDBRANCH   1  19
TORSDOF 17
