REMARK SMILES CC(C)NC(=O)c1cccc(NC(=O)[C@@H]2[C@H](C(=O)OCCOC(=O)c3ccc(-c4c5nc(c(-c6ccc(S(=O)(=O)[O-])cc6)c6ccc([nH]6)c(-c6ccc(S(=O)(=O)[O-])cc6)c6nc(c(-c7ccc(S(=O)(=O)[O-])cc7)c7ccc4[nH]7)C=C6)C=C5)cc3)C2(C)C)c1
REMARK SMILES IDX 20 1 19 2 17 3 18 4 16 5 15 6 85 7 86 8 87 9 13 10 12 11
REMARK SMILES IDX 14 13 11 14 7 15 8 16 88 17 9 18 10 19 5 20 4 21 6 23 2 24
REMARK SMILES IDX 1 25 3 26 21 27 22 28 23 29 24 30 25 31 26 32 84 33 27 34
REMARK SMILES IDX 83 35 28 36 29 37 30 38 77 39 31 40 82 41 76 42 78 43 32 44
REMARK SMILES IDX 81 45 75 46 74 47 33 49 63 50 44 51 62 52 45 53 48 54 61 55
REMARK SMILES IDX 79 56 46 57 47 58 60 60 80 61 49 62 34 63 35 64 43 65 36 66
REMARK SMILES IDX 42 67 37 68 38 69 39 70 40 71 41 72 64 73 65 74 73 75 66 76
REMARK SMILES IDX 72 77 67 78 68 79 69 80 70 81 71 82 50 83 51 84 59 85 52 86
REMARK SMILES IDX 58 87 53 88 54 89 55 90 56 91 57 92
REMARK H PARENT 12 12 4 22 78 48 48 59
REMARK Flexibility Score: inf
ROOT
ATOM      1  C   UNL     1      -2.471   5.016  -6.606  1.00  0.00     0.274 C 
ENDROOT
BRANCH   1   2
ATOM      2  O   UNL     1      -1.451   4.395  -5.798  1.00  0.00    -0.462 OA
BRANCH   2   3
ATOM      3  C   UNL     1      -0.180   4.503  -6.274  1.00  0.00     0.310 C 
ATOM      4  O   UNL     1       0.118   5.097  -7.303  1.00  0.00    -0.252 OA
BRANCH   3   5
ATOM      5  C   UNL     1       0.755   3.664  -5.490  1.00  0.00     0.118 C 
ATOM      6  C   UNL     1       2.197   3.439  -5.875  1.00  0.00     0.100 C 
ATOM      7  C   UNL     1       1.854   4.097  -4.526  1.00  0.00    -0.009 C 
ATOM      8  C   UNL     1       2.049   3.300  -3.260  1.00  0.00     0.013 C 
ATOM      9  C   UNL     1       2.145   5.554  -4.308  1.00  0.00     0.013 C 
BRANCH   6  10
ATOM     10  C   UNL     1       3.051   4.196  -6.838  1.00  0.00     0.228 C 
ATOM     11  N   UNL     1       4.323   3.749  -7.117  1.00  0.00    -0.326 N 
ATOM     12  H   UNL     1       4.725   4.167  -7.912  1.00  0.00     0.169 HD
ATOM     13  O   UNL     1       2.670   5.220  -7.395  1.00  0.00    -0.274 OA
BRANCH  11  14
ATOM     14  C   UNL     1       5.160   2.812  -6.485  1.00  0.00     0.041 A 
ATOM     15  C   UNL     1       7.279   1.640  -6.479  1.00  0.00     0.041 A 
ATOM     16  C   UNL     1       6.964   1.023  -5.267  1.00  0.00     0.014 A 
ATOM     17  C   UNL     1       6.364   2.491  -7.114  1.00  0.00     0.040 A 
ATOM     18  C   UNL     1       5.771   1.333  -4.640  1.00  0.00     0.003 A 
ATOM     19  C   UNL     1       4.902   2.247  -5.236  1.00  0.00     0.026 A 
BRANCH  15  20
ATOM     20  C   UNL     1       8.615   1.374  -7.039  1.00  0.00     0.251 C 
ATOM     21  N   UNL     1       9.451   2.417  -7.340  1.00  0.00    -0.350 N 
ATOM     22  H   UNL     1      10.319   2.155  -7.723  1.00  0.00     0.164 HD
ATOM     23  O   UNL     1       8.992   0.213  -7.171  1.00  0.00    -0.269 OA
BRANCH  21  24
ATOM     24  C   UNL     1       9.260   3.860  -7.182  1.00  0.00     0.076 C 
ATOM     25  C   UNL     1      10.315   4.438  -6.246  1.00  0.00     0.030 C 
ATOM     26  C   UNL     1       9.309   4.521  -8.554  1.00  0.00     0.030 C 
ENDBRANCH  21  24
ENDBRANCH  15  20
ENDBRANCH  11  14
ENDBRANCH   6  10
ENDBRANCH   3   5
ENDBRANCH   2   3
ENDBRANCH   1   2
BRANCH   1  27
ATOM     27  C   UNL     1      -2.932   6.326  -5.977  1.00  0.00     0.275 C 
BRANCH  27  28
ATOM     28  O   UNL     1      -1.882   7.308  -6.038  1.00  0.00    -0.458 OA
BRANCH  28  29
ATOM     29  C   UNL     1      -1.283   7.583  -4.856  1.00  0.00     0.338 C 
ATOM     30  O   UNL     1      -1.582   7.134  -3.760  1.00  0.00    -0.246 OA
BRANCH  29  31
ATOM     31  C   UNL     1      -0.130   8.484  -5.041  1.00  0.00     0.060 A 
ATOM     32  C   UNL     1       0.907   8.085  -5.872  1.00  0.00     0.016 A 
ATOM     33  C   UNL     1       0.051   9.566  -4.179  1.00  0.00     0.016 A 
ATOM     34  C   UNL     1       2.173   8.632  -5.682  1.00  0.00     0.010 A 
ATOM     35  C   UNL     1       1.278  10.247  -4.157  1.00  0.00     0.010 A 
ATOM     36  C   UNL     1       2.381   9.765  -4.880  1.00  0.00    -0.014 A 
BRANCH  36  37
ATOM     37  C   UNL     1       3.723  10.438  -4.843  1.00  0.00     0.031 A 
ATOM     38  C   UNL     1       4.354  10.889  -3.541  1.00  0.00     0.074 A 
ATOM     39  C   UNL     1       4.394  10.662  -5.997  1.00  0.00     0.049 A 
ATOM     40  N   UNL     1       5.356  11.714  -3.352  1.00  0.00    -0.248 NA
ATOM     41  C   UNL     1       3.785  10.360  -2.290  1.00  0.00     0.031 C 
ATOM     42  C   UNL     1       3.957  10.246  -7.335  1.00  0.00     0.029 A 
ATOM     43  N   UNL     1       5.593  11.292  -6.240  1.00  0.00    -0.354 N 
ATOM     44  C   UNL     1       5.489  11.860  -1.972  1.00  0.00     0.074 A 
ATOM     45  C   UNL     1       4.469  11.028  -1.369  1.00  0.00     0.031 C 
ATOM     46  C   UNL     1       4.900  10.548  -8.232  1.00  0.00     0.029 A 
ATOM     47  C   UNL     1       5.914  11.353  -7.577  1.00  0.00     0.049 A 
ATOM     48  H   UNL     1       6.164  11.662  -5.528  1.00  0.00     0.167 HD
ATOM     49  C   UNL     1       6.370  12.626  -1.280  1.00  0.00     0.031 A 
ATOM     50  C   UNL     1       6.846  12.057  -8.247  1.00  0.00     0.031 A 
ATOM     51  C   UNL     1       7.405  13.420  -1.900  1.00  0.00     0.049 A 
ATOM     52  C   UNL     1       7.740  12.974  -7.477  1.00  0.00     0.074 A 
ATOM     53  C   UNL     1       8.353  14.228  -1.293  1.00  0.00     0.029 A 
ATOM     54  N   UNL     1       7.636  13.500  -3.267  1.00  0.00    -0.354 N 
ATOM     55  N   UNL     1       7.800  13.161  -6.182  1.00  0.00    -0.248 NA
ATOM     56  C   UNL     1       8.671  13.796  -8.259  1.00  0.00     0.031 C 
ATOM     57  C   UNL     1       9.112  14.844  -2.294  1.00  0.00     0.029 A 
ATOM     58  C   UNL     1       8.686  14.367  -3.522  1.00  0.00     0.049 A 
ATOM     59  H   UNL     1       7.128  13.011  -3.954  1.00  0.00     0.167 HD
ATOM     60  C   UNL     1       8.778  14.126  -5.989  1.00  0.00     0.074 A 
ATOM     61  C   UNL     1       9.305  14.456  -7.300  1.00  0.00     0.031 C 
ATOM     62  C   UNL     1       9.193  14.694  -4.832  1.00  0.00     0.031 A 
BRANCH  49  63
ATOM     63  C   UNL     1       6.231  12.704   0.225  1.00  0.00    -0.014 A 
ATOM     64  C   UNL     1       6.549  11.620   1.062  1.00  0.00     0.010 A 
ATOM     65  C   UNL     1       5.835  13.920   0.817  1.00  0.00     0.010 A 
ATOM     66  C   UNL     1       6.436  11.739   2.454  1.00  0.00     0.020 A 
ATOM     67  C   UNL     1       5.750  14.054   2.207  1.00  0.00     0.020 A 
ATOM     68  C   UNL     1       6.034  12.955   3.017  1.00  0.00     0.054 A 
BRANCH  68  69
ATOM     69  S   UNL     1       5.911  13.083   4.824  1.00  0.00     0.124 S 
ATOM     70  O   UNL     1       4.745  12.250   5.107  1.00  0.00    -0.237 OA
ATOM     71  O   UNL     1       7.192  12.543   5.272  1.00  0.00    -0.237 OA
ATOM     72  O   UNL     1       5.725  14.513   5.061  1.00  0.00    -0.744 OA
ENDBRANCH  68  69
ENDBRANCH  49  63
BRANCH  50  73
ATOM     73  C   UNL     1       6.875  12.001  -9.736  1.00  0.00    -0.014 A 
ATOM     74  C   UNL     1       7.954  11.412 -10.413  1.00  0.00     0.010 A 
ATOM     75  C   UNL     1       5.780  12.484 -10.484  1.00  0.00     0.010 A 
ATOM     76  C   UNL     1       7.934  11.299 -11.807  1.00  0.00     0.020 A 
ATOM     77  C   UNL     1       5.738  12.334 -11.871  1.00  0.00     0.020 A 
ATOM     78  C   UNL     1       6.822  11.750 -12.525  1.00  0.00     0.054 A 
BRANCH  78  79
ATOM     79  S   UNL     1       6.787  11.518 -14.323  1.00  0.00     0.124 S 
ATOM     80  O   UNL     1       7.759  12.509 -14.774  1.00  0.00    -0.237 OA
ATOM     81  O   UNL     1       7.192  10.122 -14.468  1.00  0.00    -0.237 OA
ATOM     82  O   UNL     1       5.397  11.796 -14.679  1.00  0.00    -0.744 OA
ENDBRANCH  78  79
ENDBRANCH  50  73
BRANCH  62  83
ATOM     83  C   UNL     1      10.292  15.715  -4.934  1.00  0.00    -0.014 A 
ATOM     84  C   UNL     1      10.048  16.991  -5.472  1.00  0.00     0.010 A 
ATOM     85  C   UNL     1      11.578  15.402  -4.459  1.00  0.00     0.010 A 
ATOM     86  C   UNL     1      11.079  17.928  -5.556  1.00  0.00     0.020 A 
ATOM     87  C   UNL     1      12.604  16.347  -4.513  1.00  0.00     0.020 A 
ATOM     88  C   UNL     1      12.350  17.601  -5.072  1.00  0.00     0.054 A 
BRANCH  88  89
ATOM     89  S   UNL     1      13.657  18.855  -5.147  1.00  0.00     0.124 S 
ATOM     90  O   UNL     1      13.938  18.917  -6.579  1.00  0.00    -0.237 OA
ATOM     91  O   UNL     1      13.001  20.032  -4.583  1.00  0.00    -0.237 OA
ATOM     92  O   UNL     1      14.726  18.291  -4.326  1.00  0.00    -0.744 OA
ENDBRANCH  88  89
ENDBRANCH  62  83
ENDBRANCH  36  37
ENDBRANCH  29  31
ENDBRANCH  28  29
ENDBRANCH  27  28
ENDBRANCH   1  27
TORSDOF 18
