REMARK SMILES NS(=O)(=O)c1ccc(-n2nc(C(F)(F)F)cc2-c2ccc(C(=O)OCCOC(=O)c3ccc(-c4c5nc(c(-c6ccc(S(=O)(=O)[O-])cc6)c6ccc([nH]6)c(-c6ccc(S(=O)(=O)[O-])cc6)c6nc(c(-c7ccc(S(=O)(=O)[O-])cc7)c7ccc4[nH]7)C=C6)C=C5)cc3)cc2)cc1
REMARK SMILES IDX 25 1 24 2 22 3 23 4 21 5 18 6 19 7 91 8 20 9 90 10 17 11
REMARK SMILES IDX 9 12 10 13 11 14 16 15 8 16 5 17 6 18 93 19 7 20 92 21 2 22
REMARK SMILES IDX 3 23 4 24 1 25 12 28 13 29 14 30 15 31 26 32 27 33 28 34
REMARK SMILES IDX 29 35 30 36 31 37 89 38 32 39 88 40 33 41 34 42 35 43 82 44
REMARK SMILES IDX 36 45 87 46 81 47 83 48 37 49 86 50 80 51 79 52 38 54 68 55
REMARK SMILES IDX 49 56 67 57 50 58 53 59 66 60 84 61 51 62 52 63 65 65 85 66
REMARK SMILES IDX 54 67 39 68 40 69 48 70 41 71 47 72 42 73 43 74 44 75 45 76
REMARK SMILES IDX 46 77 69 78 70 79 78 80 71 81 77 82 72 83 73 84 74 85 75 86
REMARK SMILES IDX 76 87 55 88 56 89 64 90 57 91 63 92 58 93 59 94 60 95 61 96
REMARK SMILES IDX 62 97
REMARK H PARENT 1 26 1 27 83 53 53 64
REMARK Flexibility Score: inf
ROOT
ATOM      1  C   UNL     1      -2.026  -4.573 -10.533  1.00  0.00     0.275 C 
ENDROOT
BRANCH   1   2
ATOM      2  O   UNL     1      -1.216  -3.424 -10.233  1.00  0.00    -0.458 OA
BRANCH   2   3
ATOM      3  C   UNL     1      -1.851  -2.412  -9.586  1.00  0.00     0.338 C 
ATOM      4  O   UNL     1      -3.055  -2.312  -9.405  1.00  0.00    -0.246 OA
BRANCH   3   5
ATOM      5  C   UNL     1      -0.868  -1.451  -9.026  1.00  0.00     0.060 A 
ATOM      6  C   UNL     1       0.872   0.505  -8.012  1.00  0.00     0.000 A 
ATOM      7  C   UNL     1      -0.409   0.344  -7.465  1.00  0.00     0.011 A 
ATOM      8  C   UNL     1       1.292  -0.359  -9.031  1.00  0.00     0.011 A 
ATOM      9  C   UNL     1      -1.273  -0.631  -7.965  1.00  0.00     0.016 A 
ATOM     10  C   UNL     1       0.430  -1.339  -9.531  1.00  0.00     0.016 A 
BRANCH   6  11
ATOM     11  C   UNL     1       1.721   1.631  -7.616  1.00  0.00     0.075 A 
ATOM     12  N   UNL     1       1.981   2.058  -6.320  1.00  0.00    -0.233 N 
ATOM     13  N   UNL     1       2.521   3.307  -6.298  1.00  0.00    -0.163 NA
ATOM     14  C   UNL     1       2.786   3.596  -7.586  1.00  0.00     0.167 A 
ATOM     15  C   UNL     1       2.278   2.590  -8.438  1.00  0.00     0.064 A 
BRANCH  12  16
ATOM     16  C   UNL     1       1.716   1.371  -5.110  1.00  0.00     0.065 A 
ATOM     17  C   UNL     1       0.961  -0.007  -2.820  1.00  0.00     0.082 A 
ATOM     18  C   UNL     1       1.568  -0.701  -3.870  1.00  0.00     0.024 A 
ATOM     19  C   UNL     1       0.768   1.377  -2.888  1.00  0.00     0.024 A 
ATOM     20  C   UNL     1       1.933  -0.012  -5.026  1.00  0.00     0.030 A 
ATOM     21  C   UNL     1       1.177   2.076  -4.025  1.00  0.00     0.030 A 
BRANCH  17  22
ATOM     22  S   UNL     1       0.387  -0.908  -1.410  1.00  0.00     0.238 S 
ATOM     23  O   UNL     1       0.965  -2.224  -1.435  1.00  0.00    -0.207 OA
ATOM     24  O   UNL     1      -1.034  -0.664  -1.288  1.00  0.00    -0.207 OA
BRANCH  22  25
ATOM     25  N   UNL     1       1.123  -0.105  -0.129  1.00  0.00    -0.225 NA
ATOM     26  H   UNL     1       0.856  -0.550   0.750  1.00  0.00     0.137 HD
ATOM     27  H   UNL     1       0.823   0.870  -0.121  1.00  0.00     0.137 HD
ENDBRANCH  22  25
ENDBRANCH  17  22
ENDBRANCH  12  16
BRANCH  14  28
ATOM     28  C   UNL     1       3.494   4.846  -8.029  1.00  0.00     0.435 C 
ATOM     29  F   UNL     1       3.075   5.964  -7.381  1.00  0.00    -0.164 F 
ATOM     30  F   UNL     1       4.840   4.762  -7.854  1.00  0.00    -0.164 F 
ATOM     31  F   UNL     1       3.303   5.084  -9.360  1.00  0.00    -0.164 F 
ENDBRANCH  14  28
ENDBRANCH   6  11
ENDBRANCH   3   5
ENDBRANCH   2   3
ENDBRANCH   1   2
BRANCH   1  32
ATOM     32  C   UNL     1      -2.024  -5.566  -9.381  1.00  0.00     0.275 C 
BRANCH  32  33
ATOM     33  O   UNL     1      -2.720  -5.042  -8.252  1.00  0.00    -0.458 OA
BRANCH  33  34
ATOM     34  C   UNL     1      -1.935  -4.442  -7.330  1.00  0.00     0.338 C 
ATOM     35  O   UNL     1      -0.799  -4.022  -7.483  1.00  0.00    -0.246 OA
BRANCH  34  36
ATOM     36  C   UNL     1      -2.540  -4.614  -6.010  1.00  0.00     0.060 A 
ATOM     37  C   UNL     1      -1.888  -4.015  -4.927  1.00  0.00     0.016 A 
ATOM     38  C   UNL     1      -3.478  -5.642  -5.845  1.00  0.00     0.016 A 
ATOM     39  C   UNL     1      -2.025  -4.593  -3.684  1.00  0.00     0.010 A 
ATOM     40  C   UNL     1      -3.586  -6.235  -4.617  1.00  0.00     0.010 A 
ATOM     41  C   UNL     1      -2.802  -5.750  -3.571  1.00  0.00    -0.014 A 
BRANCH  41  42
ATOM     42  C   UNL     1      -2.964  -6.367  -2.272  1.00  0.00     0.031 A 
ATOM     43  C   UNL     1      -3.812  -5.535  -1.379  1.00  0.00     0.074 A 
ATOM     44  C   UNL     1      -2.546  -7.630  -2.043  1.00  0.00     0.049 A 
ATOM     45  N   UNL     1      -3.498  -5.042  -0.230  1.00  0.00    -0.248 NA
ATOM     46  C   UNL     1      -5.093  -5.025  -1.915  1.00  0.00     0.031 C 
ATOM     47  C   UNL     1      -1.936  -8.564  -2.997  1.00  0.00     0.029 A 
ATOM     48  N   UNL     1      -2.711  -8.408  -0.942  1.00  0.00    -0.354 N 
ATOM     49  C   UNL     1      -4.628  -4.356   0.201  1.00  0.00     0.074 A 
ATOM     50  C   UNL     1      -5.483  -4.202  -0.944  1.00  0.00     0.031 C 
ATOM     51  C   UNL     1      -2.046  -9.826  -2.521  1.00  0.00     0.029 A 
ATOM     52  C   UNL     1      -2.623  -9.777  -1.187  1.00  0.00     0.049 A 
ATOM     53  H   UNL     1      -2.879  -8.036  -0.046  1.00  0.00     0.167 HD
ATOM     54  C   UNL     1      -4.909  -4.238   1.526  1.00  0.00     0.031 A 
ATOM     55  C   UNL     1      -3.075 -10.783  -0.388  1.00  0.00     0.031 A 
ATOM     56  C   UNL     1      -3.741  -4.477   2.331  1.00  0.00     0.049 A 
ATOM     57  C   UNL     1      -3.285 -10.197   0.962  1.00  0.00     0.074 A 
ATOM     58  C   UNL     1      -2.497  -3.882   2.412  1.00  0.00     0.029 A 
ATOM     59  N   UNL     1      -3.611  -5.731   2.882  1.00  0.00    -0.354 N 
ATOM     60  N   UNL     1      -2.309  -9.752   1.704  1.00  0.00    -0.248 NA
ATOM     61  C   UNL     1      -4.598  -9.640   1.261  1.00  0.00     0.031 C 
ATOM     62  C   UNL     1      -1.586  -4.964   2.574  1.00  0.00     0.029 A 
ATOM     63  C   UNL     1      -2.321  -6.147   2.679  1.00  0.00     0.049 A 
ATOM     64  H   UNL     1      -4.319  -6.238   3.341  1.00  0.00     0.167 HD
ATOM     65  C   UNL     1      -2.783  -8.557   2.230  1.00  0.00     0.074 A 
ATOM     66  C   UNL     1      -4.227  -8.583   1.990  1.00  0.00     0.031 C 
ATOM     67  C   UNL     1      -1.931  -7.534   2.534  1.00  0.00     0.031 A 
BRANCH  54  68
ATOM     68  C   UNL     1      -6.309  -4.372   2.068  1.00  0.00    -0.014 A 
ATOM     69  C   UNL     1      -6.508  -4.236   3.455  1.00  0.00     0.010 A 
ATOM     70  C   UNL     1      -7.375  -4.915   1.317  1.00  0.00     0.010 A 
ATOM     71  C   UNL     1      -7.682  -4.692   4.066  1.00  0.00     0.020 A 
ATOM     72  C   UNL     1      -8.566  -5.334   1.910  1.00  0.00     0.020 A 
ATOM     73  C   UNL     1      -8.697  -5.251   3.288  1.00  0.00     0.054 A 
BRANCH  73  74
ATOM     74  S   UNL     1     -10.165  -5.925   4.099  1.00  0.00     0.124 S 
ATOM     75  O   UNL     1      -9.604  -7.041   4.855  1.00  0.00    -0.237 OA
ATOM     76  O   UNL     1     -10.625  -4.789   4.892  1.00  0.00    -0.237 OA
ATOM     77  O   UNL     1     -11.034  -6.295   2.985  1.00  0.00    -0.744 OA
ENDBRANCH  73  74
ENDBRANCH  54  68
BRANCH  55  78
ATOM     78  C   UNL     1      -3.673 -12.090  -0.791  1.00  0.00    -0.014 A 
ATOM     79  C   UNL     1      -3.919 -13.111   0.151  1.00  0.00     0.010 A 
ATOM     80  C   UNL     1      -4.265 -12.233  -2.062  1.00  0.00     0.010 A 
ATOM     81  C   UNL     1      -4.772 -14.193  -0.149  1.00  0.00     0.020 A 
ATOM     82  C   UNL     1      -5.109 -13.308  -2.370  1.00  0.00     0.020 A 
ATOM     83  C   UNL     1      -5.381 -14.272  -1.403  1.00  0.00     0.054 A 
BRANCH  83  84
ATOM     84  S   UNL     1      -6.628 -15.558  -1.728  1.00  0.00     0.124 S 
ATOM     85  O   UNL     1      -5.819 -16.772  -1.788  1.00  0.00    -0.237 OA
ATOM     86  O   UNL     1      -7.513 -15.445  -0.572  1.00  0.00    -0.237 OA
ATOM     87  O   UNL     1      -7.223 -15.148  -3.000  1.00  0.00    -0.744 OA
ENDBRANCH  83  84
ENDBRANCH  55  78
BRANCH  67  88
ATOM     88  C   UNL     1      -0.444  -7.808   2.530  1.00  0.00    -0.014 A 
ATOM     89  C   UNL     1       0.293  -8.198   1.392  1.00  0.00     0.010 A 
ATOM     90  C   UNL     1       0.259  -7.498   3.706  1.00  0.00     0.010 A 
ATOM     91  C   UNL     1       1.693  -8.301   1.446  1.00  0.00     0.020 A 
ATOM     92  C   UNL     1       1.650  -7.579   3.760  1.00  0.00     0.020 A 
ATOM     93  C   UNL     1       2.362  -7.993   2.635  1.00  0.00     0.054 A 
BRANCH  93  94
ATOM     94  S   UNL     1       4.173  -8.101   2.707  1.00  0.00     0.124 S 
ATOM     95  O   UNL     1       4.410  -9.538   2.599  1.00  0.00    -0.237 OA
ATOM     96  O   UNL     1       4.596  -7.305   1.557  1.00  0.00    -0.237 OA
ATOM     97  O   UNL     1       4.505  -7.517   4.006  1.00  0.00    -0.744 OA
ENDBRANCH  93  94
ENDBRANCH  67  88
ENDBRANCH  41  42
ENDBRANCH  34  36
ENDBRANCH  33  34
ENDBRANCH  32  33
ENDBRANCH   1  32
TORSDOF 19
