REMARK SMILES CCc1ccnc(C(=O)c2[nH]c3ccc(OC(F)(F)F)cc3c2CC(=O)OCCOC(=O)c2ccc(-c3c4nc(c(-c5ccc(S(=O)(=O)[O-])cc5)c5ccc([nH]5)c(-c5ccc(S(=O)(=O)[O-])cc5)c5nc(c(-c6ccc(S(=O)(=O)[O-])cc6)c6ccc3[nH]6)C=C5)C=C4)cc2)c1
REMARK SMILES IDX 28 1 27 2 25 3 26 4 24 5 23 6 10 7 11 8 12 9 22 11 13 12
REMARK SMILES IDX 21 13 14 14 15 15 8 16 9 17 7 18 3 19 4 20 93 21 5 22 6 23
REMARK SMILES IDX 2 24 1 25 16 26 17 27 18 28 19 29 20 30 29 31 30 32 31 33
REMARK SMILES IDX 32 34 33 35 34 36 92 37 35 38 91 39 36 40 37 41 38 42 85 43
REMARK SMILES IDX 39 44 90 45 84 46 86 47 40 48 89 49 83 50 82 51 41 53 71 54
REMARK SMILES IDX 52 55 70 56 53 57 56 58 69 59 87 60 54 61 55 62 68 64 88 65
REMARK SMILES IDX 57 66 42 67 43 68 51 69 44 70 50 71 45 72 46 73 47 74 48 75
REMARK SMILES IDX 49 76 72 77 73 78 81 79 74 80 80 81 75 82 76 83 77 84 78 85
REMARK SMILES IDX 79 86 58 87 59 88 67 89 60 90 66 91 61 92 62 93 63 94 64 95
REMARK SMILES IDX 65 96
REMARK H PARENT 11 10 86 52 56 63
REMARK Flexibility Score: inf
ROOT
ATOM      1  C   UNL     1       1.946   7.609  -7.206  1.00  0.00     0.274 C 
ENDROOT
BRANCH   1   2
ATOM      2  O   UNL     1       1.522   7.384  -5.843  1.00  0.00    -0.462 OA
BRANCH   2   3
ATOM      3  C   UNL     1       0.197   7.167  -5.651  1.00  0.00     0.310 C 
ATOM      4  O   UNL     1      -0.660   7.362  -6.510  1.00  0.00    -0.252 OA
BRANCH   3   5
ATOM      5  C   UNL     1      -0.149   6.490  -4.342  1.00  0.00     0.161 C 
BRANCH   5   6
ATOM      6  C   UNL     1       0.669   6.793  -3.124  1.00  0.00     0.000 A 
ATOM      7  C   UNL     1       1.782   6.109  -2.631  1.00  0.00     0.093 A 
ATOM      8  N   UNL     1       2.136   6.715  -1.450  1.00  0.00    -0.352 N 
ATOM      9  C   UNL     1       1.260   7.712  -1.120  1.00  0.00     0.046 A 
ATOM     10  H   UNL     1       2.921   6.463  -0.910  1.00  0.00     0.167 HD
ATOM     11  C   UNL     1       0.362   7.832  -2.175  1.00  0.00     0.008 A 
ATOM     12  C   UNL     1       1.210   8.516   0.019  1.00  0.00     0.030 A 
ATOM     13  C   UNL     1      -0.613   8.852  -2.101  1.00  0.00     0.057 A 
ATOM     14  C   UNL     1       0.227   9.509   0.074  1.00  0.00     0.049 A 
ATOM     15  C   UNL     1      -0.667   9.698  -0.980  1.00  0.00     0.130 A 
BRANCH   7  16
ATOM     16  C   UNL     1       2.618   5.038  -3.160  1.00  0.00     0.227 C 
ATOM     17  O   UNL     1       3.758   5.295  -3.548  1.00  0.00    -0.285 OA
BRANCH  16  18
ATOM     18  C   UNL     1       2.203   3.593  -2.996  1.00  0.00     0.113 A 
ATOM     19  C   UNL     1       1.208   1.815  -1.696  1.00  0.00    -0.044 A 
ATOM     20  C   UNL     1       1.850   0.907  -2.540  1.00  0.00     0.024 A 
ATOM     21  C   UNL     1       1.357   3.188  -1.963  1.00  0.00     0.036 A 
ATOM     22  C   UNL     1       2.643   1.391  -3.565  1.00  0.00     0.112 A 
ATOM     23  N   UNL     1       2.853   2.701  -3.793  1.00  0.00    -0.253 NA
BRANCH  19  24
ATOM     24  C   UNL     1       0.372   1.364  -0.518  1.00  0.00     0.032 C 
ATOM     25  C   UNL     1       0.780   0.032   0.106  1.00  0.00     0.009 C 
ENDBRANCH  19  24
ENDBRANCH  16  18
ENDBRANCH   7  16
BRANCH  15  26
ATOM     26  O   UNL     1      -1.638  10.659  -1.045  1.00  0.00    -0.406 OA
BRANCH  26  27
ATOM     27  C   UNL     1      -1.711  11.593   0.018  1.00  0.00     0.573 C 
ATOM     28  F   UNL     1      -2.031  10.985   1.181  1.00  0.00    -0.132 F 
ATOM     29  F   UNL     1      -0.547  12.264   0.170  1.00  0.00    -0.132 F 
ATOM     30  F   UNL     1      -2.676  12.498  -0.259  1.00  0.00    -0.132 F 
ENDBRANCH  26  27
ENDBRANCH  15  26
ENDBRANCH   5   6
ENDBRANCH   3   5
ENDBRANCH   2   3
ENDBRANCH   1   2
BRANCH   1  31
ATOM     31  C   UNL     1       2.675   6.383  -7.780  1.00  0.00     0.275 C 
BRANCH  31  32
ATOM     32  O   UNL     1       1.788   5.272  -8.041  1.00  0.00    -0.458 OA
BRANCH  32  33
ATOM     33  C   UNL     1       1.557   4.516  -6.949  1.00  0.00     0.338 C 
ATOM     34  O   UNL     1       1.966   4.731  -5.820  1.00  0.00    -0.246 OA
BRANCH  33  35
ATOM     35  C   UNL     1       0.638   3.407  -7.171  1.00  0.00     0.060 A 
ATOM     36  C   UNL     1      -0.657   3.536  -6.664  1.00  0.00     0.016 A 
ATOM     37  C   UNL     1       1.130   2.168  -7.583  1.00  0.00     0.016 A 
ATOM     38  C   UNL     1      -1.450   2.407  -6.514  1.00  0.00     0.010 A 
ATOM     39  C   UNL     1       0.307   1.044  -7.488  1.00  0.00     0.010 A 
ATOM     40  C   UNL     1      -0.978   1.154  -6.932  1.00  0.00    -0.014 A 
BRANCH  40  41
ATOM     41  C   UNL     1      -1.865  -0.026  -6.829  1.00  0.00     0.031 A 
ATOM     42  C   UNL     1      -1.592  -1.123  -5.843  1.00  0.00     0.074 A 
ATOM     43  C   UNL     1      -2.944  -0.081  -7.629  1.00  0.00     0.049 A 
ATOM     44  N   UNL     1      -2.229  -2.253  -5.670  1.00  0.00    -0.248 NA
ATOM     45  C   UNL     1      -0.459  -0.926  -4.928  1.00  0.00     0.031 C 
ATOM     46  C   UNL     1      -3.331   0.954  -8.591  1.00  0.00     0.029 A 
ATOM     47  N   UNL     1      -3.917  -1.036  -7.753  1.00  0.00    -0.354 N 
ATOM     48  C   UNL     1      -1.564  -2.913  -4.644  1.00  0.00     0.074 A 
ATOM     49  C   UNL     1      -0.469  -2.057  -4.234  1.00  0.00     0.031 C 
ATOM     50  C   UNL     1      -4.476   0.592  -9.185  1.00  0.00     0.029 A 
ATOM     51  C   UNL     1      -4.864  -0.726  -8.697  1.00  0.00     0.049 A 
ATOM     52  H   UNL     1      -3.936  -1.862  -7.218  1.00  0.00     0.167 HD
ATOM     53  C   UNL     1      -1.841  -4.123  -4.100  1.00  0.00     0.031 A 
ATOM     54  C   UNL     1      -5.912  -1.438  -9.147  1.00  0.00     0.031 A 
ATOM     55  C   UNL     1      -2.926  -4.969  -4.527  1.00  0.00     0.049 A 
ATOM     56  C   UNL     1      -6.159  -2.801  -8.581  1.00  0.00     0.074 A 
ATOM     57  C   UNL     1      -3.284  -6.221  -4.056  1.00  0.00     0.029 A 
ATOM     58  N   UNL     1      -3.829  -4.647  -5.530  1.00  0.00    -0.354 N 
ATOM     59  N   UNL     1      -5.496  -3.429  -7.639  1.00  0.00    -0.248 NA
ATOM     60  C   UNL     1      -7.281  -3.557  -9.146  1.00  0.00     0.031 C 
ATOM     61  C   UNL     1      -4.383  -6.670  -4.800  1.00  0.00     0.029 A 
ATOM     62  C   UNL     1      -4.732  -5.681  -5.707  1.00  0.00     0.049 A 
ATOM     63  H   UNL     1      -3.827  -3.806  -6.042  1.00  0.00     0.167 HD
ATOM     64  C   UNL     1      -6.121  -4.660  -7.497  1.00  0.00     0.074 A 
ATOM     65  C   UNL     1      -7.226  -4.678  -8.438  1.00  0.00     0.031 C 
ATOM     66  C   UNL     1      -5.808  -5.684  -6.666  1.00  0.00     0.031 A 
BRANCH  53  67
ATOM     67  C   UNL     1      -0.921  -4.618  -3.018  1.00  0.00    -0.014 A 
ATOM     68  C   UNL     1      -0.984  -4.097  -1.713  1.00  0.00     0.010 A 
ATOM     69  C   UNL     1       0.017  -5.625  -3.309  1.00  0.00     0.010 A 
ATOM     70  C   UNL     1      -0.093  -4.540  -0.731  1.00  0.00     0.020 A 
ATOM     71  C   UNL     1       0.898  -6.084  -2.325  1.00  0.00     0.020 A 
ATOM     72  C   UNL     1       0.853  -5.521  -1.048  1.00  0.00     0.054 A 
BRANCH  72  73
ATOM     73  S   UNL     1       2.016  -6.064   0.234  1.00  0.00     0.124 S 
ATOM     74  O   UNL     1       2.981  -4.966   0.241  1.00  0.00    -0.237 OA
ATOM     75  O   UNL     1       1.170  -6.161   1.421  1.00  0.00    -0.237 OA
ATOM     76  O   UNL     1       2.521  -7.336  -0.274  1.00  0.00    -0.744 OA
ENDBRANCH  72  73
ENDBRANCH  53  67
BRANCH  54  77
ATOM     77  C   UNL     1      -6.768  -0.859 -10.212  1.00  0.00    -0.014 A 
ATOM     78  C   UNL     1      -8.031  -0.332  -9.899  1.00  0.00     0.010 A 
ATOM     79  C   UNL     1      -6.276  -0.740 -11.525  1.00  0.00     0.010 A 
ATOM     80  C   UNL     1      -8.784   0.320 -10.880  1.00  0.00     0.020 A 
ATOM     81  C   UNL     1      -7.016  -0.071 -12.502  1.00  0.00     0.020 A 
ATOM     82  C   UNL     1      -8.267   0.454 -12.172  1.00  0.00     0.054 A 
BRANCH  82  83
ATOM     83  S   UNL     1      -9.204   1.404 -13.402  1.00  0.00     0.124 S 
ATOM     84  O   UNL     1     -10.184   0.424 -13.858  1.00  0.00    -0.237 OA
ATOM     85  O   UNL     1      -9.736   2.513 -12.614  1.00  0.00    -0.237 OA
ATOM     86  O   UNL     1      -8.189   1.781 -14.383  1.00  0.00    -0.744 OA
ENDBRANCH  82  83
ENDBRANCH  54  77
BRANCH  66  87
ATOM     87  C   UNL     1      -6.681  -6.903  -6.745  1.00  0.00    -0.014 A 
ATOM     88  C   UNL     1      -6.529  -7.828  -7.793  1.00  0.00     0.010 A 
ATOM     89  C   UNL     1      -7.649  -7.134  -5.752  1.00  0.00     0.010 A 
ATOM     90  C   UNL     1      -7.356  -8.951  -7.864  1.00  0.00     0.020 A 
ATOM     91  C   UNL     1      -8.465  -8.265  -5.811  1.00  0.00     0.020 A 
ATOM     92  C   UNL     1      -8.324  -9.158  -6.876  1.00  0.00     0.054 A 
BRANCH  92  93
ATOM     93  S   UNL     1      -9.373 -10.635  -6.970  1.00  0.00     0.124 S 
ATOM     94  O   UNL     1     -10.373 -10.234  -7.955  1.00  0.00    -0.237 OA
ATOM     95  O   UNL     1      -8.439 -11.670  -7.408  1.00  0.00    -0.237 OA
ATOM     96  O   UNL     1      -9.867 -10.791  -5.604  1.00  0.00    -0.744 OA
ENDBRANCH  92  93
ENDBRANCH  66  87
ENDBRANCH  40  41
ENDBRANCH  33  35
ENDBRANCH  32  33
ENDBRANCH  31  32
ENDBRANCH   1  31
TORSDOF 20
