REMARK SMILES O=C(OCCOC(=O)c1cc(Br)ccc1NC(=O)c1ccc(Br)s1)c1ccc(-c2c3nc(c(-c4ccc(S(=O)(=O)[O-])cc4)c4ccc([nH]4)c(-c4ccc(S(=O)(=O)[O-])cc4)c4nc(c(-c5ccc(S(=O)(=O)[O-])cc5)c5ccc2[nH]5)C=C4)C=C3)cc1
REMARK SMILES IDX 4 1 3 2 2 3 1 4 25 5 26 6 84 7 27 8 83 9 28 10 29 11 30 12
REMARK SMILES IDX 77 13 31 14 82 15 76 16 78 17 32 18 81 19 75 20 74 21 33 23
REMARK SMILES IDX 63 24 44 25 62 26 45 27 48 28 61 29 79 30 46 31 47 32 60 34
REMARK SMILES IDX 80 35 49 36 34 37 35 38 43 39 36 40 42 41 37 42 38 43 39 44
REMARK SMILES IDX 40 45 41 46 64 47 65 48 73 49 66 50 72 51 67 52 68 53 69 54
REMARK SMILES IDX 70 55 71 56 50 57 51 58 59 59 52 60 58 61 53 62 54 63 55 64
REMARK SMILES IDX 56 65 57 66 5 67 6 68 7 69 8 70 9 71 10 72 15 73 11 74 14 75
REMARK SMILES IDX 12 76 13 77 16 78 17 79 18 81 19 82 20 83 24 84 21 85 22 86
REMARK SMILES IDX 23 87
REMARK H PARENT 78 22 48 33 16 80
REMARK Flexibility Score: inf
ROOT
ATOM      1  C   UNL     1       4.389  -1.548  -0.007  1.00  0.00     0.275 C 
ENDROOT
BRANCH   1   2
ATOM      2  O   UNL     1       3.478  -0.894   0.886  1.00  0.00    -0.458 OA
BRANCH   2   3
ATOM      3  C   UNL     1       3.306   0.419   1.157  1.00  0.00     0.338 C 
ATOM      4  O   UNL     1       2.520   0.725   2.053  1.00  0.00    -0.246 OA
BRANCH   3   5
ATOM      5  C   UNL     1       3.912   1.532   0.356  1.00  0.00     0.060 A 
ATOM      6  C   UNL     1       5.059   1.463  -0.438  1.00  0.00     0.016 A 
ATOM      7  C   UNL     1       3.235   2.763   0.410  1.00  0.00     0.016 A 
ATOM      8  C   UNL     1       5.477   2.549  -1.213  1.00  0.00     0.010 A 
ATOM      9  C   UNL     1       3.625   3.841  -0.386  1.00  0.00     0.010 A 
ATOM     10  C   UNL     1       4.761   3.743  -1.198  1.00  0.00    -0.014 A 
BRANCH  10  11
ATOM     11  C   UNL     1       5.318   4.955  -1.836  1.00  0.00     0.031 A 
ATOM     12  C   UNL     1       5.825   6.037  -0.929  1.00  0.00     0.074 A 
ATOM     13  C   UNL     1       5.403   5.087  -3.173  1.00  0.00     0.049 A 
ATOM     14  N   UNL     1       6.281   7.222  -1.229  1.00  0.00    -0.248 NA
ATOM     15  C   UNL     1       5.820   5.736   0.514  1.00  0.00     0.031 C 
ATOM     16  C   UNL     1       5.051   4.061  -4.152  1.00  0.00     0.029 A 
ATOM     17  N   UNL     1       5.802   6.152  -3.942  1.00  0.00    -0.354 N 
ATOM     18  C   UNL     1       6.620   7.800  -0.013  1.00  0.00     0.074 A 
ATOM     19  C   UNL     1       6.229   6.881   1.029  1.00  0.00     0.031 C 
ATOM     20  C   UNL     1       5.197   4.564  -5.390  1.00  0.00     0.029 A 
ATOM     21  C   UNL     1       5.627   5.952  -5.292  1.00  0.00     0.049 A 
ATOM     22  H   UNL     1       6.178   6.979  -3.564  1.00  0.00     0.167 HD
ATOM     23  C   UNL     1       7.250   8.974   0.215  1.00  0.00     0.031 A 
ATOM     24  C   UNL     1       5.776   6.799  -6.330  1.00  0.00     0.031 A 
ATOM     25  C   UNL     1       7.632   9.877  -0.830  1.00  0.00     0.049 A 
ATOM     26  C   UNL     1       6.333   8.168  -6.053  1.00  0.00     0.074 A 
ATOM     27  C   UNL     1       8.283  11.090  -0.727  1.00  0.00     0.029 A 
ATOM     28  N   UNL     1       7.387   9.659  -2.180  1.00  0.00    -0.354 N 
ATOM     29  N   UNL     1       6.670   8.695  -4.900  1.00  0.00    -0.248 NA
ATOM     30  C   UNL     1       6.577   9.037  -7.211  1.00  0.00     0.031 C 
ATOM     31  C   UNL     1       8.383  11.633  -2.012  1.00  0.00     0.029 A 
ATOM     32  C   UNL     1       7.854  10.727  -2.921  1.00  0.00     0.049 A 
ATOM     33  H   UNL     1       6.946   8.862  -2.553  1.00  0.00     0.167 HD
ATOM     34  C   UNL     1       7.233   9.930  -5.197  1.00  0.00     0.074 A 
ATOM     35  C   UNL     1       7.163  10.082  -6.638  1.00  0.00     0.031 C 
ATOM     36  C   UNL     1       7.785  10.840  -4.358  1.00  0.00     0.031 A 
BRANCH  23  37
ATOM     37  C   UNL     1       7.524   9.319   1.652  1.00  0.00    -0.014 A 
ATOM     38  C   UNL     1       8.438   8.569   2.418  1.00  0.00     0.010 A 
ATOM     39  C   UNL     1       6.802  10.355   2.267  1.00  0.00     0.010 A 
ATOM     40  C   UNL     1       8.566   8.797   3.789  1.00  0.00     0.020 A 
ATOM     41  C   UNL     1       6.954  10.610   3.633  1.00  0.00     0.020 A 
ATOM     42  C   UNL     1       7.813   9.809   4.390  1.00  0.00     0.054 A 
BRANCH  42  43
ATOM     43  S   UNL     1       7.972  10.064   6.177  1.00  0.00     0.124 S 
ATOM     44  O   UNL     1       7.250   8.911   6.710  1.00  0.00    -0.237 OA
ATOM     45  O   UNL     1       9.419  10.044   6.376  1.00  0.00    -0.237 OA
ATOM     46  O   UNL     1       7.333  11.358   6.401  1.00  0.00    -0.744 OA
ENDBRANCH  42  43
ENDBRANCH  23  37
BRANCH  24  47
ATOM     47  C   UNL     1       5.399   6.371  -7.707  1.00  0.00    -0.014 A 
ATOM     48  C   UNL     1       6.377   6.096  -8.678  1.00  0.00     0.010 A 
ATOM     49  C   UNL     1       4.042   6.218  -8.049  1.00  0.00     0.010 A 
ATOM     50  C   UNL     1       6.005   5.688  -9.965  1.00  0.00     0.020 A 
ATOM     51  C   UNL     1       3.666   5.792  -9.328  1.00  0.00     0.020 A 
ATOM     52  C   UNL     1       4.652   5.534 -10.281  1.00  0.00     0.054 A 
BRANCH  52  53
ATOM     53  S   UNL     1       4.202   4.955 -11.942  1.00  0.00     0.124 S 
ATOM     54  O   UNL     1       4.599   6.083 -12.778  1.00  0.00    -0.237 OA
ATOM     55  O   UNL     1       5.012   3.747 -12.081  1.00  0.00    -0.237 OA
ATOM     56  O   UNL     1       2.762   4.723 -11.848  1.00  0.00    -0.744 OA
ENDBRANCH  52  53
ENDBRANCH  24  47
BRANCH  36  57
ATOM     57  C   UNL     1       8.433  12.049  -4.971  1.00  0.00    -0.014 A 
ATOM     58  C   UNL     1       7.673  13.101  -5.503  1.00  0.00     0.010 A 
ATOM     59  C   UNL     1       9.835  12.170  -4.907  1.00  0.00     0.010 A 
ATOM     60  C   UNL     1       8.306  14.255  -5.970  1.00  0.00     0.020 A 
ATOM     61  C   UNL     1      10.467  13.333  -5.343  1.00  0.00     0.020 A 
ATOM     62  C   UNL     1       9.698  14.367  -5.878  1.00  0.00     0.054 A 
BRANCH  62  63
ATOM     63  S   UNL     1      10.486  15.911  -6.407  1.00  0.00     0.124 S 
ATOM     64  O   UNL     1      10.380  15.824  -7.861  1.00  0.00    -0.237 OA
ATOM     65  O   UNL     1       9.650  16.929  -5.775  1.00  0.00    -0.237 OA
ATOM     66  O   UNL     1      11.842  15.809  -5.873  1.00  0.00    -0.744 OA
ENDBRANCH  62  63
ENDBRANCH  36  57
ENDBRANCH  10  11
ENDBRANCH   3   5
ENDBRANCH   2   3
ENDBRANCH   1   2
BRANCH   1  67
ATOM     67  C   UNL     1       3.885  -1.675  -1.448  1.00  0.00     0.275 C 
BRANCH  67  68
ATOM     68  O   UNL     1       3.394  -0.457  -2.031  1.00  0.00    -0.458 OA
BRANCH  68  69
ATOM     69  C   UNL     1       2.049  -0.245  -1.948  1.00  0.00     0.340 C 
ATOM     70  O   UNL     1       1.235  -0.928  -1.368  1.00  0.00    -0.246 OA
BRANCH  69  71
ATOM     71  C   UNL     1       1.731   1.047  -2.601  1.00  0.00     0.084 A 
ATOM     72  C   UNL     1       2.145   1.227  -3.930  1.00  0.00     0.033 A 
ATOM     73  C   UNL     1       1.047   2.068  -1.908  1.00  0.00     0.056 A 
ATOM     74  C   UNL     1       1.940   2.452  -4.550  1.00  0.00     0.018 A 
ATOM     75  C   UNL     1       1.062   3.337  -2.492  1.00  0.00     0.028 A 
ATOM     76  Br  UNL     1       2.280   2.649  -6.395  1.00  0.00    -0.051 Br
ATOM     77  C   UNL     1       1.479   3.531  -3.812  1.00  0.00     0.018 A 
BRANCH  73  78
ATOM     78  N   UNL     1       0.401   1.777  -0.679  1.00  0.00    -0.320 N 
ATOM     79  C   UNL     1      -0.423   2.488   0.177  1.00  0.00     0.265 C 
ATOM     80  H   UNL     1       0.579   0.861  -0.364  1.00  0.00     0.170 HD
ATOM     81  O   UNL     1      -0.805   1.906   1.195  1.00  0.00    -0.268 OA
BRANCH  79  82
ATOM     82  C   UNL     1      -0.838   3.842  -0.118  1.00  0.00     0.093 A 
ATOM     83  C   UNL     1      -1.583   4.333  -1.177  1.00  0.00     0.027 A 
ATOM     84  S   UNL     1      -0.435   5.087   0.994  1.00  0.00    -0.123 S 
ATOM     85  C   UNL     1      -1.694   5.757  -1.141  1.00  0.00     0.028 A 
ATOM     86  C   UNL     1      -1.113   6.271  -0.009  1.00  0.00     0.071 A 
ATOM     87  Br  UNL     1      -1.068   8.100   0.392  1.00  0.00    -0.039 Br
ENDBRANCH  79  82
ENDBRANCH  73  78
ENDBRANCH  69  71
ENDBRANCH  68  69
ENDBRANCH  67  68
ENDBRANCH   1  67
TORSDOF 16
