REMARK SMILES CC(C)C[C@H](NC(=O)CNC(=O)[C@@H]([NH3+])C(C)C)C(=O)OCCOC(=O)c1ccc(-c2c3nc(c(-c4ccc(S(=O)(=O)[O-])cc4)c4ccc([nH]4)c(-c4ccc(S(=O)(=O)[O-])cc4)c4nc(c(-c5ccc(S(=O)(=O)[O-])cc5)c5ccc2[nH]5)C=C4)C=C3)cc1
REMARK SMILES IDX 21 1 20 2 18 3 19 4 5 5 4 6 2 7 1 8 3 9 6 10 7 11 8 13 9 14
REMARK SMILES IDX 10 15 11 16 12 18 13 19 14 20 15 24 16 25 17 26 22 27 23 28
REMARK SMILES IDX 24 29 25 30 26 31 27 32 85 33 28 34 84 35 29 36 30 37 31 38
REMARK SMILES IDX 78 39 32 40 83 41 77 42 79 43 33 44 82 45 76 46 75 47 34 49
REMARK SMILES IDX 64 50 45 51 63 52 46 53 49 54 62 55 80 56 47 57 48 58 61 60
REMARK SMILES IDX 81 61 50 62 35 63 36 64 44 65 37 66 43 67 38 68 39 69 40 70
REMARK SMILES IDX 41 71 42 72 65 73 66 74 74 75 67 76 73 77 68 78 69 79 70 80
REMARK SMILES IDX 71 81 72 82 51 83 52 84 60 85 53 86 59 87 54 88 55 89 56 90
REMARK SMILES IDX 57 91 58 92
REMARK H PARENT 6 12 10 17 14 21 14 22 14 23 79 48 49 59
REMARK Flexibility Score: inf
ROOT
ATOM      1  C   UNL     1      -5.821  -1.170   1.281  1.00  0.00     0.274 C 
ENDROOT
BRANCH   1   2
ATOM      2  O   UNL     1      -4.443  -1.483   1.543  1.00  0.00    -0.461 OA
BRANCH   2   3
ATOM      3  C   UNL     1      -3.675  -1.789   0.456  1.00  0.00     0.328 C 
ATOM      4  O   UNL     1      -4.089  -1.879  -0.692  1.00  0.00    -0.250 OA
BRANCH   3   5
ATOM      5  C   UNL     1      -2.218  -2.046   0.854  1.00  0.00     0.192 C 
BRANCH   5   6
ATOM      6  C   UNL     1      -1.821  -3.502   0.567  1.00  0.00     0.040 C 
BRANCH   6   7
ATOM      7  C   UNL     1      -2.822  -4.666   0.742  1.00  0.00    -0.015 C 
ATOM      8  C   UNL     1      -3.765  -4.849  -0.453  1.00  0.00     0.007 C 
ATOM      9  C   UNL     1      -2.022  -5.971   0.896  1.00  0.00     0.007 C 
ENDBRANCH   6   7
ENDBRANCH   5   6
BRANCH   5  10
ATOM     10  N   UNL     1      -1.971  -1.565   2.228  1.00  0.00    -0.341 N 
ATOM     11  C   UNL     1      -0.855  -0.950   2.730  1.00  0.00     0.240 C 
ATOM     12  H   UNL     1      -2.706  -1.706   2.869  1.00  0.00     0.164 HD
ATOM     13  O   UNL     1      -1.013   0.003   3.498  1.00  0.00    -0.273 OA
BRANCH  11  14
ATOM     14  C   UNL     1       0.552  -1.449   2.390  1.00  0.00     0.216 C 
BRANCH  14  15
ATOM     15  N   UNL     1       0.687  -2.818   2.866  1.00  0.00    -0.342 N 
ATOM     16  C   UNL     1       1.095  -3.988   2.321  1.00  0.00     0.278 C 
ATOM     17  H   UNL     1       0.418  -2.917   3.808  1.00  0.00     0.164 HD
ATOM     18  O   UNL     1       0.916  -4.978   3.046  1.00  0.00    -0.268 OA
BRANCH  16  19
ATOM     19  C   UNL     1       1.679  -4.172   0.886  1.00  0.00     0.273 C 
BRANCH  19  20
ATOM     20  N   UNL     1       1.616  -2.948   0.065  1.00  0.00    -0.347 N 
ATOM     21  H   UNL     1       2.199  -2.225   0.487  1.00  0.00     0.345 HD
ATOM     22  H   UNL     1       0.651  -2.621   0.016  1.00  0.00     0.345 HD
ATOM     23  H   UNL     1       1.954  -3.152  -0.876  1.00  0.00     0.345 HD
ENDBRANCH  19  20
BRANCH  19  24
ATOM     24  C   UNL     1       3.115  -4.759   0.948  1.00  0.00     0.051 C 
ATOM     25  C   UNL     1       3.116  -6.193   1.502  1.00  0.00     0.014 C 
ATOM     26  C   UNL     1       3.800  -4.795  -0.427  1.00  0.00     0.014 C 
ENDBRANCH  19  24
ENDBRANCH  16  19
ENDBRANCH  14  15
ENDBRANCH  11  14
ENDBRANCH   5  10
ENDBRANCH   3   5
ENDBRANCH   2   3
ENDBRANCH   1   2
BRANCH   1  27
ATOM     27  C   UNL     1      -6.027   0.332   1.052  1.00  0.00     0.275 C 
BRANCH  27  28
ATOM     28  O   UNL     1      -5.540   0.761  -0.233  1.00  0.00    -0.458 OA
BRANCH  28  29
ATOM     29  C   UNL     1      -4.231   1.095  -0.282  1.00  0.00     0.338 C 
ATOM     30  O   UNL     1      -3.443   1.107   0.662  1.00  0.00    -0.246 OA
BRANCH  29  31
ATOM     31  C   UNL     1      -3.800   1.267  -1.679  1.00  0.00     0.060 A 
ATOM     32  C   UNL     1      -2.615   0.641  -2.090  1.00  0.00     0.016 A 
ATOM     33  C   UNL     1      -4.527   2.055  -2.571  1.00  0.00     0.016 A 
ATOM     34  C   UNL     1      -2.150   0.796  -3.391  1.00  0.00     0.010 A 
ATOM     35  C   UNL     1      -4.054   2.220  -3.875  1.00  0.00     0.010 A 
ATOM     36  C   UNL     1      -2.861   1.601  -4.287  1.00  0.00    -0.014 A 
BRANCH  36  37
ATOM     37  C   UNL     1      -2.319   1.870  -5.636  1.00  0.00     0.031 A 
ATOM     38  C   UNL     1      -1.709   3.210  -5.921  1.00  0.00     0.074 A 
ATOM     39  C   UNL     1      -2.398   0.934  -6.599  1.00  0.00     0.049 A 
ATOM     40  N   UNL     1      -1.328   3.717  -7.063  1.00  0.00    -0.248 NA
ATOM     41  C   UNL     1      -1.510   4.098  -4.764  1.00  0.00     0.031 C 
ATOM     42  C   UNL     1      -2.918  -0.422  -6.420  1.00  0.00     0.029 A 
ATOM     43  N   UNL     1      -2.063   0.995  -7.927  1.00  0.00    -0.354 N 
ATOM     44  C   UNL     1      -0.879   4.999  -6.771  1.00  0.00     0.074 A 
ATOM     45  C   UNL     1      -1.038   5.191  -5.345  1.00  0.00     0.031 C 
ATOM     46  C   UNL     1      -2.892  -1.057  -7.603  1.00  0.00     0.029 A 
ATOM     47  C   UNL     1      -2.406  -0.136  -8.628  1.00  0.00     0.049 A 
ATOM     48  H   UNL     1      -1.620   1.773  -8.338  1.00  0.00     0.167 HD
ATOM     49  C   UNL     1      -0.391   5.933  -7.621  1.00  0.00     0.031 A 
ATOM     50  C   UNL     1      -2.381  -0.383  -9.953  1.00  0.00     0.031 A 
ATOM     51  C   UNL     1      -0.244   5.729  -9.037  1.00  0.00     0.049 A 
ATOM     52  C   UNL     1      -1.893   0.690 -10.889  1.00  0.00     0.074 A 
ATOM     53  C   UNL     1       0.257   6.604  -9.985  1.00  0.00     0.029 A 
ATOM     54  N   UNL     1      -0.608   4.572  -9.710  1.00  0.00    -0.354 N 
ATOM     55  N   UNL     1      -1.466   1.897 -10.604  1.00  0.00    -0.248 NA
ATOM     56  C   UNL     1      -1.885   0.370 -12.322  1.00  0.00     0.031 C 
ATOM     57  C   UNL     1       0.146   5.994 -11.239  1.00  0.00     0.029 A 
ATOM     58  C   UNL     1      -0.369   4.718 -11.065  1.00  0.00     0.049 A 
ATOM     59  H   UNL     1      -0.982   3.766  -9.286  1.00  0.00     0.167 HD
ATOM     60  C   UNL     1      -1.120   2.475 -11.820  1.00  0.00     0.074 A 
ATOM     61  C   UNL     1      -1.379   1.481 -12.842  1.00  0.00     0.031 C 
ATOM     62  C   UNL     1      -0.631   3.715 -12.067  1.00  0.00     0.031 A 
BRANCH  49  63
ATOM     63  C   UNL     1      -0.042   7.278  -7.042  1.00  0.00    -0.014 A 
ATOM     64  C   UNL     1       1.078   7.454  -6.211  1.00  0.00     0.010 A 
ATOM     65  C   UNL     1      -0.855   8.387  -7.342  1.00  0.00     0.010 A 
ATOM     66  C   UNL     1       1.349   8.705  -5.648  1.00  0.00     0.020 A 
ATOM     67  C   UNL     1      -0.572   9.644  -6.803  1.00  0.00     0.020 A 
ATOM     68  C   UNL     1       0.516   9.790  -5.940  1.00  0.00     0.054 A 
BRANCH  68  69
ATOM     69  S   UNL     1       0.884  11.400  -5.191  1.00  0.00     0.124 S 
ATOM     70  O   UNL     1       0.449  11.194  -3.811  1.00  0.00    -0.237 OA
ATOM     71  O   UNL     1       2.327  11.523  -5.382  1.00  0.00    -0.237 OA
ATOM     72  O   UNL     1       0.074  12.336  -5.966  1.00  0.00    -0.744 OA
ENDBRANCH  68  69
ENDBRANCH  49  63
BRANCH  50  73
ATOM     73  C   UNL     1      -2.883  -1.686 -10.463  1.00  0.00    -0.014 A 
ATOM     74  C   UNL     1      -1.997  -2.649 -10.973  1.00  0.00     0.010 A 
ATOM     75  C   UNL     1      -4.257  -1.987 -10.397  1.00  0.00     0.010 A 
ATOM     76  C   UNL     1      -2.475  -3.891 -11.406  1.00  0.00     0.020 A 
ATOM     77  C   UNL     1      -4.735  -3.235 -10.804  1.00  0.00     0.020 A 
ATOM     78  C   UNL     1      -3.840  -4.178 -11.311  1.00  0.00     0.054 A 
BRANCH  78  79
ATOM     79  S   UNL     1      -4.425  -5.826 -11.798  1.00  0.00     0.124 S 
ATOM     80  O   UNL     1      -4.360  -5.754 -13.254  1.00  0.00    -0.237 OA
ATOM     81  O   UNL     1      -3.448  -6.708 -11.163  1.00  0.00    -0.237 OA
ATOM     82  O   UNL     1      -5.770  -5.892 -11.231  1.00  0.00    -0.744 OA
ENDBRANCH  78  79
ENDBRANCH  50  73
BRANCH  62  83
ATOM     83  C   UNL     1      -0.305   4.065 -13.494  1.00  0.00    -0.014 A 
ATOM     84  C   UNL     1      -1.319   4.365 -14.420  1.00  0.00     0.010 A 
ATOM     85  C   UNL     1       1.041   4.186 -13.885  1.00  0.00     0.010 A 
ATOM     86  C   UNL     1      -0.992   4.771 -15.716  1.00  0.00     0.020 A 
ATOM     87  C   UNL     1       1.372   4.614 -15.173  1.00  0.00     0.020 A 
ATOM     88  C   UNL     1       0.352   4.897 -16.083  1.00  0.00     0.054 A 
BRANCH  88  89
ATOM     89  S   UNL     1       0.752   5.500 -17.747  1.00  0.00     0.124 S 
ATOM     90  O   UNL     1       0.446   4.335 -18.573  1.00  0.00    -0.237 OA
ATOM     91  O   UNL     1      -0.152   6.636 -17.903  1.00  0.00    -0.237 OA
ATOM     92  O   UNL     1       2.169   5.847 -17.659  1.00  0.00    -0.744 OA
ENDBRANCH  88  89
ENDBRANCH  62  83
ENDBRANCH  36  37
ENDBRANCH  29  31
ENDBRANCH  28  29
ENDBRANCH  27  28
ENDBRANCH   1  27
TORSDOF 22
