REMARK SMILES CO[C@@H]1C[C@H](C(=O)OCCOC(=O)c2ccc(-c3c4nc(c(-c5ccc(S(=O)(=O)[O-])cc5)c5ccc([nH]5)c(-c5ccc(S(=O)(=O)[O-])cc5)c5nc(c(-c6ccc(S(=O)(=O)[O-])cc6)c6ccc3[nH]6)C=C5)C=C4)cc2)N(C(=O)c2ccc([N+](=O)[O-])s2)C1
REMARK SMILES IDX 9 1 8 2 6 3 7 4 5 5 3 6 4 7 85 8 74 9 2 10 1 11 75 12 76 13
REMARK SMILES IDX 77 14 78 15 84 16 79 17 80 18 81 19 82 20 83 21 10 22 11 23
REMARK SMILES IDX 12 24 13 25 14 26 15 27 73 28 16 29 72 30 17 31 18 32 19 33
REMARK SMILES IDX 66 34 20 35 71 36 65 37 67 38 21 39 70 40 64 41 63 42 22 44
REMARK SMILES IDX 52 45 33 46 51 47 34 48 37 49 50 50 68 51 35 52 36 53 49 55
REMARK SMILES IDX 69 56 38 57 23 58 24 59 32 60 25 61 31 62 26 63 27 64 28 65
REMARK SMILES IDX 29 66 30 67 53 68 54 69 62 70 55 71 61 72 56 73 57 74 58 75
REMARK SMILES IDX 59 76 60 77 39 78 40 79 48 80 41 81 47 82 42 83 43 84 44 85
REMARK SMILES IDX 45 86 46 87
REMARK H PARENT 67 43 37 54
REMARK Flexibility Score: inf
ROOT
ATOM      1  C   UNL     1      -0.868   1.479   1.491  1.00  0.00     0.274 C 
ENDROOT
BRANCH   1   2
ATOM      2  O   UNL     1      -0.040   1.484   0.314  1.00  0.00    -0.461 OA
BRANCH   2   3
ATOM      3  C   UNL     1      -0.067   2.597  -0.457  1.00  0.00     0.329 C 
ATOM      4  O   UNL     1      -0.764   3.578  -0.225  1.00  0.00    -0.250 OA
BRANCH   3   5
ATOM      5  C   UNL     1       0.864   2.516  -1.682  1.00  0.00     0.198 C 
ATOM      6  C   UNL     1       0.888   0.272  -2.552  1.00  0.00     0.140 C 
ATOM      7  C   UNL     1       1.759   1.292  -1.817  1.00  0.00     0.071 C 
ATOM      8  C   UNL     1      -0.059   1.142  -3.406  1.00  0.00     0.152 C 
ATOM      9  N   UNL     1       0.084   2.504  -2.910  1.00  0.00    -0.321 N 
BRANCH   6  10
ATOM     10  O   UNL     1       0.133  -0.554  -1.663  1.00  0.00    -0.380 OA
ATOM     11  C   UNL     1       0.944  -1.398  -0.848  1.00  0.00     0.195 C 
ENDBRANCH   6  10
BRANCH   9  12
ATOM     12  C   UNL     1      -0.521   3.582  -3.542  1.00  0.00     0.265 C 
ATOM     13  O   UNL     1      -1.277   3.394  -4.496  1.00  0.00    -0.268 OA
BRANCH  12  14
ATOM     14  C   UNL     1      -0.195   4.916  -3.058  1.00  0.00     0.099 A 
ATOM     15  C   UNL     1       1.036   5.544  -2.968  1.00  0.00     0.033 A 
ATOM     16  S   UNL     1      -1.461   5.953  -2.545  1.00  0.00    -0.058 S 
ATOM     17  C   UNL     1       0.945   6.838  -2.371  1.00  0.00     0.099 A 
ATOM     18  C   UNL     1      -0.361   7.159  -2.070  1.00  0.00     0.324 A 
BRANCH  18  19
ATOM     19  N   UNL     1      -0.821   8.368  -1.435  1.00  0.00     0.074 N 
ATOM     20  O   UNL     1       0.050   9.206  -1.171  1.00  0.00    -0.258 OA
ATOM     21  O   UNL     1      -2.028   8.475  -1.186  1.00  0.00    -0.258 OA
ENDBRANCH  18  19
ENDBRANCH  12  14
ENDBRANCH   9  12
ENDBRANCH   3   5
ENDBRANCH   2   3
ENDBRANCH   1   2
BRANCH   1  22
ATOM     22  C   UNL     1       0.005   1.341   2.738  1.00  0.00     0.275 C 
BRANCH  22  23
ATOM     23  O   UNL     1       0.867   2.484   2.887  1.00  0.00    -0.458 OA
BRANCH  23  24
ATOM     24  C   UNL     1       2.072   2.376   2.287  1.00  0.00     0.338 C 
ATOM     25  O   UNL     1       2.531   1.400   1.701  1.00  0.00    -0.246 OA
BRANCH  24  26
ATOM     26  C   UNL     1       2.725   3.687   2.268  1.00  0.00     0.060 A 
ATOM     27  C   UNL     1       2.827   4.344   1.041  1.00  0.00     0.016 A 
ATOM     28  C   UNL     1       3.298   4.232   3.415  1.00  0.00     0.016 A 
ATOM     29  C   UNL     1       3.509   5.549   0.942  1.00  0.00     0.010 A 
ATOM     30  C   UNL     1       3.980   5.449   3.320  1.00  0.00     0.010 A 
ATOM     31  C   UNL     1       4.096   6.107   2.082  1.00  0.00    -0.014 A 
BRANCH  31  32
ATOM     32  C   UNL     1       4.870   7.362   1.958  1.00  0.00     0.031 A 
ATOM     33  C   UNL     1       6.368   7.323   2.033  1.00  0.00     0.074 A 
ATOM     34  C   UNL     1       4.224   8.523   1.741  1.00  0.00     0.049 A 
ATOM     35  N   UNL     1       7.218   8.315   2.040  1.00  0.00    -0.248 NA
ATOM     36  C   UNL     1       6.991   5.991   2.107  1.00  0.00     0.031 C 
ATOM     37  C   UNL     1       2.775   8.667   1.579  1.00  0.00     0.029 A 
ATOM     38  N   UNL     1       4.704   9.800   1.615  1.00  0.00    -0.354 N 
ATOM     39  C   UNL     1       8.476   7.733   2.150  1.00  0.00     0.074 A 
ATOM     40  C   UNL     1       8.276   6.301   2.208  1.00  0.00     0.031 C 
ATOM     41  C   UNL     1       2.486   9.962   1.367  1.00  0.00     0.029 A 
ATOM     42  C   UNL     1       3.717  10.741   1.439  1.00  0.00     0.049 A 
ATOM     43  H   UNL     1       5.662  10.023   1.648  1.00  0.00     0.167 HD
ATOM     44  C   UNL     1       9.684   8.342   2.206  1.00  0.00     0.031 A 
ATOM     45  C   UNL     1       3.795  12.084   1.379  1.00  0.00     0.031 A 
ATOM     46  C   UNL     1       9.868   9.768   2.152  1.00  0.00     0.049 A 
ATOM     47  C   UNL     1       5.141  12.740   1.512  1.00  0.00     0.074 A 
ATOM     48  C   UNL     1      11.047  10.489   2.218  1.00  0.00     0.029 A 
ATOM     49  N   UNL     1       8.841  10.691   2.017  1.00  0.00    -0.354 N 
ATOM     50  N   UNL     1       6.320  12.179   1.654  1.00  0.00    -0.248 NA
ATOM     51  C   UNL     1       5.169  14.208   1.488  1.00  0.00     0.031 C 
ATOM     52  C   UNL     1      10.729  11.851   2.162  1.00  0.00     0.029 A 
ATOM     53  C   UNL     1       9.357  11.976   2.015  1.00  0.00     0.049 A 
ATOM     54  H   UNL     1       7.886  10.466   1.935  1.00  0.00     0.167 HD
ATOM     55  C   UNL     1       7.230  13.227   1.724  1.00  0.00     0.074 A 
ATOM     56  C   UNL     1       6.468  14.453   1.591  1.00  0.00     0.031 C 
ATOM     57  C   UNL     1       8.576  13.180   1.887  1.00  0.00     0.031 A 
BRANCH  44  58
ATOM     58  C   UNL     1      10.891   7.464   2.388  1.00  0.00    -0.014 A 
ATOM     59  C   UNL     1      11.394   6.684   1.332  1.00  0.00     0.010 A 
ATOM     60  C   UNL     1      11.540   7.429   3.636  1.00  0.00     0.010 A 
ATOM     61  C   UNL     1      12.500   5.853   1.533  1.00  0.00     0.020 A 
ATOM     62  C   UNL     1      12.658   6.615   3.835  1.00  0.00     0.020 A 
ATOM     63  C   UNL     1      13.119   5.817   2.787  1.00  0.00     0.054 A 
BRANCH  63  64
ATOM     64  S   UNL     1      14.552   4.729   3.024  1.00  0.00     0.124 S 
ATOM     65  O   UNL     1      13.917   3.417   3.120  1.00  0.00    -0.237 OA
ATOM     66  O   UNL     1      15.336   4.959   1.814  1.00  0.00    -0.237 OA
ATOM     67  O   UNL     1      15.158   5.220   4.259  1.00  0.00    -0.744 OA
ENDBRANCH  63  64
ENDBRANCH  44  58
BRANCH  45  68
ATOM     68  C   UNL     1       2.555  12.893   1.234  1.00  0.00    -0.014 A 
ATOM     69  C   UNL     1       2.279  13.573   0.035  1.00  0.00     0.010 A 
ATOM     70  C   UNL     1       1.634  12.975   2.295  1.00  0.00     0.010 A 
ATOM     71  C   UNL     1       1.110  14.331  -0.094  1.00  0.00     0.020 A 
ATOM     72  C   UNL     1       0.454  13.711   2.160  1.00  0.00     0.020 A 
ATOM     73  C   UNL     1       0.206  14.396   0.970  1.00  0.00     0.054 A 
BRANCH  73  74
ATOM     74  S   UNL     1      -1.324  15.352   0.771  1.00  0.00     0.124 S 
ATOM     75  O   UNL     1      -0.851  16.720   0.956  1.00  0.00    -0.237 OA
ATOM     76  O   UNL     1      -1.745  15.008  -0.585  1.00  0.00    -0.237 OA
ATOM     77  O   UNL     1      -2.187  14.839   1.833  1.00  0.00    -0.744 OA
ENDBRANCH  73  74
ENDBRANCH  45  68
BRANCH  57  78
ATOM     78  C   UNL     1       9.309  14.492   1.907  1.00  0.00    -0.014 A 
ATOM     79  C   UNL     1       9.269  15.325   3.038  1.00  0.00     0.010 A 
ATOM     80  C   UNL     1      10.086  14.871   0.798  1.00  0.00     0.010 A 
ATOM     81  C   UNL     1       9.976  16.531   3.050  1.00  0.00     0.020 A 
ATOM     82  C   UNL     1      10.810  16.065   0.814  1.00  0.00     0.020 A 
ATOM     83  C   UNL     1      10.740  16.894   1.936  1.00  0.00     0.054 A 
BRANCH  83  84
ATOM     84  S   UNL     1      11.686  18.441   1.988  1.00  0.00     0.124 S 
ATOM     85  O   UNL     1      10.648  19.439   1.749  1.00  0.00    -0.237 OA
ATOM     86  O   UNL     1      12.249  18.430   3.337  1.00  0.00    -0.237 OA
ATOM     87  O   UNL     1      12.662  18.284   0.912  1.00  0.00    -0.744 OA
ENDBRANCH  83  84
ENDBRANCH  57  78
ENDBRANCH  31  32
ENDBRANCH  24  26
ENDBRANCH  23  24
ENDBRANCH  22  23
ENDBRANCH   1  22
TORSDOF 18
