REMARK SMILES Cc1ccc(S(=O)(=O)Nc2cc(C(=O)OCCOC(=O)c3ccc(-c4c5nc(c(-c6ccc(S(=O)(=O)[O-])cc6)c6ccc([nH]6)c(-c6ccc(S(=O)(=O)[O-])cc6)c6nc(c(-c7ccc(S(=O)(=O)[O-])cc7)c7ccc4[nH]7)C=C6)C=C5)cc3)cnc2N2CCCC2)c(C)c1
REMARK SMILES IDX 16 1 15 2 13 3 14 4 12 5 10 6 11 7 83 8 82 9 81 10 9 11 6 13
REMARK SMILES IDX 7 14 8 15 5 16 1 17 2 18 3 19 91 20 4 21 89 22 90 23 84 24
REMARK SMILES IDX 85 25 88 26 86 27 87 28 17 29 18 30 19 31 20 32 21 33 22 34
REMARK SMILES IDX 80 35 23 36 79 37 24 38 25 39 26 40 73 41 27 42 78 43 72 44
REMARK SMILES IDX 74 45 28 46 77 47 71 48 70 49 29 51 59 52 40 53 58 54 41 55
REMARK SMILES IDX 44 56 57 57 75 58 42 59 43 60 56 62 76 63 45 64 30 65 31 66
REMARK SMILES IDX 39 67 32 68 38 69 33 70 34 71 35 72 36 73 37 74 60 75 61 76
REMARK SMILES IDX 69 77 62 78 68 79 63 80 64 81 65 82 66 83 67 84 46 85 47 86
REMARK SMILES IDX 55 87 48 88 54 89 49 90 50 91 51 92 52 93 53 94
REMARK H PARENT 9 12 74 50 44 61
REMARK Flexibility Score: inf
ROOT
ATOM      1  C   UNL     1       2.814  -2.191   3.406  1.00  0.00     0.275 C 
ENDROOT
BRANCH   1   2
ATOM      2  O   UNL     1       1.733  -2.866   2.737  1.00  0.00    -0.458 OA
BRANCH   2   3
ATOM      3  C   UNL     1       1.957  -3.167   1.437  1.00  0.00     0.339 C 
ATOM      4  O   UNL     1       2.936  -2.866   0.776  1.00  0.00    -0.246 OA
BRANCH   3   5
ATOM      5  C   UNL     1       0.835  -3.931   0.870  1.00  0.00     0.080 A 
ATOM      6  C   UNL     1      -1.463  -4.032   0.300  1.00  0.00     0.092 A 
ATOM      7  C   UNL     1      -0.471  -3.573   1.158  1.00  0.00     0.048 A 
ATOM      8  C   UNL     1      -1.181  -5.024  -0.671  1.00  0.00     0.153 A 
ATOM      9  N   UNL     1       0.077  -5.434  -0.890  1.00  0.00    -0.236 NA
ATOM     10  C   UNL     1       1.055  -4.833  -0.167  1.00  0.00     0.129 A 
BRANCH   6  11
ATOM     11  N   UNL     1      -2.756  -3.430   0.336  1.00  0.00    -0.276 N 
ATOM     12  H   UNL     1      -3.528  -3.965   0.631  1.00  0.00     0.180 HD
BRANCH  11  13
ATOM     13  S   UNL     1      -2.991  -1.809  -0.119  1.00  0.00     0.262 S 
ATOM     14  O   UNL     1      -3.643  -1.237   1.045  1.00  0.00    -0.201 OA
ATOM     15  O   UNL     1      -3.678  -1.839  -1.394  1.00  0.00    -0.201 OA
BRANCH  13  16
ATOM     16  C   UNL     1      -1.481  -0.864  -0.389  1.00  0.00     0.090 A 
ATOM     17  C   UNL     1       2.338   1.159  -0.135  1.00  0.00     0.044 C 
ATOM     18  C   UNL     1       1.010   0.477  -0.290  1.00  0.00    -0.051 A 
ATOM     19  C   UNL     1       0.904  -0.782  -0.880  1.00  0.00     0.005 A 
ATOM     20  C   UNL     1      -0.166   1.131   0.077  1.00  0.00     0.008 A 
ATOM     21  C   UNL     1      -0.338  -1.434  -0.958  1.00  0.00     0.023 A 
ATOM     22  C   UNL     1      -1.421   0.491  -0.001  1.00  0.00    -0.030 A 
ATOM     23  C   UNL     1      -2.626   1.365   0.217  1.00  0.00     0.046 C 
ENDBRANCH  13  16
ENDBRANCH  11  13
ENDBRANCH   6  11
BRANCH   8  24
ATOM     24  N   UNL     1      -2.212  -5.566  -1.420  1.00  0.00    -0.355 N 
ATOM     25  C   UNL     1      -2.599  -4.919  -2.665  1.00  0.00     0.118 C 
ATOM     26  C   UNL     1      -2.202  -7.013  -1.656  1.00  0.00     0.118 C 
ATOM     27  C   UNL     1      -3.759  -5.808  -3.091  1.00  0.00     0.023 C 
ATOM     28  C   UNL     1      -3.278  -7.214  -2.735  1.00  0.00     0.023 C 
ENDBRANCH   8  24
ENDBRANCH   3   5
ENDBRANCH   2   3
ENDBRANCH   1   2
BRANCH   1  29
ATOM     29  C   UNL     1       3.607  -3.173   4.268  1.00  0.00     0.275 C 
BRANCH  29  30
ATOM     30  O   UNL     1       4.270  -4.153   3.446  1.00  0.00    -0.458 OA
BRANCH  30  31
ATOM     31  C   UNL     1       3.664  -5.361   3.382  1.00  0.00     0.338 C 
ATOM     32  O   UNL     1       2.656  -5.717   3.973  1.00  0.00    -0.246 OA
BRANCH  31  33
ATOM     33  C   UNL     1       4.333  -6.207   2.385  1.00  0.00     0.060 A 
ATOM     34  C   UNL     1       4.142  -5.913   1.042  1.00  0.00     0.016 A 
ATOM     35  C   UNL     1       5.011  -7.366   2.748  1.00  0.00     0.016 A 
ATOM     36  C   UNL     1       4.506  -6.816   0.055  1.00  0.00     0.010 A 
ATOM     37  C   UNL     1       5.523  -8.200   1.745  1.00  0.00     0.010 A 
ATOM     38  C   UNL     1       5.261  -7.943   0.385  1.00  0.00    -0.014 A 
BRANCH  38  39
ATOM     39  C   UNL     1       5.812  -8.802  -0.699  1.00  0.00     0.031 A 
ATOM     40  C   UNL     1       5.540 -10.280  -0.717  1.00  0.00     0.074 A 
ATOM     41  C   UNL     1       6.581  -8.248  -1.661  1.00  0.00     0.049 A 
ATOM     42  N   UNL     1       6.099 -11.210  -1.446  1.00  0.00    -0.248 NA
ATOM     43  C   UNL     1       4.519 -10.780   0.217  1.00  0.00     0.031 C 
ATOM     44  C   UNL     1       6.883  -6.817  -1.791  1.00  0.00     0.029 A 
ATOM     45  N   UNL     1       7.259  -8.818  -2.710  1.00  0.00    -0.354 N 
ATOM     46  C   UNL     1       5.549 -12.412  -1.016  1.00  0.00     0.074 A 
ATOM     47  C   UNL     1       4.608 -12.091   0.036  1.00  0.00     0.031 C 
ATOM     48  C   UNL     1       7.656  -6.621  -2.867  1.00  0.00     0.029 A 
ATOM     49  C   UNL     1       8.009  -7.915  -3.430  1.00  0.00     0.049 A 
ATOM     50  H   UNL     1       7.214  -9.777  -2.927  1.00  0.00     0.167 HD
ATOM     51  C   UNL     1       5.821 -13.667  -1.451  1.00  0.00     0.031 A 
ATOM     52  C   UNL     1       8.941  -8.098  -4.384  1.00  0.00     0.031 A 
ATOM     53  C   UNL     1       6.749 -13.961  -2.514  1.00  0.00     0.049 A 
ATOM     54  C   UNL     1       9.276  -9.496  -4.804  1.00  0.00     0.074 A 
ATOM     55  C   UNL     1       7.070 -15.193  -3.057  1.00  0.00     0.029 A 
ATOM     56  N   UNL     1       7.509 -13.017  -3.189  1.00  0.00    -0.354 N 
ATOM     57  N   UNL     1       8.756 -10.624  -4.382  1.00  0.00    -0.248 NA
ATOM     58  C   UNL     1      10.330  -9.651  -5.813  1.00  0.00     0.031 C 
ATOM     59  C   UNL     1       8.078 -15.000  -4.008  1.00  0.00     0.029 A 
ATOM     60  C   UNL     1       8.334 -13.642  -4.111  1.00  0.00     0.049 A 
ATOM     61  H   UNL     1       7.469 -12.045  -3.036  1.00  0.00     0.167 HD
ATOM     62  C   UNL     1       9.421 -11.627  -5.074  1.00  0.00     0.074 A 
ATOM     63  C   UNL     1      10.358 -10.969  -5.964  1.00  0.00     0.031 C 
ATOM     64  C   UNL     1       9.273 -12.971  -4.976  1.00  0.00     0.031 A 
BRANCH  51  65
ATOM     65  C   UNL     1       5.167 -14.818  -0.729  1.00  0.00    -0.014 A 
ATOM     66  C   UNL     1       3.787 -15.073  -0.823  1.00  0.00     0.010 A 
ATOM     67  C   UNL     1       5.966 -15.681   0.046  1.00  0.00     0.010 A 
ATOM     68  C   UNL     1       3.213 -16.135  -0.116  1.00  0.00     0.020 A 
ATOM     69  C   UNL     1       5.402 -16.762   0.729  1.00  0.00     0.020 A 
ATOM     70  C   UNL     1       4.024 -16.969   0.660  1.00  0.00     0.054 A 
BRANCH  70  71
ATOM     71  S   UNL     1       3.254 -18.338   1.568  1.00  0.00     0.124 S 
ATOM     72  O   UNL     1       2.530 -17.631   2.622  1.00  0.00    -0.237 OA
ATOM     73  O   UNL     1       2.419 -18.968   0.548  1.00  0.00    -0.237 OA
ATOM     74  O   UNL     1       4.389 -19.138   2.022  1.00  0.00    -0.744 OA
ENDBRANCH  70  71
ENDBRANCH  51  65
BRANCH  52  75
ATOM     75  C   UNL     1       9.675  -6.919  -4.922  1.00  0.00    -0.014 A 
ATOM     76  C   UNL     1       9.472  -6.482  -6.240  1.00  0.00     0.010 A 
ATOM     77  C   UNL     1      10.534  -6.181  -4.082  1.00  0.00     0.010 A 
ATOM     78  C   UNL     1      10.106  -5.325  -6.706  1.00  0.00     0.020 A 
ATOM     79  C   UNL     1      11.141  -5.007  -4.532  1.00  0.00     0.020 A 
ATOM     80  C   UNL     1      10.926  -4.588  -5.845  1.00  0.00     0.054 A 
BRANCH  80  81
ATOM     81  S   UNL     1      11.661  -3.041  -6.444  1.00  0.00     0.124 S 
ATOM     82  O   UNL     1      12.680  -3.526  -7.368  1.00  0.00    -0.237 OA
ATOM     83  O   UNL     1      10.518  -2.368  -7.057  1.00  0.00    -0.237 OA
ATOM     84  O   UNL     1      12.166  -2.408  -5.228  1.00  0.00    -0.744 OA
ENDBRANCH  80  81
ENDBRANCH  52  75
BRANCH  64  85
ATOM     85  C   UNL     1      10.143 -13.822  -5.860  1.00  0.00    -0.014 A 
ATOM     86  C   UNL     1      11.518 -13.964  -5.603  1.00  0.00     0.010 A 
ATOM     87  C   UNL     1       9.565 -14.537  -6.925  1.00  0.00     0.010 A 
ATOM     88  C   UNL     1      12.304 -14.790  -6.409  1.00  0.00     0.020 A 
ATOM     89  C   UNL     1      10.342 -15.388  -7.714  1.00  0.00     0.020 A 
ATOM     90  C   UNL     1      11.710 -15.502  -7.456  1.00  0.00     0.054 A 
BRANCH  90  91
ATOM     91  S   UNL     1      12.742 -16.616  -8.446  1.00  0.00     0.124 S 
ATOM     92  O   UNL     1      13.557 -15.677  -9.211  1.00  0.00    -0.237 OA
ATOM     93  O   UNL     1      13.455 -17.380  -7.425  1.00  0.00    -0.237 OA
ATOM     94  O   UNL     1      11.775 -17.382  -9.228  1.00  0.00    -0.744 OA
ENDBRANCH  90  91
ENDBRANCH  64  85
ENDBRANCH  38  39
ENDBRANCH  31  33
ENDBRANCH  30  31
ENDBRANCH  29  30
ENDBRANCH   1  29
TORSDOF 18
