REMARK SMILES Cc1cc(C(=O)N[C@H](CC(C)C)C(=O)OCCOC(=O)c2ccc(-c3c4nc(c(-c5ccc(S(=O)(=O)[O-])cc5)c5ccc([nH]5)c(-c5ccc(S(=O)(=O)[O-])cc5)c5nc(c(-c6ccc(S(=O)(=O)[O-])cc6)c6ccc3[nH]6)C=C5)C=C4)cc2)sc1Br
REMARK SMILES IDX 17 1 16 2 15 3 13 4 14 5 8 6 7 7 5 8 6 9 4 11 1 12 2 13 3 14
REMARK SMILES IDX 82 15 81 16 83 17 9 18 10 19 11 20 12 21 18 22 19 23 20 24
REMARK SMILES IDX 21 25 22 26 80 27 23 28 79 29 24 30 25 31 26 32 73 33 27 34
REMARK SMILES IDX 78 35 72 36 74 37 28 38 77 39 71 40 70 41 29 43 59 44 40 45
REMARK SMILES IDX 58 46 41 47 44 48 57 49 75 50 42 51 43 52 56 54 76 55 45 56
REMARK SMILES IDX 30 57 31 58 39 59 32 60 38 61 33 62 34 63 35 64 36 65 37 66
REMARK SMILES IDX 60 67 61 68 69 69 62 70 68 71 63 72 64 73 65 74 66 75 67 76
REMARK SMILES IDX 46 77 47 78 55 79 48 80 54 81 49 82 50 83 51 84 52 85 53 86
REMARK H PARENT 7 10 74 42 44 53
REMARK Flexibility Score: inf
ROOT
ATOM      1  C   UNL     1      -3.221  -6.717   3.002  1.00  0.00     0.275 C 
ENDROOT
BRANCH   1   2
ATOM      2  C   UNL     1      -1.780  -7.170   2.793  1.00  0.00     0.274 C 
BRANCH   2   3
ATOM      3  O   UNL     1      -0.770  -6.236   3.218  1.00  0.00    -0.461 OA
BRANCH   3   4
ATOM      4  C   UNL     1      -0.454  -5.239   2.346  1.00  0.00     0.328 C 
ATOM      5  O   UNL     1      -1.041  -4.998   1.296  1.00  0.00    -0.250 OA
BRANCH   4   6
ATOM      6  C   UNL     1       0.772  -4.443   2.775  1.00  0.00     0.192 C 
BRANCH   6   7
ATOM      7  N   UNL     1       2.007  -5.240   2.848  1.00  0.00    -0.338 N 
ATOM      8  C   UNL     1       2.628  -6.095   1.958  1.00  0.00     0.262 C 
ATOM      9  O   UNL     1       3.855  -6.160   2.081  1.00  0.00    -0.268 OA
ATOM     10  H   UNL     1       2.488  -5.145   3.702  1.00  0.00     0.164 HD
BRANCH   8  11
ATOM     11  C   UNL     1       1.889  -6.994   1.075  1.00  0.00     0.093 A 
ATOM     12  C   UNL     1      -1.062  -8.190  -0.950  1.00  0.00     0.046 C 
ATOM     13  C   UNL     1       0.265  -8.072  -0.265  1.00  0.00    -0.025 A 
ATOM     14  C   UNL     1       0.857  -6.826   0.168  1.00  0.00     0.030 A 
ATOM     15  C   UNL     1       1.101  -9.111   0.070  1.00  0.00     0.074 A 
ATOM     16  S   UNL     1       2.408  -8.643   1.038  1.00  0.00    -0.123 S 
ATOM     17  Br  UNL     1       0.838 -10.898  -0.447  1.00  0.00    -0.039 Br
ENDBRANCH   8  11
ENDBRANCH   6   7
BRANCH   6  18
ATOM     18  C   UNL     1       0.434  -3.785   4.139  1.00  0.00     0.040 C 
BRANCH  18  19
ATOM     19  C   UNL     1       1.261  -2.564   4.589  1.00  0.00    -0.015 C 
ATOM     20  C   UNL     1       1.097  -1.365   3.653  1.00  0.00     0.007 C 
ATOM     21  C   UNL     1       0.808  -2.149   5.999  1.00  0.00     0.007 C 
ENDBRANCH  18  19
ENDBRANCH   6  18
ENDBRANCH   4   6
ENDBRANCH   3   4
ENDBRANCH   2   3
ENDBRANCH   1   2
BRANCH   1  22
ATOM     22  O   UNL     1      -3.568  -5.668   2.105  1.00  0.00    -0.458 OA
BRANCH  22  23
ATOM     23  C   UNL     1      -3.309  -4.429   2.570  1.00  0.00     0.338 C 
ATOM     24  O   UNL     1      -2.801  -4.150   3.654  1.00  0.00    -0.246 OA
BRANCH  23  25
ATOM     25  C   UNL     1      -3.809  -3.422   1.635  1.00  0.00     0.060 A 
ATOM     26  C   UNL     1      -3.633  -2.085   2.006  1.00  0.00     0.016 A 
ATOM     27  C   UNL     1      -4.708  -3.811   0.634  1.00  0.00     0.016 A 
ATOM     28  C   UNL     1      -4.566  -1.171   1.582  1.00  0.00     0.010 A 
ATOM     29  C   UNL     1      -5.654  -2.904   0.233  1.00  0.00     0.010 A 
ATOM     30  C   UNL     1      -5.626  -1.631   0.800  1.00  0.00    -0.014 A 
BRANCH  30  31
ATOM     31  C   UNL     1      -6.753  -0.751   0.611  1.00  0.00     0.031 A 
ATOM     32  C   UNL     1      -6.578   0.220  -0.478  1.00  0.00     0.074 A 
ATOM     33  C   UNL     1      -7.896  -0.912   1.302  1.00  0.00     0.049 A 
ATOM     34  N   UNL     1      -6.417   1.495  -0.379  1.00  0.00    -0.248 NA
ATOM     35  C   UNL     1      -6.389  -0.322  -1.832  1.00  0.00     0.031 C 
ATOM     36  C   UNL     1      -8.268  -2.034   2.169  1.00  0.00     0.029 A 
ATOM     37  N   UNL     1      -9.026  -0.162   1.255  1.00  0.00    -0.354 N 
ATOM     38  C   UNL     1      -6.327   1.946  -1.688  1.00  0.00     0.074 A 
ATOM     39  C   UNL     1      -6.082   0.784  -2.505  1.00  0.00     0.031 C 
ATOM     40  C   UNL     1      -9.606  -2.010   2.362  1.00  0.00     0.029 A 
ATOM     41  C   UNL     1     -10.152  -0.817   1.733  1.00  0.00     0.049 A 
ATOM     42  H   UNL     1      -9.046   0.761   0.914  1.00  0.00     0.167 HD
ATOM     43  C   UNL     1      -6.756   3.185  -2.047  1.00  0.00     0.031 A 
ATOM     44  C   UNL     1     -11.439  -0.447   1.518  1.00  0.00     0.031 A 
ATOM     45  C   UNL     1      -6.961   4.042  -0.909  1.00  0.00     0.049 A 
ATOM     46  C   UNL     1     -11.431   0.984   1.114  1.00  0.00     0.074 A 
ATOM     47  C   UNL     1      -6.160   4.500   0.118  1.00  0.00     0.029 A 
ATOM     48  N   UNL     1      -8.260   4.239  -0.500  1.00  0.00    -0.354 N 
ATOM     49  N   UNL     1     -11.094   1.957   1.913  1.00  0.00    -0.248 NA
ATOM     50  C   UNL     1     -11.391   1.312  -0.305  1.00  0.00     0.031 C 
ATOM     51  C   UNL     1      -7.007   4.547   1.262  1.00  0.00     0.029 A 
ATOM     52  C   UNL     1      -8.290   4.160   0.869  1.00  0.00     0.049 A 
ATOM     53  H   UNL     1      -9.033   4.408  -1.087  1.00  0.00     0.167 HD
ATOM     54  C   UNL     1     -10.398   2.854   1.114  1.00  0.00     0.074 A 
ATOM     55  C   UNL     1     -10.723   2.468  -0.255  1.00  0.00     0.031 C 
ATOM     56  C   UNL     1      -9.405   3.636   1.634  1.00  0.00     0.031 A 
BRANCH  43  57
ATOM     57  C   UNL     1      -7.379   3.460  -3.391  1.00  0.00    -0.014 A 
ATOM     58  C   UNL     1      -7.660   4.788  -3.756  1.00  0.00     0.010 A 
ATOM     59  C   UNL     1      -7.935   2.441  -4.195  1.00  0.00     0.010 A 
ATOM     60  C   UNL     1      -8.496   5.075  -4.843  1.00  0.00     0.020 A 
ATOM     61  C   UNL     1      -8.722   2.715  -5.310  1.00  0.00     0.020 A 
ATOM     62  C   UNL     1      -9.029   4.033  -5.605  1.00  0.00     0.054 A 
BRANCH  62  63
ATOM     63  S   UNL     1     -10.192   4.404  -6.937  1.00  0.00     0.124 S 
ATOM     64  O   UNL     1     -11.356   4.873  -6.192  1.00  0.00    -0.237 OA
ATOM     65  O   UNL     1      -9.474   5.419  -7.702  1.00  0.00    -0.237 OA
ATOM     66  O   UNL     1     -10.355   3.119  -7.615  1.00  0.00    -0.744 OA
ENDBRANCH  62  63
ENDBRANCH  43  57
BRANCH  44  67
ATOM     67  C   UNL     1     -12.610  -1.336   1.309  1.00  0.00    -0.014 A 
ATOM     68  C   UNL     1     -13.910  -0.804   1.244  1.00  0.00     0.010 A 
ATOM     69  C   UNL     1     -12.430  -2.674   0.898  1.00  0.00     0.010 A 
ATOM     70  C   UNL     1     -14.972  -1.555   0.712  1.00  0.00     0.020 A 
ATOM     71  C   UNL     1     -13.485  -3.433   0.384  1.00  0.00     0.020 A 
ATOM     72  C   UNL     1     -14.745  -2.858   0.263  1.00  0.00     0.054 A 
BRANCH  72  73
ATOM     73  S   UNL     1     -16.064  -3.747  -0.615  1.00  0.00     0.124 S 
ATOM     74  O   UNL     1     -16.990  -4.073   0.465  1.00  0.00    -0.237 OA
ATOM     75  O   UNL     1     -16.534  -2.751  -1.574  1.00  0.00    -0.237 OA
ATOM     76  O   UNL     1     -15.372  -4.891  -1.206  1.00  0.00    -0.744 OA
ENDBRANCH  72  73
ENDBRANCH  44  67
BRANCH  56  77
ATOM     77  C   UNL     1      -9.307   3.753   3.140  1.00  0.00    -0.014 A 
ATOM     78  C   UNL     1      -9.108   2.652   3.997  1.00  0.00     0.010 A 
ATOM     79  C   UNL     1      -9.288   5.044   3.698  1.00  0.00     0.010 A 
ATOM     80  C   UNL     1      -8.940   2.836   5.377  1.00  0.00     0.020 A 
ATOM     81  C   UNL     1      -9.099   5.235   5.070  1.00  0.00     0.020 A 
ATOM     82  C   UNL     1      -8.939   4.129   5.905  1.00  0.00     0.054 A 
BRANCH  82  83
ATOM     83  S   UNL     1      -8.685   4.362   7.687  1.00  0.00     0.124 S 
ATOM     84  O   UNL     1      -9.927   3.845   8.255  1.00  0.00    -0.237 OA
ATOM     85  O   UNL     1      -7.491   3.562   7.952  1.00  0.00    -0.237 OA
ATOM     86  O   UNL     1      -8.495   5.805   7.826  1.00  0.00    -0.744 OA
ENDBRANCH  82  83
ENDBRANCH  56  77
ENDBRANCH  30  31
ENDBRANCH  23  25
ENDBRANCH  22  23
ENDBRANCH   1  22
TORSDOF 18
