REMARK SMILES Cc1cccc(-n2c(C)cc(/C=N\c3ccc(O)c(C(=O)OCCOC(=O)c4ccc(-c5c6nc(c(-c7ccc(S(=O)(=O)[O-])cc7)c7ccc([nH]7)c(-c7ccc(S(=O)(=O)[O-])cc7)c7nc(c(-c8ccc(S(=O)(=O)[O-])cc8)c8ccc5[nH]8)C=C7)C=C6)cc4)c3)c2C)c1
REMARK SMILES IDX 23 1 22 2 20 3 21 4 19 5 14 6 15 7 88 8 16 9 17 10 13 11
REMARK SMILES IDX 12 12 11 13 7 14 8 15 89 16 9 17 10 18 90 19 6 20 1 21 2 22
REMARK SMILES IDX 3 23 91 24 4 25 5 26 18 27 24 29 25 30 26 31 27 32 28 33
REMARK SMILES IDX 29 34 87 35 30 36 86 37 31 38 32 39 33 40 80 41 34 42 85 43
REMARK SMILES IDX 79 44 81 45 35 46 84 47 78 48 77 49 36 51 66 52 47 53 65 54
REMARK SMILES IDX 48 55 51 56 64 57 82 58 49 59 50 60 63 62 83 63 52 64 37 65
REMARK SMILES IDX 38 66 46 67 39 68 45 69 40 70 41 71 42 72 43 73 44 74 67 75
REMARK SMILES IDX 68 76 76 77 69 78 75 79 70 80 71 81 72 82 73 83 74 84 53 85
REMARK SMILES IDX 54 86 62 87 55 88 61 89 56 90 57 91 58 92 59 93 60 94
REMARK H PARENT 18 28 81 50 51 61
REMARK Flexibility Score: inf
ROOT
ATOM      1  C   UNL     1      -7.368  -2.228   6.731  1.00  0.00     0.275 C 
ENDROOT
BRANCH   1   2
ATOM      2  O   UNL     1      -6.193  -1.886   5.961  1.00  0.00    -0.458 OA
BRANCH   2   3
ATOM      3  C   UNL     1      -6.232  -0.574   5.208  1.00  0.00     0.342 C 
ATOM      4  O   UNL     1      -7.487  -0.457   5.081  1.00  0.00    -0.246 OA
BRANCH   3   5
ATOM      5  C   UNL     1      -4.576   0.675   4.614  1.00  0.00     0.103 A 
ATOM      6  C   UNL     1      -3.642   3.053   3.550  1.00  0.00     0.064 A 
ATOM      7  C   UNL     1      -2.396   2.906   4.085  1.00  0.00     0.032 A 
ATOM      8  C   UNL     1      -4.624   2.068   3.866  1.00  0.00     0.048 A 
ATOM      9  C   UNL     1      -2.090   1.685   4.657  1.00  0.00     0.049 A 
ATOM     10  C   UNL     1      -3.054   0.619   4.804  1.00  0.00     0.130 A 
BRANCH   6  11
ATOM     11  N   UNL     1      -4.013   4.179   2.811  1.00  0.00    -0.256 NA
ATOM     12  C   UNL     1      -3.705   4.432   1.571  1.00  0.00     0.121 C 
BRANCH  12  13
ATOM     13  C   UNL     1      -2.893   3.731   0.574  1.00  0.00     0.014 A 
ATOM     14  N   UNL     1      -1.641   2.277  -0.627  1.00  0.00    -0.318 N 
ATOM     15  C   UNL     1      -1.541   3.495  -1.269  1.00  0.00     0.021 A 
ATOM     16  C   UNL     1      -2.537   2.393   0.433  1.00  0.00     0.029 A 
ATOM     17  C   UNL     1      -0.757   3.690  -2.520  1.00  0.00     0.065 C 
ATOM     18  C   UNL     1      -2.324   4.390  -0.567  1.00  0.00     0.033 A 
ATOM     19  C   UNL     1      -2.896   1.214   1.261  1.00  0.00     0.065 C 
BRANCH  14  20
ATOM     20  C   UNL     1      -0.840   1.131  -0.863  1.00  0.00     0.046 A 
ATOM     21  C   UNL     1       2.692   0.025  -0.002  1.00  0.00     0.044 C 
ATOM     22  C   UNL     1       1.247   0.005  -0.401  1.00  0.00    -0.049 A 
ATOM     23  C   UNL     1       0.598  -1.226  -0.586  1.00  0.00     0.003 A 
ATOM     24  C   UNL     1       0.521   1.194  -0.543  1.00  0.00     0.030 A 
ATOM     25  C   UNL     1      -0.742  -1.274  -0.970  1.00  0.00     0.002 A 
ATOM     26  C   UNL     1      -1.459  -0.093  -1.132  1.00  0.00     0.026 A 
ENDBRANCH  14  20
ENDBRANCH  12  13
ENDBRANCH   6  11
BRANCH  10  27
ATOM     27  O   UNL     1      -2.310  -0.551   5.039  1.00  0.00    -0.507 OA
ATOM     28  H   UNL     1      -1.381  -0.502   5.145  1.00  0.00     0.293 HD
ENDBRANCH  10  27
ENDBRANCH   3   5
ENDBRANCH   2   3
ENDBRANCH   1   2
BRANCH   1  29
ATOM     29  C   UNL     1      -7.399  -1.378   8.015  1.00  0.00     0.275 C 
BRANCH  29  30
ATOM     30  O   UNL     1      -7.357   0.044   7.745  1.00  0.00    -0.458 OA
BRANCH  30  31
ATOM     31  C   UNL     1      -6.156   0.658   7.925  1.00  0.00     0.338 C 
ATOM     32  O   UNL     1      -5.481   0.638   8.944  1.00  0.00    -0.246 OA
BRANCH  31  33
ATOM     33  C   UNL     1      -5.536   0.795   6.583  1.00  0.00     0.060 A 
ATOM     34  C   UNL     1      -6.505   1.454   5.205  1.00  0.00     0.016 A 
ATOM     35  C   UNL     1      -4.478  -0.640   6.326  1.00  0.00     0.016 A 
ATOM     36  C   UNL     1      -6.460   0.614   3.549  1.00  0.00     0.010 A 
ATOM     37  C   UNL     1      -4.463  -1.487   4.695  1.00  0.00     0.010 A 
ATOM     38  C   UNL     1      -5.461  -0.868   3.331  1.00  0.00    -0.014 A 
BRANCH  38  39
ATOM     39  C   UNL     1      -5.906  -1.953   2.454  1.00  0.00     0.031 A 
ATOM     40  C   UNL     1      -4.878  -2.681   1.685  1.00  0.00     0.074 A 
ATOM     41  C   UNL     1      -7.197  -2.376   2.529  1.00  0.00     0.049 A 
ATOM     42  N   UNL     1      -5.147  -3.393   0.653  1.00  0.00    -0.248 NA
ATOM     43  C   UNL     1      -3.443  -2.651   1.975  1.00  0.00     0.031 C 
ATOM     44  C   UNL     1      -7.813  -3.574   1.960  1.00  0.00     0.029 A 
ATOM     45  N   UNL     1      -8.309  -1.726   3.056  1.00  0.00    -0.354 N 
ATOM     46  C   UNL     1      -4.033  -4.142   0.349  1.00  0.00     0.074 A 
ATOM     47  C   UNL     1      -2.972  -3.588   1.146  1.00  0.00     0.031 C 
ATOM     48  C   UNL     1      -9.145  -3.372   1.867  1.00  0.00     0.029 A 
ATOM     49  C   UNL     1      -9.414  -1.998   2.267  1.00  0.00     0.049 A 
ATOM     50  H   UNL     1      -8.310  -1.162   3.863  1.00  0.00     0.167 HD
ATOM     51  C   UNL     1      -4.193  -5.228  -0.455  1.00  0.00     0.031 A 
ATOM     52  C   UNL     1      -9.979  -1.010   1.505  1.00  0.00     0.031 A 
ATOM     53  C   UNL     1      -5.581  -5.304  -0.925  1.00  0.00     0.049 A 
ATOM     54  C   UNL     1      -9.691  -1.263   0.021  1.00  0.00     0.074 A 
ATOM     55  C   UNL     1      -6.689  -6.039  -0.540  1.00  0.00     0.029 A 
ATOM     56  N   UNL     1      -6.076  -4.226  -1.642  1.00  0.00    -0.354 N 
ATOM     57  N   UNL     1      -8.926  -2.235  -0.412  1.00  0.00    -0.248 NA
ATOM     58  C   UNL     1     -10.200  -0.463  -1.092  1.00  0.00     0.031 C 
ATOM     59  C   UNL     1      -7.856  -5.356  -1.013  1.00  0.00     0.029 A 
ATOM     60  C   UNL     1      -7.455  -4.233  -1.716  1.00  0.00     0.049 A 
ATOM     61  H   UNL     1      -5.509  -3.534  -2.053  1.00  0.00     0.167 HD
ATOM     62  C   UNL     1      -8.835  -2.229  -1.775  1.00  0.00     0.074 A 
ATOM     63  C   UNL     1      -9.628  -1.068  -2.154  1.00  0.00     0.031 C 
ATOM     64  C   UNL     1      -8.115  -3.167  -2.470  1.00  0.00     0.031 A 
BRANCH  51  65
ATOM     65  C   UNL     1      -3.173  -6.326  -0.637  1.00  0.00    -0.014 A 
ATOM     66  C   UNL     1      -3.614  -7.597  -1.060  1.00  0.00     0.010 A 
ATOM     67  C   UNL     1      -1.790  -6.201  -0.389  1.00  0.00     0.010 A 
ATOM     68  C   UNL     1      -2.745  -8.692  -1.172  1.00  0.00     0.020 A 
ATOM     69  C   UNL     1      -0.910  -7.295  -0.476  1.00  0.00     0.020 A 
ATOM     70  C   UNL     1      -1.396  -8.538  -0.866  1.00  0.00     0.054 A 
BRANCH  70  71
ATOM     71  S   UNL     1      -0.298  -9.973  -1.005  1.00  0.00     0.124 S 
ATOM     72  O   UNL     1      -0.910 -10.928  -0.085  1.00  0.00    -0.237 OA
ATOM     73  O   UNL     1      -0.400 -10.309  -2.422  1.00  0.00    -0.237 OA
ATOM     74  O   UNL     1       1.003  -9.457  -0.582  1.00  0.00    -0.744 OA
ENDBRANCH  70  71
ENDBRANCH  51  65
BRANCH  52  75
ATOM     75  C   UNL     1     -10.179   0.302   2.236  1.00  0.00    -0.014 A 
ATOM     76  C   UNL     1     -10.902   0.240   3.458  1.00  0.00     0.010 A 
ATOM     77  C   UNL     1      -9.474   1.492   1.985  1.00  0.00     0.010 A 
ATOM     78  C   UNL     1     -10.793   1.227   4.452  1.00  0.00     0.020 A 
ATOM     79  C   UNL     1      -9.369   2.502   2.983  1.00  0.00     0.020 A 
ATOM     80  C   UNL     1      -9.999   2.344   4.225  1.00  0.00     0.054 A 
BRANCH  80  81
ATOM     81  S   UNL     1      -9.678   3.478   5.629  1.00  0.00     0.124 S 
ATOM     82  O   UNL     1     -10.940   4.200   5.751  1.00  0.00    -0.237 OA
ATOM     83  O   UNL     1      -9.374   2.566   6.729  1.00  0.00    -0.237 OA
ATOM     84  O   UNL     1      -8.542   4.274   5.170  1.00  0.00    -0.744 OA
ENDBRANCH  80  81
ENDBRANCH  52  75
BRANCH  64  85
ATOM     85  C   UNL     1      -7.920  -3.163  -3.972  1.00  0.00    -0.014 A 
ATOM     86  C   UNL     1      -8.895  -2.727  -4.876  1.00  0.00     0.010 A 
ATOM     87  C   UNL     1      -6.735  -3.703  -4.533  1.00  0.00     0.010 A 
ATOM     88  C   UNL     1      -8.647  -2.719  -6.257  1.00  0.00     0.020 A 
ATOM     89  C   UNL     1      -6.483  -3.723  -5.901  1.00  0.00     0.020 A 
ATOM     90  C   UNL     1      -7.433  -3.197  -6.757  1.00  0.00     0.054 A 
BRANCH  90  91
ATOM     91  S   UNL     1      -7.120  -3.159  -8.534  1.00  0.00     0.124 S 
ATOM     92  O   UNL     1      -8.329  -3.774  -9.078  1.00  0.00    -0.237 OA
ATOM     93  O   UNL     1      -6.975  -1.728  -8.783  1.00  0.00    -0.237 OA
ATOM     94  O   UNL     1      -5.899  -3.946  -8.694  1.00  0.00    -0.744 OA
ENDBRANCH  90  91
ENDBRANCH  64  85
ENDBRANCH  38  39
ENDBRANCH  31  33
ENDBRANCH  30  31
ENDBRANCH  29  30
ENDBRANCH   1  29
TORSDOF 18
