REMARK SMILES Cc1ccc(S(=O)(=O)n2cc(C(=O)C(=O)N[C@@H](Cc3cnc[nH]3)C(=O)OCCOC(=O)c3ccc(-c4c5nc(c(-c6ccc(S(=O)(=O)[O-])cc6)c6ccc([nH]6)c(-c6ccc(S(=O)(=O)[O-])cc6)c6nc(c(-c7ccc(S(=O)(=O)[O-])cc7)c7ccc4[nH]7)C=C6)C=C5)cc3)c3ccccc32)cc1
REMARK SMILES IDX 27 1 26 2 24 3 25 4 17 5 16 6 14 7 15 8 12 10 13 11 11 12
REMARK SMILES IDX 9 13 10 14 97 15 92 16 96 17 93 18 95 19 94 20 6 21 7 22
REMARK SMILES IDX 8 23 5 24 1 25 2 26 3 27 99 28 4 29 98 30 18 31 19 32 20 33
REMARK SMILES IDX 23 34 21 35 22 36 28 38 29 39 30 40 31 41 32 42 33 43 91 44
REMARK SMILES IDX 34 45 90 46 35 47 36 48 37 49 84 50 38 51 89 52 83 53 85 54
REMARK SMILES IDX 39 55 88 56 82 57 81 58 40 60 70 61 51 62 69 63 52 64 55 65
REMARK SMILES IDX 68 66 86 67 53 68 54 69 67 71 87 72 56 73 41 74 42 75 50 76
REMARK SMILES IDX 43 77 49 78 44 79 45 80 46 81 47 82 48 83 71 84 72 85 80 86
REMARK SMILES IDX 73 87 79 88 74 89 75 90 76 91 77 92 78 93 57 94 58 95 66 96
REMARK SMILES IDX 59 97 65 98 60 99 61 100 62 101 63 102 64 103
REMARK H PARENT 16 9 23 37 85 59 55 70
REMARK Flexibility Score: inf
ROOT
ATOM      1  C   UNL     1      -6.005   8.721   6.709  1.00  0.00     0.274 C 
ENDROOT
BRANCH   1   2
ATOM      2  O   UNL     1      -7.186   8.248   6.050  1.00  0.00    -0.461 OA
BRANCH   2   3
ATOM      3  C   UNL     1      -7.092   7.987   4.616  1.00  0.00     0.329 C 
ATOM      4  O   UNL     1      -6.273   8.849   4.211  1.00  0.00    -0.250 OA
BRANCH   3   5
ATOM      5  C   UNL     1      -8.147   6.336   3.610  1.00  0.00     0.198 C 
BRANCH   5   6
ATOM      6  N   UNL     1      -7.740   4.687   3.543  1.00  0.00    -0.335 N 
ATOM      7  C   UNL     1      -7.174   3.811   2.633  1.00  0.00     0.293 C 
ATOM      8  O   UNL     1      -7.189   2.617   2.937  1.00  0.00    -0.265 OA
ATOM      9  H   UNL     1      -7.971   4.229   4.383  1.00  0.00     0.164 HD
BRANCH   7  10
ATOM     10  C   UNL     1      -6.574   4.230   1.263  1.00  0.00     0.252 C 
ATOM     11  O   UNL     1      -7.085   5.188   0.687  1.00  0.00    -0.283 OA
BRANCH  10  12
ATOM     12  C   UNL     1      -5.524   3.406   0.592  1.00  0.00     0.054 A 
ATOM     13  N   UNL     1      -4.238   1.661  -0.011  1.00  0.00    -0.240 N 
ATOM     14  C   UNL     1      -5.113   2.124   0.941  1.00  0.00     0.117 A 
ATOM     15  C   UNL     1      -4.029   2.602  -0.994  1.00  0.00     0.065 A 
ATOM     16  C   UNL     1      -4.758   3.737  -0.595  1.00  0.00     0.012 A 
ATOM     17  C   UNL     1      -3.260   2.575  -2.175  1.00  0.00     0.028 A 
ATOM     18  C   UNL     1      -4.633   4.903  -1.384  1.00  0.00     0.011 A 
ATOM     19  C   UNL     1      -3.161   3.745  -2.928  1.00  0.00     0.002 A 
ATOM     20  C   UNL     1      -3.824   4.899  -2.529  1.00  0.00     0.001 A 
BRANCH  13  21
ATOM     21  S   UNL     1      -3.609   0.074  -0.035  1.00  0.00     0.268 S 
ATOM     22  O   UNL     1      -3.955  -0.457  -1.343  1.00  0.00    -0.201 OA
ATOM     23  O   UNL     1      -4.066  -0.567   1.184  1.00  0.00    -0.201 OA
BRANCH  21  24
ATOM     24  C   UNL     1      -1.834   0.124   0.048  1.00  0.00     0.088 A 
ATOM     25  C   UNL     1       2.472  -0.027   0.006  1.00  0.00     0.044 C 
ATOM     26  C   UNL     1       0.973   0.028   0.033  1.00  0.00    -0.051 A 
ATOM     27  C   UNL     1       0.228  -1.155  -0.024  1.00  0.00     0.005 A 
ATOM     28  C   UNL     1       0.298   1.253   0.123  1.00  0.00     0.005 A 
ATOM     29  C   UNL     1      -1.168  -1.109  -0.023  1.00  0.00     0.022 A 
ATOM     30  C   UNL     1      -1.102   1.306   0.145  1.00  0.00     0.022 A 
ENDBRANCH  21  24
ENDBRANCH  13  21
ENDBRANCH  10  12
ENDBRANCH   7  10
ENDBRANCH   5   6
BRANCH   5  31
ATOM     31  C   UNL     1      -9.879   5.964   3.388  1.00  0.00     0.092 C 
BRANCH  31  32
ATOM     32  C   UNL     1     -10.625   5.352   4.553  1.00  0.00     0.037 A 
ATOM     33  C   UNL     1     -10.661   4.084   5.090  1.00  0.00     0.134 A 
ATOM     34  N   UNL     1     -11.472   6.072   5.373  1.00  0.00    -0.348 N 
ATOM     35  N   UNL     1     -11.287   4.087   6.313  1.00  0.00    -0.245 NA
ATOM     36  C   UNL     1     -11.707   5.317   6.485  1.00  0.00     0.196 A 
ATOM     37  H   UNL     1     -11.839   6.966   5.189  1.00  0.00     0.167 HD
ENDBRANCH  31  32
ENDBRANCH   5  31
ENDBRANCH   3   5
ENDBRANCH   2   3
ENDBRANCH   1   2
BRANCH   1  38
ATOM     38  C   UNL     1      -5.099   7.528   7.031  1.00  0.00     0.275 C 
BRANCH  38  39
ATOM     39  O   UNL     1      -4.433   6.872   5.916  1.00  0.00    -0.458 OA
BRANCH  39  40
ATOM     40  C   UNL     1      -4.952   5.825   5.220  1.00  0.00     0.338 C 
ATOM     41  O   UNL     1      -4.379   4.772   4.995  1.00  0.00    -0.246 OA
BRANCH  40  42
ATOM     42  C   UNL     1      -6.234   6.127   4.580  1.00  0.00     0.060 A 
ATOM     43  C   UNL     1      -6.222   6.996   3.000  1.00  0.00     0.016 A 
ATOM     44  C   UNL     1      -7.680   6.204   5.637  1.00  0.00     0.016 A 
ATOM     45  C   UNL     1      -7.574   8.146   2.573  1.00  0.00     0.010 A 
ATOM     46  C   UNL     1      -8.985   7.379   5.227  1.00  0.00     0.010 A 
ATOM     47  C   UNL     1      -8.907   8.379   3.730  1.00  0.00    -0.014 A 
BRANCH  47  48
ATOM     48  C   UNL     1      -9.692   9.602   3.960  1.00  0.00     0.031 A 
ATOM     49  C   UNL     1     -11.132   9.395   4.172  1.00  0.00     0.074 A 
ATOM     50  C   UNL     1      -9.060  10.669   4.495  1.00  0.00     0.049 A 
ATOM     51  N   UNL     1     -11.735   9.494   5.313  1.00  0.00    -0.248 NA
ATOM     52  C   UNL     1     -11.955   8.825   3.099  1.00  0.00     0.031 C 
ATOM     53  C   UNL     1      -9.604  11.746   5.313  1.00  0.00     0.029 A 
ATOM     54  N   UNL     1      -7.793  11.119   4.194  1.00  0.00    -0.354 N 
ATOM     55  C   UNL     1     -13.065   9.200   5.087  1.00  0.00     0.074 A 
ATOM     56  C   UNL     1     -13.101   8.605   3.751  1.00  0.00     0.031 C 
ATOM     57  C   UNL     1      -8.811  12.830   5.202  1.00  0.00     0.029 A 
ATOM     58  C   UNL     1      -7.770  12.517   4.232  1.00  0.00     0.049 A 
ATOM     59  H   UNL     1      -7.021  10.544   3.985  1.00  0.00     0.167 HD
ATOM     60  C   UNL     1     -14.031  10.107   5.385  1.00  0.00     0.031 A 
ATOM     61  C   UNL     1      -7.608  13.159   3.032  1.00  0.00     0.031 A 
ATOM     62  C   UNL     1     -13.593  11.476   5.245  1.00  0.00     0.049 A 
ATOM     63  C   UNL     1      -8.949  13.620   2.466  1.00  0.00     0.074 A 
ATOM     64  C   UNL     1     -13.095  12.436   6.103  1.00  0.00     0.029 A 
ATOM     65  N   UNL     1     -13.387  11.951   3.961  1.00  0.00    -0.354 N 
ATOM     66  N   UNL     1     -10.109  13.291   2.978  1.00  0.00    -0.248 NA
ATOM     67  C   UNL     1      -9.104  14.479   1.294  1.00  0.00     0.031 C 
ATOM     68  C   UNL     1     -12.528  13.474   5.302  1.00  0.00     0.029 A 
ATOM     69  C   UNL     1     -12.728  13.162   3.966  1.00  0.00     0.049 A 
ATOM     70  H   UNL     1     -13.675  11.481   3.145  1.00  0.00     0.167 HD
ATOM     71  C   UNL     1     -11.122  13.901   2.300  1.00  0.00     0.074 A 
ATOM     72  C   UNL     1     -10.445  14.572   1.201  1.00  0.00     0.031 C 
ATOM     73  C   UNL     1     -12.428  13.832   2.704  1.00  0.00     0.031 A 
BRANCH  60  74
ATOM     74  C   UNL     1     -15.244   9.600   6.106  1.00  0.00    -0.014 A 
ATOM     75  C   UNL     1     -16.134  10.517   6.688  1.00  0.00     0.010 A 
ATOM     76  C   UNL     1     -15.502   8.222   6.309  1.00  0.00     0.010 A 
ATOM     77  C   UNL     1     -17.199  10.087   7.489  1.00  0.00     0.020 A 
ATOM     78  C   UNL     1     -16.570   7.783   7.105  1.00  0.00     0.020 A 
ATOM     79  C   UNL     1     -17.401   8.723   7.708  1.00  0.00     0.054 A 
BRANCH  79  80
ATOM     80  S   UNL     1     -18.741   8.213   8.819  1.00  0.00     0.124 S 
ATOM     81  O   UNL     1     -18.323   8.794  10.093  1.00  0.00    -0.237 OA
ATOM     82  O   UNL     1     -19.913   8.826   8.201  1.00  0.00    -0.237 OA
ATOM     83  O   UNL     1     -18.703   6.753   8.764  1.00  0.00    -0.744 OA
ENDBRANCH  79  80
ENDBRANCH  60  74
BRANCH  61  84
ATOM     84  C   UNL     1      -6.441  12.560   2.290  1.00  0.00    -0.014 A 
ATOM     85  C   UNL     1      -5.190  12.623   2.959  1.00  0.00     0.010 A 
ATOM     86  C   UNL     1      -6.610  11.577   1.301  1.00  0.00     0.010 A 
ATOM     87  C   UNL     1      -4.234  11.611   2.809  1.00  0.00     0.020 A 
ATOM     88  C   UNL     1      -5.617  10.593   1.105  1.00  0.00     0.020 A 
ATOM     89  C   UNL     1      -4.471  10.576   1.909  1.00  0.00     0.054 A 
BRANCH  89  90
ATOM     90  S   UNL     1      -3.321   9.162   1.899  1.00  0.00     0.124 S 
ATOM     91  O   UNL     1      -2.068   9.785   1.484  1.00  0.00    -0.237 OA
ATOM     92  O   UNL     1      -3.350   8.696   3.283  1.00  0.00    -0.237 OA
ATOM     93  O   UNL     1      -3.909   8.245   0.924  1.00  0.00    -0.744 OA
ENDBRANCH  89  90
ENDBRANCH  61  84
BRANCH  73  94
ATOM     94  C   UNL     1     -13.556  14.439   1.916  1.00  0.00    -0.014 A 
ATOM     95  C   UNL     1     -13.433  15.675   1.266  1.00  0.00     0.010 A 
ATOM     96  C   UNL     1     -14.812  13.796   1.850  1.00  0.00     0.010 A 
ATOM     97  C   UNL     1     -14.460  16.168   0.457  1.00  0.00     0.020 A 
ATOM     98  C   UNL     1     -15.862  14.300   1.081  1.00  0.00     0.020 A 
ATOM     99  C   UNL     1     -15.661  15.464   0.353  1.00  0.00     0.054 A 
BRANCH  99 100
ATOM    100  S   UNL     1     -16.962  16.112  -0.718  1.00  0.00     0.124 S 
ATOM    101  O   UNL     1     -17.010  17.521  -0.337  1.00  0.00    -0.237 OA
ATOM    102  O   UNL     1     -16.418  15.838  -2.046  1.00  0.00    -0.237 OA
ATOM    103  O   UNL     1     -18.137  15.328  -0.350  1.00  0.00    -0.744 OA
ENDBRANCH  99 100
ENDBRANCH  73  94
ENDBRANCH  47  48
ENDBRANCH  40  42
ENDBRANCH  39  40
ENDBRANCH  38  39
ENDBRANCH   1  38
TORSDOF 21
