REMARK SMILES CCCCCCNC(=O)Oc1cccc(-c2ccc([C@@H](C)C(=O)OCCOC(=O)c3ccc(-c4c5nc(c(-c6ccc(S(=O)(=O)[O-])cc6)c6ccc([nH]6)c(-c6ccc(S(=O)(=O)[O-])cc6)c6nc(c(-c7ccc(S(=O)(=O)[O-])cc7)c7ccc4[nH]7)C=C6)C=C5)cc3)cc2C(F)(F)F)c1
REMARK SMILES IDX 20 1 21 2 19 3 16 4 17 5 91 6 18 7 90 8 15 9 11 10 12 11
REMARK SMILES IDX 96 12 13 13 14 14 10 15 8 16 7 17 9 19 6 20 5 21 4 22 3 23
REMARK SMILES IDX 2 24 1 25 92 26 93 27 94 28 95 29 22 30 23 31 24 32 25 33
REMARK SMILES IDX 26 34 27 35 28 36 29 37 30 38 31 39 89 40 32 41 88 42 33 43
REMARK SMILES IDX 34 44 35 45 82 46 36 47 87 48 81 49 83 50 37 51 86 52 80 53
REMARK SMILES IDX 79 54 38 56 68 57 49 58 67 59 50 60 53 61 66 62 84 63 51 64
REMARK SMILES IDX 52 65 65 67 85 68 54 69 39 70 40 71 48 72 41 73 47 74 42 75
REMARK SMILES IDX 43 76 44 77 45 78 46 79 69 80 70 81 78 82 71 83 77 84 72 85
REMARK SMILES IDX 73 86 74 87 75 88 76 89 55 90 56 91 64 92 57 93 63 94 58 95
REMARK SMILES IDX 59 96 60 97 61 98 62 99
REMARK H PARENT 7 18 83 55 53 66
REMARK Flexibility Score: inf
ROOT
ATOM      1  C   UNL     1      -4.654 -12.650  -5.589  1.00  0.00     0.126 C 
ATOM      2  C   UNL     1      -5.867 -13.309  -6.242  1.00  0.00     0.025 C 
ENDROOT
BRANCH   1   3
ATOM      3  C   UNL     1      -4.721 -11.130  -5.645  1.00  0.00    -0.033 A 
ATOM      4  C   UNL     1      -4.849  -8.280  -5.676  1.00  0.00    -0.006 A 
ATOM      5  C   UNL     1      -4.850  -9.037  -6.864  1.00  0.00     0.009 A 
ATOM      6  C   UNL     1      -4.792  -8.972  -4.448  1.00  0.00     0.064 A 
ATOM      7  C   UNL     1      -4.798 -10.433  -6.852  1.00  0.00     0.005 A 
ATOM      8  C   UNL     1      -4.717 -10.385  -4.455  1.00  0.00     0.018 A 
BRANCH   4   9
ATOM      9  C   UNL     1      -4.950  -6.814  -5.778  1.00  0.00    -0.014 A 
ATOM     10  C   UNL     1      -4.108  -4.580  -5.363  1.00  0.00     0.133 A 
ATOM     11  C   UNL     1      -5.244  -4.013  -5.937  1.00  0.00     0.047 A 
ATOM     12  C   UNL     1      -3.949  -5.965  -5.282  1.00  0.00     0.056 A 
ATOM     13  C   UNL     1      -6.232  -4.843  -6.455  1.00  0.00     0.004 A 
ATOM     14  C   UNL     1      -6.087  -6.229  -6.371  1.00  0.00     0.009 A 
BRANCH  10  15
ATOM     15  O   UNL     1      -3.214  -3.696  -4.735  1.00  0.00    -0.410 OA
BRANCH  15  16
ATOM     16  C   UNL     1      -1.863  -3.792  -5.030  1.00  0.00     0.412 C 
ATOM     17  N   UNL     1      -1.090  -2.962  -4.264  1.00  0.00    -0.321 N 
ATOM     18  H   UNL     1      -0.119  -2.990  -4.428  1.00  0.00     0.167 HD
ATOM     19  O   UNL     1      -1.364  -4.507  -5.891  1.00  0.00    -0.224 OA
BRANCH  17  20
ATOM     20  C   UNL     1      -1.548  -2.046  -3.237  1.00  0.00     0.119 C 
BRANCH  20  21
ATOM     21  C   UNL     1      -0.937  -2.348  -1.870  1.00  0.00     0.021 C 
BRANCH  21  22
ATOM     22  C   UNL     1       0.591  -2.228  -1.799  1.00  0.00     0.002 C 
BRANCH  22  23
ATOM     23  C   UNL     1       1.171  -0.870  -2.209  1.00  0.00    -0.000 C 
BRANCH  23  24
ATOM     24  C   UNL     1       0.679   0.329  -1.395  1.00  0.00    -0.003 C 
ATOM     25  C   UNL     1       1.058   0.256   0.076  1.00  0.00     0.004 C 
ENDBRANCH  23  24
ENDBRANCH  22  23
ENDBRANCH  21  22
ENDBRANCH  20  21
ENDBRANCH  17  20
ENDBRANCH  15  16
ENDBRANCH  10  15
ENDBRANCH   4   9
BRANCH   6  26
ATOM     26  C   UNL     1      -4.783  -8.275  -3.103  1.00  0.00     0.417 C 
ATOM     27  F   UNL     1      -5.283  -9.065  -2.106  1.00  0.00    -0.166 F 
ATOM     28  F   UNL     1      -3.529  -7.931  -2.700  1.00  0.00    -0.166 F 
ATOM     29  F   UNL     1      -5.530  -7.138  -3.048  1.00  0.00    -0.166 F 
ENDBRANCH   6  26
ENDBRANCH   1   3
BRANCH   1  30
ATOM     30  C   UNL     1      -3.371 -13.289  -6.109  1.00  0.00     0.313 C 
ATOM     31  O   UNL     1      -2.958 -14.361  -5.679  1.00  0.00    -0.252 OA
BRANCH  30  32
ATOM     32  O   UNL     1      -2.777 -12.592  -7.112  1.00  0.00    -0.462 OA
BRANCH  32  33
ATOM     33  C   UNL     1      -1.528 -13.110  -7.610  1.00  0.00     0.274 C 
BRANCH  33  34
ATOM     34  C   UNL     1      -0.334 -12.339  -7.040  1.00  0.00     0.275 C 
BRANCH  34  35
ATOM     35  O   UNL     1      -0.156 -12.603  -5.637  1.00  0.00    -0.458 OA
BRANCH  35  36
ATOM     36  C   UNL     1      -0.750 -11.711  -4.811  1.00  0.00     0.338 C 
ATOM     37  O   UNL     1      -1.367 -10.709  -5.128  1.00  0.00    -0.246 OA
BRANCH  36  38
ATOM     38  C   UNL     1      -0.669 -12.186  -3.423  1.00  0.00     0.060 A 
ATOM     39  C   UNL     1      -1.864 -12.496  -2.772  1.00  0.00     0.016 A 
ATOM     40  C   UNL     1       0.546 -12.231  -2.739  1.00  0.00     0.016 A 
ATOM     41  C   UNL     1      -1.859 -12.829  -1.421  1.00  0.00     0.010 A 
ATOM     42  C   UNL     1       0.553 -12.577  -1.383  1.00  0.00     0.010 A 
ATOM     43  C   UNL     1      -0.651 -12.858  -0.713  1.00  0.00    -0.014 A 
BRANCH  43  44
ATOM     44  C   UNL     1      -0.672 -13.128   0.744  1.00  0.00     0.031 A 
ATOM     45  C   UNL     1      -0.453 -12.004   1.717  1.00  0.00     0.074 A 
ATOM     46  C   UNL     1      -0.925 -14.373   1.191  1.00  0.00     0.049 A 
ATOM     47  N   UNL     1      -0.403 -12.041   3.024  1.00  0.00    -0.248 NA
ATOM     48  C   UNL     1      -0.263 -10.662   1.144  1.00  0.00     0.031 C 
ATOM     49  C   UNL     1      -1.193 -15.536   0.343  1.00  0.00     0.029 A 
ATOM     50  N   UNL     1      -1.003 -14.864   2.469  1.00  0.00    -0.354 N 
ATOM     51  C   UNL     1      -0.156 -10.736   3.431  1.00  0.00     0.074 A 
ATOM     52  C   UNL     1      -0.050  -9.933   2.231  1.00  0.00     0.031 C 
ATOM     53  C   UNL     1      -1.412 -16.605   1.126  1.00  0.00     0.029 A 
ATOM     54  C   UNL     1      -1.261 -16.212   2.525  1.00  0.00     0.049 A 
ATOM     55  H   UNL     1      -0.885 -14.304   3.270  1.00  0.00     0.167 HD
ATOM     56  C   UNL     1      -0.030 -10.250   4.689  1.00  0.00     0.031 A 
ATOM     57  C   UNL     1      -1.347 -17.042   3.582  1.00  0.00     0.031 A 
ATOM     58  C   UNL     1      -0.139 -11.052   5.879  1.00  0.00     0.049 A 
ATOM     59  C   UNL     1      -1.167 -16.488   4.968  1.00  0.00     0.074 A 
ATOM     60  C   UNL     1      -0.035 -10.653   7.201  1.00  0.00     0.029 A 
ATOM     61  N   UNL     1      -0.379 -12.419   5.893  1.00  0.00    -0.354 N 
ATOM     62  N   UNL     1      -0.933 -15.250   5.335  1.00  0.00    -0.248 NA
ATOM     63  C   UNL     1      -1.266 -17.441   6.081  1.00  0.00     0.031 C 
ATOM     64  C   UNL     1      -0.171 -11.786   8.012  1.00  0.00     0.029 A 
ATOM     65  C   UNL     1      -0.408 -12.882   7.198  1.00  0.00     0.049 A 
ATOM     66  H   UNL     1      -0.509 -12.977   5.093  1.00  0.00     0.167 HD
ATOM     67  C   UNL     1      -0.873 -15.273   6.723  1.00  0.00     0.074 A 
ATOM     68  C   UNL     1      -1.111 -16.643   7.130  1.00  0.00     0.031 C 
ATOM     69  C   UNL     1      -0.641 -14.251   7.584  1.00  0.00     0.031 A 
BRANCH  56  70
ATOM     70  C   UNL     1       0.282  -8.785   4.835  1.00  0.00    -0.014 A 
ATOM     71  C   UNL     1      -0.693  -7.802   4.588  1.00  0.00     0.010 A 
ATOM     72  C   UNL     1       1.569  -8.387   5.241  1.00  0.00     0.010 A 
ATOM     73  C   UNL     1      -0.372  -6.445   4.699  1.00  0.00     0.020 A 
ATOM     74  C   UNL     1       1.886  -7.033   5.375  1.00  0.00     0.020 A 
ATOM     75  C   UNL     1       0.919  -6.069   5.083  1.00  0.00     0.054 A 
BRANCH  75  76
ATOM     76  S   UNL     1       1.312  -4.303   5.219  1.00  0.00     0.124 S 
ATOM     77  O   UNL     1       1.442  -3.914   3.817  1.00  0.00    -0.237 OA
ATOM     78  O   UNL     1       0.145  -3.764   5.913  1.00  0.00    -0.237 OA
ATOM     79  O   UNL     1       2.554  -4.283   5.988  1.00  0.00    -0.744 OA
ENDBRANCH  75  76
ENDBRANCH  56  70
BRANCH  57  80
ATOM     80  C   UNL     1      -1.594 -18.492   3.361  1.00  0.00    -0.014 A 
ATOM     81  C   UNL     1      -2.834 -19.068   3.687  1.00  0.00     0.010 A 
ATOM     82  C   UNL     1      -0.591 -19.300   2.795  1.00  0.00     0.010 A 
ATOM     83  C   UNL     1      -3.062 -20.429   3.459  1.00  0.00     0.020 A 
ATOM     84  C   UNL     1      -0.824 -20.654   2.543  1.00  0.00     0.020 A 
ATOM     85  C   UNL     1      -2.057 -21.213   2.886  1.00  0.00     0.054 A 
BRANCH  85  86
ATOM     86  S   UNL     1      -2.395 -22.961   2.535  1.00  0.00     0.124 S 
ATOM     87  O   UNL     1      -2.272 -23.565   3.858  1.00  0.00    -0.237 OA
ATOM     88  O   UNL     1      -3.747 -22.919   1.982  1.00  0.00    -0.237 OA
ATOM     89  O   UNL     1      -1.351 -23.324   1.579  1.00  0.00    -0.744 OA
ENDBRANCH  85  86
ENDBRANCH  57  80
BRANCH  69  90
ATOM     90  C   UNL     1      -0.659 -14.572   9.053  1.00  0.00    -0.014 A 
ATOM     91  C   UNL     1       0.409 -15.257   9.660  1.00  0.00     0.010 A 
ATOM     92  C   UNL     1      -1.740 -14.144   9.845  1.00  0.00     0.010 A 
ATOM     93  C   UNL     1       0.381 -15.535  11.029  1.00  0.00     0.020 A 
ATOM     94  C   UNL     1      -1.761 -14.401  11.218  1.00  0.00     0.020 A 
ATOM     95  C   UNL     1      -0.707 -15.109  11.799  1.00  0.00     0.054 A 
BRANCH  95  96
ATOM     96  S   UNL     1      -0.706 -15.447  13.582  1.00  0.00     0.124 S 
ATOM     97  O   UNL     1      -1.074 -16.860  13.622  1.00  0.00    -0.237 OA
ATOM     98  O   UNL     1       0.670 -15.145  13.968  1.00  0.00    -0.237 OA
ATOM     99  O   UNL     1      -1.710 -14.525  14.108  1.00  0.00    -0.744 OA
ENDBRANCH  95  96
ENDBRANCH  69  90
ENDBRANCH  43  44
ENDBRANCH  36  38
ENDBRANCH  35  36
ENDBRANCH  34  35
ENDBRANCH  33  34
ENDBRANCH  32  33
ENDBRANCH  30  32
ENDBRANCH   1  30
TORSDOF 24
