REMARK SMILES O=C(OCCOC(=O)[C@@H](NC(=O)c1cscn1)c1ccccc1C(F)(F)F)c1ccc(-c2c3nc(c(-c4ccc(S(=O)(=O)[O-])cc4)c4ccc([nH]4)c(-c4ccc(S(=O)(=O)[O-])cc4)c4nc(c(-c5ccc(S(=O)(=O)[O-])cc5)c5ccc2[nH]5)C=C4)C=C3)cc1
REMARK SMILES IDX 4 1 3 2 2 3 1 4 28 5 29 6 87 7 30 8 86 9 31 10 32 11 33 12
REMARK SMILES IDX 80 13 34 14 85 15 79 16 81 17 35 18 84 19 78 20 77 21 36 23
REMARK SMILES IDX 66 24 47 25 65 26 48 27 51 28 64 29 82 30 49 31 50 32 63 34
REMARK SMILES IDX 83 35 52 36 37 37 38 38 46 39 39 40 45 41 40 42 41 43 42 44
REMARK SMILES IDX 43 45 44 46 67 47 68 48 76 49 69 50 75 51 70 52 71 53 72 54
REMARK SMILES IDX 73 55 74 56 53 57 54 58 62 59 55 60 61 61 56 62 57 63 58 64
REMARK SMILES IDX 59 65 60 66 5 67 6 68 7 69 8 70 9 71 10 72 11 73 12 75 13 76
REMARK SMILES IDX 14 77 17 78 15 79 16 80 18 81 19 82 23 83 20 84 22 85 21 86
REMARK SMILES IDX 24 87 25 88 26 89 27 90
REMARK H PARENT 81 22 51 33 10 74
REMARK Flexibility Score: inf
ROOT
ATOM      1  C   UNL     1       4.511   0.731   0.983  1.00  0.00     0.275 C 
ENDROOT
BRANCH   1   2
ATOM      2  O   UNL     1       3.703   1.657   0.223  1.00  0.00    -0.458 OA
BRANCH   2   3
ATOM      3  C   UNL     1       2.889   1.321  -0.806  1.00  0.00     0.338 C 
ATOM      4  O   UNL     1       1.697   1.610  -0.766  1.00  0.00    -0.246 OA
BRANCH   3   5
ATOM      5  C   UNL     1       3.482   0.797  -2.085  1.00  0.00     0.060 A 
ATOM      6  C   UNL     1       4.751   0.233  -2.211  1.00  0.00     0.016 A 
ATOM      7  C   UNL     1       2.682   0.861  -3.243  1.00  0.00     0.016 A 
ATOM      8  C   UNL     1       5.204  -0.255  -3.444  1.00  0.00     0.010 A 
ATOM      9  C   UNL     1       3.143   0.399  -4.489  1.00  0.00     0.010 A 
ATOM     10  C   UNL     1       4.417  -0.156  -4.602  1.00  0.00    -0.014 A 
BRANCH  10  11
ATOM     11  C   UNL     1       5.038  -0.523  -5.903  1.00  0.00     0.031 A 
ATOM     12  C   UNL     1       6.092   0.376  -6.469  1.00  0.00     0.074 A 
ATOM     13  C   UNL     1       4.735  -1.659  -6.558  1.00  0.00     0.049 A 
ATOM     14  N   UNL     1       6.920   0.154  -7.453  1.00  0.00    -0.248 NA
ATOM     15  C   UNL     1       6.175   1.726  -5.891  1.00  0.00     0.031 C 
ATOM     16  C   UNL     1       3.618  -2.531  -6.251  1.00  0.00     0.029 A 
ATOM     17  N   UNL     1       5.405  -2.330  -7.558  1.00  0.00    -0.354 N 
ATOM     18  C   UNL     1       7.525   1.375  -7.705  1.00  0.00     0.074 A 
ATOM     19  C   UNL     1       7.067   2.297  -6.686  1.00  0.00     0.031 C 
ATOM     20  C   UNL     1       3.800  -3.712  -6.865  1.00  0.00     0.029 A 
ATOM     21  C   UNL     1       5.031  -3.660  -7.636  1.00  0.00     0.049 A 
ATOM     22  H   UNL     1       6.073  -1.912  -8.149  1.00  0.00     0.167 HD
ATOM     23  C   UNL     1       8.293   1.720  -8.766  1.00  0.00     0.031 A 
ATOM     24  C   UNL     1       5.669  -4.708  -8.199  1.00  0.00     0.031 A 
ATOM     25  C   UNL     1       8.681   0.807  -9.805  1.00  0.00     0.049 A 
ATOM     26  C   UNL     1       6.819  -4.406  -9.118  1.00  0.00     0.074 A 
ATOM     27  C   UNL     1       9.335   1.068 -10.995  1.00  0.00     0.029 A 
ATOM     28  N   UNL     1       8.442  -0.557  -9.771  1.00  0.00    -0.354 N 
ATOM     29  N   UNL     1       7.402  -3.255  -9.346  1.00  0.00    -0.248 NA
ATOM     30  C   UNL     1       7.335  -5.521  -9.926  1.00  0.00     0.031 C 
ATOM     31  C   UNL     1       9.478  -0.142 -11.689  1.00  0.00     0.029 A 
ATOM     32  C   UNL     1       8.943  -1.156 -10.912  1.00  0.00     0.049 A 
ATOM     33  H   UNL     1       7.983  -1.032  -9.040  1.00  0.00     0.167 HD
ATOM     34  C   UNL     1       8.254  -3.482 -10.415  1.00  0.00     0.074 A 
ATOM     35  C   UNL     1       8.234  -4.905 -10.682  1.00  0.00     0.031 C 
ATOM     36  C   UNL     1       8.903  -2.569 -11.176  1.00  0.00     0.031 A 
BRANCH  23  37
ATOM     37  C   UNL     1       8.577   3.184  -8.918  1.00  0.00    -0.014 A 
ATOM     38  C   UNL     1       9.546   3.836  -8.139  1.00  0.00     0.010 A 
ATOM     39  C   UNL     1       7.775   3.933  -9.799  1.00  0.00     0.010 A 
ATOM     40  C   UNL     1       9.666   5.228  -8.195  1.00  0.00     0.020 A 
ATOM     41  C   UNL     1       7.905   5.320  -9.871  1.00  0.00     0.020 A 
ATOM     42  C   UNL     1       8.830   5.961  -9.046  1.00  0.00     0.054 A 
BRANCH  42  43
ATOM     43  S   UNL     1       8.957   7.769  -9.063  1.00  0.00     0.124 S 
ATOM     44  O   UNL     1       8.188   8.133  -7.876  1.00  0.00    -0.237 OA
ATOM     45  O   UNL     1      10.397   7.996  -8.972  1.00  0.00    -0.237 OA
ATOM     46  O   UNL     1       8.351   8.144 -10.339  1.00  0.00    -0.744 OA
ENDBRANCH  42  43
ENDBRANCH  23  37
BRANCH  24  47
ATOM     47  C   UNL     1       5.322  -6.126  -7.887  1.00  0.00    -0.014 A 
ATOM     48  C   UNL     1       6.293  -6.931  -7.250  1.00  0.00     0.010 A 
ATOM     49  C   UNL     1       4.080  -6.700  -8.198  1.00  0.00     0.010 A 
ATOM     50  C   UNL     1       6.031  -8.265  -6.926  1.00  0.00     0.020 A 
ATOM     51  C   UNL     1       3.802  -8.030  -7.851  1.00  0.00     0.020 A 
ATOM     52  C   UNL     1       4.782  -8.806  -7.223  1.00  0.00     0.054 A 
BRANCH  52  53
ATOM     53  S   UNL     1       4.392 -10.498  -6.693  1.00  0.00     0.124 S 
ATOM     54  O   UNL     1       4.754 -11.278  -7.871  1.00  0.00    -0.237 OA
ATOM     55  O   UNL     1       5.246 -10.682  -5.522  1.00  0.00    -0.237 OA
ATOM     56  O   UNL     1       2.963 -10.420  -6.395  1.00  0.00    -0.744 OA
ENDBRANCH  52  53
ENDBRANCH  24  47
BRANCH  36  57
ATOM     57  C   UNL     1       9.530  -3.075 -12.440  1.00  0.00    -0.014 A 
ATOM     58  C   UNL     1       8.707  -3.408 -13.533  1.00  0.00     0.010 A 
ATOM     59  C   UNL     1      10.923  -3.167 -12.568  1.00  0.00     0.010 A 
ATOM     60  C   UNL     1       9.268  -3.844 -14.732  1.00  0.00     0.020 A 
ATOM     61  C   UNL     1      11.489  -3.590 -13.774  1.00  0.00     0.020 A 
ATOM     62  C   UNL     1      10.657  -3.933 -14.845  1.00  0.00     0.054 A 
BRANCH  62  63
ATOM     63  S   UNL     1      11.368  -4.441 -16.433  1.00  0.00     0.124 S 
ATOM     64  O   UNL     1      11.163  -5.887 -16.409  1.00  0.00    -0.237 OA
ATOM     65  O   UNL     1      10.556  -3.707 -17.401  1.00  0.00    -0.237 OA
ATOM     66  O   UNL     1      12.760  -4.006 -16.341  1.00  0.00    -0.744 OA
ENDBRANCH  62  63
ENDBRANCH  36  57
ENDBRANCH  10  11
ENDBRANCH   3   5
ENDBRANCH   2   3
ENDBRANCH   1   2
BRANCH   1  67
ATOM     67  C   UNL     1       3.839  -0.574   1.403  1.00  0.00     0.274 C 
BRANCH  67  68
ATOM     68  O   UNL     1       3.369  -1.315   0.272  1.00  0.00    -0.460 OA
BRANCH  68  69
ATOM     69  C   UNL     1       2.785  -2.505   0.606  1.00  0.00     0.333 C 
ATOM     70  O   UNL     1       2.622  -2.889   1.759  1.00  0.00    -0.249 OA
BRANCH  69  71
ATOM     71  C   UNL     1       2.413  -3.336  -0.640  1.00  0.00     0.224 C 
BRANCH  71  72
ATOM     72  N   UNL     1       2.590  -2.631  -1.913  1.00  0.00    -0.334 N 
ATOM     73  C   UNL     1       2.165  -3.158  -3.113  1.00  0.00     0.271 C 
ATOM     74  H   UNL     1       3.027  -1.749  -1.910  1.00  0.00     0.165 HD
ATOM     75  O   UNL     1       1.274  -2.582  -3.733  1.00  0.00    -0.267 OA
BRANCH  73  76
ATOM     76  C   UNL     1       2.876  -4.338  -3.606  1.00  0.00     0.139 A 
ATOM     77  C   UNL     1       4.258  -4.420  -3.687  1.00  0.00     0.100 A 
ATOM     78  N   UNL     1       2.207  -5.462  -4.083  1.00  0.00    -0.240 NA
ATOM     79  S   UNL     1       4.735  -5.974  -4.209  1.00  0.00    -0.130 S 
ATOM     80  C   UNL     1       3.084  -6.386  -4.421  1.00  0.00     0.176 A 
ENDBRANCH  73  76
ENDBRANCH  71  72
BRANCH  71  81
ATOM     81  C   UNL     1       3.044  -4.722  -0.598  1.00  0.00    -0.002 A 
ATOM     82  C   UNL     1       2.164  -5.820  -0.735  1.00  0.00     0.007 A 
ATOM     83  C   UNL     1       4.440  -4.970  -0.524  1.00  0.00     0.061 A 
ATOM     84  C   UNL     1       2.640  -7.126  -0.816  1.00  0.00     0.000 A 
ATOM     85  C   UNL     1       4.891  -6.306  -0.578  1.00  0.00     0.013 A 
ATOM     86  C   UNL     1       4.003  -7.369  -0.737  1.00  0.00     0.001 A 
BRANCH  83  87
ATOM     87  C   UNL     1       5.491  -3.883  -0.426  1.00  0.00     0.416 C 
ATOM     88  F   UNL     1       5.632  -3.413   0.845  1.00  0.00    -0.166 F 
ATOM     89  F   UNL     1       6.736  -4.286  -0.807  1.00  0.00    -0.166 F 
ATOM     90  F   UNL     1       5.231  -2.785  -1.186  1.00  0.00    -0.166 F 
ENDBRANCH  83  87
ENDBRANCH  71  81
ENDBRANCH  69  71
ENDBRANCH  68  69
ENDBRANCH  67  68
ENDBRANCH   1  67
TORSDOF 18
