REMARK SMILES COc1ccc(C(=O)c2ccccc2)cc1[C@@H](C)C(=O)OCCOC(=O)c1ccc(-c2c3nc(c(-c4ccc(S(=O)(=O)[O-])cc4)c4ccc([nH]4)c(-c4ccc(S(=O)(=O)[O-])cc4)c4nc(c(-c5ccc(S(=O)(=O)[O-])cc5)c5ccc2[nH]5)C=C4)C=C3)cc1
REMARK SMILES IDX 22 1 21 2 19 3 20 4 17 5 18 6 16 7 3 8 4 9 5 10 15 11 6 12
REMARK SMILES IDX 2 13 1 14 7 15 8 16 9 17 10 18 14 19 11 20 13 21 12 22 23 23
REMARK SMILES IDX 24 24 25 25 26 26 27 27 28 28 86 29 29 30 85 31 30 32 31 33
REMARK SMILES IDX 32 34 79 35 33 36 84 37 78 38 80 39 34 40 83 41 77 42 76 43
REMARK SMILES IDX 35 45 65 46 46 47 64 48 47 49 50 50 63 51 81 52 48 53 49 54
REMARK SMILES IDX 62 56 82 57 51 58 36 59 37 60 45 61 38 62 44 63 39 64 40 65
REMARK SMILES IDX 41 66 42 67 43 68 66 69 67 70 75 71 68 72 74 73 69 74 70 75
REMARK SMILES IDX 71 76 72 77 73 78 52 79 53 80 61 81 54 82 60 83 55 84 56 85
REMARK SMILES IDX 57 86 58 87 59 88
REMARK H PARENT 80 44 50 55
REMARK Flexibility Score: inf
ROOT
ATOM      1  C   UNL     1       5.103   3.370   0.332  1.00  0.00     0.274 C 
ENDROOT
BRANCH   1   2
ATOM      2  O   UNL     1       4.384   2.647  -0.686  1.00  0.00    -0.462 OA
BRANCH   2   3
ATOM      3  C   UNL     1       4.351   1.295  -0.575  1.00  0.00     0.313 C 
ATOM      4  O   UNL     1       4.920   0.671   0.317  1.00  0.00    -0.252 OA
BRANCH   3   5
ATOM      5  C   UNL     1       3.607   0.587  -1.703  1.00  0.00     0.130 C 
ATOM      6  C   UNL     1       4.624  -0.047  -2.654  1.00  0.00     0.025 C 
BRANCH   5   7
ATOM      7  C   UNL     1       2.569   1.392  -2.479  1.00  0.00     0.009 A 
ATOM      8  C   UNL     1       1.233   0.966  -2.569  1.00  0.00     0.122 A 
ATOM      9  C   UNL     1       0.310   1.662  -3.357  1.00  0.00     0.047 A 
ATOM     10  C   UNL     1       0.694   2.820  -4.035  1.00  0.00     0.016 A 
ATOM     11  C   UNL     1       2.935   2.559  -3.176  1.00  0.00     0.020 A 
ATOM     12  C   UNL     1       2.010   3.279  -3.947  1.00  0.00     0.023 A 
BRANCH   8  13
ATOM     13  O   UNL     1       0.873  -0.202  -1.948  1.00  0.00    -0.496 OA
ATOM     14  C   UNL     1      -0.207  -0.015  -1.031  1.00  0.00     0.278 C 
ENDBRANCH   8  13
BRANCH  12  15
ATOM     15  C   UNL     1       2.376   4.539  -4.657  1.00  0.00     0.193 C 
ATOM     16  O   UNL     1       1.520   5.237  -5.192  1.00  0.00    -0.289 OA
BRANCH  15  17
ATOM     17  C   UNL     1       3.777   5.006  -4.699  1.00  0.00     0.022 A 
ATOM     18  C   UNL     1       4.081   6.253  -4.146  1.00  0.00     0.012 A 
ATOM     19  C   UNL     1       4.781   4.219  -5.274  1.00  0.00     0.012 A 
ATOM     20  C   UNL     1       5.404   6.693  -4.126  1.00  0.00     0.001 A 
ATOM     21  C   UNL     1       6.103   4.662  -5.246  1.00  0.00     0.001 A 
ATOM     22  C   UNL     1       6.413   5.895  -4.667  1.00  0.00     0.000 A 
ENDBRANCH  15  17
ENDBRANCH  12  15
ENDBRANCH   5   7
ENDBRANCH   3   5
ENDBRANCH   2   3
ENDBRANCH   1   2
BRANCH   1  23
ATOM     23  C   UNL     1       4.146   4.045   1.312  1.00  0.00     0.275 C 
BRANCH  23  24
ATOM     24  O   UNL     1       3.440   3.069   2.097  1.00  0.00    -0.458 OA
BRANCH  24  25
ATOM     25  C   UNL     1       2.203   2.767   1.643  1.00  0.00     0.338 C 
ATOM     26  O   UNL     1       1.623   3.249   0.686  1.00  0.00    -0.246 OA
BRANCH  25  27
ATOM     27  C   UNL     1       1.631   1.679   2.445  1.00  0.00     0.060 A 
ATOM     28  C   UNL     1       1.730   0.375   1.958  1.00  0.00     0.016 A 
ATOM     29  C   UNL     1       0.855   1.966   3.568  1.00  0.00     0.016 A 
ATOM     30  C   UNL     1       0.984  -0.641   2.551  1.00  0.00     0.010 A 
ATOM     31  C   UNL     1       0.142   0.934   4.188  1.00  0.00     0.010 A 
ATOM     32  C   UNL     1       0.165  -0.368   3.656  1.00  0.00    -0.014 A 
BRANCH  32  33
ATOM     33  C   UNL     1      -0.742  -1.421   4.183  1.00  0.00     0.031 A 
ATOM     34  C   UNL     1      -2.234  -1.271   4.033  1.00  0.00     0.074 A 
ATOM     35  C   UNL     1      -0.240  -2.538   4.745  1.00  0.00     0.049 A 
ATOM     36  N   UNL     1      -3.192  -2.026   4.509  1.00  0.00    -0.248 NA
ATOM     37  C   UNL     1      -2.712  -0.118   3.252  1.00  0.00     0.031 C 
ATOM     38  C   UNL     1       1.182  -2.840   4.908  1.00  0.00     0.029 A 
ATOM     39  N   UNL     1      -0.878  -3.638   5.262  1.00  0.00    -0.354 N 
ATOM     40  C   UNL     1      -4.381  -1.411   4.136  1.00  0.00     0.074 A 
ATOM     41  C   UNL     1      -4.027  -0.228   3.382  1.00  0.00     0.031 C 
ATOM     42  C   UNL     1       1.310  -4.065   5.444  1.00  0.00     0.029 A 
ATOM     43  C   UNL     1      -0.018  -4.610   5.712  1.00  0.00     0.049 A 
ATOM     44  H   UNL     1      -1.857  -3.722   5.306  1.00  0.00     0.167 HD
ATOM     45  C   UNL     1      -5.654  -1.790   4.405  1.00  0.00     0.031 A 
ATOM     46  C   UNL     1      -0.268  -5.801   6.289  1.00  0.00     0.031 A 
ATOM     47  C   UNL     1      -6.014  -2.986   5.117  1.00  0.00     0.049 A 
ATOM     48  C   UNL     1      -1.687  -6.220   6.543  1.00  0.00     0.074 A 
ATOM     49  C   UNL     1      -7.275  -3.433   5.474  1.00  0.00     0.029 A 
ATOM     50  N   UNL     1      -5.112  -3.942   5.556  1.00  0.00    -0.354 N 
ATOM     51  N   UNL     1      -2.795  -5.577   6.268  1.00  0.00    -0.248 NA
ATOM     52  C   UNL     1      -1.887  -7.520   7.199  1.00  0.00     0.031 C 
ATOM     53  C   UNL     1      -7.134  -4.660   6.134  1.00  0.00     0.029 A 
ATOM     54  C   UNL     1      -5.788  -4.985   6.166  1.00  0.00     0.049 A 
ATOM     55  H   UNL     1      -4.135  -3.888   5.449  1.00  0.00     0.167 HD
ATOM     56  C   UNL     1      -3.825  -6.391   6.723  1.00  0.00     0.074 A 
ATOM     57  C   UNL     1      -3.210  -7.585   7.267  1.00  0.00     0.031 C 
ATOM     58  C   UNL     1      -5.161  -6.163   6.703  1.00  0.00     0.031 A 
BRANCH  45  59
ATOM     59  C   UNL     1      -6.752  -0.866   3.960  1.00  0.00    -0.014 A 
ATOM     60  C   UNL     1      -7.188  -0.841   2.625  1.00  0.00     0.010 A 
ATOM     61  C   UNL     1      -7.365  -0.021   4.902  1.00  0.00     0.010 A 
ATOM     62  C   UNL     1      -8.197   0.043   2.230  1.00  0.00     0.020 A 
ATOM     63  C   UNL     1      -8.385   0.852   4.515  1.00  0.00     0.020 A 
ATOM     64  C   UNL     1      -8.781   0.892   3.176  1.00  0.00     0.054 A 
BRANCH  64  65
ATOM     65  S   UNL     1     -10.096   2.028   2.655  1.00  0.00     0.124 S 
ATOM     66  O   UNL     1      -9.326   3.152   2.128  1.00  0.00    -0.237 OA
ATOM     67  O   UNL     1     -10.829   1.249   1.660  1.00  0.00    -0.237 OA
ATOM     68  O   UNL     1     -10.826   2.296   3.891  1.00  0.00    -0.744 OA
ENDBRANCH  64  65
ENDBRANCH  45  59
BRANCH  46  69
ATOM     69  C   UNL     1       0.866  -6.678   6.678  1.00  0.00    -0.014 A 
ATOM     70  C   UNL     1       1.191  -7.802   5.901  1.00  0.00     0.010 A 
ATOM     71  C   UNL     1       1.649  -6.368   7.804  1.00  0.00     0.010 A 
ATOM     72  C   UNL     1       2.283  -8.604   6.243  1.00  0.00     0.020 A 
ATOM     73  C   UNL     1       2.752  -7.157   8.137  1.00  0.00     0.020 A 
ATOM     74  C   UNL     1       3.058  -8.275   7.358  1.00  0.00     0.054 A 
BRANCH  74  75
ATOM     75  S   UNL     1       4.528  -9.266   7.747  1.00  0.00     0.124 S 
ATOM     76  O   UNL     1       3.967 -10.323   8.583  1.00  0.00    -0.237 OA
ATOM     77  O   UNL     1       4.999  -9.684   6.429  1.00  0.00    -0.237 OA
ATOM     78  O   UNL     1       5.399  -8.314   8.435  1.00  0.00    -0.744 OA
ENDBRANCH  74  75
ENDBRANCH  46  69
BRANCH  58  79
ATOM     79  C   UNL     1      -6.044  -7.231   7.280  1.00  0.00    -0.014 A 
ATOM     80  C   UNL     1      -6.218  -7.344   8.670  1.00  0.00     0.010 A 
ATOM     81  C   UNL     1      -6.730  -8.110   6.424  1.00  0.00     0.010 A 
ATOM     82  C   UNL     1      -7.043  -8.339   9.198  1.00  0.00     0.020 A 
ATOM     83  C   UNL     1      -7.566  -9.099   6.949  1.00  0.00     0.020 A 
ATOM     84  C   UNL     1      -7.705  -9.217   8.334  1.00  0.00     0.054 A 
BRANCH  84  85
ATOM     85  S   UNL     1      -8.796 -10.488   9.031  1.00  0.00     0.124 S 
ATOM     86  O   UNL     1      -7.847 -11.542   9.379  1.00  0.00    -0.237 OA
ATOM     87  O   UNL     1      -9.416  -9.803  10.163  1.00  0.00    -0.237 OA
ATOM     88  O   UNL     1      -9.703 -10.801   7.930  1.00  0.00    -0.744 OA
ENDBRANCH  84  85
ENDBRANCH  58  79
ENDBRANCH  32  33
ENDBRANCH  25  27
ENDBRANCH  24  25
ENDBRANCH  23  24
ENDBRANCH   1  23
TORSDOF 18
