REMARK SMILES COc1ccc(S(=O)(=O)N[C@@H](CO)C(=O)OCCOC(=O)c2ccc(-c3c4nc(c(-c5ccc(S(=O)(=O)[O-])cc5)c5ccc([nH]5)c(-c5ccc(S(=O)(=O)[O-])cc5)c5nc(c(-c6ccc(S(=O)(=O)[O-])cc6)c6ccc3[nH]6)C=C5)C=C4)cc2)cc1C
REMARK SMILES IDX 17 1 16 2 14 3 15 4 11 5 10 6 7 8 8 9 9 10 6 11 3 12 4 13
REMARK SMILES IDX 83 14 5 15 82 16 84 17 2 18 1 19 12 20 13 21 18 23 19 24
REMARK SMILES IDX 20 25 21 26 22 27 23 28 81 29 24 30 80 31 25 32 26 33 27 34
REMARK SMILES IDX 74 35 28 36 79 37 73 38 75 39 29 40 78 41 72 42 71 43 30 45
REMARK SMILES IDX 60 46 41 47 59 48 42 49 45 50 58 51 76 52 43 53 44 54 57 56
REMARK SMILES IDX 77 57 46 58 31 59 32 60 40 61 33 62 39 63 34 64 35 65 36 66
REMARK SMILES IDX 37 67 38 68 61 69 62 70 70 71 63 72 69 73 64 74 65 75 66 76
REMARK SMILES IDX 67 77 68 78 47 79 48 80 56 81 49 82 55 83 50 84 51 85 52 86
REMARK SMILES IDX 53 87 54 88
REMARK H PARENT 10 7 13 22 75 44 45 55
REMARK Flexibility Score: inf
ROOT
ATOM      1  C   UNL     1       6.894  -6.093   5.761  1.00  0.00     0.274 C 
ENDROOT
BRANCH   1   2
ATOM      2  O   UNL     1       5.588  -5.532   5.573  1.00  0.00    -0.461 OA
BRANCH   2   3
ATOM      3  C   UNL     1       5.020  -5.036   6.715  1.00  0.00     0.326 C 
ATOM      4  O   UNL     1       5.423  -5.341   7.829  1.00  0.00    -0.250 OA
BRANCH   3   5
ATOM      5  C   UNL     1       3.866  -4.060   6.386  1.00  0.00     0.205 C 
BRANCH   5   6
ATOM      6  N   UNL     1       2.948  -4.756   5.463  1.00  0.00    -0.194 NA
ATOM      7  H   UNL     1       3.425  -4.748   4.562  1.00  0.00     0.142 HD
BRANCH   6   8
ATOM      8  S   UNL     1       1.381  -4.340   5.123  1.00  0.00     0.241 S 
ATOM      9  O   UNL     1       0.717  -4.099   6.362  1.00  0.00    -0.207 OA
ATOM     10  O   UNL     1       0.909  -5.402   4.231  1.00  0.00    -0.207 OA
BRANCH   8  11
ATOM     11  C   UNL     1       1.275  -2.844   4.152  1.00  0.00     0.083 A 
ATOM     12  C   UNL     1       0.735  -0.675   2.435  1.00  0.00     0.121 A 
ATOM     13  C   UNL     1      -0.270  -1.191   3.247  1.00  0.00     0.048 A 
ATOM     14  C   UNL     1       2.044  -1.163   2.556  1.00  0.00    -0.008 A 
ATOM     15  C   UNL     1      -0.000  -2.257   4.107  1.00  0.00     0.025 A 
ATOM     16  C   UNL     1       2.303  -2.297   3.379  1.00  0.00     0.029 A 
ATOM     17  C   UNL     1       3.182  -0.480   1.851  1.00  0.00     0.048 C 
BRANCH  12  18
ATOM     18  O   UNL     1       0.367   0.359   1.612  1.00  0.00    -0.496 OA
ATOM     19  C   UNL     1       0.591   0.086   0.225  1.00  0.00     0.278 C 
ENDBRANCH  12  18
ENDBRANCH   8  11
ENDBRANCH   6   8
ENDBRANCH   5   6
BRANCH   5  20
ATOM     20  C   UNL     1       3.290  -3.433   7.664  1.00  0.00     0.188 C 
BRANCH  20  21
ATOM     21  O   UNL     1       2.905  -4.355   8.676  1.00  0.00    -0.394 OA
ATOM     22  H   UNL     1       2.187  -4.917   8.345  1.00  0.00     0.210 HD
ENDBRANCH  20  21
ENDBRANCH   5  20
ENDBRANCH   3   5
ENDBRANCH   2   3
ENDBRANCH   1   2
BRANCH   1  23
ATOM     23  C   UNL     1       7.620  -6.346   4.422  1.00  0.00     0.275 C 
BRANCH  23  24
ATOM     24  O   UNL     1       7.569  -5.368   3.345  1.00  0.00    -0.458 OA
BRANCH  24  25
ATOM     25  C   UNL     1       6.676  -4.341   3.390  1.00  0.00     0.338 C 
ATOM     26  O   UNL     1       5.535  -4.428   2.960  1.00  0.00    -0.246 OA
BRANCH  25  27
ATOM     27  C   UNL     1       7.162  -3.270   4.303  1.00  0.00     0.060 A 
ATOM     28  C   UNL     1       6.255  -2.327   4.811  1.00  0.00     0.016 A 
ATOM     29  C   UNL     1       8.391  -3.461   4.917  1.00  0.00     0.016 A 
ATOM     30  C   UNL     1       6.493  -1.706   6.033  1.00  0.00     0.010 A 
ATOM     31  C   UNL     1       8.535  -3.020   6.201  1.00  0.00     0.010 A 
ATOM     32  C   UNL     1       7.614  -2.112   6.744  1.00  0.00    -0.014 A 
BRANCH  32  33
ATOM     33  C   UNL     1       8.096  -1.485   7.959  1.00  0.00     0.031 A 
ATOM     34  C   UNL     1       7.386  -1.659   9.245  1.00  0.00     0.074 A 
ATOM     35  C   UNL     1       9.294  -0.884   7.755  1.00  0.00     0.049 A 
ATOM     36  N   UNL     1       7.327  -0.782  10.185  1.00  0.00    -0.248 NA
ATOM     37  C   UNL     1       6.604  -2.854   9.572  1.00  0.00     0.031 C 
ATOM     38  C   UNL     1      10.272  -0.366   8.686  1.00  0.00     0.029 A 
ATOM     39  N   UNL     1       9.853  -0.534   6.508  1.00  0.00    -0.354 N 
ATOM     40  C   UNL     1       6.906  -1.460  11.323  1.00  0.00     0.074 A 
ATOM     41  C   UNL     1       6.250  -2.644  10.847  1.00  0.00     0.031 C 
ATOM     42  C   UNL     1      11.040   0.529   8.026  1.00  0.00     0.029 A 
ATOM     43  C   UNL     1      10.462   0.695   6.694  1.00  0.00     0.049 A 
ATOM     44  H   UNL     1       9.818  -1.057   5.675  1.00  0.00     0.167 HD
ATOM     45  C   UNL     1       7.426  -1.110  12.536  1.00  0.00     0.031 A 
ATOM     46  C   UNL     1       9.871   1.826   6.199  1.00  0.00     0.031 A 
ATOM     47  C   UNL     1       8.394  -0.036  12.340  1.00  0.00     0.049 A 
ATOM     48  C   UNL     1       9.470   2.725   7.345  1.00  0.00     0.074 A 
ATOM     49  C   UNL     1       9.773  -0.066  12.219  1.00  0.00     0.029 A 
ATOM     50  N   UNL     1       7.970   1.178  11.827  1.00  0.00    -0.354 N 
ATOM     51  N   UNL     1       9.062   2.298   8.511  1.00  0.00    -0.248 NA
ATOM     52  C   UNL     1       9.643   4.168   7.293  1.00  0.00     0.031 C 
ATOM     53  C   UNL     1      10.171   1.135  11.575  1.00  0.00     0.029 A 
ATOM     54  C   UNL     1       9.036   1.880  11.301  1.00  0.00     0.049 A 
ATOM     55  H   UNL     1       7.038   1.496  11.835  1.00  0.00     0.167 HD
ATOM     56  C   UNL     1       9.052   3.350   9.395  1.00  0.00     0.074 A 
ATOM     57  C   UNL     1       9.397   4.500   8.571  1.00  0.00     0.031 C 
ATOM     58  C   UNL     1       8.824   3.207  10.738  1.00  0.00     0.031 A 
BRANCH  45  59
ATOM     59  C   UNL     1       7.380  -1.917  13.824  1.00  0.00    -0.014 A 
ATOM     60  C   UNL     1       8.349  -1.640  14.818  1.00  0.00     0.010 A 
ATOM     61  C   UNL     1       6.459  -2.937  14.135  1.00  0.00     0.010 A 
ATOM     62  C   UNL     1       8.444  -2.365  16.013  1.00  0.00     0.020 A 
ATOM     63  C   UNL     1       6.545  -3.680  15.335  1.00  0.00     0.020 A 
ATOM     64  C   UNL     1       7.545  -3.393  16.262  1.00  0.00     0.054 A 
BRANCH  64  65
ATOM     65  S   UNL     1       7.704  -4.313  17.818  1.00  0.00     0.124 S 
ATOM     66  O   UNL     1       9.039  -4.897  17.703  1.00  0.00    -0.237 OA
ATOM     67  O   UNL     1       7.565  -3.263  18.823  1.00  0.00    -0.237 OA
ATOM     68  O   UNL     1       6.605  -5.274  17.770  1.00  0.00    -0.744 OA
ENDBRANCH  64  65
ENDBRANCH  45  59
BRANCH  46  69
ATOM     69  C   UNL     1       9.127   1.649   4.902  1.00  0.00    -0.014 A 
ATOM     70  C   UNL     1       9.885   1.238   3.781  1.00  0.00     0.010 A 
ATOM     71  C   UNL     1       7.727   1.516   4.829  1.00  0.00     0.010 A 
ATOM     72  C   UNL     1       9.293   0.574   2.702  1.00  0.00     0.020 A 
ATOM     73  C   UNL     1       7.123   0.865   3.727  1.00  0.00     0.020 A 
ATOM     74  C   UNL     1       7.919   0.353   2.695  1.00  0.00     0.054 A 
BRANCH  74  75
ATOM     75  S   UNL     1       7.265  -0.802   1.442  1.00  0.00     0.124 S 
ATOM     76  O   UNL     1       7.095   0.058   0.278  1.00  0.00    -0.237 OA
ATOM     77  O   UNL     1       8.323  -1.806   1.351  1.00  0.00    -0.237 OA
ATOM     78  O   UNL     1       6.033  -1.293   2.042  1.00  0.00    -0.744 OA
ENDBRANCH  74  75
ENDBRANCH  46  69
BRANCH  58  79
ATOM     79  C   UNL     1       8.452   4.309  11.710  1.00  0.00    -0.014 A 
ATOM     80  C   UNL     1       8.251   5.645  11.351  1.00  0.00     0.010 A 
ATOM     81  C   UNL     1       8.177   3.977  13.064  1.00  0.00     0.010 A 
ATOM     82  C   UNL     1       7.867   6.606  12.290  1.00  0.00     0.020 A 
ATOM     83  C   UNL     1       7.723   4.911  13.996  1.00  0.00     0.020 A 
ATOM     84  C   UNL     1       7.601   6.233  13.605  1.00  0.00     0.054 A 
BRANCH  84  85
ATOM     85  S   UNL     1       7.074   7.500  14.771  1.00  0.00     0.124 S 
ATOM     86  O   UNL     1       8.305   8.263  14.958  1.00  0.00    -0.237 OA
ATOM     87  O   UNL     1       6.017   8.187  14.030  1.00  0.00    -0.237 OA
ATOM     88  O   UNL     1       6.622   6.741  15.934  1.00  0.00    -0.744 OA
ENDBRANCH  84  85
ENDBRANCH  58  79
ENDBRANCH  32  33
ENDBRANCH  25  27
ENDBRANCH  24  25
ENDBRANCH  23  24
ENDBRANCH   1  23
TORSDOF 20
