REMARK SMILES CC[C@H](C(=O)OCCOC(=O)c1ccc(-c2c3nc(c(-c4ccc(S(=O)(=O)[O-])cc4)c4ccc([nH]4)c(-c4ccc(S(=O)(=O)[O-])cc4)c4nc(c(-c5ccc(S(=O)(=O)[O-])cc5)c5ccc2[nH]5)C=C4)C=C3)cc1)[N@@H+](C)[C@H]1CC[C@@H]([NH2+]C)CC1
REMARK SMILES IDX 7 1 6 2 4 3 5 4 3 5 2 6 1 7 72 8 73 9 74 11 81 12 75 13
REMARK SMILES IDX 80 14 76 15 77 16 78 17 79 18 8 21 9 22 10 23 11 24 12 25
REMARK SMILES IDX 13 26 71 27 14 28 70 29 15 30 16 31 17 32 64 33 18 34 69 35
REMARK SMILES IDX 63 36 65 37 19 38 68 39 62 40 61 41 20 43 50 44 31 45 49 46
REMARK SMILES IDX 32 47 35 48 48 49 66 50 33 51 34 52 47 54 67 55 36 56 21 57
REMARK SMILES IDX 22 58 30 59 23 60 29 61 24 62 25 63 26 64 27 65 28 66 51 67
REMARK SMILES IDX 52 68 60 69 53 70 59 71 54 72 55 73 56 74 57 75 58 76 37 77
REMARK SMILES IDX 38 78 46 79 39 80 45 81 40 82 41 83 42 84 43 85 44 86
REMARK H PARENT 72 10 78 19 78 20 65 42 35 53
REMARK Flexibility Score: inf
ROOT
ATOM      1  C   UNL     1      -0.146   0.768  -1.273  1.00  0.00     0.274 C 
ENDROOT
BRANCH   1   2
ATOM      2  O   UNL     1       0.258   0.150  -0.037  1.00  0.00    -0.458 OA
BRANCH   2   3
ATOM      3  C   UNL     1       0.081  -1.196   0.028  1.00  0.00     0.365 C 
ATOM      4  O   UNL     1      -0.436  -1.834  -0.887  1.00  0.00    -0.245 OA
BRANCH   3   5
ATOM      5  C   UNL     1       0.732  -1.845   1.289  1.00  0.00     0.294 C 
BRANCH   5   6
ATOM      6  C   UNL     1       0.824  -1.115   2.652  1.00  0.00     0.074 C 
ATOM      7  C   UNL     1       0.745   0.398   2.670  1.00  0.00     0.011 C 
ENDBRANCH   5   6
BRANCH   5   8
ATOM      8  N   UNL     1       0.266  -3.263   1.435  1.00  0.00    -0.323 N 
ATOM      9  C   UNL     1       1.087  -4.060   2.335  1.00  0.00     0.333 C 
ATOM     10  H   UNL     1       0.463  -3.664   0.517  1.00  0.00     0.348 HD
BRANCH   8  11
ATOM     11  C   UNL     1      -1.199  -3.519   1.431  1.00  0.00     0.184 C 
ATOM     12  C   UNL     1      -1.601  -4.919   1.963  1.00  0.00     0.071 C 
ATOM     13  C   UNL     1      -2.065  -2.403   2.067  1.00  0.00     0.071 C 
ATOM     14  C   UNL     1      -3.114  -5.148   1.965  1.00  0.00     0.071 C 
ATOM     15  C   UNL     1      -3.562  -2.713   2.059  1.00  0.00     0.071 C 
ATOM     16  C   UNL     1      -3.875  -4.056   2.730  1.00  0.00     0.182 C 
BRANCH  16  17
ATOM     17  N   UNL     1      -3.535  -3.953   4.160  1.00  0.00    -0.346 N 
ATOM     18  C   UNL     1      -3.885  -5.136   4.929  1.00  0.00     0.331 C 
ATOM     19  H   UNL     1      -4.032  -3.154   4.553  1.00  0.00     0.346 HD
ATOM     20  H   UNL     1      -2.522  -3.848   4.218  1.00  0.00     0.346 HD
ENDBRANCH  16  17
ENDBRANCH   8  11
ENDBRANCH   5   8
ENDBRANCH   3   5
ENDBRANCH   2   3
ENDBRANCH   1   2
BRANCH   1  21
ATOM     21  C   UNL     1       1.040   0.946  -2.228  1.00  0.00     0.275 C 
BRANCH  21  22
ATOM     22  O   UNL     1       1.551  -0.307  -2.722  1.00  0.00    -0.458 OA
BRANCH  22  23
ATOM     23  C   UNL     1       2.499  -0.887  -1.951  1.00  0.00     0.338 C 
ATOM     24  O   UNL     1       2.977  -0.437  -0.915  1.00  0.00    -0.246 OA
BRANCH  23  25
ATOM     25  C   UNL     1       2.826  -2.230  -2.456  1.00  0.00     0.060 A 
ATOM     26  C   UNL     1       2.708  -3.313  -1.580  1.00  0.00     0.016 A 
ATOM     27  C   UNL     1       3.333  -2.419  -3.742  1.00  0.00     0.016 A 
ATOM     28  C   UNL     1       3.116  -4.583  -1.967  1.00  0.00     0.010 A 
ATOM     29  C   UNL     1       3.739  -3.699  -4.136  1.00  0.00     0.010 A 
ATOM     30  C   UNL     1       3.649  -4.783  -3.243  1.00  0.00    -0.014 A 
BRANCH  30  31
ATOM     31  C   UNL     1       4.172  -6.118  -3.609  1.00  0.00     0.031 A 
ATOM     32  C   UNL     1       5.656  -6.343  -3.658  1.00  0.00     0.074 A 
ATOM     33  C   UNL     1       3.318  -7.130  -3.851  1.00  0.00     0.049 A 
ATOM     34  N   UNL     1       6.317  -7.408  -4.029  1.00  0.00    -0.248 NA
ATOM     35  C   UNL     1       6.508  -5.221  -3.230  1.00  0.00     0.031 C 
ATOM     36  C   UNL     1       1.859  -7.047  -3.757  1.00  0.00     0.029 A 
ATOM     37  N   UNL     1       3.556  -8.428  -4.222  1.00  0.00    -0.354 N 
ATOM     38  C   UNL     1       7.661  -7.080  -3.900  1.00  0.00     0.074 A 
ATOM     39  C   UNL     1       7.723  -5.713  -3.429  1.00  0.00     0.031 C 
ATOM     40  C   UNL     1       1.333  -8.244  -4.066  1.00  0.00     0.029 A 
ATOM     41  C   UNL     1       2.411  -9.160  -4.426  1.00  0.00     0.049 A 
ATOM     42  H   UNL     1       4.461  -8.800  -4.333  1.00  0.00     0.167 HD
ATOM     43  C   UNL     1       8.745  -7.852  -4.153  1.00  0.00     0.031 A 
ATOM     44  C   UNL     1       2.250 -10.416  -4.883  1.00  0.00     0.031 A 
ATOM     45  C   UNL     1       8.673  -9.210  -4.624  1.00  0.00     0.049 A 
ATOM     46  C   UNL     1       3.469 -11.225  -5.237  1.00  0.00     0.074 A 
ATOM     47  C   UNL     1       9.711 -10.075  -4.922  1.00  0.00     0.029 A 
ATOM     48  N   UNL     1       7.494  -9.901  -4.864  1.00  0.00    -0.354 N 
ATOM     49  N   UNL     1       4.735 -10.895  -5.133  1.00  0.00    -0.248 NA
ATOM     50  C   UNL     1       3.238 -12.574  -5.771  1.00  0.00     0.031 C 
ATOM     51  C   UNL     1       9.159 -11.274  -5.386  1.00  0.00     0.029 A 
ATOM     52  C   UNL     1       7.778 -11.175  -5.325  1.00  0.00     0.049 A 
ATOM     53  H   UNL     1       6.589  -9.539  -4.726  1.00  0.00     0.167 HD
ATOM     54  C   UNL     1       5.451 -12.004  -5.570  1.00  0.00     0.074 A 
ATOM     55  C   UNL     1       4.478 -13.018  -5.923  1.00  0.00     0.031 C 
ATOM     56  C   UNL     1       6.793 -12.169  -5.670  1.00  0.00     0.031 A 
BRANCH  43  57
ATOM     57  C   UNL     1      10.101  -7.228  -3.966  1.00  0.00    -0.014 A 
ATOM     58  C   UNL     1      10.622  -6.983  -2.683  1.00  0.00     0.010 A 
ATOM     59  C   UNL     1      10.879  -6.910  -5.094  1.00  0.00     0.010 A 
ATOM     60  C   UNL     1      11.884  -6.399  -2.533  1.00  0.00     0.020 A 
ATOM     61  C   UNL     1      12.151  -6.348  -4.947  1.00  0.00     0.020 A 
ATOM     62  C   UNL     1      12.638  -6.081  -3.667  1.00  0.00     0.054 A 
BRANCH  62  63
ATOM     63  S   UNL     1      14.280  -5.342  -3.443  1.00  0.00     0.124 S 
ATOM     64  O   UNL     1      13.944  -3.979  -3.039  1.00  0.00    -0.237 OA
ATOM     65  O   UNL     1      14.870  -6.178  -2.401  1.00  0.00    -0.237 OA
ATOM     66  O   UNL     1      14.898  -5.466  -4.761  1.00  0.00    -0.744 OA
ENDBRANCH  62  63
ENDBRANCH  43  57
BRANCH  44  67
ATOM     67  C   UNL     1       0.882 -10.972  -5.071  1.00  0.00    -0.014 A 
ATOM     68  C   UNL     1       0.409 -12.011  -4.252  1.00  0.00     0.010 A 
ATOM     69  C   UNL     1       0.044 -10.461  -6.080  1.00  0.00     0.010 A 
ATOM     70  C   UNL     1      -0.869 -12.543  -4.451  1.00  0.00     0.020 A 
ATOM     71  C   UNL     1      -1.243 -10.971  -6.264  1.00  0.00     0.020 A 
ATOM     72  C   UNL     1      -1.687 -12.020  -5.456  1.00  0.00     0.054 A 
BRANCH  72  73
ATOM     73  S   UNL     1      -3.357 -12.696  -5.671  1.00  0.00     0.124 S 
ATOM     74  O   UNL     1      -3.085 -13.968  -6.332  1.00  0.00    -0.237 OA
ATOM     75  O   UNL     1      -3.842 -12.787  -4.296  1.00  0.00    -0.237 OA
ATOM     76  O   UNL     1      -4.028 -11.692  -6.494  1.00  0.00    -0.744 OA
ENDBRANCH  72  73
ENDBRANCH  44  67
BRANCH  56  77
ATOM     77  C   UNL     1       7.289 -13.506  -6.149  1.00  0.00    -0.014 A 
ATOM     78  C   UNL     1       7.186 -13.879  -7.500  1.00  0.00     0.010 A 
ATOM     79  C   UNL     1       7.915 -14.379  -5.240  1.00  0.00     0.010 A 
ATOM     80  C   UNL     1       7.674 -15.117  -7.929  1.00  0.00     0.020 A 
ATOM     81  C   UNL     1       8.427 -15.605  -5.670  1.00  0.00     0.020 A 
ATOM     82  C   UNL     1       8.290 -15.972  -7.010  1.00  0.00     0.054 A 
BRANCH  82  83
ATOM     83  S   UNL     1       8.957 -17.553  -7.598  1.00  0.00     0.124 S 
ATOM     84  O   UNL     1       7.744 -18.350  -7.766  1.00  0.00    -0.237 OA
ATOM     85  O   UNL     1       9.638 -17.177  -8.834  1.00  0.00    -0.237 OA
ATOM     86  O   UNL     1       9.838 -17.982  -6.514  1.00  0.00    -0.744 OA
ENDBRANCH  82  83
ENDBRANCH  56  77
ENDBRANCH  30  31
ENDBRANCH  23  25
ENDBRANCH  22  23
ENDBRANCH  21  22
ENDBRANCH   1  21
TORSDOF 18
