REMARK SMILES O=C(Cc1ccn[nH]1)NC[C@H]1CCCC[C@H]1C(=O)OCCOC(=O)c1ccc(-c2c3nc(c(-c4ccc(S(=O)(=O)[O-])cc4)c4ccc([nH]4)c(-c4ccc(S(=O)(=O)[O-])cc4)c4nc(c(-c5ccc(S(=O)(=O)[O-])cc5)c5ccc2[nH]5)C=C4)C=C3)cc1
REMARK SMILES IDX 20 1 19 2 17 3 18 4 16 5 11 6 12 7 13 8 15 9 14 10 10 11
REMARK SMILES IDX 9 12 1 13 2 14 3 16 4 17 5 18 8 19 6 20 7 21 21 23 22 24
REMARK SMILES IDX 23 25 24 26 25 27 26 28 84 29 27 30 83 31 28 32 29 33 30 34
REMARK SMILES IDX 77 35 31 36 82 37 76 38 78 39 32 40 81 41 75 42 74 43 33 45
REMARK SMILES IDX 63 46 44 47 62 48 45 49 48 50 61 51 79 52 46 53 47 54 60 56
REMARK SMILES IDX 80 57 49 58 34 59 35 60 43 61 36 62 42 63 37 64 38 65 39 66
REMARK SMILES IDX 40 67 41 68 64 69 65 70 73 71 66 72 72 73 67 74 68 75 69 76
REMARK SMILES IDX 70 77 71 78 50 79 51 80 59 81 52 82 58 83 53 84 54 85 55 86
REMARK SMILES IDX 56 87 57 88
REMARK H PARENT 9 15 8 22 78 44 48 55
REMARK Flexibility Score: inf
ROOT
ATOM      1  C   UNL     1       4.256   5.852   3.335  1.00  0.00     0.274 C 
ENDROOT
BRANCH   1   2
ATOM      2  O   UNL     1       3.872   4.493   3.612  1.00  0.00    -0.462 OA
BRANCH   2   3
ATOM      3  C   UNL     1       2.714   4.301   4.282  1.00  0.00     0.309 C 
ATOM      4  O   UNL     1       1.996   5.200   4.704  1.00  0.00    -0.252 OA
BRANCH   3   5
ATOM      5  C   UNL     1       2.375   2.832   4.491  1.00  0.00     0.104 C 
ATOM      6  C   UNL     1       2.927   1.815   3.464  1.00  0.00     0.022 C 
ATOM      7  C   UNL     1       2.306   0.431   3.755  1.00  0.00     0.006 C 
ATOM      8  C   UNL     1       2.506  -0.016   5.205  1.00  0.00     0.000 C 
ATOM      9  C   UNL     1       2.635   2.404   5.936  1.00  0.00     0.016 C 
ATOM     10  C   UNL     1       2.017   1.032   6.201  1.00  0.00     0.001 C 
BRANCH   6  11
ATOM     11  C   UNL     1       4.467   1.704   3.413  1.00  0.00     0.120 C 
BRANCH  11  12
ATOM     12  N   UNL     1       4.958   2.003   2.079  1.00  0.00    -0.355 N 
ATOM     13  O   UNL     1       6.731   3.312   2.724  1.00  0.00    -0.275 OA
ATOM     14  C   UNL     1       6.046   2.808   1.837  1.00  0.00     0.226 C 
ATOM     15  H   UNL     1       4.487   1.610   1.309  1.00  0.00     0.163 HD
BRANCH  14  16
ATOM     16  C   UNL     1       6.429   2.909   0.368  1.00  0.00     0.155 C 
BRANCH  16  17
ATOM     17  C   UNL     1       7.464   1.887   0.015  1.00  0.00     0.044 A 
ATOM     18  C   UNL     1       8.066   1.586  -1.188  1.00  0.00     0.045 A 
ATOM     19  N   UNL     1       8.024   1.028   0.927  1.00  0.00    -0.282 N 
ATOM     20  C   UNL     1       8.943   0.525  -0.899  1.00  0.00     0.135 A 
ATOM     21  N   UNL     1       8.913   0.177   0.388  1.00  0.00    -0.184 NA
ATOM     22  H   UNL     1       7.796   1.034   1.885  1.00  0.00     0.190 HD
ENDBRANCH  16  17
ENDBRANCH  14  16
ENDBRANCH  11  12
ENDBRANCH   6  11
ENDBRANCH   3   5
ENDBRANCH   2   3
ENDBRANCH   1   2
BRANCH   1  23
ATOM     23  C   UNL     1       4.069   6.167   1.851  1.00  0.00     0.275 C 
BRANCH  23  24
ATOM     24  O   UNL     1       2.677   6.121   1.488  1.00  0.00    -0.458 OA
BRANCH  24  25
ATOM     25  C   UNL     1       2.255   4.963   0.929  1.00  0.00     0.338 C 
ATOM     26  O   UNL     1       2.924   3.987   0.636  1.00  0.00    -0.246 OA
BRANCH  25  27
ATOM     27  C   UNL     1       0.789   5.005   0.813  1.00  0.00     0.060 A 
ATOM     28  C   UNL     1       0.026   4.223   1.682  1.00  0.00     0.016 A 
ATOM     29  C   UNL     1       0.174   5.766  -0.182  1.00  0.00     0.016 A 
ATOM     30  C   UNL     1      -1.361   4.193   1.561  1.00  0.00     0.010 A 
ATOM     31  C   UNL     1      -1.219   5.738  -0.300  1.00  0.00     0.010 A 
ATOM     32  C   UNL     1      -1.995   4.945   0.565  1.00  0.00    -0.014 A 
BRANCH  32  33
ATOM     33  C   UNL     1      -3.466   4.868   0.397  1.00  0.00     0.031 A 
ATOM     34  C   UNL     1      -4.043   4.109  -0.765  1.00  0.00     0.074 A 
ATOM     35  C   UNL     1      -4.279   5.469   1.286  1.00  0.00     0.049 A 
ATOM     36  N   UNL     1      -5.289   4.013  -1.150  1.00  0.00    -0.248 NA
ATOM     37  C   UNL     1      -3.093   3.359  -1.603  1.00  0.00     0.031 C 
ATOM     38  C   UNL     1      -3.839   6.194   2.479  1.00  0.00     0.029 A 
ATOM     39  N   UNL     1      -5.647   5.571   1.319  1.00  0.00    -0.354 N 
ATOM     40  C   UNL     1      -5.274   3.205  -2.281  1.00  0.00     0.074 A 
ATOM     41  C   UNL     1      -3.893   2.852  -2.531  1.00  0.00     0.031 C 
ATOM     42  C   UNL     1      -4.917   6.674   3.122  1.00  0.00     0.029 A 
ATOM     43  C   UNL     1      -6.117   6.330   2.364  1.00  0.00     0.049 A 
ATOM     44  H   UNL     1      -6.235   5.141   0.657  1.00  0.00     0.167 HD
ATOM     45  C   UNL     1      -6.318   2.794  -3.040  1.00  0.00     0.031 A 
ATOM     46  C   UNL     1      -7.368   6.733   2.658  1.00  0.00     0.031 A 
ATOM     47  C   UNL     1      -7.689   3.155  -2.793  1.00  0.00     0.049 A 
ATOM     48  C   UNL     1      -8.503   6.316   1.761  1.00  0.00     0.074 A 
ATOM     49  C   UNL     1      -8.815   2.809  -3.519  1.00  0.00     0.029 A 
ATOM     50  N   UNL     1      -8.121   3.938  -1.734  1.00  0.00    -0.354 N 
ATOM     51  N   UNL     1      -8.468   5.573   0.681  1.00  0.00    -0.248 NA
ATOM     52  C   UNL     1      -9.846   6.792   2.124  1.00  0.00     0.031 C 
ATOM     53  C   UNL     1      -9.925   3.412  -2.918  1.00  0.00     0.029 A 
ATOM     54  C   UNL     1      -9.495   4.093  -1.791  1.00  0.00     0.049 A 
ATOM     55  H   UNL     1      -7.537   4.326  -1.043  1.00  0.00     0.167 HD
ATOM     56  C   UNL     1      -9.786   5.477   0.246  1.00  0.00     0.074 A 
ATOM     57  C   UNL     1     -10.594   6.222   1.189  1.00  0.00     0.031 C 
ATOM     58  C   UNL     1     -10.282   4.834  -0.839  1.00  0.00     0.031 A 
BRANCH  45  59
ATOM     59  C   UNL     1      -6.013   1.925  -4.229  1.00  0.00    -0.014 A 
ATOM     60  C   UNL     1      -5.666   0.572  -4.066  1.00  0.00     0.010 A 
ATOM     61  C   UNL     1      -6.120   2.454  -5.529  1.00  0.00     0.010 A 
ATOM     62  C   UNL     1      -5.404  -0.230  -5.181  1.00  0.00     0.020 A 
ATOM     63  C   UNL     1      -5.881   1.650  -6.646  1.00  0.00     0.020 A 
ATOM     64  C   UNL     1      -5.511   0.316  -6.464  1.00  0.00     0.054 A 
BRANCH  64  65
ATOM     65  S   UNL     1      -5.193  -0.754  -7.895  1.00  0.00     0.124 S 
ATOM     66  O   UNL     1      -3.738  -0.880  -7.858  1.00  0.00    -0.237 OA
ATOM     67  O   UNL     1      -5.936  -1.967  -7.561  1.00  0.00    -0.237 OA
ATOM     68  O   UNL     1      -5.724   0.007  -9.022  1.00  0.00    -0.744 OA
ENDBRANCH  64  65
ENDBRANCH  45  59
BRANCH  46  69
ATOM     69  C   UNL     1      -7.611   7.621   3.828  1.00  0.00    -0.014 A 
ATOM     70  C   UNL     1      -8.299   7.151   4.960  1.00  0.00     0.010 A 
ATOM     71  C   UNL     1      -7.165   8.956   3.803  1.00  0.00     0.010 A 
ATOM     72  C   UNL     1      -8.559   8.006   6.035  1.00  0.00     0.020 A 
ATOM     73  C   UNL     1      -7.399   9.806   4.887  1.00  0.00     0.020 A 
ATOM     74  C   UNL     1      -8.110   9.330   5.990  1.00  0.00     0.054 A 
BRANCH  74  75
ATOM     75  S   UNL     1      -8.429  10.418   7.407  1.00  0.00     0.124 S 
ATOM     76  O   UNL     1      -9.831  10.771   7.206  1.00  0.00    -0.237 OA
ATOM     77  O   UNL     1      -8.152   9.547   8.547  1.00  0.00    -0.237 OA
ATOM     78  O   UNL     1      -7.474  11.508   7.219  1.00  0.00    -0.744 OA
ENDBRANCH  74  75
ENDBRANCH  46  69
BRANCH  58  79
ATOM     79  C   UNL     1     -11.772   4.875  -1.044  1.00  0.00    -0.014 A 
ATOM     80  C   UNL     1     -12.409   6.037  -1.512  1.00  0.00     0.010 A 
ATOM     81  C   UNL     1     -12.535   3.716  -0.811  1.00  0.00     0.010 A 
ATOM     82  C   UNL     1     -13.791   6.048  -1.717  1.00  0.00     0.020 A 
ATOM     83  C   UNL     1     -13.914   3.717  -1.037  1.00  0.00     0.020 A 
ATOM     84  C   UNL     1     -14.536   4.888  -1.476  1.00  0.00     0.054 A 
BRANCH  84  85
ATOM     85  S   UNL     1     -16.322   4.913  -1.790  1.00  0.00     0.124 S 
ATOM     86  O   UNL     1     -16.824   5.642  -0.629  1.00  0.00    -0.237 OA
ATOM     87  O   UNL     1     -16.416   5.620  -3.065  1.00  0.00    -0.237 OA
ATOM     88  O   UNL     1     -16.683   3.498  -1.842  1.00  0.00    -0.744 OA
ENDBRANCH  84  85
ENDBRANCH  58  79
ENDBRANCH  32  33
ENDBRANCH  25  27
ENDBRANCH  24  25
ENDBRANCH  23  24
ENDBRANCH   1  23
TORSDOF 18
