REMARK SMILES CCn1c(N2CCC(C(=O)OCCOC(=O)c3ccc(-c4c5nc(c(-c6ccc(S(=O)(=O)[O-])cc6)c6ccc([nH]6)c(-c6ccc(S(=O)(=O)[O-])cc6)c6nc(c(-c7ccc(S(=O)(=O)[O-])cc7)c7ccc4[nH]7)C=C6)C=C5)cc3)CC2)nc2cc(C)ccc21
REMARK SMILES IDX 13 1 12 2 11 3 9 4 10 5 8 6 5 7 6 8 78 9 7 10 77 11 4 12
REMARK SMILES IDX 3 13 86 14 79 15 80 16 85 17 81 18 84 19 82 20 83 21 2 22
REMARK SMILES IDX 1 23 14 24 15 25 16 26 17 27 18 28 76 29 19 30 75 31 20 32
REMARK SMILES IDX 21 33 22 34 69 35 23 36 74 37 68 38 70 39 24 40 73 41 67 42
REMARK SMILES IDX 66 43 25 45 55 46 36 47 54 48 37 49 40 50 53 51 71 52 38 53
REMARK SMILES IDX 39 54 52 56 72 57 41 58 26 59 27 60 35 61 28 62 34 63 29 64
REMARK SMILES IDX 30 65 31 66 32 67 33 68 56 69 57 70 65 71 58 72 64 73 59 74
REMARK SMILES IDX 60 75 61 76 62 77 63 78 42 79 43 80 51 81 44 82 50 83 45 84
REMARK SMILES IDX 46 85 47 86 48 87 49 88
REMARK H PARENT 70 44 40 55
REMARK Flexibility Score: inf
ROOT
ATOM      1  C   UNL     1      -0.381  10.633   3.121  1.00  0.00     0.275 C 
ENDROOT
BRANCH   1   2
ATOM      2  C   UNL     1       0.928   9.878   2.871  1.00  0.00     0.274 C 
BRANCH   2   3
ATOM      3  O   UNL     1       0.644   8.596   2.272  1.00  0.00    -0.462 OA
BRANCH   3   4
ATOM      4  C   UNL     1       0.918   7.511   3.037  1.00  0.00     0.309 C 
ATOM      5  O   UNL     1       1.433   7.554   4.147  1.00  0.00    -0.252 OA
BRANCH   4   6
ATOM      6  C   UNL     1       0.453   6.214   2.419  1.00  0.00     0.103 C 
ATOM      7  N   UNL     1       0.094   3.838   0.889  1.00  0.00    -0.342 N 
ATOM      8  C   UNL     1      -0.925   4.889   0.800  1.00  0.00     0.120 C 
ATOM      9  C   UNL     1       0.913   3.823   2.105  1.00  0.00     0.120 C 
ATOM     10  C   UNL     1      -0.354   6.277   1.123  1.00  0.00     0.037 C 
ATOM     11  C   UNL     1       1.570   5.192   2.278  1.00  0.00     0.037 C 
BRANCH   7  12
ATOM     12  C   UNL     1       0.704   3.448  -0.256  1.00  0.00     0.206 A 
ATOM     13  N   UNL     1       1.036   2.120  -0.492  1.00  0.00    -0.310 N 
ATOM     14  C   UNL     1       1.755   2.087  -1.668  1.00  0.00     0.070 A 
ATOM     15  N   UNL     1       1.049   4.221  -1.256  1.00  0.00    -0.213 NA
ATOM     16  C   UNL     1       1.725   3.406  -2.119  1.00  0.00     0.091 A 
ATOM     17  C   UNL     1       2.409   1.085  -2.396  1.00  0.00     0.029 A 
ATOM     18  C   UNL     1       2.345   3.750  -3.330  1.00  0.00     0.034 A 
ATOM     19  C   UNL     1       3.012   1.442  -3.608  1.00  0.00     0.006 A 
ATOM     20  C   UNL     1       2.982   2.755  -4.085  1.00  0.00    -0.049 A 
ATOM     21  C   UNL     1       3.627   3.116  -5.388  1.00  0.00     0.044 C 
BRANCH  13  22
ATOM     22  C   UNL     1       0.557   1.030   0.342  1.00  0.00     0.122 C 
ATOM     23  C   UNL     1       0.827  -0.400  -0.085  1.00  0.00     0.028 C 
ENDBRANCH  13  22
ENDBRANCH   7  12
ENDBRANCH   4   6
ENDBRANCH   3   4
ENDBRANCH   2   3
ENDBRANCH   1   2
BRANCH   1  24
ATOM     24  O   UNL     1      -1.083  10.005   4.204  1.00  0.00    -0.458 OA
BRANCH  24  25
ATOM     25  C   UNL     1      -2.183   9.284   3.881  1.00  0.00     0.338 C 
ATOM     26  O   UNL     1      -2.882   9.412   2.885  1.00  0.00    -0.246 OA
BRANCH  25  27
ATOM     27  C   UNL     1      -2.170   8.089   4.749  1.00  0.00     0.060 A 
ATOM     28  C   UNL     1      -1.622   8.129   6.037  1.00  0.00     0.016 A 
ATOM     29  C   UNL     1      -2.453   6.868   4.135  1.00  0.00     0.016 A 
ATOM     30  C   UNL     1      -1.178   6.949   6.627  1.00  0.00     0.010 A 
ATOM     31  C   UNL     1      -1.996   5.696   4.724  1.00  0.00     0.010 A 
ATOM     32  C   UNL     1      -1.280   5.745   5.925  1.00  0.00    -0.014 A 
BRANCH  32  33
ATOM     33  C   UNL     1      -0.830   4.502   6.552  1.00  0.00     0.031 A 
ATOM     34  C   UNL     1      -1.889   3.872   7.366  1.00  0.00     0.074 A 
ATOM     35  C   UNL     1       0.353   3.869   6.402  1.00  0.00     0.049 A 
ATOM     36  N   UNL     1      -1.914   3.812   8.654  1.00  0.00    -0.248 NA
ATOM     37  C   UNL     1      -3.121   3.419   6.707  1.00  0.00     0.031 C 
ATOM     38  C   UNL     1       1.471   4.200   5.531  1.00  0.00     0.029 A 
ATOM     39  N   UNL     1       0.766   2.694   6.963  1.00  0.00    -0.354 N 
ATOM     40  C   UNL     1      -3.093   3.160   8.972  1.00  0.00     0.074 A 
ATOM     41  C   UNL     1      -3.877   3.127   7.764  1.00  0.00     0.031 C 
ATOM     42  C   UNL     1       2.290   3.126   5.402  1.00  0.00     0.029 A 
ATOM     43  C   UNL     1       1.855   2.096   6.333  1.00  0.00     0.049 A 
ATOM     44  H   UNL     1       0.328   2.299   7.751  1.00  0.00     0.167 HD
ATOM     45  C   UNL     1      -3.250   2.499  10.149  1.00  0.00     0.031 A 
ATOM     46  C   UNL     1       2.359   0.852   6.562  1.00  0.00     0.031 A 
ATOM     47  C   UNL     1      -2.232   2.848  11.105  1.00  0.00     0.049 A 
ATOM     48  C   UNL     1       1.948   0.474   7.935  1.00  0.00     0.074 A 
ATOM     49  C   UNL     1      -1.825   4.038  11.679  1.00  0.00     0.029 A 
ATOM     50  N   UNL     1      -1.193   1.965  11.288  1.00  0.00    -0.354 N 
ATOM     51  N   UNL     1       2.421   1.052   9.002  1.00  0.00    -0.248 NA
ATOM     52  C   UNL     1       0.684  -0.227   8.101  1.00  0.00     0.031 C 
ATOM     53  C   UNL     1      -0.405   3.956  11.726  1.00  0.00     0.029 A 
ATOM     54  C   UNL     1      -0.031   2.696  11.258  1.00  0.00     0.049 A 
ATOM     55  H   UNL     1      -1.268   0.992  11.417  1.00  0.00     0.167 HD
ATOM     56  C   UNL     1       1.321   1.187   9.833  1.00  0.00     0.074 A 
ATOM     57  C   UNL     1       0.300   0.306   9.264  1.00  0.00     0.031 C 
ATOM     58  C   UNL     1       1.229   2.207  10.736  1.00  0.00     0.031 A 
BRANCH  45  59
ATOM     59  C   UNL     1      -4.148   1.306  10.299  1.00  0.00    -0.014 A 
ATOM     60  C   UNL     1      -4.635   0.568   9.200  1.00  0.00     0.010 A 
ATOM     61  C   UNL     1      -4.356   0.760  11.578  1.00  0.00     0.010 A 
ATOM     62  C   UNL     1      -5.342  -0.621   9.358  1.00  0.00     0.020 A 
ATOM     63  C   UNL     1      -5.018  -0.462  11.748  1.00  0.00     0.020 A 
ATOM     64  C   UNL     1      -5.521  -1.135  10.635  1.00  0.00     0.054 A 
BRANCH  64  65
ATOM     65  S   UNL     1      -6.363  -2.725  10.792  1.00  0.00     0.124 S 
ATOM     66  O   UNL     1      -7.730  -2.378  10.412  1.00  0.00    -0.237 OA
ATOM     67  O   UNL     1      -5.636  -3.558   9.838  1.00  0.00    -0.237 OA
ATOM     68  O   UNL     1      -6.173  -3.075  12.197  1.00  0.00    -0.744 OA
ENDBRANCH  64  65
ENDBRANCH  45  59
BRANCH  46  69
ATOM     69  C   UNL     1       2.683  -0.195   5.546  1.00  0.00    -0.014 A 
ATOM     70  C   UNL     1       2.203  -0.068   4.232  1.00  0.00     0.010 A 
ATOM     71  C   UNL     1       3.149  -1.469   5.950  1.00  0.00     0.010 A 
ATOM     72  C   UNL     1       2.064  -1.188   3.407  1.00  0.00     0.020 A 
ATOM     73  C   UNL     1       3.010  -2.599   5.121  1.00  0.00     0.020 A 
ATOM     74  C   UNL     1       2.416  -2.453   3.871  1.00  0.00     0.054 A 
BRANCH  74  75
ATOM     75  S   UNL     1       1.956  -3.885   2.850  1.00  0.00     0.124 S 
ATOM     76  O   UNL     1       0.499  -3.859   2.940  1.00  0.00    -0.237 OA
ATOM     77  O   UNL     1       2.503  -3.526   1.543  1.00  0.00    -0.237 OA
ATOM     78  O   UNL     1       2.609  -5.010   3.512  1.00  0.00    -0.744 OA
ENDBRANCH  74  75
ENDBRANCH  46  69
BRANCH  58  79
ATOM     79  C   UNL     1       2.444   3.067  11.026  1.00  0.00    -0.014 A 
ATOM     80  C   UNL     1       2.738   3.317  12.379  1.00  0.00     0.010 A 
ATOM     81  C   UNL     1       3.150   3.794  10.046  1.00  0.00     0.010 A 
ATOM     82  C   UNL     1       3.663   4.294  12.751  1.00  0.00     0.020 A 
ATOM     83  C   UNL     1       4.105   4.759  10.412  1.00  0.00     0.020 A 
ATOM     84  C   UNL     1       4.332   5.021  11.766  1.00  0.00     0.054 A 
BRANCH  84  85
ATOM     85  S   UNL     1       5.468   6.330  12.302  1.00  0.00     0.124 S 
ATOM     86  O   UNL     1       4.551   7.340  12.828  1.00  0.00    -0.237 OA
ATOM     87  O   UNL     1       6.288   5.653  13.304  1.00  0.00    -0.237 OA
ATOM     88  O   UNL     1       6.175   6.710  11.081  1.00  0.00    -0.744 OA
ENDBRANCH  84  85
ENDBRANCH  58  79
ENDBRANCH  32  33
ENDBRANCH  25  27
ENDBRANCH  24  25
ENDBRANCH   1  24
TORSDOF 16
