REMARK SMILES COc1cnc(F)c(C(=O)OCCOC(=O)c2ccc(-c3c4nc(c(-c5ccc(S(=O)(=O)[O-])cc5)c5ccc([nH]5)c(-c5ccc(S(=O)(=O)[O-])cc5)c5nc(c(-c6ccc(S(=O)(=O)[O-])cc6)c6ccc3[nH]6)C=C5)C=C4)cc2)c1
REMARK SMILES IDX 13 1 12 2 11 3 9 4 10 5 8 6 3 7 4 8 77 9 5 10 6 11 7 12 2 13
REMARK SMILES IDX 1 14 14 15 15 16 16 17 17 18 18 19 76 20 19 21 75 22 20 23
REMARK SMILES IDX 21 24 22 25 69 26 23 27 74 28 68 29 70 30 24 31 73 32 67 33
REMARK SMILES IDX 66 34 25 36 55 37 36 38 54 39 37 40 40 41 53 42 71 43 38 44
REMARK SMILES IDX 39 45 52 47 72 48 41 49 26 50 27 51 35 52 28 53 34 54 29 55
REMARK SMILES IDX 30 56 31 57 32 58 33 59 56 60 57 61 65 62 58 63 64 64 59 65
REMARK SMILES IDX 60 66 61 67 62 68 63 69 42 70 43 71 51 72 44 73 50 74 45 75
REMARK SMILES IDX 46 76 47 77 48 78 49 79
REMARK H PARENT 70 35 40 46
REMARK Flexibility Score: inf
ROOT
ATOM      1  C   UNL     1       5.681  -0.469   5.823  1.00  0.00     0.275 C 
ENDROOT
BRANCH   1   2
ATOM      2  C   UNL     1       5.024   0.879   6.117  1.00  0.00     0.275 C 
BRANCH   2   3
ATOM      3  O   UNL     1       3.652   0.896   5.670  1.00  0.00    -0.458 OA
BRANCH   3   4
ATOM      4  C   UNL     1       3.376   1.663   4.590  1.00  0.00     0.343 C 
ATOM      5  O   UNL     1       4.176   2.313   3.937  1.00  0.00    -0.246 OA
BRANCH   4   6
ATOM      6  C   UNL     1       1.969   1.528   4.191  1.00  0.00     0.118 A 
ATOM      7  C   UNL     1       0.298   1.339   2.465  1.00  0.00     0.138 A 
ATOM      8  C   UNL     1      -0.656   1.348   3.473  1.00  0.00     0.160 A 
ATOM      9  C   UNL     1       1.630   1.480   2.833  1.00  0.00     0.068 A 
ATOM     10  N   UNL     1      -0.366   1.429   4.795  1.00  0.00    -0.224 NA
ATOM     11  C   UNL     1       0.947   1.506   5.124  1.00  0.00     0.227 A 
ATOM     12  F   UNL     1       1.226   1.635   6.431  1.00  0.00    -0.184 F 
BRANCH   7  13
ATOM     13  O   UNL     1      -0.125   1.280   1.170  1.00  0.00    -0.495 OA
ATOM     14  C   UNL     1       0.520   0.254   0.412  1.00  0.00     0.278 C 
ENDBRANCH   7  13
ENDBRANCH   4   6
ENDBRANCH   3   4
ENDBRANCH   2   3
ENDBRANCH   1   2
BRANCH   1  15
ATOM     15  O   UNL     1       5.859  -0.638   4.405  1.00  0.00    -0.458 OA
BRANCH  15  16
ATOM     16  C   UNL     1       4.982  -1.477   3.809  1.00  0.00     0.338 C 
ATOM     17  O   UNL     1       4.102  -2.134   4.337  1.00  0.00    -0.246 OA
BRANCH  16  18
ATOM     18  C   UNL     1       5.165  -1.426   2.353  1.00  0.00     0.060 A 
ATOM     19  C   UNL     1       4.617  -0.349   1.665  1.00  0.00     0.016 A 
ATOM     20  C   UNL     1       5.716  -2.498   1.657  1.00  0.00     0.016 A 
ATOM     21  C   UNL     1       4.515  -0.386   0.278  1.00  0.00     0.010 A 
ATOM     22  C   UNL     1       5.707  -2.482   0.255  1.00  0.00     0.010 A 
ATOM     23  C   UNL     1       5.065  -1.448  -0.453  1.00  0.00    -0.014 A 
BRANCH  23  24
ATOM     24  C   UNL     1       4.926  -1.491  -1.940  1.00  0.00     0.031 A 
ATOM     25  C   UNL     1       4.276  -2.677  -2.612  1.00  0.00     0.074 A 
ATOM     26  C   UNL     1       5.349  -0.457  -2.698  1.00  0.00     0.049 A 
ATOM     27  N   UNL     1       4.206  -2.969  -3.886  1.00  0.00    -0.248 NA
ATOM     28  C   UNL     1       3.629  -3.670  -1.737  1.00  0.00     0.031 C 
ATOM     29  C   UNL     1       5.946   0.782  -2.192  1.00  0.00     0.029 A 
ATOM     30  N   UNL     1       5.327  -0.276  -4.060  1.00  0.00    -0.354 N 
ATOM     31  C   UNL     1       3.571  -4.205  -3.962  1.00  0.00     0.074 A 
ATOM     32  C   UNL     1       3.273  -4.608  -2.605  1.00  0.00     0.031 C 
ATOM     33  C   UNL     1       6.180   1.612  -3.219  1.00  0.00     0.029 A 
ATOM     34  C   UNL     1       5.854   0.930  -4.465  1.00  0.00     0.049 A 
ATOM     35  H   UNL     1       4.969  -0.945  -4.688  1.00  0.00     0.167 HD
ATOM     36  C   UNL     1       3.268  -4.941  -5.060  1.00  0.00     0.031 A 
ATOM     37  C   UNL     1       6.097   1.421  -5.696  1.00  0.00     0.031 A 
ATOM     38  C   UNL     1       3.525  -4.518  -6.413  1.00  0.00     0.049 A 
ATOM     39  C   UNL     1       5.792   0.573  -6.897  1.00  0.00     0.074 A 
ATOM     40  C   UNL     1       3.247  -5.190  -7.591  1.00  0.00     0.029 A 
ATOM     41  N   UNL     1       4.104  -3.310  -6.771  1.00  0.00    -0.354 N 
ATOM     42  N   UNL     1       5.252  -0.622  -6.944  1.00  0.00    -0.248 NA
ATOM     43  C   UNL     1       6.149   1.128  -8.209  1.00  0.00     0.031 C 
ATOM     44  C   UNL     1       3.698  -4.407  -8.660  1.00  0.00     0.029 A 
ATOM     45  C   UNL     1       4.206  -3.224  -8.149  1.00  0.00     0.049 A 
ATOM     46  H   UNL     1       4.399  -2.616  -6.138  1.00  0.00     0.167 HD
ATOM     47  C   UNL     1       5.198  -0.957  -8.292  1.00  0.00     0.074 A 
ATOM     48  C   UNL     1       5.737   0.169  -9.027  1.00  0.00     0.031 C 
ATOM     49  C   UNL     1       4.749  -2.099  -8.867  1.00  0.00     0.031 A 
BRANCH  36  50
ATOM     50  C   UNL     1       2.667  -6.306  -4.846  1.00  0.00    -0.014 A 
ATOM     51  C   UNL     1       1.339  -6.470  -4.415  1.00  0.00     0.010 A 
ATOM     52  C   UNL     1       3.439  -7.449  -5.128  1.00  0.00     0.010 A 
ATOM     53  C   UNL     1       0.808  -7.751  -4.230  1.00  0.00     0.020 A 
ATOM     54  C   UNL     1       2.904  -8.731  -4.971  1.00  0.00     0.020 A 
ATOM     55  C   UNL     1       1.597  -8.874  -4.504  1.00  0.00     0.054 A 
BRANCH  55  56
ATOM     56  S   UNL     1       0.879 -10.524  -4.272  1.00  0.00     0.124 S 
ATOM     57  O   UNL     1       0.864 -10.642  -2.816  1.00  0.00    -0.237 OA
ATOM     58  O   UNL     1      -0.431 -10.397  -4.905  1.00  0.00    -0.237 OA
ATOM     59  O   UNL     1       1.816 -11.410  -4.958  1.00  0.00    -0.744 OA
ENDBRANCH  55  56
ENDBRANCH  36  50
BRANCH  37  60
ATOM     60  C   UNL     1       6.721   2.765  -5.847  1.00  0.00    -0.014 A 
ATOM     61  C   UNL     1       5.991   3.840  -6.382  1.00  0.00     0.010 A 
ATOM     62  C   UNL     1       8.048   2.981  -5.429  1.00  0.00     0.010 A 
ATOM     63  C   UNL     1       6.577   5.104  -6.500  1.00  0.00     0.020 A 
ATOM     64  C   UNL     1       8.626   4.249  -5.515  1.00  0.00     0.020 A 
ATOM     65  C   UNL     1       7.890   5.302  -6.060  1.00  0.00     0.054 A 
BRANCH  65  66
ATOM     66  S   UNL     1       8.609   6.965  -6.155  1.00  0.00     0.124 S 
ATOM     67  O   UNL     1       8.914   7.082  -7.577  1.00  0.00    -0.237 OA
ATOM     68  O   UNL     1       7.521   7.809  -5.668  1.00  0.00    -0.237 OA
ATOM     69  O   UNL     1       9.768   6.885  -5.269  1.00  0.00    -0.744 OA
ENDBRANCH  65  66
ENDBRANCH  37  60
BRANCH  49  70
ATOM     70  C   UNL     1       4.794  -2.177 -10.369  1.00  0.00    -0.014 A 
ATOM     71  C   UNL     1       6.010  -2.357 -11.051  1.00  0.00     0.010 A 
ATOM     72  C   UNL     1       3.596  -2.114 -11.104  1.00  0.00     0.010 A 
ATOM     73  C   UNL     1       6.030  -2.441 -12.446  1.00  0.00     0.020 A 
ATOM     74  C   UNL     1       3.609  -2.223 -12.496  1.00  0.00     0.020 A 
ATOM     75  C   UNL     1       4.829  -2.372 -13.160  1.00  0.00     0.054 A 
BRANCH  75  76
ATOM     76  S   UNL     1       4.876  -2.524 -14.966  1.00  0.00     0.124 S 
ATOM     77  O   UNL     1       5.399  -1.221 -15.367  1.00  0.00    -0.237 OA
ATOM     78  O   UNL     1       5.779  -3.654 -15.170  1.00  0.00    -0.237 OA
ATOM     79  O   UNL     1       3.483  -2.775 -15.329  1.00  0.00    -0.744 OA
ENDBRANCH  75  76
ENDBRANCH  49  70
ENDBRANCH  23  24
ENDBRANCH  16  18
ENDBRANCH  15  16
ENDBRANCH   1  15
TORSDOF 15
