REMARK SMILES O=C(OCCOC(=O)[C@@H]1CC=CC[C@@H]1C(=O)Nc1sc2c(c1C(=O)N1CCCCC1)CCCC2)c1ccc(-c2c3nc(c(-c4ccc(S(=O)(=O)[O-])cc4)c4ccc([nH]4)c(-c4ccc(S(=O)(=O)[O-])cc4)c4nc(c(-c5ccc(S(=O)(=O)[O-])cc5)c5ccc2[nH]5)C=C4)C=C3)cc1
REMARK SMILES IDX 4 1 3 2 2 3 1 4 35 5 36 6 94 7 37 8 93 9 38 10 39 11 40 12
REMARK SMILES IDX 87 13 41 14 92 15 86 16 88 17 42 18 91 19 85 20 84 21 43 23
REMARK SMILES IDX 73 24 54 25 72 26 55 27 58 28 71 29 89 30 56 31 57 32 70 34
REMARK SMILES IDX 90 35 59 36 44 37 45 38 53 39 46 40 52 41 47 42 48 43 49 44
REMARK SMILES IDX 50 45 51 46 74 47 75 48 83 49 76 50 82 51 77 52 78 53 79 54
REMARK SMILES IDX 80 55 81 56 60 57 61 58 69 59 62 60 68 61 63 62 64 63 65 64
REMARK SMILES IDX 66 65 67 66 5 67 6 68 7 69 8 70 9 71 10 72 14 73 11 74 13 75
REMARK SMILES IDX 12 76 15 77 16 78 17 79 18 81 19 82 22 83 20 84 21 85 34 86
REMARK SMILES IDX 31 87 33 88 32 89 23 90 24 91 25 92 26 93 30 94 27 95 29 96
REMARK SMILES IDX 28 97
REMARK H PARENT 88 22 58 33 17 80
REMARK Flexibility Score: inf
ROOT
ATOM      1  C   UNL     1       2.581  -4.913  -2.118  1.00  0.00     0.275 C 
ENDROOT
BRANCH   1   2
ATOM      2  O   UNL     1       1.765  -3.792  -2.461  1.00  0.00    -0.458 OA
BRANCH   2   3
ATOM      3  C   UNL     1       0.775  -3.215  -1.746  1.00  0.00     0.338 C 
ATOM      4  O   UNL     1       0.249  -2.201  -2.205  1.00  0.00    -0.246 OA
BRANCH   3   5
ATOM      5  C   UNL     1       0.317  -3.703  -0.400  1.00  0.00     0.060 A 
ATOM      6  C   UNL     1       0.461  -4.988   0.152  1.00  0.00     0.016 A 
ATOM      7  C   UNL     1      -0.321  -2.743   0.383  1.00  0.00     0.016 A 
ATOM      8  C   UNL     1       0.089  -5.282   1.480  1.00  0.00     0.010 A 
ATOM      9  C   UNL     1      -0.723  -3.047   1.683  1.00  0.00     0.010 A 
ATOM     10  C   UNL     1      -0.489  -4.307   2.281  1.00  0.00    -0.014 A 
BRANCH  10  11
ATOM     11  C   UNL     1      -0.892  -4.510   3.717  1.00  0.00     0.031 A 
ATOM     12  C   UNL     1      -2.304  -4.148   4.083  1.00  0.00     0.074 A 
ATOM     13  C   UNL     1      -0.024  -4.814   4.716  1.00  0.00     0.049 A 
ATOM     14  N   UNL     1      -2.850  -4.016   5.263  1.00  0.00    -0.248 NA
ATOM     15  C   UNL     1      -3.221  -3.868   2.960  1.00  0.00     0.031 C 
ATOM     16  C   UNL     1       1.383  -5.183   4.562  1.00  0.00     0.029 A 
ATOM     17  N   UNL     1      -0.175  -4.752   6.091  1.00  0.00    -0.354 N 
ATOM     18  C   UNL     1      -4.162  -3.649   5.010  1.00  0.00     0.074 A 
ATOM     19  C   UNL     1      -4.280  -3.401   3.594  1.00  0.00     0.031 C 
ATOM     20  C   UNL     1       1.997  -5.159   5.759  1.00  0.00     0.029 A 
ATOM     21  C   UNL     1       1.017  -4.842   6.788  1.00  0.00     0.049 A 
ATOM     22  H   UNL     1      -1.050  -4.654   6.532  1.00  0.00     0.167 HD
ATOM     23  C   UNL     1      -5.215  -3.649   5.855  1.00  0.00     0.031 A 
ATOM     24  C   UNL     1       1.296  -4.694   8.101  1.00  0.00     0.031 A 
ATOM     25  C   UNL     1      -5.108  -3.936   7.252  1.00  0.00     0.049 A 
ATOM     26  C   UNL     1       0.140  -4.574   9.061  1.00  0.00     0.074 A 
ATOM     27  C   UNL     1      -6.118  -4.104   8.178  1.00  0.00     0.029 A 
ATOM     28  N   UNL     1      -3.906  -4.096   7.923  1.00  0.00    -0.354 N 
ATOM     29  N   UNL     1      -1.134  -4.418   8.796  1.00  0.00    -0.248 NA
ATOM     30  C   UNL     1       0.443  -4.715  10.493  1.00  0.00     0.031 C 
ATOM     31  C   UNL     1      -5.523  -4.323   9.425  1.00  0.00     0.029 A 
ATOM     32  C   UNL     1      -4.146  -4.343   9.261  1.00  0.00     0.049 A 
ATOM     33  H   UNL     1      -3.014  -4.042   7.508  1.00  0.00     0.167 HD
ATOM     34  C   UNL     1      -1.793  -4.557  10.011  1.00  0.00     0.074 A 
ATOM     35  C   UNL     1      -0.774  -4.758  11.020  1.00  0.00     0.031 C 
ATOM     36  C   UNL     1      -3.126  -4.565  10.254  1.00  0.00     0.031 A 
BRANCH  23  37
ATOM     37  C   UNL     1      -6.563  -3.431   5.230  1.00  0.00    -0.014 A 
ATOM     38  C   UNL     1      -7.075  -4.372   4.312  1.00  0.00     0.010 A 
ATOM     39  C   UNL     1      -7.302  -2.273   5.512  1.00  0.00     0.010 A 
ATOM     40  C   UNL     1      -8.262  -4.122   3.628  1.00  0.00     0.020 A 
ATOM     41  C   UNL     1      -8.515  -2.039   4.857  1.00  0.00     0.020 A 
ATOM     42  C   UNL     1      -8.972  -2.952   3.902  1.00  0.00     0.054 A 
BRANCH  42  43
ATOM     43  S   UNL     1     -10.514  -2.653   3.000  1.00  0.00     0.124 S 
ATOM     44  O   UNL     1     -10.023  -2.294   1.672  1.00  0.00    -0.237 OA
ATOM     45  O   UNL     1     -11.193  -3.943   3.090  1.00  0.00    -0.237 OA
ATOM     46  O   UNL     1     -11.145  -1.567   3.746  1.00  0.00    -0.744 OA
ENDBRANCH  42  43
ENDBRANCH  23  37
BRANCH  24  47
ATOM     47  C   UNL     1       2.695  -4.781   8.626  1.00  0.00    -0.014 A 
ATOM     48  C   UNL     1       3.150  -5.961   9.244  1.00  0.00     0.010 A 
ATOM     49  C   UNL     1       3.561  -3.672   8.575  1.00  0.00     0.010 A 
ATOM     50  C   UNL     1       4.420  -6.022   9.831  1.00  0.00     0.020 A 
ATOM     51  C   UNL     1       4.842  -3.733   9.148  1.00  0.00     0.020 A 
ATOM     52  C   UNL     1       5.259  -4.905   9.783  1.00  0.00     0.054 A 
BRANCH  52  53
ATOM     53  S   UNL     1       6.904  -5.022  10.549  1.00  0.00     0.124 S 
ATOM     54  O   UNL     1       6.577  -5.131  11.967  1.00  0.00    -0.237 OA
ATOM     55  O   UNL     1       7.451  -6.228   9.932  1.00  0.00    -0.237 OA
ATOM     56  O   UNL     1       7.558  -3.776  10.154  1.00  0.00    -0.744 OA
ENDBRANCH  52  53
ENDBRANCH  24  47
BRANCH  36  57
ATOM     57  C   UNL     1      -3.582  -4.886  11.648  1.00  0.00    -0.014 A 
ATOM     58  C   UNL     1      -3.433  -3.970  12.701  1.00  0.00     0.010 A 
ATOM     59  C   UNL     1      -4.255  -6.102  11.880  1.00  0.00     0.010 A 
ATOM     60  C   UNL     1      -3.939  -4.270  13.968  1.00  0.00     0.020 A 
ATOM     61  C   UNL     1      -4.791  -6.390  13.135  1.00  0.00     0.020 A 
ATOM     62  C   UNL     1      -4.622  -5.474  14.174  1.00  0.00     0.054 A 
BRANCH  62  63
ATOM     63  S   UNL     1      -5.343  -5.797  15.805  1.00  0.00     0.124 S 
ATOM     64  O   UNL     1      -4.159  -6.088  16.609  1.00  0.00    -0.237 OA
ATOM     65  O   UNL     1      -6.017  -4.537  16.111  1.00  0.00    -0.237 OA
ATOM     66  O   UNL     1      -6.234  -6.932  15.573  1.00  0.00    -0.744 OA
ENDBRANCH  62  63
ENDBRANCH  36  57
ENDBRANCH  10  11
ENDBRANCH   3   5
ENDBRANCH   2   3
ENDBRANCH   1   2
BRANCH   1  67
ATOM     67  C   UNL     1       3.674  -4.635  -1.084  1.00  0.00     0.274 C 
BRANCH  67  68
ATOM     68  O   UNL     1       3.274  -4.029   0.163  1.00  0.00    -0.462 OA
BRANCH  68  69
ATOM     69  C   UNL     1       3.417  -2.673   0.289  1.00  0.00     0.310 C 
ATOM     70  O   UNL     1       3.486  -1.911  -0.669  1.00  0.00    -0.252 OA
BRANCH  69  71
ATOM     71  C   UNL     1       3.725  -2.228   1.721  1.00  0.00     0.116 C 
ATOM     72  C   UNL     1       4.022  -3.404   2.656  1.00  0.00     0.043 C 
ATOM     73  C   UNL     1       2.902  -1.057   2.379  1.00  0.00     0.097 C 
ATOM     74  C   UNL     1       4.388  -2.952   4.035  1.00  0.00    -0.030 C 
ATOM     75  C   UNL     1       3.744  -0.555   3.582  1.00  0.00     0.041 C 
ATOM     76  C   UNL     1       4.289  -1.676   4.442  1.00  0.00    -0.030 C 
BRANCH  73  77
ATOM     77  C   UNL     1       1.563  -1.414   3.017  1.00  0.00     0.229 C 
ATOM     78  O   UNL     1       1.397  -2.596   3.318  1.00  0.00    -0.274 OA
ATOM     79  N   UNL     1       0.576  -0.563   3.442  1.00  0.00    -0.317 N 
ATOM     80  H   UNL     1      -0.182  -1.042   3.849  1.00  0.00     0.170 HD
BRANCH  79  81
ATOM     81  C   UNL     1       0.388   0.811   3.435  1.00  0.00     0.108 A 
ATOM     82  S   UNL     1       1.282   1.770   2.372  1.00  0.00    -0.122 S 
ATOM     83  C   UNL     1      -0.510   1.559   4.232  1.00  0.00     0.078 A 
ATOM     84  C   UNL     1       0.840   3.178   3.180  1.00  0.00     0.011 A 
ATOM     85  C   UNL     1      -0.130   2.971   4.146  1.00  0.00    -0.019 A 
ATOM     86  C   UNL     1       1.502   4.479   2.859  1.00  0.00     0.047 C 
ATOM     87  C   UNL     1      -0.568   4.121   5.012  1.00  0.00     0.037 C 
ATOM     88  C   UNL     1       1.429   5.407   4.072  1.00  0.00     0.006 C 
ATOM     89  C   UNL     1      -0.003   5.487   4.592  1.00  0.00     0.005 C 
BRANCH  83  90
ATOM     90  C   UNL     1      -1.494   0.852   5.117  1.00  0.00     0.257 C 
ATOM     91  O   UNL     1      -1.615  -0.363   5.027  1.00  0.00    -0.269 OA
ATOM     92  N   UNL     1      -2.158   1.542   6.144  1.00  0.00    -0.339 N 
ATOM     93  C   UNL     1      -2.084   0.978   7.492  1.00  0.00     0.120 C 
ATOM     94  C   UNL     1      -3.159   2.584   5.928  1.00  0.00     0.120 C 
ATOM     95  C   UNL     1      -3.445   0.687   8.125  1.00  0.00     0.022 C 
ATOM     96  C   UNL     1      -4.527   2.263   6.537  1.00  0.00     0.022 C 
ATOM     97  C   UNL     1      -4.383   1.883   8.007  1.00  0.00     0.004 C 
ENDBRANCH  83  90
ENDBRANCH  79  81
ENDBRANCH  73  77
ENDBRANCH  69  71
ENDBRANCH  68  69
ENDBRANCH  67  68
ENDBRANCH   1  67
TORSDOF 17
