REMARK SMILES O=C(COc1ccc(/C=C2\SC(=O)N(Cc3cc4c(cc3Cl)OCO4)C2=O)cc1)OCCOC(=O)c1ccc(-c2c3nc(c(-c4ccc(S(=O)(=O)[O-])cc4)c4ccc([nH]4)c(-c4ccc(S(=O)(=O)[O-])cc4)c4nc(c(-c5ccc(S(=O)(=O)[O-])cc5)c5ccc2[nH]5)C=C4)C=C3)cc1
REMARK SMILES IDX 31 1 30 2 2 3 1 4 3 5 4 6 5 7 6 8 29 9 7 10 28 11 8 12 9 13
REMARK SMILES IDX 10 14 11 15 26 16 12 17 14 18 27 19 13 20 15 21 16 22 17 23
REMARK SMILES IDX 21 24 18 25 20 26 22 27 19 28 25 29 23 30 24 31 32 32 33 33
REMARK SMILES IDX 34 34 35 35 36 36 37 37 95 38 38 39 94 40 39 41 40 42 41 43
REMARK SMILES IDX 88 44 42 45 93 46 87 47 89 48 43 49 92 50 86 51 85 52 44 54
REMARK SMILES IDX 74 55 55 56 73 57 56 58 59 59 72 60 90 61 57 62 58 63 71 65
REMARK SMILES IDX 91 66 60 67 45 68 46 69 54 70 47 71 53 72 48 73 49 74 50 75
REMARK SMILES IDX 51 76 52 77 75 78 76 79 84 80 77 81 83 82 78 83 79 84 80 85
REMARK SMILES IDX 81 86 82 87 61 88 62 89 70 90 63 91 69 92 64 93 65 94 66 95
REMARK SMILES IDX 67 96 68 97
REMARK H PARENT 89 53 59 64
REMARK Flexibility Score: inf
ROOT
ATOM      1  C   UNL     1       4.593   0.448   1.002  1.00  0.00     0.274 C 
ENDROOT
BRANCH   1   2
ATOM      2  O   UNL     1       3.240   0.693   0.572  1.00  0.00    -0.460 OA
BRANCH   2   3
ATOM      3  C   UNL     1       2.586  -0.109  -0.305  1.00  0.00     0.344 C 
ATOM      4  O   UNL     1       1.359  -0.072  -0.377  1.00  0.00    -0.248 OA
BRANCH   3   5
ATOM      5  C   UNL     1       3.417  -0.989  -1.242  1.00  0.00     0.351 C 
BRANCH   5   6
ATOM      6  O   UNL     1       4.325  -0.301  -2.102  1.00  0.00    -0.482 OA
BRANCH   6   7
ATOM      7  C   UNL     1       3.642   0.179  -3.184  1.00  0.00     0.120 A 
ATOM      8  C   UNL     1       3.825  -0.433  -4.424  1.00  0.00     0.047 A 
ATOM      9  C   UNL     1       2.757   1.240  -3.029  1.00  0.00     0.047 A 
ATOM     10  C   UNL     1       3.055  -0.018  -5.513  1.00  0.00     0.012 A 
ATOM     11  C   UNL     1       1.968   1.622  -4.095  1.00  0.00     0.012 A 
ATOM     12  C   UNL     1       2.120   1.006  -5.341  1.00  0.00    -0.024 A 
BRANCH  12  13
ATOM     13  C   UNL     1       1.239   1.463  -6.405  1.00  0.00     0.029 C 
ATOM     14  C   UNL     1       1.253   2.715  -6.873  1.00  0.00     0.083 C 
ATOM     15  S   UNL     1       2.400   3.973  -6.619  1.00  0.00    -0.022 SA
ATOM     16  C   UNL     1       0.190   3.198  -7.770  1.00  0.00     0.268 C 
ATOM     17  C   UNL     1       1.724   4.937  -7.925  1.00  0.00     0.293 C 
ATOM     18  N   UNL     1       0.649   4.281  -8.466  1.00  0.00    -0.264 N 
ATOM     19  O   UNL     1      -0.944   2.744  -7.784  1.00  0.00    -0.268 OA
ATOM     20  O   UNL     1       2.163   6.022  -8.244  1.00  0.00    -0.261 OA
BRANCH  18  21
ATOM     21  C   UNL     1      -0.017   4.737  -9.663  1.00  0.00     0.167 C 
BRANCH  21  22
ATOM     22  C   UNL     1       0.644   4.126 -10.889  1.00  0.00    -0.005 A 
ATOM     23  C   UNL     1       1.537   4.920 -11.636  1.00  0.00     0.057 A 
ATOM     24  C   UNL     1       0.447   2.772 -11.280  1.00  0.00     0.050 A 
ATOM     25  C   UNL     1       2.163   4.351 -12.727  1.00  0.00     0.166 A 
ATOM     26  C   UNL     1       1.167   2.204 -12.334  1.00  0.00     0.071 A 
ATOM     27  Cl  UNL     1      -0.739   1.749 -10.562  1.00  0.00    -0.084 Cl
ATOM     28  C   UNL     1       1.998   3.026 -13.050  1.00  0.00     0.167 A 
ATOM     29  O   UNL     1       2.976   4.993 -13.610  1.00  0.00    -0.454 OA
ATOM     30  O   UNL     1       2.697   2.668 -14.159  1.00  0.00    -0.454 OA
ATOM     31  C   UNL     1       3.145   3.960 -14.606  1.00  0.00     0.468 C 
ENDBRANCH  21  22
ENDBRANCH  18  21
ENDBRANCH  12  13
ENDBRANCH   6   7
ENDBRANCH   5   6
ENDBRANCH   3   5
ENDBRANCH   2   3
ENDBRANCH   1   2
BRANCH   1  32
ATOM     32  C   UNL     1       4.614  -0.499   2.204  1.00  0.00     0.275 C 
BRANCH  32  33
ATOM     33  O   UNL     1       4.211  -1.819   1.795  1.00  0.00    -0.458 OA
BRANCH  33  34
ATOM     34  C   UNL     1       2.916  -2.156   2.034  1.00  0.00     0.338 C 
ATOM     35  O   UNL     1       2.104  -1.514   2.674  1.00  0.00    -0.246 OA
BRANCH  34  36
ATOM     36  C   UNL     1       2.582  -3.334   1.198  1.00  0.00     0.060 A 
ATOM     37  C   UNL     1       1.349  -3.360   0.530  1.00  0.00     0.016 A 
ATOM     38  C   UNL     1       3.490  -4.384   1.035  1.00  0.00     0.016 A 
ATOM     39  C   UNL     1       1.009  -4.452  -0.274  1.00  0.00     0.010 A 
ATOM     40  C   UNL     1       3.145  -5.478   0.241  1.00  0.00     0.010 A 
ATOM     41  C   UNL     1       1.891  -5.534  -0.392  1.00  0.00    -0.014 A 
BRANCH  41  42
ATOM     42  C   UNL     1       1.448  -6.820  -0.981  1.00  0.00     0.031 A 
ATOM     43  C   UNL     1       0.936  -7.881  -0.045  1.00  0.00     0.074 A 
ATOM     44  C   UNL     1       1.549  -7.074  -2.297  1.00  0.00     0.049 A 
ATOM     45  N   UNL     1       0.613  -9.123  -0.294  1.00  0.00    -0.248 NA
ATOM     46  C   UNL     1       0.783  -7.486   1.365  1.00  0.00     0.031 C 
ATOM     47  C   UNL     1       1.993  -6.126  -3.315  1.00  0.00     0.029 A 
ATOM     48  N   UNL     1       1.300  -8.230  -2.997  1.00  0.00    -0.354 N 
ATOM     49  C   UNL     1       0.232  -9.662   0.929  1.00  0.00     0.074 A 
ATOM     50  C   UNL     1       0.388  -8.621   1.921  1.00  0.00     0.031 C 
ATOM     51  C   UNL     1       2.006  -6.746  -4.510  1.00  0.00     0.029 A 
ATOM     52  C   UNL     1       1.605  -8.142  -4.334  1.00  0.00     0.049 A 
ATOM     53  H   UNL     1       0.937  -9.045  -2.579  1.00  0.00     0.167 HD
ATOM     54  C   UNL     1      -0.206 -10.913   1.206  1.00  0.00     0.031 A 
ATOM     55  C   UNL     1       1.587  -9.085  -5.298  1.00  0.00     0.031 A 
ATOM     56  C   UNL     1      -0.334 -11.958   0.229  1.00  0.00     0.049 A 
ATOM     57  C   UNL     1       1.160 -10.491  -4.959  1.00  0.00     0.074 A 
ATOM     58  C   UNL     1      -0.773 -13.257   0.412  1.00  0.00     0.029 A 
ATOM     59  N   UNL     1      -0.011 -11.827  -1.113  1.00  0.00    -0.354 N 
ATOM     60  N   UNL     1       0.780 -10.982  -3.803  1.00  0.00    -0.248 NA
ATOM     61  C   UNL     1       1.155 -11.470  -6.057  1.00  0.00     0.031 C 
ATOM     62  C   UNL     1      -0.669 -13.927  -0.812  1.00  0.00     0.029 A 
ATOM     63  C   UNL     1      -0.220 -13.028  -1.767  1.00  0.00     0.049 A 
ATOM     64  H   UNL     1       0.319 -11.002  -1.537  1.00  0.00     0.167 HD
ATOM     65  C   UNL     1       0.458 -12.316  -4.042  1.00  0.00     0.074 A 
ATOM     66  C   UNL     1       0.689 -12.555  -5.452  1.00  0.00     0.031 C 
ATOM     67  C   UNL     1       0.003 -13.252  -3.174  1.00  0.00     0.031 A 
BRANCH  54  68
ATOM     68  C   UNL     1      -0.529 -11.218   2.643  1.00  0.00    -0.014 A 
ATOM     69  C   UNL     1      -1.663 -10.667   3.266  1.00  0.00     0.010 A 
ATOM     70  C   UNL     1       0.324 -12.055   3.383  1.00  0.00     0.010 A 
ATOM     71  C   UNL     1      -1.907 -10.904   4.621  1.00  0.00     0.020 A 
ATOM     72  C   UNL     1       0.068 -12.317   4.731  1.00  0.00     0.020 A 
ATOM     73  C   UNL     1      -1.033 -11.719   5.347  1.00  0.00     0.054 A 
BRANCH  73  74
ATOM     74  S   UNL     1      -1.360 -11.997   7.109  1.00  0.00     0.124 S 
ATOM     75  O   UNL     1      -0.941 -10.727   7.696  1.00  0.00    -0.237 OA
ATOM     76  O   UNL     1      -2.797 -12.256   7.133  1.00  0.00    -0.237 OA
ATOM     77  O   UNL     1      -0.518 -13.144   7.440  1.00  0.00    -0.744 OA
ENDBRANCH  73  74
ENDBRANCH  54  68
BRANCH  55  78
ATOM     78  C   UNL     1       2.000  -8.732  -6.684  1.00  0.00    -0.014 A 
ATOM     79  C   UNL     1       1.046  -8.638  -7.712  1.00  0.00     0.010 A 
ATOM     80  C   UNL     1       3.351  -8.472  -6.978  1.00  0.00     0.010 A 
ATOM     81  C   UNL     1       1.436  -8.295  -9.011  1.00  0.00     0.020 A 
ATOM     82  C   UNL     1       3.741  -8.106  -8.269  1.00  0.00     0.020 A 
ATOM     83  C   UNL     1       2.781  -8.025  -9.280  1.00  0.00     0.054 A 
BRANCH  83  84
ATOM     84  S   UNL     1       3.254  -7.507 -10.954  1.00  0.00     0.124 S 
ATOM     85  O   UNL     1       3.168  -8.761 -11.696  1.00  0.00    -0.237 OA
ATOM     86  O   UNL     1       2.237  -6.509 -11.274  1.00  0.00    -0.237 OA
ATOM     87  O   UNL     1       4.603  -6.974 -10.777  1.00  0.00    -0.744 OA
ENDBRANCH  83  84
ENDBRANCH  55  78
BRANCH  67  88
ATOM     88  C   UNL     1      -0.330 -14.618  -3.715  1.00  0.00    -0.014 A 
ATOM     89  C   UNL     1       0.676 -15.537  -4.057  1.00  0.00     0.010 A 
ATOM     90  C   UNL     1      -1.678 -15.017  -3.789  1.00  0.00     0.010 A 
ATOM     91  C   UNL     1       0.338 -16.829  -4.475  1.00  0.00     0.020 A 
ATOM     92  C   UNL     1      -2.018 -16.313  -4.183  1.00  0.00     0.020 A 
ATOM     93  C   UNL     1      -1.007 -17.210  -4.532  1.00  0.00     0.054 A 
BRANCH  93  94
ATOM     94  S   UNL     1      -1.417 -18.913  -5.007  1.00  0.00     0.124 S 
ATOM     95  O   UNL     1      -1.183 -18.892  -6.448  1.00  0.00    -0.237 OA
ATOM     96  O   UNL     1      -0.465 -19.702  -4.228  1.00  0.00    -0.237 OA
ATOM     97  O   UNL     1      -2.813 -19.058  -4.603  1.00  0.00    -0.744 OA
ENDBRANCH  93  94
ENDBRANCH  67  88
ENDBRANCH  41  42
ENDBRANCH  34  36
ENDBRANCH  33  34
ENDBRANCH  32  33
ENDBRANCH   1  32
TORSDOF 19
