REMARK SMILES CCC[C@H](Oc1ccccc1C(C)=O)C(=O)OCCOC(=O)c1ccc(-c2c3nc(c(-c4ccc(S(=O)(=O)[O-])cc4)c4ccc([nH]4)c(-c4ccc(S(=O)(=O)[O-])cc4)c4nc(c(-c5ccc(S(=O)(=O)[O-])cc5)c5ccc2[nH]5)C=C4)C=C3)cc1
REMARK SMILES IDX 18 1 17 2 15 3 16 4 4 5 3 6 2 7 1 8 5 9 6 10 7 11 11 12 8 13
REMARK SMILES IDX 10 14 9 15 12 16 13 17 14 18 19 19 20 20 21 21 22 22 23 23
REMARK SMILES IDX 24 24 82 25 25 26 81 27 26 28 27 29 28 30 75 31 29 32 80 33
REMARK SMILES IDX 74 34 76 35 30 36 79 37 73 38 72 39 31 41 61 42 42 43 60 44
REMARK SMILES IDX 43 45 46 46 59 47 77 48 44 49 45 50 58 52 78 53 47 54 32 55
REMARK SMILES IDX 33 56 41 57 34 58 40 59 35 60 36 61 37 62 38 63 39 64 62 65
REMARK SMILES IDX 63 66 71 67 64 68 70 69 65 70 66 71 67 72 68 73 69 74 48 75
REMARK SMILES IDX 49 76 57 77 50 78 56 79 51 80 52 81 53 82 54 83 55 84
REMARK H PARENT 76 40 46 51
REMARK Flexibility Score: inf
ROOT
ATOM      1  C   UNL     1       1.229   4.652  -4.370  1.00  0.00     0.274 C 
ENDROOT
BRANCH   1   2
ATOM      2  O   UNL     1       0.791   3.922  -3.211  1.00  0.00    -0.459 OA
BRANCH   2   3
ATOM      3  C   UNL     1       0.244   2.701  -3.439  1.00  0.00     0.347 C 
ATOM      4  O   UNL     1       0.021   2.233  -4.552  1.00  0.00    -0.248 OA
BRANCH   3   5
ATOM      5  C   UNL     1      -0.096   1.941  -2.150  1.00  0.00     0.282 C 
BRANCH   5   6
ATOM      6  C   UNL     1      -1.607   2.062  -1.871  1.00  0.00     0.057 C 
BRANCH   6   7
ATOM      7  C   UNL     1      -2.055   3.012  -0.758  1.00  0.00     0.001 C 
ATOM      8  C   UNL     1      -1.680   4.464  -0.984  1.00  0.00     0.004 C 
ENDBRANCH   6   7
ENDBRANCH   5   6
BRANCH   5   9
ATOM      9  O   UNL     1       0.745   2.320  -1.066  1.00  0.00    -0.478 OA
BRANCH   9  10
ATOM     10  C   UNL     1       0.844   1.539   0.054  1.00  0.00     0.131 A 
ATOM     11  C   UNL     1       0.412   0.204   0.095  1.00  0.00     0.047 A 
ATOM     12  C   UNL     1       1.416   2.115   1.214  1.00  0.00     0.059 A 
ATOM     13  C   UNL     1       0.509  -0.547   1.267  1.00  0.00     0.004 A 
ATOM     14  C   UNL     1       1.507   1.338   2.384  1.00  0.00     0.016 A 
ATOM     15  C   UNL     1       1.051   0.019   2.410  1.00  0.00     0.001 A 
BRANCH  12  16
ATOM     16  C   UNL     1       1.866   3.554   1.243  1.00  0.00     0.163 C 
ATOM     17  C   UNL     1       2.880   4.007   2.268  1.00  0.00     0.093 C 
ATOM     18  O   UNL     1       1.417   4.382   0.453  1.00  0.00    -0.294 OA
ENDBRANCH  12  16
ENDBRANCH   9  10
ENDBRANCH   5   9
ENDBRANCH   3   5
ENDBRANCH   2   3
ENDBRANCH   1   2
BRANCH   1  19
ATOM     19  C   UNL     1       2.751   4.602  -4.487  1.00  0.00     0.275 C 
BRANCH  19  20
ATOM     20  O   UNL     1       3.195   3.249  -4.688  1.00  0.00    -0.458 OA
BRANCH  20  21
ATOM     21  C   UNL     1       3.810   2.674  -3.628  1.00  0.00     0.338 C 
ATOM     22  O   UNL     1       4.089   3.178  -2.556  1.00  0.00    -0.246 OA
BRANCH  21  23
ATOM     23  C   UNL     1       4.072   1.264  -3.939  1.00  0.00     0.060 A 
ATOM     24  C   UNL     1       3.196   0.294  -3.447  1.00  0.00     0.016 A 
ATOM     25  C   UNL     1       5.229   0.899  -4.626  1.00  0.00     0.016 A 
ATOM     26  C   UNL     1       3.478  -1.057  -3.638  1.00  0.00     0.010 A 
ATOM     27  C   UNL     1       5.508  -0.457  -4.822  1.00  0.00     0.010 A 
ATOM     28  C   UNL     1       4.643  -1.442  -4.316  1.00  0.00    -0.014 A 
BRANCH  28  29
ATOM     29  C   UNL     1       4.988  -2.879  -4.444  1.00  0.00     0.031 A 
ATOM     30  C   UNL     1       6.088  -3.459  -3.600  1.00  0.00     0.074 A 
ATOM     31  C   UNL     1       4.311  -3.659  -5.306  1.00  0.00     0.049 A 
ATOM     32  N   UNL     1       6.596  -4.665  -3.622  1.00  0.00    -0.248 NA
ATOM     33  C   UNL     1       6.697  -2.565  -2.602  1.00  0.00     0.031 C 
ATOM     34  C   UNL     1       3.194  -3.220  -6.145  1.00  0.00     0.029 A 
ATOM     35  N   UNL     1       4.467  -4.985  -5.622  1.00  0.00    -0.354 N 
ATOM     36  C   UNL     1       7.599  -4.670  -2.660  1.00  0.00     0.074 A 
ATOM     37  C   UNL     1       7.635  -3.344  -2.080  1.00  0.00     0.031 C 
ATOM     38  C   UNL     1       2.764  -4.261  -6.878  1.00  0.00     0.029 A 
ATOM     39  C   UNL     1       3.603  -5.423  -6.596  1.00  0.00     0.049 A 
ATOM     40  H   UNL     1       5.134  -5.567  -5.192  1.00  0.00     0.167 HD
ATOM     41  C   UNL     1       8.417  -5.686  -2.296  1.00  0.00     0.031 A 
ATOM     42  C   UNL     1       3.514  -6.617  -7.214  1.00  0.00     0.031 A 
ATOM     43  C   UNL     1       8.380  -7.002  -2.878  1.00  0.00     0.049 A 
ATOM     44  C   UNL     1       4.471  -7.713  -6.833  1.00  0.00     0.074 A 
ATOM     45  C   UNL     1       9.165  -8.101  -2.575  1.00  0.00     0.029 A 
ATOM     46  N   UNL     1       7.511  -7.396  -3.884  1.00  0.00    -0.354 N 
ATOM     47  N   UNL     1       5.421  -7.698  -5.928  1.00  0.00    -0.248 NA
ATOM     48  C   UNL     1       4.346  -8.984  -7.559  1.00  0.00     0.031 C 
ATOM     49  C   UNL     1       8.797  -9.149  -3.428  1.00  0.00     0.029 A 
ATOM     50  C   UNL     1       7.752  -8.716  -4.228  1.00  0.00     0.049 A 
ATOM     51  H   UNL     1       6.824  -6.822  -4.294  1.00  0.00     0.167 HD
ATOM     52  C   UNL     1       5.999  -8.962  -5.966  1.00  0.00     0.074 A 
ATOM     53  C   UNL     1       5.281  -9.720  -6.972  1.00  0.00     0.031 C 
ATOM     54  C   UNL     1       7.031  -9.451  -5.236  1.00  0.00     0.031 A 
BRANCH  41  55
ATOM     55  C   UNL     1       9.452  -5.397  -1.242  1.00  0.00    -0.014 A 
ATOM     56  C   UNL     1       9.096  -5.258   0.111  1.00  0.00     0.010 A 
ATOM     57  C   UNL     1      10.805  -5.286  -1.610  1.00  0.00     0.010 A 
ATOM     58  C   UNL     1      10.070  -4.974   1.072  1.00  0.00     0.020 A 
ATOM     59  C   UNL     1      11.785  -5.023  -0.648  1.00  0.00     0.020 A 
ATOM     60  C   UNL     1      11.408  -4.850   0.685  1.00  0.00     0.054 A 
BRANCH  60  61
ATOM     61  S   UNL     1      12.655  -4.488   1.952  1.00  0.00     0.124 S 
ATOM     62  O   UNL     1      12.428  -3.066   2.199  1.00  0.00    -0.237 OA
ATOM     63  O   UNL     1      12.277  -5.382   3.043  1.00  0.00    -0.237 OA
ATOM     64  O   UNL     1      13.920  -4.812   1.296  1.00  0.00    -0.744 OA
ENDBRANCH  60  61
ENDBRANCH  41  55
BRANCH  42  65
ATOM     65  C   UNL     1       2.498  -6.823  -8.280  1.00  0.00    -0.014 A 
ATOM     66  C   UNL     1       1.377  -7.640  -8.052  1.00  0.00     0.010 A 
ATOM     67  C   UNL     1       2.636  -6.181  -9.524  1.00  0.00     0.010 A 
ATOM     68  C   UNL     1       0.416  -7.816  -9.052  1.00  0.00     0.020 A 
ATOM     69  C   UNL     1       1.665  -6.335 -10.517  1.00  0.00     0.020 A 
ATOM     70  C   UNL     1       0.565  -7.159 -10.277  1.00  0.00     0.054 A 
BRANCH  70  71
ATOM     71  S   UNL     1      -0.729  -7.345 -11.537  1.00  0.00     0.124 S 
ATOM     72  O   UNL     1      -0.437  -8.668 -12.078  1.00  0.00    -0.237 OA
ATOM     73  O   UNL     1      -1.956  -7.238 -10.751  1.00  0.00    -0.237 OA
ATOM     74  O   UNL     1      -0.481  -6.226 -12.445  1.00  0.00    -0.744 OA
ENDBRANCH  70  71
ENDBRANCH  42  65
BRANCH  54  75
ATOM     75  C   UNL     1       7.431 -10.880  -5.481  1.00  0.00    -0.014 A 
ATOM     76  C   UNL     1       8.154 -11.243  -6.631  1.00  0.00     0.010 A 
ATOM     77  C   UNL     1       7.119 -11.863  -4.525  1.00  0.00     0.010 A 
ATOM     78  C   UNL     1       8.535 -12.572  -6.834  1.00  0.00     0.020 A 
ATOM     79  C   UNL     1       7.516 -13.189  -4.714  1.00  0.00     0.020 A 
ATOM     80  C   UNL     1       8.210 -13.538  -5.875  1.00  0.00     0.054 A 
BRANCH  80  81
ATOM     81  S   UNL     1       8.748 -15.250  -6.138  1.00  0.00     0.124 S 
ATOM     82  O   UNL     1       7.780 -15.725  -7.122  1.00  0.00    -0.237 OA
ATOM     83  O   UNL     1      10.115 -15.088  -6.628  1.00  0.00    -0.237 OA
ATOM     84  O   UNL     1       8.637 -15.854  -4.811  1.00  0.00    -0.744 OA
ENDBRANCH  80  81
ENDBRANCH  54  75
ENDBRANCH  28  29
ENDBRANCH  21  23
ENDBRANCH  20  21
ENDBRANCH  19  20
ENDBRANCH   1  19
TORSDOF 19
