REMARK SMILES C[C@@H](C(=O)OCCOC(=O)c1ccc(-c2c3nc(c(-c4ccc(S(=O)(=O)[O-])cc4)c4ccc([nH]4)c(-c4ccc(S(=O)(=O)[O-])cc4)c4nc(c(-c5ccc(S(=O)(=O)[O-])cc5)c5ccc2[nH]5)C=C4)C=C3)cc1)c1cccc(C(=O)c2ccccc2)c1
REMARK SMILES IDX 6 1 5 2 3 3 4 4 2 5 1 6 71 7 72 8 84 9 73 10 75 11 74 12
REMARK SMILES IDX 76 13 77 14 78 15 79 16 83 17 80 18 82 19 81 20 7 21 8 22
REMARK SMILES IDX 9 23 10 24 11 25 12 26 70 27 13 28 69 29 14 30 15 31 16 32
REMARK SMILES IDX 63 33 17 34 68 35 62 36 64 37 18 38 67 39 61 40 60 41 19 43
REMARK SMILES IDX 49 44 30 45 48 46 31 47 34 48 47 49 65 50 32 51 33 52 46 54
REMARK SMILES IDX 66 55 35 56 20 57 21 58 29 59 22 60 28 61 23 62 24 63 25 64
REMARK SMILES IDX 26 65 27 66 50 67 51 68 59 69 52 70 58 71 53 72 54 73 55 74
REMARK SMILES IDX 56 75 57 76 36 77 37 78 45 79 38 80 44 81 39 82 40 83 41 84
REMARK SMILES IDX 42 85 43 86
REMARK H PARENT 64 42 34 53
REMARK Flexibility Score: inf
ROOT
ATOM      1  C   UNL     1       2.746   0.844   3.449  1.00  0.00     0.274 C 
ENDROOT
BRANCH   1   2
ATOM      2  O   UNL     1       2.318   0.396   2.147  1.00  0.00    -0.462 OA
BRANCH   2   3
ATOM      3  C   UNL     1       1.309  -0.518   2.108  1.00  0.00     0.313 C 
ATOM      4  O   UNL     1       0.805  -1.026   3.103  1.00  0.00    -0.252 OA
BRANCH   3   5
ATOM      5  C   UNL     1       0.914  -0.897   0.675  1.00  0.00     0.126 C 
ATOM      6  C   UNL     1       1.623  -0.062  -0.398  1.00  0.00     0.025 C 
BRANCH   5   7
ATOM      7  C   UNL     1      -0.604  -0.938   0.500  1.00  0.00    -0.033 A 
ATOM      8  C   UNL     1      -1.335   0.140  -0.022  1.00  0.00     0.004 A 
ATOM      9  C   UNL     1      -1.310  -2.087   0.913  1.00  0.00     0.016 A 
ATOM     10  C   UNL     1      -2.725   0.071  -0.134  1.00  0.00     0.001 A 
ATOM     11  C   UNL     1      -2.708  -2.155   0.821  1.00  0.00     0.023 A 
ATOM     12  C   UNL     1      -3.409  -1.066   0.294  1.00  0.00     0.012 A 
BRANCH  11  13
ATOM     13  C   UNL     1      -3.496  -3.356   1.227  1.00  0.00     0.193 C 
ATOM     14  O   UNL     1      -4.722  -3.321   1.257  1.00  0.00    -0.289 OA
BRANCH  13  15
ATOM     15  C   UNL     1      -2.842  -4.651   1.480  1.00  0.00     0.022 A 
ATOM     16  C   UNL     1      -3.067  -5.682   0.562  1.00  0.00     0.012 A 
ATOM     17  C   UNL     1      -2.045  -4.862   2.607  1.00  0.00     0.012 A 
ATOM     18  C   UNL     1      -2.450  -6.918   0.747  1.00  0.00     0.001 A 
ATOM     19  C   UNL     1      -1.425  -6.100   2.784  1.00  0.00     0.001 A 
ATOM     20  C   UNL     1      -1.621  -7.122   1.852  1.00  0.00     0.000 A 
ENDBRANCH  13  15
ENDBRANCH  11  13
ENDBRANCH   5   7
ENDBRANCH   3   5
ENDBRANCH   2   3
ENDBRANCH   1   2
BRANCH   1  21
ATOM     21  C   UNL     1       2.250   2.264   3.701  1.00  0.00     0.275 C 
BRANCH  21  22
ATOM     22  O   UNL     1       0.816   2.246   3.801  1.00  0.00    -0.458 OA
BRANCH  22  23
ATOM     23  C   UNL     1       0.145   2.994   2.897  1.00  0.00     0.338 C 
ATOM     24  O   UNL     1       0.622   3.738   2.054  1.00  0.00    -0.246 OA
BRANCH  23  25
ATOM     25  C   UNL     1      -1.303   2.782   3.061  1.00  0.00     0.060 A 
ATOM     26  C   UNL     1      -1.822   1.489   3.088  1.00  0.00     0.016 A 
ATOM     27  C   UNL     1      -2.163   3.881   3.072  1.00  0.00     0.016 A 
ATOM     28  C   UNL     1      -3.202   1.297   3.027  1.00  0.00     0.010 A 
ATOM     29  C   UNL     1      -3.548   3.680   3.102  1.00  0.00     0.010 A 
ATOM     30  C   UNL     1      -4.089   2.384   3.029  1.00  0.00    -0.014 A 
BRANCH  30  31
ATOM     31  C   UNL     1      -5.562   2.173   2.886  1.00  0.00     0.031 A 
ATOM     32  C   UNL     1      -6.329   2.859   1.778  1.00  0.00     0.074 A 
ATOM     33  C   UNL     1      -6.230   1.347   3.717  1.00  0.00     0.049 A 
ATOM     34  N   UNL     1      -7.624   2.969   1.614  1.00  0.00    -0.248 NA
ATOM     35  C   UNL     1      -5.538   3.524   0.729  1.00  0.00     0.031 C 
ATOM     36  C   UNL     1      -5.636   0.563   4.802  1.00  0.00     0.029 A 
ATOM     37  N   UNL     1      -7.563   1.011   3.764  1.00  0.00    -0.354 N 
ATOM     38  C   UNL     1      -7.802   3.777   0.496  1.00  0.00     0.074 A 
ATOM     39  C   UNL     1      -6.481   4.119   0.011  1.00  0.00     0.031 C 
ATOM     40  C   UNL     1      -6.581  -0.210   5.358  1.00  0.00     0.029 A 
ATOM     41  C   UNL     1      -7.867   0.094   4.742  1.00  0.00     0.049 A 
ATOM     42  H   UNL     1      -8.236   1.392   3.154  1.00  0.00     0.167 HD
ATOM     43  C   UNL     1      -8.957   4.205  -0.070  1.00  0.00     0.031 A 
ATOM     44  C   UNL     1      -9.048  -0.420   5.136  1.00  0.00     0.031 A 
ATOM     45  C   UNL     1     -10.271   3.812   0.366  1.00  0.00     0.049 A 
ATOM     46  C   UNL     1     -10.316   0.052   4.487  1.00  0.00     0.074 A 
ATOM     47  C   UNL     1     -11.500   4.209  -0.136  1.00  0.00     0.029 A 
ATOM     48  N   UNL     1     -10.530   2.904   1.379  1.00  0.00    -0.354 N 
ATOM     49  N   UNL     1     -10.469   0.919   3.515  1.00  0.00    -0.248 NA
ATOM     50  C   UNL     1     -11.574  -0.499   5.010  1.00  0.00     0.031 C 
ATOM     51  C   UNL     1     -12.503   3.555   0.591  1.00  0.00     0.029 A 
ATOM     52  C   UNL     1     -11.896   2.725   1.518  1.00  0.00     0.049 A 
ATOM     53  H   UNL     1      -9.843   2.451   1.921  1.00  0.00     0.167 HD
ATOM     54  C   UNL     1     -11.840   1.030   3.322  1.00  0.00     0.074 A 
ATOM     55  C   UNL     1     -12.472   0.117   4.253  1.00  0.00     0.031 C 
ATOM     56  C   UNL     1     -12.514   1.829   2.460  1.00  0.00     0.031 A 
BRANCH  43  57
ATOM     57  C   UNL     1      -8.854   5.194  -1.200  1.00  0.00    -0.014 A 
ATOM     58  C   UNL     1      -8.485   4.798  -2.496  1.00  0.00     0.010 A 
ATOM     59  C   UNL     1      -9.178   6.543  -0.961  1.00  0.00     0.010 A 
ATOM     60  C   UNL     1      -8.409   5.740  -3.527  1.00  0.00     0.020 A 
ATOM     61  C   UNL     1      -9.124   7.484  -1.993  1.00  0.00     0.020 A 
ATOM     62  C   UNL     1      -8.723   7.079  -3.267  1.00  0.00     0.054 A 
BRANCH  62  63
ATOM     63  S   UNL     1      -8.640   8.282  -4.623  1.00  0.00     0.124 S 
ATOM     64  O   UNL     1      -7.204   8.536  -4.710  1.00  0.00    -0.237 OA
ATOM     65  O   UNL     1      -9.216   7.548  -5.746  1.00  0.00    -0.237 OA
ATOM     66  O   UNL     1      -9.442   9.403  -4.139  1.00  0.00    -0.744 OA
ENDBRANCH  62  63
ENDBRANCH  43  57
BRANCH  44  67
ATOM     67  C   UNL     1      -9.082  -1.399   6.255  1.00  0.00    -0.014 A 
ATOM     68  C   UNL     1      -9.335  -2.759   6.010  1.00  0.00     0.010 A 
ATOM     69  C   UNL     1      -8.812  -0.978   7.570  1.00  0.00     0.010 A 
ATOM     70  C   UNL     1      -9.312  -3.683   7.060  1.00  0.00     0.020 A 
ATOM     71  C   UNL     1      -8.761  -1.901   8.617  1.00  0.00     0.020 A 
ATOM     72  C   UNL     1      -9.019  -3.248   8.356  1.00  0.00     0.054 A 
BRANCH  72  73
ATOM     73  S   UNL     1      -8.892  -4.465   9.697  1.00  0.00     0.124 S 
ATOM     74  O   UNL     1     -10.284  -4.604  10.113  1.00  0.00    -0.237 OA
ATOM     75  O   UNL     1      -8.311  -5.628   9.030  1.00  0.00    -0.237 OA
ATOM     76  O   UNL     1      -8.010  -3.810  10.662  1.00  0.00    -0.744 OA
ENDBRANCH  72  73
ENDBRANCH  44  67
BRANCH  56  77
ATOM     77  C   UNL     1     -14.015   1.756   2.489  1.00  0.00    -0.014 A 
ATOM     78  C   UNL     1     -14.744   2.388   3.511  1.00  0.00     0.010 A 
ATOM     79  C   UNL     1     -14.704   1.077   1.469  1.00  0.00     0.010 A 
ATOM     80  C   UNL     1     -16.139   2.317   3.530  1.00  0.00     0.020 A 
ATOM     81  C   UNL     1     -16.100   1.018   1.475  1.00  0.00     0.020 A 
ATOM     82  C   UNL     1     -16.809   1.627   2.514  1.00  0.00     0.054 A 
BRANCH  82  83
ATOM     83  S   UNL     1     -18.622   1.570   2.540  1.00  0.00     0.124 S 
ATOM     84  O   UNL     1     -18.879   0.542   3.545  1.00  0.00    -0.237 OA
ATOM     85  O   UNL     1     -18.985   2.932   2.928  1.00  0.00    -0.237 OA
ATOM     86  O   UNL     1     -18.975   1.206   1.170  1.00  0.00    -0.744 OA
ENDBRANCH  82  83
ENDBRANCH  56  77
ENDBRANCH  30  31
ENDBRANCH  23  25
ENDBRANCH  22  23
ENDBRANCH  21  22
ENDBRANCH   1  21
TORSDOF 17
