REMARK SMILES O=C(OCCOC(=O)[C@@H]1CN(c2nccc(N3CCC(O)CC3)n2)CC[NH2+]1)c1ccc(-c2c3nc(c(-c4ccc(S(=O)(=O)[O-])cc4)c4ccc([nH]4)c(-c4ccc(S(=O)(=O)[O-])cc4)c4nc(c(-c5ccc(S(=O)(=O)[O-])cc5)c5ccc2[nH]5)C=C4)C=C3)cc1
REMARK SMILES IDX 4 1 3 2 2 3 1 4 28 5 29 6 87 7 30 8 86 9 31 10 32 11 33 12
REMARK SMILES IDX 80 13 34 14 85 15 79 16 81 17 35 18 84 19 78 20 77 21 36 23
REMARK SMILES IDX 66 24 47 25 65 26 48 27 51 28 64 29 82 30 49 31 50 32 63 34
REMARK SMILES IDX 83 35 52 36 37 37 38 38 46 39 39 40 45 41 40 42 41 43 42 44
REMARK SMILES IDX 43 45 44 46 67 47 68 48 76 49 69 50 75 51 70 52 71 53 72 54
REMARK SMILES IDX 73 55 74 56 53 57 54 58 62 59 55 60 61 61 56 62 57 63 58 64
REMARK SMILES IDX 59 65 60 66 5 67 6 68 7 69 8 70 9 71 10 72 27 73 11 74 26 75
REMARK SMILES IDX 25 78 12 79 13 80 24 81 14 82 16 83 15 84 17 85 18 86 23 87
REMARK SMILES IDX 19 88 22 89 20 90 21 91
REMARK H PARENT 81 22 51 33 27 76 27 77 21 92
REMARK Flexibility Score: inf
ROOT
ATOM      1  C   UNL     1       4.251  -1.168  -1.110  1.00  0.00     0.275 C 
ENDROOT
BRANCH   1   2
ATOM      2  O   UNL     1       3.109  -1.182  -0.230  1.00  0.00    -0.458 OA
BRANCH   2   3
ATOM      3  C   UNL     1       2.849  -0.477   0.898  1.00  0.00     0.338 C 
ATOM      4  O   UNL     1       1.859  -0.787   1.561  1.00  0.00    -0.246 OA
BRANCH   3   5
ATOM      5  C   UNL     1       3.610   0.742   1.321  1.00  0.00     0.060 A 
ATOM      6  C   UNL     1       4.953   1.008   1.040  1.00  0.00     0.016 A 
ATOM      7  C   UNL     1       2.886   1.714   2.042  1.00  0.00     0.016 A 
ATOM      8  C   UNL     1       5.539   2.228   1.389  1.00  0.00     0.010 A 
ATOM      9  C   UNL     1       3.470   2.937   2.402  1.00  0.00     0.010 A 
ATOM     10  C   UNL     1       4.807   3.196   2.075  1.00  0.00    -0.014 A 
BRANCH  10  11
ATOM     11  C   UNL     1       5.519   4.375   2.618  1.00  0.00     0.031 A 
ATOM     12  C   UNL     1       5.958   4.316   4.050  1.00  0.00     0.074 A 
ATOM     13  C   UNL     1       5.847   5.425   1.842  1.00  0.00     0.049 A 
ATOM     14  N   UNL     1       6.703   5.155   4.718  1.00  0.00    -0.248 NA
ATOM     15  C   UNL     1       5.546   3.128   4.818  1.00  0.00     0.031 C 
ATOM     16  C   UNL     1       5.589   5.532   0.407  1.00  0.00     0.029 A 
ATOM     17  N   UNL     1       6.467   6.609   2.152  1.00  0.00    -0.354 N 
ATOM     18  C   UNL     1       6.890   4.573   5.964  1.00  0.00     0.074 A 
ATOM     19  C   UNL     1       6.123   3.348   5.988  1.00  0.00     0.031 C 
ATOM     20  C   UNL     1       5.965   6.750  -0.022  1.00  0.00     0.029 A 
ATOM     21  C   UNL     1       6.535   7.490   1.097  1.00  0.00     0.049 A 
ATOM     22  H   UNL     1       6.829   6.809   3.045  1.00  0.00     0.167 HD
ATOM     23  C   UNL     1       7.662   5.005   6.986  1.00  0.00     0.031 A 
ATOM     24  C   UNL     1       7.018   8.747   1.042  1.00  0.00     0.031 A 
ATOM     25  C   UNL     1       8.369   6.255   6.969  1.00  0.00     0.049 A 
ATOM     26  C   UNL     1       7.723   9.291   2.255  1.00  0.00     0.074 A 
ATOM     27  C   UNL     1       9.164   6.810   7.952  1.00  0.00     0.029 A 
ATOM     28  N   UNL     1       8.340   7.157   5.914  1.00  0.00    -0.354 N 
ATOM     29  N   UNL     1       7.935   8.707   3.412  1.00  0.00    -0.248 NA
ATOM     30  C   UNL     1       8.302  10.635   2.141  1.00  0.00     0.031 C 
ATOM     31  C   UNL     1       9.561   8.080   7.519  1.00  0.00     0.029 A 
ATOM     32  C   UNL     1       9.072   8.285   6.236  1.00  0.00     0.049 A 
ATOM     33  H   UNL     1       7.867   7.015   5.062  1.00  0.00     0.167 HD
ATOM     34  C   UNL     1       8.733   9.582   4.138  1.00  0.00     0.074 A 
ATOM     35  C   UNL     1       8.946  10.744   3.295  1.00  0.00     0.031 C 
ATOM     36  C   UNL     1       9.267   9.427   5.376  1.00  0.00     0.031 A 
BRANCH  23  37
ATOM     37  C   UNL     1       7.717   4.128   8.206  1.00  0.00    -0.014 A 
ATOM     38  C   UNL     1       8.368   2.880   8.177  1.00  0.00     0.010 A 
ATOM     39  C   UNL     1       7.063   4.533   9.382  1.00  0.00     0.010 A 
ATOM     40  C   UNL     1       8.310   2.026   9.281  1.00  0.00     0.020 A 
ATOM     41  C   UNL     1       7.026   3.693  10.498  1.00  0.00     0.020 A 
ATOM     42  C   UNL     1       7.628   2.434  10.431  1.00  0.00     0.054 A 
BRANCH  42  43
ATOM     43  S   UNL     1       7.541   1.298  11.841  1.00  0.00     0.124 S 
ATOM     44  O   UNL     1       6.598   0.291  11.358  1.00  0.00    -0.237 OA
ATOM     45  O   UNL     1       8.924   0.848  11.977  1.00  0.00    -0.237 OA
ATOM     46  O   UNL     1       7.051   2.136  12.932  1.00  0.00    -0.744 OA
ENDBRANCH  42  43
ENDBRANCH  23  37
BRANCH  24  47
ATOM     47  C   UNL     1       6.900   9.546  -0.211  1.00  0.00    -0.014 A 
ATOM     48  C   UNL     1       8.027   9.820  -1.005  1.00  0.00     0.010 A 
ATOM     49  C   UNL     1       5.646  10.038  -0.620  1.00  0.00     0.010 A 
ATOM     50  C   UNL     1       7.907  10.585  -2.171  1.00  0.00     0.020 A 
ATOM     51  C   UNL     1       5.518  10.787  -1.796  1.00  0.00     0.020 A 
ATOM     52  C   UNL     1       6.653  11.062  -2.560  1.00  0.00     0.054 A 
BRANCH  52  53
ATOM     53  S   UNL     1       6.519  12.017  -4.099  1.00  0.00     0.124 S 
ATOM     54  O   UNL     1       7.208  13.256  -3.752  1.00  0.00    -0.237 OA
ATOM     55  O   UNL     1       7.207  11.159  -5.061  1.00  0.00    -0.237 OA
ATOM     56  O   UNL     1       5.077  12.139  -4.304  1.00  0.00    -0.744 OA
ENDBRANCH  52  53
ENDBRANCH  24  47
BRANCH  36  57
ATOM     57  C   UNL     1      10.184  10.511   5.871  1.00  0.00    -0.014 A 
ATOM     58  C   UNL     1       9.696  11.773   6.250  1.00  0.00     0.010 A 
ATOM     59  C   UNL     1      11.556  10.232   6.012  1.00  0.00     0.010 A 
ATOM     60  C   UNL     1      10.572  12.749   6.731  1.00  0.00     0.020 A 
ATOM     61  C   UNL     1      12.428  11.193   6.523  1.00  0.00     0.020 A 
ATOM     62  C   UNL     1      11.932  12.452   6.865  1.00  0.00     0.054 A 
BRANCH  62  63
ATOM     63  S   UNL     1      13.041  13.719   7.535  1.00  0.00     0.124 S 
ATOM     64  O   UNL     1      13.164  14.640   6.409  1.00  0.00    -0.237 OA
ATOM     65  O   UNL     1      12.293  14.225   8.684  1.00  0.00    -0.237 OA
ATOM     66  O   UNL     1      14.255  12.976   7.869  1.00  0.00    -0.744 OA
ENDBRANCH  62  63
ENDBRANCH  36  57
ENDBRANCH  10  11
ENDBRANCH   3   5
ENDBRANCH   2   3
ENDBRANCH   1   2
BRANCH   1  67
ATOM     67  C   UNL     1       4.174  -0.116  -2.217  1.00  0.00     0.274 C 
BRANCH  67  68
ATOM     68  O   UNL     1       3.809   1.171  -1.705  1.00  0.00    -0.458 OA
BRANCH  68  69
ATOM     69  C   UNL     1       2.537   1.607  -1.958  1.00  0.00     0.366 C 
ATOM     70  O   UNL     1       1.732   1.036  -2.686  1.00  0.00    -0.245 OA
BRANCH  69  71
ATOM     71  C   UNL     1       2.256   2.888  -1.178  1.00  0.00     0.313 C 
ATOM     72  C   UNL     1       0.757   2.981  -0.793  1.00  0.00     0.197 C 
ATOM     73  N   UNL     1       2.787   4.090  -1.889  1.00  0.00    -0.332 N 
ATOM     74  N   UNL     1       0.528   4.234  -0.073  1.00  0.00    -0.328 N 
ATOM     75  C   UNL     1       2.498   5.272  -1.037  1.00  0.00     0.283 C 
ATOM     76  H   UNL     1       2.327   4.191  -2.794  1.00  0.00     0.347 HD
ATOM     77  H   UNL     1       3.790   3.998  -2.052  1.00  0.00     0.347 HD
ATOM     78  C   UNL     1       1.002   5.453  -0.713  1.00  0.00     0.181 C 
BRANCH  74  79
ATOM     79  C   UNL     1      -0.570   4.334   0.740  1.00  0.00     0.227 A 
ATOM     80  N   UNL     1      -1.580   5.128   0.354  1.00  0.00    -0.221 NA
ATOM     81  N   UNL     1      -0.523   3.709   1.929  1.00  0.00    -0.196 NA
ATOM     82  C   UNL     1      -2.598   5.269   1.214  1.00  0.00     0.119 A 
ATOM     83  C   UNL     1      -1.546   3.890   2.783  1.00  0.00     0.134 A 
ATOM     84  C   UNL     1      -2.634   4.665   2.443  1.00  0.00     0.067 A 
BRANCH  83  85
ATOM     85  N   UNL     1      -1.480   3.314   4.034  1.00  0.00    -0.356 N 
ATOM     86  C   UNL     1      -2.483   2.357   4.460  1.00  0.00     0.121 C 
ATOM     87  C   UNL     1      -0.347   3.601   4.899  1.00  0.00     0.121 C 
ATOM     88  C   UNL     1      -1.797   1.040   4.808  1.00  0.00     0.053 C 
ATOM     89  C   UNL     1       0.323   2.313   5.369  1.00  0.00     0.053 C 
ATOM     90  C   UNL     1      -0.677   1.248   5.825  1.00  0.00     0.118 C 
BRANCH  90  91
ATOM     91  O   UNL     1      -1.242   1.565   7.099  1.00  0.00    -0.393 OA
ATOM     92  H   UNL     1      -1.747   2.391   7.033  1.00  0.00     0.210 HD
ENDBRANCH  90  91
ENDBRANCH  83  85
ENDBRANCH  74  79
ENDBRANCH  69  71
ENDBRANCH  68  69
ENDBRANCH  67  68
ENDBRANCH   1  67
TORSDOF 17
