REMARK SMILES Nc1c(Nc2ccc(I)cc2)ncnc1Nc1ccc(C(=O)OCCOC(=O)c2ccc(-c3c4nc(c(-c5ccc(S(=O)(=O)[O-])cc5)c5ccc([nH]5)c(-c5ccc(S(=O)(=O)[O-])cc5)c5nc(c(-c6ccc(S(=O)(=O)[O-])cc6)c6ccc3[nH]6)C=C5)C=C4)cc2)cc1
REMARK SMILES IDX 24 1 23 2 21 3 22 4 20 5 17 6 18 7 90 8 19 9 89 10 16 11
REMARK SMILES IDX 15 13 2 14 3 15 12 16 14 17 13 18 1 19 4 22 5 24 6 25 11 26
REMARK SMILES IDX 7 27 10 28 8 29 9 30 25 31 26 32 27 33 28 34 29 35 30 36
REMARK SMILES IDX 88 37 31 38 87 39 32 40 33 41 34 42 81 43 35 44 86 45 80 46
REMARK SMILES IDX 82 47 36 48 85 49 79 50 78 51 37 53 67 54 48 55 66 56 49 57
REMARK SMILES IDX 52 58 65 59 83 60 50 61 51 62 64 64 84 65 53 66 38 67 39 68
REMARK SMILES IDX 47 69 40 70 46 71 41 72 42 73 43 74 44 75 45 76 68 77 69 78
REMARK SMILES IDX 77 79 70 80 76 81 71 82 72 83 73 84 74 85 75 86 54 87 55 88
REMARK SMILES IDX 63 89 56 90 62 91 57 92 58 93 59 94 60 95 61 96
REMARK H PARENT 16 12 1 20 1 21 4 23 82 52 52 63
REMARK Flexibility Score: inf
ROOT
ATOM      1  C   UNL     1       4.531   8.248  -5.396  1.00  0.00     0.275 C 
ENDROOT
BRANCH   1   2
ATOM      2  O   UNL     1       4.132   7.272  -4.413  1.00  0.00    -0.458 OA
BRANCH   2   3
ATOM      3  C   UNL     1       3.032   6.547  -4.732  1.00  0.00     0.338 C 
ATOM      4  O   UNL     1       2.331   6.688  -5.722  1.00  0.00    -0.246 OA
BRANCH   3   5
ATOM      5  C   UNL     1       2.833   5.446  -3.763  1.00  0.00     0.060 A 
ATOM      6  C   UNL     1       2.337   3.307  -2.014  1.00  0.00     0.040 A 
ATOM      7  C   UNL     1       2.120   3.160  -3.385  1.00  0.00     0.027 A 
ATOM      8  C   UNL     1       2.795   4.539  -1.524  1.00  0.00     0.027 A 
ATOM      9  C   UNL     1       2.330   4.233  -4.245  1.00  0.00     0.018 A 
ATOM     10  C   UNL     1       3.074   5.600  -2.396  1.00  0.00     0.018 A 
BRANCH   6  11
ATOM     11  N   UNL     1       1.902   2.282  -1.152  1.00  0.00    -0.338 N 
ATOM     12  H   UNL     1       2.439   1.458  -1.097  1.00  0.00     0.168 HD
BRANCH  11  13
ATOM     13  C   UNL     1       0.729   2.374  -0.357  1.00  0.00     0.159 A 
ATOM     14  C   UNL     1       0.320   1.254   0.377  1.00  0.00     0.118 A 
ATOM     15  C   UNL     1      -0.850   1.432   1.130  1.00  0.00     0.159 A 
ATOM     16  N   UNL     1      -1.577   2.564   1.091  1.00  0.00    -0.217 NA
ATOM     17  N   UNL     1       0.036   3.531  -0.359  1.00  0.00    -0.217 NA
ATOM     18  C   UNL     1      -1.094   3.558   0.346  1.00  0.00     0.226 A 
BRANCH  14  19
ATOM     19  N   UNL     1       1.054   0.059   0.425  1.00  0.00    -0.393 N 
ATOM     20  H   UNL     1       0.723  -0.701   0.957  1.00  0.00     0.156 HD
ATOM     21  H   UNL     1       1.900  -0.020  -0.072  1.00  0.00     0.156 HD
ENDBRANCH  14  19
BRANCH  15  22
ATOM     22  N   UNL     1      -1.252   0.378   1.990  1.00  0.00    -0.338 N 
ATOM     23  H   UNL     1      -0.679  -0.423   2.008  1.00  0.00     0.168 HD
BRANCH  22  24
ATOM     24  C   UNL     1      -2.385   0.362   2.819  1.00  0.00     0.040 A 
ATOM     25  C   UNL     1      -2.233   0.092   4.185  1.00  0.00     0.027 A 
ATOM     26  C   UNL     1      -3.651   0.728   2.346  1.00  0.00     0.027 A 
ATOM     27  C   UNL     1      -3.315   0.207   5.062  1.00  0.00     0.017 A 
ATOM     28  C   UNL     1      -4.742   0.831   3.214  1.00  0.00     0.017 A 
ATOM     29  C   UNL     1      -4.565   0.581   4.572  1.00  0.00     0.013 A 
ATOM     30  I   UNL     1      -6.163   0.800   5.882  1.00  0.00    -0.044 I 
ENDBRANCH  22  24
ENDBRANCH  15  22
ENDBRANCH  11  13
ENDBRANCH   6  11
ENDBRANCH   3   5
ENDBRANCH   2   3
ENDBRANCH   1   2
BRANCH   1  31
ATOM     31  C   UNL     1       5.690   7.720  -6.240  1.00  0.00     0.275 C 
BRANCH  31  32
ATOM     32  O   UNL     1       5.254   6.585  -7.012  1.00  0.00    -0.458 OA
BRANCH  32  33
ATOM     33  C   UNL     1       5.971   5.451  -6.842  1.00  0.00     0.338 C 
ATOM     34  O   UNL     1       6.976   5.309  -6.164  1.00  0.00    -0.246 OA
BRANCH  33  35
ATOM     35  C   UNL     1       5.359   4.337  -7.591  1.00  0.00     0.060 A 
ATOM     36  C   UNL     1       4.021   4.014  -7.386  1.00  0.00     0.016 A 
ATOM     37  C   UNL     1       6.161   3.503  -8.366  1.00  0.00     0.016 A 
ATOM     38  C   UNL     1       3.522   2.784  -7.819  1.00  0.00     0.010 A 
ATOM     39  C   UNL     1       5.622   2.329  -8.907  1.00  0.00     0.010 A 
ATOM     40  C   UNL     1       4.315   1.917  -8.584  1.00  0.00    -0.014 A 
BRANCH  40  41
ATOM     41  C   UNL     1       3.834   0.557  -8.980  1.00  0.00     0.031 A 
ATOM     42  C   UNL     1       4.659  -0.662  -8.626  1.00  0.00     0.074 A 
ATOM     43  C   UNL     1       2.667   0.380  -9.634  1.00  0.00     0.049 A 
ATOM     44  N   UNL     1       4.564  -1.888  -9.076  1.00  0.00    -0.248 NA
ATOM     45  C   UNL     1       5.742  -0.471  -7.645  1.00  0.00     0.031 C 
ATOM     46  C   UNL     1       1.711   1.433  -9.981  1.00  0.00     0.029 A 
ATOM     47  N   UNL     1       2.082  -0.766 -10.121  1.00  0.00    -0.354 N 
ATOM     48  C   UNL     1       5.614  -2.592  -8.493  1.00  0.00     0.074 A 
ATOM     49  C   UNL     1       6.333  -1.658  -7.654  1.00  0.00     0.031 C 
ATOM     50  C   UNL     1       0.642   0.881 -10.577  1.00  0.00     0.029 A 
ATOM     51  C   UNL     1       0.882  -0.546 -10.757  1.00  0.00     0.049 A 
ATOM     52  H   UNL     1       2.484  -1.660 -10.024  1.00  0.00     0.167 HD
ATOM     53  C   UNL     1       5.953  -3.896  -8.644  1.00  0.00     0.031 A 
ATOM     54  C   UNL     1       0.085  -1.378 -11.456  1.00  0.00     0.031 A 
ATOM     55  C   UNL     1       5.206  -4.841  -9.434  1.00  0.00     0.049 A 
ATOM     56  C   UNL     1       0.507  -2.806 -11.661  1.00  0.00     0.074 A 
ATOM     57  C   UNL     1       5.474  -6.182  -9.654  1.00  0.00     0.029 A 
ATOM     58  N   UNL     1       4.031  -4.553 -10.110  1.00  0.00    -0.354 N 
ATOM     59  N   UNL     1       1.563  -3.428 -11.196  1.00  0.00    -0.248 NA
ATOM     60  C   UNL     1      -0.359  -3.635 -12.511  1.00  0.00     0.031 C 
ATOM     61  C   UNL     1       4.479  -6.695 -10.494  1.00  0.00     0.029 A 
ATOM     62  C   UNL     1       3.566  -5.687 -10.755  1.00  0.00     0.049 A 
ATOM     63  H   UNL     1       3.591  -3.672 -10.128  1.00  0.00     0.167 HD
ATOM     64  C   UNL     1       1.490  -4.722 -11.698  1.00  0.00     0.074 A 
ATOM     65  C   UNL     1       0.270  -4.802 -12.476  1.00  0.00     0.031 C 
ATOM     66  C   UNL     1       2.360  -5.749 -11.539  1.00  0.00     0.031 A 
BRANCH  53  67
ATOM     67  C   UNL     1       7.211  -4.378  -7.971  1.00  0.00    -0.014 A 
ATOM     68  C   UNL     1       7.270  -4.585  -6.581  1.00  0.00     0.010 A 
ATOM     69  C   UNL     1       8.340  -4.683  -8.755  1.00  0.00     0.010 A 
ATOM     70  C   UNL     1       8.443  -5.059  -5.987  1.00  0.00     0.020 A 
ATOM     71  C   UNL     1       9.506  -5.181  -8.168  1.00  0.00     0.020 A 
ATOM     72  C   UNL     1       9.555  -5.354  -6.784  1.00  0.00     0.054 A 
BRANCH  72  73
ATOM     73  S   UNL     1      11.051  -6.000  -5.987  1.00  0.00     0.124 S 
ATOM     74  O   UNL     1      11.559  -4.818  -5.295  1.00  0.00    -0.237 OA
ATOM     75  O   UNL     1      10.524  -7.054  -5.124  1.00  0.00    -0.237 OA
ATOM     76  O   UNL     1      11.868  -6.465  -7.106  1.00  0.00    -0.744 OA
ENDBRANCH  72  73
ENDBRANCH  53  67
BRANCH  54  77
ATOM     77  C   UNL     1      -1.167  -0.860 -12.075  1.00  0.00    -0.014 A 
ATOM     78  C   UNL     1      -2.424  -1.262 -11.589  1.00  0.00     0.010 A 
ATOM     79  C   UNL     1      -1.108   0.054 -13.143  1.00  0.00     0.010 A 
ATOM     80  C   UNL     1      -3.597  -0.759 -12.160  1.00  0.00     0.020 A 
ATOM     81  C   UNL     1      -2.277   0.583 -13.696  1.00  0.00     0.020 A 
ATOM     82  C   UNL     1      -3.515   0.166 -13.205  1.00  0.00     0.054 A 
BRANCH  82  83
ATOM     83  S   UNL     1      -5.049   0.862 -13.882  1.00  0.00     0.124 S 
ATOM     84  O   UNL     1      -5.573  -0.257 -14.658  1.00  0.00    -0.237 OA
ATOM     85  O   UNL     1      -5.799   1.202 -12.675  1.00  0.00    -0.237 OA
ATOM     86  O   UNL     1      -4.588   2.007 -14.663  1.00  0.00    -0.744 OA
ENDBRANCH  82  83
ENDBRANCH  54  77
BRANCH  66  87
ATOM     87  C   UNL     1       2.014  -7.052 -12.207  1.00  0.00    -0.014 A 
ATOM     88  C   UNL     1       2.135  -7.204 -13.600  1.00  0.00     0.010 A 
ATOM     89  C   UNL     1       1.588  -8.144 -11.431  1.00  0.00     0.010 A 
ATOM     90  C   UNL     1       1.796  -8.414 -14.210  1.00  0.00     0.020 A 
ATOM     91  C   UNL     1       1.273  -9.364 -12.034  1.00  0.00     0.020 A 
ATOM     92  C   UNL     1       1.362  -9.486 -13.423  1.00  0.00     0.054 A 
BRANCH  92  93
ATOM     93  S   UNL     1       0.944 -11.052 -14.236  1.00  0.00     0.124 S 
ATOM     94  O   UNL     1      -0.336 -10.736 -14.863  1.00  0.00    -0.237 OA
ATOM     95  O   UNL     1       2.064 -11.246 -15.155  1.00  0.00    -0.237 OA
ATOM     96  O   UNL     1       0.879 -12.008 -13.133  1.00  0.00    -0.744 OA
ENDBRANCH  92  93
ENDBRANCH  66  87
ENDBRANCH  40  41
ENDBRANCH  33  35
ENDBRANCH  32  33
ENDBRANCH  31  32
ENDBRANCH   1  31
TORSDOF 19
