REMARK SMILES CC1(C)[C@H](C(=O)OCCOC(=O)c2ccc(-c3c4nc(c(-c5ccc(S(=O)(=O)[O-])cc5)c5ccc([nH]5)c(-c5ccc(S(=O)(=O)[O-])cc5)c5nc(c(-c6ccc(S(=O)(=O)[O-])cc6)c6ccc3[nH]6)C=C5)C=C4)cc2)[C@@H]1C(=O)Nc1ccc(NC(=O)C2CCC2)cc1
REMARK SMILES IDX 8 1 7 2 5 3 6 4 4 5 1 6 2 7 3 8 73 9 74 10 75 11 76 12 77 14
REMARK SMILES IDX 78 15 89 16 79 17 88 18 80 19 81 20 82 21 83 23 84 24 85 25
REMARK SMILES IDX 87 26 86 27 9 28 10 29 11 30 12 31 13 32 14 33 72 34 15 35
REMARK SMILES IDX 71 36 16 37 17 38 18 39 65 40 19 41 70 42 64 43 66 44 20 45
REMARK SMILES IDX 69 46 63 47 62 48 21 50 51 51 32 52 50 53 33 54 36 55 49 56
REMARK SMILES IDX 67 57 34 58 35 59 48 61 68 62 37 63 22 64 23 65 31 66 24 67
REMARK SMILES IDX 30 68 25 69 26 70 27 71 28 72 29 73 52 74 53 75 61 76 54 77
REMARK SMILES IDX 60 78 55 79 56 80 57 81 58 82 59 83 38 84 39 85 47 86 40 87
REMARK SMILES IDX 46 88 41 89 42 90 43 91 44 92 45 93
REMARK H PARENT 76 13 81 22 66 49 36 60
REMARK Flexibility Score: inf
ROOT
ATOM      1  C   UNL     1      -1.209   3.120  -2.500  1.00  0.00     0.274 C 
ENDROOT
BRANCH   1   2
ATOM      2  O   UNL     1      -0.640   2.219  -1.526  1.00  0.00    -0.462 OA
BRANCH   2   3
ATOM      3  C   UNL     1      -1.321   1.050  -1.382  1.00  0.00     0.310 C 
ATOM      4  O   UNL     1      -2.289   0.745  -2.052  1.00  0.00    -0.252 OA
BRANCH   3   5
ATOM      5  C   UNL     1      -0.750   0.043  -0.461  1.00  0.00     0.118 C 
ATOM      6  C   UNL     1       1.387  -1.018   0.383  1.00  0.00     0.013 C 
ATOM      7  C   UNL     1       0.444   0.164   0.439  1.00  0.00    -0.009 C 
ATOM      8  C   UNL     1       1.160   1.485   0.552  1.00  0.00     0.013 C 
ATOM      9  C   UNL     1      -0.974  -0.049   1.022  1.00  0.00     0.100 C 
BRANCH   9  10
ATOM     10  C   UNL     1      -1.579   0.956   1.922  1.00  0.00     0.228 C 
ATOM     11  O   UNL     1      -0.904   1.445   2.825  1.00  0.00    -0.274 OA
ATOM     12  N   UNL     1      -2.901   1.319   1.818  1.00  0.00    -0.326 N 
ATOM     13  H   UNL     1      -3.297   1.751   2.609  1.00  0.00     0.169 HD
BRANCH  12  14
ATOM     14  C   UNL     1      -3.746   1.145   0.721  1.00  0.00     0.041 A 
ATOM     15  C   UNL     1      -4.060   2.304   0.028  1.00  0.00     0.028 A 
ATOM     16  C   UNL     1      -4.209  -0.086   0.260  1.00  0.00     0.028 A 
ATOM     17  C   UNL     1      -4.702   2.214  -1.202  1.00  0.00     0.028 A 
ATOM     18  C   UNL     1      -4.974  -0.138  -0.923  1.00  0.00     0.028 A 
ATOM     19  C   UNL     1      -5.203   1.021  -1.686  1.00  0.00     0.041 A 
BRANCH  19  20
ATOM     20  N   UNL     1      -5.841   0.895  -2.928  1.00  0.00    -0.326 N 
ATOM     21  C   UNL     1      -6.201   1.762  -3.941  1.00  0.00     0.227 C 
ATOM     22  H   UNL     1      -6.094  -0.035  -3.126  1.00  0.00     0.169 HD
ATOM     23  O   UNL     1      -6.688   1.199  -4.942  1.00  0.00    -0.274 OA
BRANCH  21  24
ATOM     24  C   UNL     1      -6.042   3.303  -3.954  1.00  0.00     0.079 C 
ATOM     25  C   UNL     1      -7.253   4.032  -4.653  1.00  0.00     0.013 C 
ATOM     26  C   UNL     1      -6.332   4.284  -2.777  1.00  0.00     0.013 C 
ATOM     27  C   UNL     1      -6.950   5.255  -3.786  1.00  0.00     0.002 C 
ENDBRANCH  21  24
ENDBRANCH  19  20
ENDBRANCH  12  14
ENDBRANCH   9  10
ENDBRANCH   3   5
ENDBRANCH   2   3
ENDBRANCH   1   2
BRANCH   1  28
ATOM     28  C   UNL     1      -0.768   2.869  -3.952  1.00  0.00     0.275 C 
BRANCH  28  29
ATOM     29  O   UNL     1      -1.261   1.636  -4.511  1.00  0.00    -0.458 OA
BRANCH  29  30
ATOM     30  C   UNL     1      -0.445   0.571  -4.320  1.00  0.00     0.338 C 
ATOM     31  O   UNL     1       0.637   0.578  -3.753  1.00  0.00    -0.246 OA
BRANCH  30  32
ATOM     32  C   UNL     1      -1.077  -0.682  -4.770  1.00  0.00     0.060 A 
ATOM     33  C   UNL     1      -1.366  -1.647  -3.802  1.00  0.00     0.016 A 
ATOM     34  C   UNL     1      -1.206  -0.991  -6.121  1.00  0.00     0.016 A 
ATOM     35  C   UNL     1      -1.728  -2.937  -4.156  1.00  0.00     0.010 A 
ATOM     36  C   UNL     1      -1.579  -2.290  -6.486  1.00  0.00     0.010 A 
ATOM     37  C   UNL     1      -1.804  -3.276  -5.505  1.00  0.00    -0.014 A 
BRANCH  37  38
ATOM     38  C   UNL     1      -1.976  -4.695  -5.880  1.00  0.00     0.031 A 
ATOM     39  C   UNL     1      -0.798  -5.442  -6.437  1.00  0.00     0.074 A 
ATOM     40  C   UNL     1      -3.153  -5.316  -5.684  1.00  0.00     0.049 A 
ATOM     41  N   UNL     1      -0.757  -6.622  -6.995  1.00  0.00    -0.248 NA
ATOM     42  C   UNL     1       0.509  -4.768  -6.352  1.00  0.00     0.031 C 
ATOM     43  C   UNL     1      -4.327  -4.725  -5.041  1.00  0.00     0.029 A 
ATOM     44  N   UNL     1      -3.555  -6.583  -6.018  1.00  0.00    -0.354 N 
ATOM     45  C   UNL     1       0.566  -6.811  -7.374  1.00  0.00     0.074 A 
ATOM     46  C   UNL     1       1.298  -5.629  -6.977  1.00  0.00     0.031 C 
ATOM     47  C   UNL     1      -5.325  -5.623  -5.044  1.00  0.00     0.029 A 
ATOM     48  C   UNL     1      -4.881  -6.822  -5.750  1.00  0.00     0.049 A 
ATOM     49  H   UNL     1      -2.953  -7.256  -6.411  1.00  0.00     0.167 HD
ATOM     50  C   UNL     1       1.113  -7.875  -8.009  1.00  0.00     0.031 A 
ATOM     51  C   UNL     1      -5.662  -7.867  -6.087  1.00  0.00     0.031 A 
ATOM     52  C   UNL     1       0.365  -9.043  -8.389  1.00  0.00     0.049 A 
ATOM     53  C   UNL     1      -5.057  -8.998  -6.873  1.00  0.00     0.074 A 
ATOM     54  C   UNL     1       0.809 -10.172  -9.054  1.00  0.00     0.029 A 
ATOM     55  N   UNL     1      -0.985  -9.233  -8.132  1.00  0.00    -0.354 N 
ATOM     56  N   UNL     1      -3.818  -9.147  -7.282  1.00  0.00    -0.248 NA
ATOM     57  C   UNL     1      -5.952 -10.100  -7.250  1.00  0.00     0.031 C 
ATOM     58  C   UNL     1      -0.285 -11.024  -9.239  1.00  0.00     0.029 A 
ATOM     59  C   UNL     1      -1.395 -10.453  -8.636  1.00  0.00     0.049 A 
ATOM     60  H   UNL     1      -1.565  -8.593  -7.659  1.00  0.00     0.167 HD
ATOM     61  C   UNL     1      -3.779 -10.373  -7.935  1.00  0.00     0.074 A 
ATOM     62  C   UNL     1      -5.116 -10.926  -7.864  1.00  0.00     0.031 C 
ATOM     63  C   UNL     1      -2.730 -10.988  -8.536  1.00  0.00     0.031 A 
BRANCH  50  64
ATOM     64  C   UNL     1       2.567  -7.790  -8.387  1.00  0.00    -0.014 A 
ATOM     65  C   UNL     1       3.586  -7.873  -7.422  1.00  0.00     0.010 A 
ATOM     66  C   UNL     1       2.918  -7.648  -9.742  1.00  0.00     0.010 A 
ATOM     67  C   UNL     1       4.929  -7.777  -7.802  1.00  0.00     0.020 A 
ATOM     68  C   UNL     1       4.259  -7.578 -10.129  1.00  0.00     0.020 A 
ATOM     69  C   UNL     1       5.256  -7.626  -9.154  1.00  0.00     0.054 A 
BRANCH  69  70
ATOM     70  S   UNL     1       7.005  -7.519  -9.622  1.00  0.00     0.124 S 
ATOM     71  O   UNL     1       7.358  -6.177  -9.165  1.00  0.00    -0.237 OA
ATOM     72  O   UNL     1       7.607  -8.617  -8.869  1.00  0.00    -0.237 OA
ATOM     73  O   UNL     1       6.989  -7.698 -11.072  1.00  0.00    -0.744 OA
ENDBRANCH  69  70
ENDBRANCH  50  64
BRANCH  51  74
ATOM     74  C   UNL     1      -7.106  -7.860  -5.729  1.00  0.00    -0.014 A 
ATOM     75  C   UNL     1      -7.612  -8.754  -4.771  1.00  0.00     0.010 A 
ATOM     76  C   UNL     1      -7.983  -6.940  -6.336  1.00  0.00     0.010 A 
ATOM     77  C   UNL     1      -8.969  -8.737  -4.434  1.00  0.00     0.020 A 
ATOM     78  C   UNL     1      -9.334  -6.901  -5.981  1.00  0.00     0.020 A 
ATOM     79  C   UNL     1      -9.821  -7.808  -5.039  1.00  0.00     0.054 A 
BRANCH  79  80
ATOM     80  S   UNL     1     -11.566  -7.768  -4.543  1.00  0.00     0.124 S 
ATOM     81  O   UNL     1     -12.092  -8.967  -5.187  1.00  0.00    -0.237 OA
ATOM     82  O   UNL     1     -11.481  -7.817  -3.086  1.00  0.00    -0.237 OA
ATOM     83  O   UNL     1     -12.048  -6.500  -5.088  1.00  0.00    -0.744 OA
ENDBRANCH  79  80
ENDBRANCH  51  74
BRANCH  63  84
ATOM     84  C   UNL     1      -2.965 -12.358  -9.109  1.00  0.00    -0.014 A 
ATOM     85  C   UNL     1      -3.670 -12.539 -10.312  1.00  0.00     0.010 A 
ATOM     86  C   UNL     1      -2.394 -13.475  -8.470  1.00  0.00     0.010 A 
ATOM     87  C   UNL     1      -3.813 -13.818 -10.856  1.00  0.00     0.020 A 
ATOM     88  C   UNL     1      -2.513 -14.750  -9.025  1.00  0.00     0.020 A 
ATOM     89  C   UNL     1      -3.230 -14.915 -10.211  1.00  0.00     0.054 A 
BRANCH  89  90
ATOM     90  S   UNL     1      -3.370 -16.554 -10.975  1.00  0.00     0.124 S 
ATOM     91  O   UNL     1      -4.763 -16.897 -10.703  1.00  0.00    -0.237 OA
ATOM     92  O   UNL     1      -3.050 -16.285 -12.374  1.00  0.00    -0.237 OA
ATOM     93  O   UNL     1      -2.380 -17.355 -10.259  1.00  0.00    -0.744 OA
ENDBRANCH  89  90
ENDBRANCH  63  84
ENDBRANCH  37  38
ENDBRANCH  30  32
ENDBRANCH  29  30
ENDBRANCH  28  29
ENDBRANCH   1  28
TORSDOF 18
