REMARK SMILES O=C(CCCc1ccc2c(c1Br)C=CC2)OCCOC(=O)c1ccc(-c2c3nc(c(-c4ccc(S(=O)(=O)[O-])cc4)c4ccc([nH]4)c(-c4ccc(S(=O)(=O)[O-])cc4)c4nc(c(-c5ccc(S(=O)(=O)[O-])cc5)c5ccc2[nH]5)C=C4)C=C3)cc1
REMARK SMILES IDX 17 1 16 2 2 3 1 4 3 5 4 6 5 7 6 8 7 9 11 10 8 11 10 12 12 13
REMARK SMILES IDX 9 14 13 15 15 16 14 17 18 18 19 19 20 20 21 21 22 22 23 23
REMARK SMILES IDX 81 24 24 25 80 26 25 27 26 28 27 29 74 30 28 31 79 32 73 33
REMARK SMILES IDX 75 34 29 35 78 36 72 37 71 38 30 40 60 41 41 42 59 43 42 44
REMARK SMILES IDX 45 45 58 46 76 47 43 48 44 49 57 51 77 52 46 53 31 54 32 55
REMARK SMILES IDX 40 56 33 57 39 58 34 59 35 60 36 61 37 62 38 63 61 64 62 65
REMARK SMILES IDX 70 66 63 67 69 68 64 69 65 70 66 71 67 72 68 73 47 74 48 75
REMARK SMILES IDX 56 76 49 77 55 78 50 79 51 80 52 81 53 82 54 83
REMARK H PARENT 75 39 45 50
REMARK Flexibility Score: inf
ROOT
ATOM      1  C   UNL     1       3.711   0.332   1.514  1.00  0.00     0.274 C 
ENDROOT
BRANCH   1   2
ATOM      2  O   UNL     1       2.526   0.752   0.815  1.00  0.00    -0.462 OA
BRANCH   2   3
ATOM      3  C   UNL     1       2.570   1.006  -0.519  1.00  0.00     0.305 C 
ATOM      4  O   UNL     1       1.964   1.961  -0.996  1.00  0.00    -0.252 OA
BRANCH   3   5
ATOM      5  C   UNL     1       3.256  -0.018  -1.396  1.00  0.00     0.123 C 
BRANCH   5   6
ATOM      6  C   UNL     1       4.283   0.547  -2.375  1.00  0.00     0.016 C 
BRANCH   6   7
ATOM      7  C   UNL     1       5.726   0.720  -1.861  1.00  0.00     0.037 C 
BRANCH   7   8
ATOM      8  C   UNL     1       6.362  -0.309  -0.937  1.00  0.00    -0.033 A 
ATOM      9  C   UNL     1       7.100   0.219   0.162  1.00  0.00     0.005 A 
ATOM     10  C   UNL     1       6.279  -1.711  -1.071  1.00  0.00     0.028 A 
ATOM     11  C   UNL     1       7.635  -0.594   1.163  1.00  0.00     0.005 A 
ATOM     12  C   UNL     1       6.770  -2.516  -0.039  1.00  0.00    -0.008 A 
ATOM     13  Br  UNL     1       5.578  -2.556  -2.620  1.00  0.00    -0.050 Br
ATOM     14  C   UNL     1       7.430  -1.954   1.065  1.00  0.00    -0.036 A 
ATOM     15  C   UNL     1       6.716  -3.962   0.165  1.00  0.00     0.005 C 
ATOM     16  C   UNL     1       7.842  -3.026   2.027  1.00  0.00     0.063 C 
ATOM     17  C   UNL     1       7.307  -4.250   1.335  1.00  0.00    -0.022 C 
ENDBRANCH   7   8
ENDBRANCH   6   7
ENDBRANCH   5   6
ENDBRANCH   3   5
ENDBRANCH   2   3
ENDBRANCH   1   2
BRANCH   1  18
ATOM     18  C   UNL     1       3.574  -1.046   2.164  1.00  0.00     0.275 C 
BRANCH  18  19
ATOM     19  O   UNL     1       3.313  -2.061   1.183  1.00  0.00    -0.458 OA
BRANCH  19  20
ATOM     20  C   UNL     1       1.996  -2.313   0.975  1.00  0.00     0.338 C 
ATOM     21  O   UNL     1       1.064  -1.875   1.622  1.00  0.00    -0.246 OA
BRANCH  20  22
ATOM     22  C   UNL     1       1.822  -3.081  -0.278  1.00  0.00     0.060 A 
ATOM     23  C   UNL     1       0.737  -2.738  -1.094  1.00  0.00     0.016 A 
ATOM     24  C   UNL     1       2.667  -4.136  -0.635  1.00  0.00     0.016 A 
ATOM     25  C   UNL     1       0.457  -3.485  -2.236  1.00  0.00     0.010 A 
ATOM     26  C   UNL     1       2.379  -4.894  -1.776  1.00  0.00     0.010 A 
ATOM     27  C   UNL     1       1.245  -4.600  -2.553  1.00  0.00    -0.014 A 
BRANCH  27  28
ATOM     28  C   UNL     1       0.720  -5.595  -3.520  1.00  0.00     0.031 A 
ATOM     29  C   UNL     1      -0.128  -6.717  -2.976  1.00  0.00     0.074 A 
ATOM     30  C   UNL     1       0.918  -5.481  -4.846  1.00  0.00     0.049 A 
ATOM     31  N   UNL     1      -0.712  -7.697  -3.614  1.00  0.00    -0.248 NA
ATOM     32  C   UNL     1      -0.356  -6.727  -1.519  1.00  0.00     0.031 C 
ATOM     33  C   UNL     1       1.657  -4.409  -5.510  1.00  0.00     0.029 A 
ATOM     34  N   UNL     1       0.490  -6.283  -5.876  1.00  0.00    -0.354 N 
ATOM     35  C   UNL     1      -1.384  -8.428  -2.642  1.00  0.00     0.074 A 
ATOM     36  C   UNL     1      -1.116  -7.801  -1.368  1.00  0.00     0.031 C 
ATOM     37  C   UNL     1       1.619  -4.614  -6.840  1.00  0.00     0.029 A 
ATOM     38  C   UNL     1       0.877  -5.843  -7.119  1.00  0.00     0.049 A 
ATOM     39  H   UNL     1      -0.044  -7.098  -5.736  1.00  0.00     0.167 HD
ATOM     40  C   UNL     1      -2.166  -9.521  -2.792  1.00  0.00     0.031 A 
ATOM     41  C   UNL     1       0.661  -6.377  -8.339  1.00  0.00     0.031 A 
ATOM     42  C   UNL     1      -2.432 -10.162  -4.047  1.00  0.00     0.049 A 
ATOM     43  C   UNL     1      -0.119  -7.661  -8.465  1.00  0.00     0.074 A 
ATOM     44  C   UNL     1      -3.197 -11.290  -4.289  1.00  0.00     0.029 A 
ATOM     45  N   UNL     1      -1.942  -9.737  -5.269  1.00  0.00    -0.354 N 
ATOM     46  N   UNL     1      -0.728  -8.353  -7.532  1.00  0.00    -0.248 NA
ATOM     47  C   UNL     1      -0.234  -8.240  -9.814  1.00  0.00     0.031 C 
ATOM     48  C   UNL     1      -3.138 -11.569  -5.657  1.00  0.00     0.029 A 
ATOM     49  C   UNL     1      -2.370 -10.591  -6.269  1.00  0.00     0.049 A 
ATOM     50  H   UNL     1      -1.374  -8.945  -5.407  1.00  0.00     0.167 HD
ATOM     51  C   UNL     1      -1.308  -9.438  -8.183  1.00  0.00     0.074 A 
ATOM     52  C   UNL     1      -0.991  -9.306  -9.589  1.00  0.00     0.031 C 
ATOM     53  C   UNL     1      -2.041 -10.452  -7.662  1.00  0.00     0.031 A 
BRANCH  40  54
ATOM     54  C   UNL     1      -2.788 -10.105  -1.558  1.00  0.00    -0.014 A 
ATOM     55  C   UNL     1      -3.944  -9.532  -1.002  1.00  0.00     0.010 A 
ATOM     56  C   UNL     1      -2.255 -11.279  -0.997  1.00  0.00     0.010 A 
ATOM     57  C   UNL     1      -4.561 -10.127   0.100  1.00  0.00     0.020 A 
ATOM     58  C   UNL     1      -2.878 -11.884   0.096  1.00  0.00     0.020 A 
ATOM     59  C   UNL     1      -4.029 -11.305   0.636  1.00  0.00     0.054 A 
BRANCH  59  60
ATOM     60  S   UNL     1      -4.887 -12.082   2.031  1.00  0.00     0.124 S 
ATOM     61  O   UNL     1      -4.804 -11.045   3.057  1.00  0.00    -0.237 OA
ATOM     62  O   UNL     1      -6.220 -12.322   1.486  1.00  0.00    -0.237 OA
ATOM     63  O   UNL     1      -4.099 -13.283   2.301  1.00  0.00    -0.744 OA
ENDBRANCH  59  60
ENDBRANCH  40  54
BRANCH  41  64
ATOM     64  C   UNL     1       1.206  -5.719  -9.557  1.00  0.00    -0.014 A 
ATOM     65  C   UNL     1       0.345  -5.080 -10.466  1.00  0.00     0.010 A 
ATOM     66  C   UNL     1       2.583  -5.771  -9.837  1.00  0.00     0.010 A 
ATOM     67  C   UNL     1       0.849  -4.520 -11.644  1.00  0.00     0.020 A 
ATOM     68  C   UNL     1       3.093  -5.195 -11.004  1.00  0.00     0.020 A 
ATOM     69  C   UNL     1       2.221  -4.579 -11.904  1.00  0.00     0.054 A 
BRANCH  69  70
ATOM     70  S   UNL     1       2.849  -3.836 -13.436  1.00  0.00     0.124 S 
ATOM     71  O   UNL     1       2.189  -4.639 -14.461  1.00  0.00    -0.237 OA
ATOM     72  O   UNL     1       2.387  -2.455 -13.320  1.00  0.00    -0.237 OA
ATOM     73  O   UNL     1       4.296  -4.014 -13.338  1.00  0.00    -0.744 OA
ENDBRANCH  69  70
ENDBRANCH  41  64
BRANCH  53  74
ATOM     74  C   UNL     1      -2.559 -11.502  -8.604  1.00  0.00    -0.014 A 
ATOM     75  C   UNL     1      -1.709 -12.503  -9.104  1.00  0.00     0.010 A 
ATOM     76  C   UNL     1      -3.930 -11.541  -8.921  1.00  0.00     0.010 A 
ATOM     77  C   UNL     1      -2.218 -13.518  -9.917  1.00  0.00     0.020 A 
ATOM     78  C   UNL     1      -4.446 -12.566  -9.717  1.00  0.00     0.020 A 
ATOM     79  C   UNL     1      -3.585 -13.547 -10.214  1.00  0.00     0.054 A 
BRANCH  79  80
ATOM     80  S   UNL     1      -4.220 -14.905 -11.235  1.00  0.00     0.124 S 
ATOM     81  O   UNL     1      -3.542 -14.675 -12.508  1.00  0.00    -0.237 OA
ATOM     82  O   UNL     1      -3.785 -16.086 -10.495  1.00  0.00    -0.237 OA
ATOM     83  O   UNL     1      -5.665 -14.682 -11.252  1.00  0.00    -0.744 OA
ENDBRANCH  79  80
ENDBRANCH  53  74
ENDBRANCH  27  28
ENDBRANCH  20  22
ENDBRANCH  19  20
ENDBRANCH  18  19
ENDBRANCH   1  18
TORSDOF 17
