REMARK SMILES Cc1cc(Br)cnc1Sc1nc(CC(=O)OCCOC(=O)c2ccc(-c3c4nc(c(-c5ccc(S(=O)(=O)[O-])cc5)c5ccc([nH]5)c(-c5ccc(S(=O)(=O)[O-])cc5)c5nc(c(-c6ccc(S(=O)(=O)[O-])cc6)c6ccc3[nH]6)C=C5)C=C4)cc2)cs1
REMARK SMILES IDX 17 1 16 2 14 3 15 4 13 5 12 6 10 7 11 8 83 9 82 10 9 11 8 12
REMARK SMILES IDX 1 13 2 14 3 15 4 16 7 17 5 18 6 19 18 20 19 21 20 22 21 23
REMARK SMILES IDX 22 24 23 25 81 26 24 27 80 28 25 29 26 30 27 31 74 32 28 33
REMARK SMILES IDX 79 34 73 35 75 36 29 37 78 38 72 39 71 40 30 42 60 43 41 44
REMARK SMILES IDX 59 45 42 46 45 47 58 48 76 49 43 50 44 51 57 53 77 54 46 55
REMARK SMILES IDX 31 56 32 57 40 58 33 59 39 60 34 61 35 62 36 63 37 64 38 65
REMARK SMILES IDX 61 66 62 67 70 68 63 69 69 70 64 71 65 72 66 73 67 74 68 75
REMARK SMILES IDX 47 76 48 77 56 78 49 79 55 80 50 81 51 82 52 83 53 84 54 85
REMARK H PARENT 75 41 45 52
REMARK Flexibility Score: inf
ROOT
ATOM      1  C   UNL     1       9.327  -2.921  -3.761  1.00  0.00     0.274 C 
ENDROOT
BRANCH   1   2
ATOM      2  O   UNL     1       8.113  -2.494  -3.112  1.00  0.00    -0.462 OA
BRANCH   2   3
ATOM      3  C   UNL     1       7.112  -3.413  -3.063  1.00  0.00     0.312 C 
ATOM      4  O   UNL     1       7.193  -4.550  -3.516  1.00  0.00    -0.252 OA
BRANCH   3   5
ATOM      5  C   UNL     1       5.832  -2.877  -2.475  1.00  0.00     0.179 C 
BRANCH   5   6
ATOM      6  C   UNL     1       5.975  -1.905  -1.349  1.00  0.00     0.064 A 
ATOM      7  C   UNL     1       5.257  -0.154  -0.184  1.00  0.00     0.156 A 
ATOM      8  N   UNL     1       5.083  -0.834  -1.296  1.00  0.00    -0.234 NA
ATOM      9  S   UNL     1       6.558  -0.679   0.806  1.00  0.00    -0.116 S 
ATOM     10  C   UNL     1       6.823  -1.988  -0.261  1.00  0.00     0.092 A 
BRANCH   7  11
ATOM     11  S   UNL     1       4.279   1.199   0.287  1.00  0.00    -0.039 SA
BRANCH  11  12
ATOM     12  C   UNL     1       2.597   0.665   0.055  1.00  0.00     0.106 A 
ATOM     13  C   UNL     1       2.808  -1.853   0.602  1.00  0.00     0.047 C 
ATOM     14  C   UNL     1       2.042  -0.610   0.259  1.00  0.00    -0.017 A 
ATOM     15  C   UNL     1       0.644  -0.756   0.119  1.00  0.00     0.023 A 
ATOM     16  C   UNL     1      -0.155   0.342  -0.155  1.00  0.00     0.036 A 
ATOM     17  N   UNL     1       1.799   1.738  -0.225  1.00  0.00    -0.248 NA
ATOM     18  Br  UNL     1      -2.027   0.173  -0.276  1.00  0.00    -0.049 Br
ATOM     19  C   UNL     1       0.462   1.561  -0.315  1.00  0.00     0.128 A 
ENDBRANCH  11  12
ENDBRANCH   7  11
ENDBRANCH   5   6
ENDBRANCH   3   5
ENDBRANCH   2   3
ENDBRANCH   1   2
BRANCH   1  20
ATOM     20  C   UNL     1      10.361  -3.415  -2.752  1.00  0.00     0.275 C 
BRANCH  20  21
ATOM     21  O   UNL     1       9.887  -4.597  -2.083  1.00  0.00    -0.458 OA
BRANCH  21  22
ATOM     22  C   UNL     1       9.732  -4.482  -0.746  1.00  0.00     0.338 C 
ATOM     23  O   UNL     1       9.975  -3.512  -0.050  1.00  0.00    -0.246 OA
BRANCH  22  24
ATOM     24  C   UNL     1       9.156  -5.716  -0.198  1.00  0.00     0.060 A 
ATOM     25  C   UNL     1       7.768  -5.870  -0.166  1.00  0.00     0.016 A 
ATOM     26  C   UNL     1       9.992  -6.637   0.435  1.00  0.00     0.016 A 
ATOM     27  C   UNL     1       7.207  -6.926   0.551  1.00  0.00     0.010 A 
ATOM     28  C   UNL     1       9.428  -7.713   1.123  1.00  0.00     0.010 A 
ATOM     29  C   UNL     1       8.032  -7.842   1.220  1.00  0.00    -0.014 A 
BRANCH  29  30
ATOM     30  C   UNL     1       7.435  -8.889   2.086  1.00  0.00     0.031 A 
ATOM     31  C   UNL     1       7.530  -8.771   3.583  1.00  0.00     0.074 A 
ATOM     32  C   UNL     1       6.806  -9.942   1.535  1.00  0.00     0.049 A 
ATOM     33  N   UNL     1       7.099  -9.594   4.505  1.00  0.00    -0.248 NA
ATOM     34  C   UNL     1       8.207  -7.575   4.109  1.00  0.00     0.031 C 
ATOM     35  C   UNL     1       6.640 -10.173   0.101  1.00  0.00     0.029 A 
ATOM     36  N   UNL     1       6.192 -11.019   2.124  1.00  0.00    -0.354 N 
ATOM     37  C   UNL     1       7.475  -9.032   5.719  1.00  0.00     0.074 A 
ATOM     38  C   UNL     1       8.181  -7.805   5.414  1.00  0.00     0.031 C 
ATOM     39  C   UNL     1       5.965 -11.320  -0.080  1.00  0.00     0.029 A 
ATOM     40  C   UNL     1       5.674 -11.915   1.222  1.00  0.00     0.049 A 
ATOM     41  H   UNL     1       6.129 -11.137   3.099  1.00  0.00     0.167 HD
ATOM     42  C   UNL     1       7.255  -9.491   6.975  1.00  0.00     0.031 A 
ATOM     43  C   UNL     1       5.045 -13.089   1.419  1.00  0.00     0.031 A 
ATOM     44  C   UNL     1       6.552 -10.707   7.286  1.00  0.00     0.049 A 
ATOM     45  C   UNL     1       4.795 -13.573   2.818  1.00  0.00     0.074 A 
ATOM     46  C   UNL     1       6.266 -11.246   8.529  1.00  0.00     0.029 A 
ATOM     47  N   UNL     1       6.023 -11.575   6.343  1.00  0.00    -0.354 N 
ATOM     48  N   UNL     1       5.142 -13.019   3.954  1.00  0.00    -0.248 NA
ATOM     49  C   UNL     1       4.054 -14.834   2.959  1.00  0.00     0.031 C 
ATOM     50  C   UNL     1       5.585 -12.455   8.335  1.00  0.00     0.029 A 
ATOM     51  C   UNL     1       5.418 -12.649   6.974  1.00  0.00     0.049 A 
ATOM     52  H   UNL     1       6.071 -11.447   5.369  1.00  0.00     0.167 HD
ATOM     53  C   UNL     1       4.650 -13.857   4.949  1.00  0.00     0.074 A 
ATOM     54  C   UNL     1       3.969 -14.947   4.278  1.00  0.00     0.031 C 
ATOM     55  C   UNL     1       4.751 -13.731   6.295  1.00  0.00     0.031 A 
BRANCH  42  56
ATOM     56  C   UNL     1       7.827  -8.677   8.103  1.00  0.00    -0.014 A 
ATOM     57  C   UNL     1       7.239  -7.460   8.492  1.00  0.00     0.010 A 
ATOM     58  C   UNL     1       8.986  -9.123   8.763  1.00  0.00     0.010 A 
ATOM     59  C   UNL     1       7.835  -6.673   9.482  1.00  0.00     0.020 A 
ATOM     60  C   UNL     1       9.572  -8.349   9.768  1.00  0.00     0.020 A 
ATOM     61  C   UNL     1       9.008  -7.116  10.101  1.00  0.00     0.054 A 
BRANCH  61  62
ATOM     62  S   UNL     1       9.789  -6.069  11.361  1.00  0.00     0.124 S 
ATOM     63  O   UNL     1      10.534  -5.120  10.539  1.00  0.00    -0.237 OA
ATOM     64  O   UNL     1       8.645  -5.514  12.080  1.00  0.00    -0.237 OA
ATOM     65  O   UNL     1      10.605  -7.007  12.128  1.00  0.00    -0.744 OA
ENDBRANCH  61  62
ENDBRANCH  42  56
BRANCH  43  66
ATOM     66  C   UNL     1       4.601 -13.876   0.240  1.00  0.00    -0.014 A 
ATOM     67  C   UNL     1       3.251 -13.872  -0.150  1.00  0.00     0.010 A 
ATOM     68  C   UNL     1       5.542 -14.578  -0.535  1.00  0.00     0.010 A 
ATOM     69  C   UNL     1       2.850 -14.551  -1.304  1.00  0.00     0.020 A 
ATOM     70  C   UNL     1       5.146 -15.242  -1.699  1.00  0.00     0.020 A 
ATOM     71  C   UNL     1       3.802 -15.225  -2.075  1.00  0.00     0.054 A 
BRANCH  71  72
ATOM     72  S   UNL     1       3.283 -16.010  -3.627  1.00  0.00     0.124 S 
ATOM     73  O   UNL     1       2.712 -17.267  -3.155  1.00  0.00    -0.237 OA
ATOM     74  O   UNL     1       2.328 -15.046  -4.170  1.00  0.00    -0.237 OA
ATOM     75  O   UNL     1       4.530 -16.128  -4.380  1.00  0.00    -0.744 OA
ENDBRANCH  71  72
ENDBRANCH  43  66
BRANCH  55  76
ATOM     76  C   UNL     1       4.089 -14.791   7.131  1.00  0.00    -0.014 A 
ATOM     77  C   UNL     1       4.667 -16.064   7.279  1.00  0.00     0.010 A 
ATOM     78  C   UNL     1       2.883 -14.501   7.793  1.00  0.00     0.010 A 
ATOM     79  C   UNL     1       4.029 -17.044   8.045  1.00  0.00     0.020 A 
ATOM     80  C   UNL     1       2.251 -15.473   8.574  1.00  0.00     0.020 A 
ATOM     81  C   UNL     1       2.819 -16.744   8.680  1.00  0.00     0.054 A 
BRANCH  81  82
ATOM     82  S   UNL     1       2.009 -18.020   9.685  1.00  0.00     0.124 S 
ATOM     83  O   UNL     1       1.315 -18.808   8.671  1.00  0.00    -0.237 OA
ATOM     84  O   UNL     1       3.134 -18.687  10.336  1.00  0.00    -0.237 OA
ATOM     85  O   UNL     1       1.146 -17.253  10.581  1.00  0.00    -0.744 OA
ENDBRANCH  81  82
ENDBRANCH  55  76
ENDBRANCH  29  30
ENDBRANCH  22  24
ENDBRANCH  21  22
ENDBRANCH  20  21
ENDBRANCH   1  20
TORSDOF 17
