REMARK SMILES O=C(N[C@@H]1C=C[C@@H](C(=O)OCCOC(=O)c2ccc(-c3c4nc(c(-c5ccc(S(=O)(=O)[O-])cc5)c5ccc([nH]5)c(-c5ccc(S(=O)(=O)[O-])cc5)c5nc(c(-c6ccc(S(=O)(=O)[O-])cc6)c6ccc3[nH]6)C=C5)C=C4)cc2)C1)N[C@H]1CCCc2sccc21
REMARK SMILES IDX 12 1 11 2 10 3 8 4 9 5 7 6 4 7 5 8 76 9 6 10 3 11 1 12 2 13
REMARK SMILES IDX 77 14 78 17 79 18 86 19 80 20 82 21 85 22 81 23 83 24 84 25
REMARK SMILES IDX 13 26 14 27 15 28 16 29 17 30 75 31 18 32 74 33 19 34 20 35
REMARK SMILES IDX 21 36 68 37 22 38 73 39 67 40 69 41 23 42 72 43 66 44 65 45
REMARK SMILES IDX 24 47 54 48 35 49 53 50 36 51 39 52 52 53 70 54 37 55 38 56
REMARK SMILES IDX 51 58 71 59 40 60 25 61 26 62 34 63 27 64 33 65 28 66 29 67
REMARK SMILES IDX 30 68 31 69 32 70 55 71 56 72 64 73 57 74 63 75 58 76 59 77
REMARK SMILES IDX 60 78 61 79 62 80 41 81 42 82 50 83 43 84 49 85 44 86 45 87
REMARK SMILES IDX 46 88 47 89 48 90
REMARK H PARENT 3 15 77 16 69 46 39 57
REMARK Flexibility Score: inf
ROOT
ATOM      1  C   UNL     1       5.434  -6.676   2.304  1.00  0.00     0.275 C 
ENDROOT
BRANCH   1   2
ATOM      2  C   UNL     1       5.150  -5.569   3.322  1.00  0.00     0.274 C 
BRANCH   2   3
ATOM      3  O   UNL     1       4.984  -4.310   2.644  1.00  0.00    -0.462 OA
BRANCH   3   4
ATOM      4  C   UNL     1       5.935  -3.364   2.851  1.00  0.00     0.312 C 
ATOM      5  O   UNL     1       6.825  -3.447   3.690  1.00  0.00    -0.252 OA
BRANCH   4   6
ATOM      6  C   UNL     1       5.796  -2.161   1.921  1.00  0.00     0.124 C 
ATOM      7  C   UNL     1       4.173  -0.939   0.554  1.00  0.00     0.107 C 
ATOM      8  C   UNL     1       4.413  -0.272   1.868  1.00  0.00    -0.006 C 
ATOM      9  C   UNL     1       4.836  -2.308   0.733  1.00  0.00     0.048 C 
ATOM     10  C   UNL     1       5.280  -0.947   2.631  1.00  0.00    -0.014 C 
BRANCH   7  11
ATOM     11  N   UNL     1       4.781  -0.150  -0.493  1.00  0.00    -0.332 N 
ATOM     12  O   UNL     1       4.960   0.664  -2.577  1.00  0.00    -0.249 OA
ATOM     13  C   UNL     1       4.507  -0.191  -1.826  1.00  0.00     0.315 C 
ATOM     14  N   UNL     1       3.686  -1.191  -2.228  1.00  0.00    -0.331 N 
ATOM     15  H   UNL     1       5.473   0.490  -0.210  1.00  0.00     0.165 HD
ATOM     16  H   UNL     1       3.454  -1.891  -1.575  1.00  0.00     0.166 HD
BRANCH  14  17
ATOM     17  C   UNL     1       3.128  -1.290  -3.563  1.00  0.00     0.115 C 
ATOM     18  C   UNL     1       4.024  -2.173  -4.467  1.00  0.00     0.030 C 
ATOM     19  C   UNL     1       1.741  -1.844  -3.361  1.00  0.00    -0.012 A 
ATOM     20  C   UNL     1       3.264  -3.178  -5.351  1.00  0.00     0.008 C 
ATOM     21  C   UNL     1       1.371  -3.103  -3.791  1.00  0.00     0.010 A 
ATOM     22  C   UNL     1       0.648  -1.179  -2.719  1.00  0.00     0.018 A 
ATOM     23  C   UNL     1       2.278  -4.025  -4.536  1.00  0.00     0.047 C 
ATOM     24  S   UNL     1      -0.234  -3.495  -3.398  1.00  0.00    -0.149 S 
ATOM     25  C   UNL     1      -0.483  -1.965  -2.670  1.00  0.00     0.065 A 
ENDBRANCH  14  17
ENDBRANCH   7  11
ENDBRANCH   4   6
ENDBRANCH   3   4
ENDBRANCH   2   3
ENDBRANCH   1   2
BRANCH   1  26
ATOM     26  O   UNL     1       6.716  -6.489   1.674  1.00  0.00    -0.458 OA
BRANCH  26  27
ATOM     27  C   UNL     1       6.692  -5.784   0.518  1.00  0.00     0.338 C 
ATOM     28  O   UNL     1       5.715  -5.323  -0.049  1.00  0.00    -0.246 OA
BRANCH  27  29
ATOM     29  C   UNL     1       8.068  -5.526   0.071  1.00  0.00     0.060 A 
ATOM     30  C   UNL     1       8.549  -4.217   0.142  1.00  0.00     0.016 A 
ATOM     31  C   UNL     1       8.843  -6.536  -0.498  1.00  0.00     0.016 A 
ATOM     32  C   UNL     1       9.803  -3.903  -0.374  1.00  0.00     0.010 A 
ATOM     33  C   UNL     1      10.109  -6.223  -1.003  1.00  0.00     0.010 A 
ATOM     34  C   UNL     1      10.591  -4.902  -0.958  1.00  0.00    -0.014 A 
BRANCH  34  35
ATOM     35  C   UNL     1      11.902  -4.549  -1.556  1.00  0.00     0.031 A 
ATOM     36  C   UNL     1      12.068  -4.545  -3.050  1.00  0.00     0.074 A 
ATOM     37  C   UNL     1      12.933  -4.211  -0.760  1.00  0.00     0.049 A 
ATOM     38  N   UNL     1      13.149  -4.347  -3.759  1.00  0.00    -0.248 NA
ATOM     39  C   UNL     1      10.860  -4.800  -3.852  1.00  0.00     0.031 C 
ATOM     40  C   UNL     1      12.882  -4.129   0.702  1.00  0.00     0.029 A 
ATOM     41  N   UNL     1      14.226  -3.872  -1.068  1.00  0.00    -0.354 N 
ATOM     42  C   UNL     1      12.761  -4.478  -5.087  1.00  0.00     0.074 A 
ATOM     43  C   UNL     1      11.346  -4.785  -5.085  1.00  0.00     0.031 C 
ATOM     44  C   UNL     1      14.088  -3.757   1.161  1.00  0.00     0.029 A 
ATOM     45  C   UNL     1      15.007  -3.625   0.036  1.00  0.00     0.049 A 
ATOM     46  H   UNL     1      14.562  -3.812  -1.991  1.00  0.00     0.167 HD
ATOM     47  C   UNL     1      13.515  -4.355  -6.205  1.00  0.00     0.031 A 
ATOM     48  C   UNL     1      16.323  -3.351   0.133  1.00  0.00     0.031 A 
ATOM     49  C   UNL     1      14.920  -4.042  -6.202  1.00  0.00     0.049 A 
ATOM     50  C   UNL     1      17.151  -3.273  -1.120  1.00  0.00     0.074 A 
ATOM     51  C   UNL     1      15.771  -3.891  -7.284  1.00  0.00     0.029 A 
ATOM     52  N   UNL     1      15.681  -3.828  -5.063  1.00  0.00    -0.354 N 
ATOM     53  N   UNL     1      16.770  -3.416  -2.368  1.00  0.00    -0.248 NA
ATOM     54  C   UNL     1      18.584  -3.000  -0.953  1.00  0.00     0.031 C 
ATOM     55  C   UNL     1      17.056  -3.627  -6.796  1.00  0.00     0.029 A 
ATOM     56  C   UNL     1      16.994  -3.565  -5.413  1.00  0.00     0.049 A 
ATOM     57  H   UNL     1      15.337  -3.858  -4.141  1.00  0.00     0.167 HD
ATOM     58  C   UNL     1      17.916  -3.232  -3.135  1.00  0.00     0.074 A 
ATOM     59  C   UNL     1      18.997  -2.954  -2.212  1.00  0.00     0.031 C 
ATOM     60  C   UNL     1      18.058  -3.291  -4.481  1.00  0.00     0.031 A 
BRANCH  47  61
ATOM     61  C   UNL     1      12.842  -4.600  -7.529  1.00  0.00    -0.014 A 
ATOM     62  C   UNL     1      11.956  -3.660  -8.084  1.00  0.00     0.010 A 
ATOM     63  C   UNL     1      13.130  -5.776  -8.245  1.00  0.00     0.010 A 
ATOM     64  C   UNL     1      11.342  -3.909  -9.315  1.00  0.00     0.020 A 
ATOM     65  C   UNL     1      12.536  -6.019  -9.486  1.00  0.00     0.020 A 
ATOM     66  C   UNL     1      11.631  -5.090 -10.005  1.00  0.00     0.054 A 
BRANCH  66  67
ATOM     67  S   UNL     1      10.832  -5.385 -11.607  1.00  0.00     0.124 S 
ATOM     68  O   UNL     1       9.476  -5.747 -11.204  1.00  0.00    -0.237 OA
ATOM     69  O   UNL     1      10.965  -4.094 -12.277  1.00  0.00    -0.237 OA
ATOM     70  O   UNL     1      11.618  -6.470 -12.192  1.00  0.00    -0.744 OA
ENDBRANCH  66  67
ENDBRANCH  47  61
BRANCH  48  71
ATOM     71  C   UNL     1      16.945  -3.168   1.472  1.00  0.00    -0.014 A 
ATOM     72  C   UNL     1      17.383  -1.901   1.893  1.00  0.00     0.010 A 
ATOM     73  C   UNL     1      17.091  -4.267   2.339  1.00  0.00     0.010 A 
ATOM     74  C   UNL     1      17.969  -1.739   3.152  1.00  0.00     0.020 A 
ATOM     75  C   UNL     1      17.653  -4.104   3.607  1.00  0.00     0.020 A 
ATOM     76  C   UNL     1      18.100  -2.842   4.001  1.00  0.00     0.054 A 
BRANCH  76  77
ATOM     77  S   UNL     1      18.814  -2.602   5.652  1.00  0.00     0.124 S 
ATOM     78  O   UNL     1      20.239  -2.511   5.355  1.00  0.00    -0.237 OA
ATOM     79  O   UNL     1      18.179  -1.364   6.097  1.00  0.00    -0.237 OA
ATOM     80  O   UNL     1      18.399  -3.800   6.379  1.00  0.00    -0.744 OA
ENDBRANCH  76  77
ENDBRANCH  48  71
BRANCH  60  81
ATOM     81  C   UNL     1      19.428  -3.021  -5.042  1.00  0.00    -0.014 A 
ATOM     82  C   UNL     1      20.452  -3.979  -4.949  1.00  0.00     0.010 A 
ATOM     83  C   UNL     1      19.676  -1.810  -5.714  1.00  0.00     0.010 A 
ATOM     84  C   UNL     1      21.712  -3.719  -5.496  1.00  0.00     0.020 A 
ATOM     85  C   UNL     1      20.927  -1.557  -6.282  1.00  0.00     0.020 A 
ATOM     86  C   UNL     1      21.942  -2.508  -6.157  1.00  0.00     0.054 A 
BRANCH  86  87
ATOM     87  S   UNL     1      23.570  -2.211  -6.899  1.00  0.00     0.124 S 
ATOM     88  O   UNL     1      24.381  -1.883  -5.729  1.00  0.00    -0.237 OA
ATOM     89  O   UNL     1      23.874  -3.490  -7.535  1.00  0.00    -0.237 OA
ATOM     90  O   UNL     1      23.332  -1.105  -7.823  1.00  0.00    -0.744 OA
ENDBRANCH  86  87
ENDBRANCH  60  81
ENDBRANCH  34  35
ENDBRANCH  27  29
ENDBRANCH  26  27
ENDBRANCH   1  26
TORSDOF 16
