REMARK SMILES CC1(C)C(C(=O)N2CCOC[C@H]2C(=O)OCCOC(=O)c2ccc(-c3c4nc(c(-c5ccc(S(=O)(=O)[O-])cc5)c5ccc([nH]5)c(-c5ccc(S(=O)(=O)[O-])cc5)c5nc(c(-c6ccc(S(=O)(=O)[O-])cc6)c6ccc3[nH]6)C=C5)C=C4)cc2)C1(C)C
REMARK SMILES IDX 17 1 16 2 15 3 13 4 14 5 12 6 7 7 8 8 9 9 11 10 10 11 5 12
REMARK SMILES IDX 6 13 4 14 1 15 2 16 3 17 81 18 82 19 83 20 18 21 19 22 20 23
REMARK SMILES IDX 21 24 22 25 80 26 23 27 79 28 24 29 25 30 26 31 73 32 27 33
REMARK SMILES IDX 78 34 72 35 74 36 28 37 77 38 71 39 70 40 29 42 59 43 40 44
REMARK SMILES IDX 58 45 41 46 44 47 57 48 75 49 42 50 43 51 56 53 76 54 45 55
REMARK SMILES IDX 30 56 31 57 39 58 32 59 38 60 33 61 34 62 35 63 36 64 37 65
REMARK SMILES IDX 60 66 61 67 69 68 62 69 68 70 63 71 64 72 65 73 66 74 67 75
REMARK SMILES IDX 46 76 47 77 55 78 48 79 54 80 49 81 50 82 51 83 52 84 53 85
REMARK H PARENT 74 41 44 52
REMARK Flexibility Score: inf
ROOT
ATOM      1  C   UNL     1       3.702   6.236   5.775  1.00  0.00     0.275 C 
ENDROOT
BRANCH   1   2
ATOM      2  C   UNL     1       2.609   5.497   6.542  1.00  0.00     0.274 C 
BRANCH   2   3
ATOM      3  O   UNL     1       1.834   4.679   5.648  1.00  0.00    -0.460 OA
BRANCH   3   4
ATOM      4  C   UNL     1       0.562   5.082   5.394  1.00  0.00     0.331 C 
ATOM      5  O   UNL     1       0.043   6.074   5.897  1.00  0.00    -0.250 OA
BRANCH   4   6
ATOM      6  C   UNL     1      -0.237   4.088   4.537  1.00  0.00     0.221 C 
ATOM      7  N   UNL     1       0.459   3.136   3.635  1.00  0.00    -0.324 N 
ATOM      8  C   UNL     1       1.210   2.092   4.312  1.00  0.00     0.149 C 
ATOM      9  C   UNL     1       0.352   1.409   5.392  1.00  0.00     0.181 C 
ATOM     10  C   UNL     1      -1.106   3.284   5.512  1.00  0.00     0.197 C 
ATOM     11  O   UNL     1      -0.304   2.349   6.259  1.00  0.00    -0.377 OA
BRANCH   7  12
ATOM     12  C   UNL     1       0.265   3.298   2.272  1.00  0.00     0.227 C 
ATOM     13  O   UNL     1      -0.174   4.363   1.837  1.00  0.00    -0.275 OA
BRANCH  12  14
ATOM     14  C   UNL     1       0.437   2.223   1.239  1.00  0.00     0.091 C 
ATOM     15  C   UNL     1       0.972   0.171  -0.237  1.00  0.00     0.012 C 
ATOM     16  C   UNL     1       0.360   0.709   1.057  1.00  0.00    -0.017 C 
ATOM     17  C   UNL     1       0.563  -0.300   2.153  1.00  0.00     0.012 C 
ATOM     18  C   UNL     1      -0.928   1.514   0.952  1.00  0.00    -0.017 C 
ATOM     19  C   UNL     1      -1.592   1.756  -0.385  1.00  0.00     0.012 C 
ATOM     20  C   UNL     1      -1.965   1.448   2.059  1.00  0.00     0.012 C 
ENDBRANCH  12  14
ENDBRANCH   7  12
ENDBRANCH   4   6
ENDBRANCH   3   4
ENDBRANCH   2   3
ENDBRANCH   1   2
BRANCH   1  21
ATOM     21  O   UNL     1       3.132   7.163   4.838  1.00  0.00    -0.458 OA
BRANCH  21  22
ATOM     22  C   UNL     1       2.911   6.666   3.595  1.00  0.00     0.338 C 
ATOM     23  O   UNL     1       3.215   5.566   3.171  1.00  0.00    -0.246 OA
BRANCH  22  24
ATOM     24  C   UNL     1       2.113   7.649   2.849  1.00  0.00     0.060 A 
ATOM     25  C   UNL     1       0.760   7.387   2.636  1.00  0.00     0.016 A 
ATOM     26  C   UNL     1       2.698   8.814   2.357  1.00  0.00     0.016 A 
ATOM     27  C   UNL     1      -0.027   8.294   1.935  1.00  0.00     0.010 A 
ATOM     28  C   UNL     1       1.905   9.734   1.665  1.00  0.00     0.010 A 
ATOM     29  C   UNL     1       0.536   9.482   1.457  1.00  0.00    -0.014 A 
BRANCH  29  30
ATOM     30  C   UNL     1      -0.309  10.473   0.754  1.00  0.00     0.031 A 
ATOM     31  C   UNL     1      -0.151  10.682  -0.723  1.00  0.00     0.074 A 
ATOM     32  C   UNL     1      -1.209  11.188   1.456  1.00  0.00     0.049 A 
ATOM     33  N   UNL     1      -0.696  11.592  -1.488  1.00  0.00    -0.248 NA
ATOM     34  C   UNL     1       0.737   9.748  -1.432  1.00  0.00     0.031 C 
ATOM     35  C   UNL     1      -1.488  11.027   2.885  1.00  0.00     0.029 A 
ATOM     36  N   UNL     1      -2.050  12.200   1.065  1.00  0.00    -0.354 N 
ATOM     37  C   UNL     1      -0.203  11.355  -2.765  1.00  0.00     0.074 A 
ATOM     38  C   UNL     1       0.697  10.225  -2.669  1.00  0.00     0.031 C 
ATOM     39  C   UNL     1      -2.432  11.910   3.250  1.00  0.00     0.029 A 
ATOM     40  C   UNL     1      -2.778  12.738   2.099  1.00  0.00     0.049 A 
ATOM     41  H   UNL     1      -2.125  12.509   0.133  1.00  0.00     0.167 HD
ATOM     42  C   UNL     1      -0.479  12.025  -3.909  1.00  0.00     0.031 A 
ATOM     43  C   UNL     1      -3.596  13.807   2.128  1.00  0.00     0.031 A 
ATOM     44  C   UNL     1      -1.375  13.149  -3.987  1.00  0.00     0.049 A 
ATOM     45  C   UNL     1      -3.808  14.593   0.863  1.00  0.00     0.074 A 
ATOM     46  C   UNL     1      -1.730  13.892  -5.100  1.00  0.00     0.029 A 
ATOM     47  N   UNL     1      -2.054  13.697  -2.908  1.00  0.00    -0.354 N 
ATOM     48  N   UNL     1      -3.333  14.362  -0.339  1.00  0.00    -0.248 NA
ATOM     49  C   UNL     1      -4.654  15.790   0.958  1.00  0.00     0.031 C 
ATOM     50  C   UNL     1      -2.577  14.924  -4.684  1.00  0.00     0.029 A 
ATOM     51  C   UNL     1      -2.798  14.789  -3.322  1.00  0.00     0.049 A 
ATOM     52  H   UNL     1      -2.014  13.358  -1.985  1.00  0.00     0.167 HD
ATOM     53  C   UNL     1      -3.832  15.379  -1.144  1.00  0.00     0.074 A 
ATOM     54  C   UNL     1      -4.666  16.210  -0.299  1.00  0.00     0.031 C 
ATOM     55  C   UNL     1      -3.615  15.609  -2.463  1.00  0.00     0.031 A 
BRANCH  42  56
ATOM     56  C   UNL     1       0.224  11.585  -5.166  1.00  0.00    -0.014 A 
ATOM     57  C   UNL     1      -0.125  10.390  -5.819  1.00  0.00     0.010 A 
ATOM     58  C   UNL     1       1.210  12.413  -5.735  1.00  0.00     0.010 A 
ATOM     59  C   UNL     1       0.518  10.018  -7.004  1.00  0.00     0.020 A 
ATOM     60  C   UNL     1       1.838  12.057  -6.932  1.00  0.00     0.020 A 
ATOM     61  C   UNL     1       1.496  10.854  -7.553  1.00  0.00     0.054 A 
BRANCH  61  62
ATOM     62  S   UNL     1       2.287  10.364  -9.111  1.00  0.00     0.124 S 
ATOM     63  O   UNL     1       3.131   9.251  -8.684  1.00  0.00    -0.237 OA
ATOM     64  O   UNL     1       1.147  10.001  -9.948  1.00  0.00    -0.237 OA
ATOM     65  O   UNL     1       3.006  11.565  -9.529  1.00  0.00    -0.744 OA
ENDBRANCH  61  62
ENDBRANCH  42  56
BRANCH  43  66
ATOM     66  C   UNL     1      -4.226  14.233   3.408  1.00  0.00    -0.014 A 
ATOM     67  C   UNL     1      -5.616  14.140   3.591  1.00  0.00     0.010 A 
ATOM     68  C   UNL     1      -3.432  14.740   4.455  1.00  0.00     0.010 A 
ATOM     69  C   UNL     1      -6.202  14.564   4.788  1.00  0.00     0.020 A 
ATOM     70  C   UNL     1      -4.010  15.136   5.663  1.00  0.00     0.020 A 
ATOM     71  C   UNL     1      -5.395  15.059   5.817  1.00  0.00     0.054 A 
BRANCH  71  72
ATOM     72  S   UNL     1      -6.173  15.569   7.375  1.00  0.00     0.124 S 
ATOM     73  O   UNL     1      -6.802  16.832   7.000  1.00  0.00    -0.237 OA
ATOM     74  O   UNL     1      -7.087  14.463   7.649  1.00  0.00    -0.237 OA
ATOM     75  O   UNL     1      -5.047  15.681   8.299  1.00  0.00    -0.744 OA
ENDBRANCH  71  72
ENDBRANCH  43  66
BRANCH  55  76
ATOM     76  C   UNL     1      -4.300  16.801  -3.075  1.00  0.00    -0.014 A 
ATOM     77  C   UNL     1      -3.859  18.107  -2.799  1.00  0.00     0.010 A 
ATOM     78  C   UNL     1      -5.360  16.610  -3.980  1.00  0.00     0.010 A 
ATOM     79  C   UNL     1      -4.482  19.204  -3.400  1.00  0.00     0.020 A 
ATOM     80  C   UNL     1      -5.967  17.702  -4.604  1.00  0.00     0.020 A 
ATOM     81  C   UNL     1      -5.532  18.994  -4.301  1.00  0.00     0.054 A 
BRANCH  81  82
ATOM     82  S   UNL     1      -6.287  20.431  -5.108  1.00  0.00     0.124 S 
ATOM     83  O   UNL     1      -7.060  21.021  -4.018  1.00  0.00    -0.237 OA
ATOM     84  O   UNL     1      -5.125  21.202  -5.544  1.00  0.00    -0.237 OA
ATOM     85  O   UNL     1      -7.080  19.846  -6.187  1.00  0.00    -0.744 OA
ENDBRANCH  81  82
ENDBRANCH  55  76
ENDBRANCH  29  30
ENDBRANCH  22  24
ENDBRANCH  21  22
ENDBRANCH   1  21
TORSDOF 16
