REMARK SMILES NC(=O)c1ccnc(N(CC(=O)OCCOC(=O)c2ccc(-c3c4nc(c(-c5ccc(S(=O)(=O)[O-])cc5)c5ccc([nH]5)c(-c5ccc(S(=O)(=O)[O-])cc5)c5nc(c(-c6ccc(S(=O)(=O)[O-])cc6)c6ccc3[nH]6)C=C5)C=C4)cc2)CC(F)(F)F)c1
REMARK SMILES IDX 14 1 13 2 11 3 12 4 10 5 9 6 8 7 4 8 5 9 84 10 6 11 7 12
REMARK SMILES IDX 2 13 1 14 3 17 79 18 80 19 81 20 82 21 83 22 15 23 16 24
REMARK SMILES IDX 17 25 18 26 19 27 20 28 78 29 21 30 77 31 22 32 23 33 24 34
REMARK SMILES IDX 71 35 25 36 76 37 70 38 72 39 26 40 75 41 69 42 68 43 27 45
REMARK SMILES IDX 57 46 38 47 56 48 39 49 42 50 55 51 73 52 40 53 41 54 54 56
REMARK SMILES IDX 74 57 43 58 28 59 29 60 37 61 30 62 36 63 31 64 32 65 33 66
REMARK SMILES IDX 34 67 35 68 58 69 59 70 67 71 60 72 66 73 61 74 62 75 63 76
REMARK SMILES IDX 64 77 65 78 44 79 45 80 53 81 46 82 52 83 47 84 48 85 49 86
REMARK SMILES IDX 50 87 51 88
REMARK H PARENT 1 15 1 16 72 44 42 55
REMARK Flexibility Score: inf
ROOT
ATOM      1  C   UNL     1      -0.378  -1.066   9.104  1.00  0.00     0.274 C 
ENDROOT
BRANCH   1   2
ATOM      2  O   UNL     1       0.190  -1.280   7.800  1.00  0.00    -0.461 OA
BRANCH   2   3
ATOM      3  C   UNL     1       1.437  -1.817   7.767  1.00  0.00     0.325 C 
ATOM      4  O   UNL     1       2.113  -2.059   8.763  1.00  0.00    -0.250 OA
BRANCH   3   5
ATOM      5  C   UNL     1       1.915  -2.172   6.365  1.00  0.00     0.241 C 
BRANCH   5   6
ATOM      6  N   UNL     1       0.952  -1.932   5.267  1.00  0.00    -0.336 N 
BRANCH   6   7
ATOM      7  C   UNL     1       1.318  -1.006   4.309  1.00  0.00     0.130 A 
ATOM      8  C   UNL     1       1.234  -0.047   2.096  1.00  0.00     0.044 A 
ATOM      9  C   UNL     1       2.231   0.855   2.439  1.00  0.00     0.034 A 
ATOM     10  C   UNL     1       0.771  -0.976   3.034  1.00  0.00     0.060 A 
ATOM     11  C   UNL     1       2.720   0.777   3.721  1.00  0.00     0.114 A 
ATOM     12  N   UNL     1       2.287  -0.120   4.634  1.00  0.00    -0.239 NA
BRANCH   8  13
ATOM     13  C   UNL     1       0.623  -0.049   0.749  1.00  0.00     0.248 C 
ATOM     14  N   UNL     1       1.437   0.259  -0.303  1.00  0.00    -0.366 N 
ATOM     15  H   UNL     1       1.075   0.271  -1.219  1.00  0.00     0.159 HD
ATOM     16  H   UNL     1       2.386   0.470  -0.146  1.00  0.00     0.159 HD
ATOM     17  O   UNL     1      -0.551  -0.345   0.576  1.00  0.00    -0.270 OA
ENDBRANCH   8  13
ENDBRANCH   6   7
BRANCH   6  18
ATOM     18  C   UNL     1      -0.169  -2.894   5.104  1.00  0.00     0.234 C 
BRANCH  18  19
ATOM     19  C   UNL     1      -1.604  -2.328   5.111  1.00  0.00     0.405 C 
ATOM     20  F   UNL     1      -1.817  -1.440   4.114  1.00  0.00    -0.169 F 
ATOM     21  F   UNL     1      -2.494  -3.334   4.922  1.00  0.00    -0.169 F 
ATOM     22  F   UNL     1      -1.925  -1.717   6.269  1.00  0.00    -0.169 F 
ENDBRANCH  18  19
ENDBRANCH   6  18
ENDBRANCH   5   6
ENDBRANCH   3   5
ENDBRANCH   2   3
ENDBRANCH   1   2
BRANCH   1  23
ATOM     23  C   UNL     1      -1.357  -2.187   9.446  1.00  0.00     0.275 C 
BRANCH  23  24
ATOM     24  O   UNL     1      -0.676  -3.455   9.452  1.00  0.00    -0.458 OA
BRANCH  24  25
ATOM     25  C   UNL     1      -1.171  -4.391   8.611  1.00  0.00     0.338 C 
ATOM     26  O   UNL     1      -2.123  -4.290   7.859  1.00  0.00    -0.246 OA
BRANCH  25  27
ATOM     27  C   UNL     1      -0.362  -5.616   8.694  1.00  0.00     0.060 A 
ATOM     28  C   UNL     1       0.970  -5.606   8.276  1.00  0.00     0.016 A 
ATOM     29  C   UNL     1      -0.978  -6.809   9.075  1.00  0.00     0.016 A 
ATOM     30  C   UNL     1       1.680  -6.803   8.196  1.00  0.00     0.010 A 
ATOM     31  C   UNL     1      -0.246  -7.997   9.052  1.00  0.00     0.010 A 
ATOM     32  C   UNL     1       1.081  -8.009   8.591  1.00  0.00    -0.014 A 
BRANCH  32  33
ATOM     33  C   UNL     1       1.829  -9.290   8.523  1.00  0.00     0.031 A 
ATOM     34  C   UNL     1       1.394 -10.371   7.571  1.00  0.00     0.074 A 
ATOM     35  C   UNL     1       2.876  -9.497   9.344  1.00  0.00     0.049 A 
ATOM     36  N   UNL     1       1.815 -11.607   7.481  1.00  0.00    -0.248 NA
ATOM     37  C   UNL     1       0.344 -10.020   6.601  1.00  0.00     0.031 C 
ATOM     38  C   UNL     1       3.412  -8.523  10.298  1.00  0.00     0.029 A 
ATOM     39  N   UNL     1       3.667 -10.604   9.518  1.00  0.00    -0.354 N 
ATOM     40  C   UNL     1       1.057 -12.193   6.474  1.00  0.00     0.074 A 
ATOM     41  C   UNL     1       0.151 -11.177   5.981  1.00  0.00     0.031 C 
ATOM     42  C   UNL     1       4.444  -9.075  10.955  1.00  0.00     0.029 A 
ATOM     43  C   UNL     1       4.607 -10.455  10.510  1.00  0.00     0.049 A 
ATOM     44  H   UNL     1       3.571 -11.426   8.985  1.00  0.00     0.167 HD
ATOM     45  C   UNL     1       1.107 -13.463   6.006  1.00  0.00     0.031 A 
ATOM     46  C   UNL     1       5.478 -11.340  11.033  1.00  0.00     0.031 A 
ATOM     47  C   UNL     1       2.019 -14.468   6.484  1.00  0.00     0.049 A 
ATOM     48  C   UNL     1       5.501 -12.748  10.512  1.00  0.00     0.074 A 
ATOM     49  C   UNL     1       2.153 -15.780   6.063  1.00  0.00     0.029 A 
ATOM     50  N   UNL     1       2.957 -14.272   7.485  1.00  0.00    -0.354 N 
ATOM     51  N   UNL     1       4.763 -13.288   9.573  1.00  0.00    -0.248 NA
ATOM     52  C   UNL     1       6.470 -13.666  11.128  1.00  0.00     0.031 C 
ATOM     53  C   UNL     1       3.156 -16.386   6.829  1.00  0.00     0.029 A 
ATOM     54  C   UNL     1       3.667 -15.440   7.703  1.00  0.00     0.049 A 
ATOM     55  H   UNL     1       3.098 -13.427   7.970  1.00  0.00     0.167 HD
ATOM     56  C   UNL     1       5.183 -14.610   9.479  1.00  0.00     0.074 A 
ATOM     57  C   UNL     1       6.250 -14.782  10.445  1.00  0.00     0.031 C 
ATOM     58  C   UNL     1       4.724 -15.593   8.668  1.00  0.00     0.031 A 
BRANCH  45  59
ATOM     59  C   UNL     1       0.121 -13.849   4.939  1.00  0.00    -0.014 A 
ATOM     60  C   UNL     1       0.312 -13.464   3.601  1.00  0.00     0.010 A 
ATOM     61  C   UNL     1      -0.988 -14.647   5.275  1.00  0.00     0.010 A 
ATOM     62  C   UNL     1      -0.608 -13.847   2.619  1.00  0.00     0.020 A 
ATOM     63  C   UNL     1      -1.900 -15.045   4.293  1.00  0.00     0.020 A 
ATOM     64  C   UNL     1      -1.712 -14.629   2.974  1.00  0.00     0.054 A 
BRANCH  64  65
ATOM     65  S   UNL     1      -2.880 -15.136   1.681  1.00  0.00     0.124 S 
ATOM     66  O   UNL     1      -3.677 -13.925   1.506  1.00  0.00    -0.237 OA
ATOM     67  O   UNL     1      -2.001 -15.476   0.564  1.00  0.00    -0.237 OA
ATOM     68  O   UNL     1      -3.586 -16.267   2.278  1.00  0.00    -0.744 OA
ENDBRANCH  64  65
ENDBRANCH  45  59
BRANCH  46  69
ATOM     69  C   UNL     1       6.372 -10.921  12.142  1.00  0.00    -0.014 A 
ATOM     70  C   UNL     1       7.737 -10.685  11.908  1.00  0.00     0.010 A 
ATOM     71  C   UNL     1       5.851 -10.725  13.434  1.00  0.00     0.010 A 
ATOM     72  C   UNL     1       8.569 -10.267  12.950  1.00  0.00     0.020 A 
ATOM     73  C   UNL     1       6.676 -10.287  14.473  1.00  0.00     0.020 A 
ATOM     74  C   UNL     1       8.033 -10.070  14.226  1.00  0.00     0.054 A 
BRANCH  74  75
ATOM     75  S   UNL     1       9.108  -9.457  15.553  1.00  0.00     0.124 S 
ATOM     76  O   UNL     1       9.746 -10.685  16.016  1.00  0.00    -0.237 OA
ATOM     77  O   UNL     1       9.980  -8.516  14.854  1.00  0.00    -0.237 OA
ATOM     78  O   UNL     1       8.169  -8.843  16.490  1.00  0.00    -0.744 OA
ENDBRANCH  74  75
ENDBRANCH  46  69
BRANCH  58  79
ATOM     79  C   UNL     1       5.389 -16.935   8.776  1.00  0.00    -0.014 A 
ATOM     80  C   UNL     1       5.076 -17.812   9.828  1.00  0.00     0.010 A 
ATOM     81  C   UNL     1       6.308 -17.337   7.790  1.00  0.00     0.010 A 
ATOM     82  C   UNL     1       5.692 -19.064   9.907  1.00  0.00     0.020 A 
ATOM     83  C   UNL     1       6.913 -18.593   7.858  1.00  0.00     0.020 A 
ATOM     84  C   UNL     1       6.612 -19.444   8.924  1.00  0.00     0.054 A 
BRANCH  84  85
ATOM     85  S   UNL     1       7.374 -21.087   9.020  1.00  0.00     0.124 S 
ATOM     86  O   UNL     1       8.440 -20.870   9.994  1.00  0.00    -0.237 OA
ATOM     87  O   UNL     1       6.272 -21.933   9.472  1.00  0.00    -0.237 OA
ATOM     88  O   UNL     1       7.821 -21.338   7.651  1.00  0.00    -0.744 OA
ENDBRANCH  84  85
ENDBRANCH  58  79
ENDBRANCH  32  33
ENDBRANCH  25  27
ENDBRANCH  24  25
ENDBRANCH  23  24
ENDBRANCH   1  23
TORSDOF 19
