REMARK SMILES O=C(OCCOC(=O)c1nnn(-c2cccc(C(F)(F)F)c2)c1[C@@H]1COc2ccccc2O1)c1ccc(-c2c3nc(c(-c4ccc(S(=O)(=O)[O-])cc4)c4ccc([nH]4)c(-c4ccc(S(=O)(=O)[O-])cc4)c4nc(c(-c5ccc(S(=O)(=O)[O-])cc5)c5ccc2[nH]5)C=C4)C=C3)cc1
REMARK SMILES IDX 4 1 3 2 2 3 1 4 34 5 35 6 93 7 36 8 92 9 37 10 38 11 39 12
REMARK SMILES IDX 86 13 40 14 91 15 85 16 87 17 41 18 90 19 84 20 83 21 42 23
REMARK SMILES IDX 72 24 53 25 71 26 54 27 57 28 70 29 88 30 55 31 56 32 69 34
REMARK SMILES IDX 89 35 58 36 43 37 44 38 52 39 45 40 51 41 46 42 47 43 48 44
REMARK SMILES IDX 49 45 50 46 73 47 74 48 82 49 75 50 81 51 76 52 77 53 78 54
REMARK SMILES IDX 79 55 80 56 59 57 60 58 68 59 61 60 67 61 62 62 63 63 64 64
REMARK SMILES IDX 65 65 66 66 5 67 6 68 7 69 8 70 9 71 10 72 23 73 11 74 12 75
REMARK SMILES IDX 24 76 25 77 33 78 26 79 32 80 27 81 31 82 28 83 30 84 29 85
REMARK SMILES IDX 13 86 14 87 22 88 15 89 17 90 16 91 18 92 19 93 20 94 21 95
REMARK H PARENT 87 22 57 33
REMARK Flexibility Score: inf
ROOT
ATOM      1  C   UNL     1       4.597   0.069   0.806  1.00  0.00     0.275 C 
ENDROOT
BRANCH   1   2
ATOM      2  O   UNL     1       3.494   0.995   0.865  1.00  0.00    -0.458 OA
BRANCH   2   3
ATOM      3  C   UNL     1       2.364   0.686   0.190  1.00  0.00     0.338 C 
ATOM      4  O   UNL     1       1.545  -0.141   0.552  1.00  0.00    -0.246 OA
BRANCH   3   5
ATOM      5  C   UNL     1       2.213   1.528  -1.020  1.00  0.00     0.060 A 
ATOM      6  C   UNL     1       3.295   2.242  -1.545  1.00  0.00     0.016 A 
ATOM      7  C   UNL     1       0.963   1.575  -1.655  1.00  0.00     0.016 A 
ATOM      8  C   UNL     1       3.121   3.020  -2.680  1.00  0.00     0.010 A 
ATOM      9  C   UNL     1       0.786   2.368  -2.787  1.00  0.00     0.010 A 
ATOM     10  C   UNL     1       1.864   3.097  -3.291  1.00  0.00    -0.014 A 
BRANCH  10  11
ATOM     11  C   UNL     1       1.772   3.907  -4.500  1.00  0.00     0.031 A 
ATOM     12  C   UNL     1       2.476   3.381  -5.701  1.00  0.00     0.074 A 
ATOM     13  C   UNL     1       1.058   5.043  -4.609  1.00  0.00     0.049 A 
ATOM     14  N   UNL     1       3.531   3.857  -6.279  1.00  0.00    -0.248 NA
ATOM     15  C   UNL     1       1.974   2.135  -6.293  1.00  0.00     0.031 C 
ATOM     16  C   UNL     1       0.056   5.573  -3.685  1.00  0.00     0.029 A 
ATOM     17  N   UNL     1       1.030   5.926  -5.649  1.00  0.00    -0.354 N 
ATOM     18  C   UNL     1       3.724   3.087  -7.424  1.00  0.00     0.074 A 
ATOM     19  C   UNL     1       2.816   1.970  -7.315  1.00  0.00     0.031 C 
ATOM     20  C   UNL     1      -0.629   6.564  -4.302  1.00  0.00     0.029 A 
ATOM     21  C   UNL     1      -0.020   6.827  -5.597  1.00  0.00     0.049 A 
ATOM     22  H   UNL     1       1.698   5.922  -6.373  1.00  0.00     0.167 HD
ATOM     23  C   UNL     1       4.476   3.518  -8.476  1.00  0.00     0.031 A 
ATOM     24  C   UNL     1      -0.398   7.688  -6.574  1.00  0.00     0.031 A 
ATOM     25  C   UNL     1       5.299   4.649  -8.138  1.00  0.00     0.049 A 
ATOM     26  C   UNL     1       0.752   7.888  -7.486  1.00  0.00     0.074 A 
ATOM     27  C   UNL     1       6.285   4.901  -7.205  1.00  0.00     0.029 A 
ATOM     28  N   UNL     1       4.924   5.878  -8.627  1.00  0.00    -0.354 N 
ATOM     29  N   UNL     1       1.837   8.531  -7.159  1.00  0.00    -0.248 NA
ATOM     30  C   UNL     1       0.857   7.061  -8.678  1.00  0.00     0.031 C 
ATOM     31  C   UNL     1       6.112   6.268  -6.841  1.00  0.00     0.029 A 
ATOM     32  C   UNL     1       5.054   6.775  -7.599  1.00  0.00     0.049 A 
ATOM     33  H   UNL     1       4.620   6.076  -9.542  1.00  0.00     0.167 HD
ATOM     34  C   UNL     1       2.857   7.889  -7.843  1.00  0.00     0.074 A 
ATOM     35  C   UNL     1       2.180   7.076  -8.848  1.00  0.00     0.031 C 
ATOM     36  C   UNL     1       4.133   7.865  -7.355  1.00  0.00     0.031 A 
BRANCH  23  37
ATOM     37  C   UNL     1       4.208   3.144  -9.917  1.00  0.00    -0.014 A 
ATOM     38  C   UNL     1       5.107   3.580 -10.915  1.00  0.00     0.010 A 
ATOM     39  C   UNL     1       2.967   2.637 -10.353  1.00  0.00     0.010 A 
ATOM     40  C   UNL     1       4.745   3.591 -12.269  1.00  0.00     0.020 A 
ATOM     41  C   UNL     1       2.616   2.598 -11.705  1.00  0.00     0.020 A 
ATOM     42  C   UNL     1       3.490   3.117 -12.651  1.00  0.00     0.054 A 
BRANCH  42  43
ATOM     43  S   UNL     1       2.976   3.260 -14.380  1.00  0.00     0.124 S 
ATOM     44  O   UNL     1       2.798   4.702 -14.519  1.00  0.00    -0.237 OA
ATOM     45  O   UNL     1       4.117   2.690 -15.093  1.00  0.00    -0.237 OA
ATOM     46  O   UNL     1       1.752   2.465 -14.437  1.00  0.00    -0.744 OA
ENDBRANCH  42  43
ENDBRANCH  23  37
BRANCH  24  47
ATOM     47  C   UNL     1      -1.767   8.144  -6.910  1.00  0.00    -0.014 A 
ATOM     48  C   UNL     1      -1.973   9.229  -7.781  1.00  0.00     0.010 A 
ATOM     49  C   UNL     1      -2.876   7.332  -6.596  1.00  0.00     0.010 A 
ATOM     50  C   UNL     1      -3.228   9.454  -8.369  1.00  0.00     0.020 A 
ATOM     51  C   UNL     1      -4.132   7.556  -7.168  1.00  0.00     0.020 A 
ATOM     52  C   UNL     1      -4.295   8.601  -8.074  1.00  0.00     0.054 A 
BRANCH  52  53
ATOM     53  S   UNL     1      -5.857   8.778  -8.984  1.00  0.00     0.124 S 
ATOM     54  O   UNL     1      -6.409  10.005  -8.418  1.00  0.00    -0.237 OA
ATOM     55  O   UNL     1      -5.410   8.866 -10.371  1.00  0.00    -0.237 OA
ATOM     56  O   UNL     1      -6.589   7.557  -8.650  1.00  0.00    -0.744 OA
ENDBRANCH  52  53
ENDBRANCH  24  47
BRANCH  36  57
ATOM     57  C   UNL     1       4.524   8.855  -6.283  1.00  0.00    -0.014 A 
ATOM     58  C   UNL     1       3.854   8.982  -5.052  1.00  0.00     0.010 A 
ATOM     59  C   UNL     1       5.701   9.602  -6.483  1.00  0.00     0.010 A 
ATOM     60  C   UNL     1       4.325   9.860  -4.066  1.00  0.00     0.020 A 
ATOM     61  C   UNL     1       6.188  10.462  -5.496  1.00  0.00     0.020 A 
ATOM     62  C   UNL     1       5.490  10.597  -4.295  1.00  0.00     0.054 A 
BRANCH  62  63
ATOM     63  S   UNL     1       6.117  11.695  -2.995  1.00  0.00     0.124 S 
ATOM     64  O   UNL     1       5.129  12.770  -2.984  1.00  0.00    -0.237 OA
ATOM     65  O   UNL     1       6.122  10.832  -1.816  1.00  0.00    -0.237 OA
ATOM     66  O   UNL     1       7.444  12.080  -3.474  1.00  0.00    -0.744 OA
ENDBRANCH  62  63
ENDBRANCH  36  57
ENDBRANCH  10  11
ENDBRANCH   3   5
ENDBRANCH   2   3
ENDBRANCH   1   2
BRANCH   1  67
ATOM     67  C   UNL     1       4.252  -1.417   0.722  1.00  0.00     0.275 C 
BRANCH  67  68
ATOM     68  O   UNL     1       3.738  -1.720  -0.588  1.00  0.00    -0.457 OA
BRANCH  68  69
ATOM     69  C   UNL     1       2.697  -2.614  -0.618  1.00  0.00     0.361 C 
ATOM     70  O   UNL     1       2.273  -3.215   0.354  1.00  0.00    -0.244 OA
BRANCH  69  71
ATOM     71  C   UNL     1       2.193  -2.817  -1.969  1.00  0.00     0.198 A 
ATOM     72  N   UNL     1       0.853  -2.918  -2.236  1.00  0.00    -0.122 NA
ATOM     73  C   UNL     1       2.907  -2.941  -3.156  1.00  0.00     0.123 A 
ATOM     74  N   UNL     1       0.702  -3.081  -3.541  1.00  0.00    -0.061 NA
ATOM     75  N   UNL     1       1.928  -3.236  -4.091  1.00  0.00    -0.213 N 
BRANCH  73  76
ATOM     76  C   UNL     1       4.360  -2.702  -3.439  1.00  0.00     0.262 C 
ATOM     77  C   UNL     1       4.624  -1.337  -4.086  1.00  0.00     0.281 C 
ATOM     78  O   UNL     1       4.941  -3.808  -4.138  1.00  0.00    -0.477 OA
ATOM     79  O   UNL     1       4.271  -1.334  -5.470  1.00  0.00    -0.485 OA
ATOM     80  C   UNL     1       5.272  -3.543  -5.443  1.00  0.00     0.162 A 
ATOM     81  C   UNL     1       4.911  -2.366  -6.104  1.00  0.00     0.161 A 
ATOM     82  C   UNL     1       5.928  -4.557  -6.139  1.00  0.00     0.050 A 
ATOM     83  C   UNL     1       5.144  -2.226  -7.470  1.00  0.00     0.050 A 
ATOM     84  C   UNL     1       6.190  -4.406  -7.503  1.00  0.00     0.004 A 
ATOM     85  C   UNL     1       5.786  -3.248  -8.169  1.00  0.00     0.004 A 
ENDBRANCH  73  76
BRANCH  75  86
ATOM     86  C   UNL     1       2.027  -3.996  -5.269  1.00  0.00     0.067 A 
ATOM     87  C   UNL     1       1.659  -3.432  -6.490  1.00  0.00     0.028 A 
ATOM     88  C   UNL     1       2.460  -5.326  -5.184  1.00  0.00     0.041 A 
ATOM     89  C   UNL     1       1.817  -4.184  -7.654  1.00  0.00     0.003 A 
ATOM     90  C   UNL     1       2.572  -6.099  -6.348  1.00  0.00     0.058 A 
ATOM     91  C   UNL     1       2.276  -5.504  -7.585  1.00  0.00     0.013 A 
BRANCH  90  92
ATOM     92  C   UNL     1       3.042  -7.528  -6.272  1.00  0.00     0.416 C 
ATOM     93  F   UNL     1       2.455  -8.337  -7.200  1.00  0.00    -0.166 F 
ATOM     94  F   UNL     1       4.385  -7.652  -6.467  1.00  0.00    -0.166 F 
ATOM     95  F   UNL     1       2.791  -8.115  -5.066  1.00  0.00    -0.166 F 
ENDBRANCH  90  92
ENDBRANCH  75  86
ENDBRANCH  69  71
ENDBRANCH  68  69
ENDBRANCH  67  68
ENDBRANCH   1  67
TORSDOF 17
