REMARK SMILES Cc1[nH]c(=O)n(C)c(=O)c1CC(=O)OCCOC(=O)c1ccc(-c2c3nc(c(-c4ccc(S(=O)(=O)[O-])cc4)c4ccc([nH]4)c(-c4ccc(S(=O)(=O)[O-])cc4)c4nc(c(-c5ccc(S(=O)(=O)[O-])cc5)c5ccc2[nH]5)C=C4)C=C3)cc1
REMARK SMILES IDX 16 1 15 2 14 3 12 4 13 5 11 6 10 7 1 8 2 9 3 10 4 11 8 13
REMARK SMILES IDX 5 14 6 15 9 16 7 17 17 18 18 19 19 20 20 21 21 22 79 23
REMARK SMILES IDX 22 24 78 25 23 26 24 27 25 28 72 29 26 30 77 31 71 32 73 33
REMARK SMILES IDX 27 34 76 35 70 36 69 37 28 39 58 40 39 41 57 42 40 43 43 44
REMARK SMILES IDX 56 45 74 46 41 47 42 48 55 50 75 51 44 52 29 53 30 54 38 55
REMARK SMILES IDX 31 56 37 57 32 58 33 59 34 60 35 61 36 62 59 63 60 64 68 65
REMARK SMILES IDX 61 66 67 67 62 68 63 69 64 70 65 71 66 72 45 73 46 74 54 75
REMARK SMILES IDX 47 76 53 77 48 78 49 79 50 80 51 81 52 82
REMARK H PARENT 3 12 73 38 43 49
REMARK Flexibility Score: inf
ROOT
ATOM      1  C   UNL     1       4.905   4.334  -1.264  1.00  0.00     0.275 C 
ENDROOT
BRANCH   1   2
ATOM      2  C   UNL     1       4.869   2.941  -0.641  1.00  0.00     0.274 C 
BRANCH   2   3
ATOM      3  O   UNL     1       3.513   2.459  -0.530  1.00  0.00    -0.462 OA
BRANCH   3   4
ATOM      4  C   UNL     1       2.944   2.583   0.700  1.00  0.00     0.310 C 
ATOM      5  O   UNL     1       3.526   3.006   1.694  1.00  0.00    -0.252 OA
BRANCH   4   6
ATOM      6  C   UNL     1       1.513   2.075   0.773  1.00  0.00     0.165 C 
BRANCH   6   7
ATOM      7  C   UNL     1       0.871   1.765  -0.550  1.00  0.00     0.048 A 
ATOM      8  C   UNL     1       1.014  -0.724  -0.308  1.00  0.00     0.065 C 
ATOM      9  C   UNL     1       0.651   0.535  -1.040  1.00  0.00     0.026 A 
ATOM     10  N   UNL     1       0.070   0.387  -2.270  1.00  0.00    -0.311 N 
ATOM     11  C   UNL     1      -0.275   1.413  -3.106  1.00  0.00     0.328 A 
ATOM     12  H   UNL     1      -0.114  -0.530  -2.577  1.00  0.00     0.171 HD
ATOM     13  C   UNL     1       0.388   2.934  -1.340  1.00  0.00     0.259 A 
ATOM     14  O   UNL     1      -0.768   1.156  -4.204  1.00  0.00    -0.248 OA
ATOM     15  N   UNL     1      -0.047   2.685  -2.626  1.00  0.00    -0.263 N 
ATOM     16  O   UNL     1       0.365   4.040  -0.808  1.00  0.00    -0.269 OA
ATOM     17  C   UNL     1      -0.405   3.805  -3.475  1.00  0.00     0.158 C 
ENDBRANCH   6   7
ENDBRANCH   4   6
ENDBRANCH   3   4
ENDBRANCH   2   3
ENDBRANCH   1   2
BRANCH   1  18
ATOM     18  O   UNL     1       4.130   5.239  -0.464  1.00  0.00    -0.458 OA
BRANCH  18  19
ATOM     19  C   UNL     1       3.057   5.797  -1.076  1.00  0.00     0.338 C 
ATOM     20  O   UNL     1       2.732   5.686  -2.244  1.00  0.00    -0.246 OA
BRANCH  19  21
ATOM     21  C   UNL     1       2.354   6.640  -0.095  1.00  0.00     0.060 A 
ATOM     22  C   UNL     1       1.704   6.055   0.993  1.00  0.00     0.016 A 
ATOM     23  C   UNL     1       2.297   8.018  -0.292  1.00  0.00     0.016 A 
ATOM     24  C   UNL     1       0.949   6.839   1.859  1.00  0.00     0.010 A 
ATOM     25  C   UNL     1       1.601   8.814   0.621  1.00  0.00     0.010 A 
ATOM     26  C   UNL     1       0.904   8.229   1.693  1.00  0.00    -0.014 A 
BRANCH  26  27
ATOM     27  C   UNL     1       0.126   9.062   2.643  1.00  0.00     0.031 A 
ATOM     28  C   UNL     1      -1.095   9.805   2.176  1.00  0.00     0.074 A 
ATOM     29  C   UNL     1       0.510   9.133   3.932  1.00  0.00     0.049 A 
ATOM     30  N   UNL     1      -1.864  10.624   2.847  1.00  0.00    -0.248 NA
ATOM     31  C   UNL     1      -1.502   9.608   0.776  1.00  0.00     0.031 C 
ATOM     32  C   UNL     1       1.655   8.426   4.513  1.00  0.00     0.029 A 
ATOM     33  N   UNL     1      -0.025   9.822   4.992  1.00  0.00    -0.354 N 
ATOM     34  C   UNL     1      -2.831  11.057   1.947  1.00  0.00     0.074 A 
ATOM     35  C   UNL     1      -2.538  10.430   0.677  1.00  0.00     0.031 C 
ATOM     36  C   UNL     1       1.712   8.687   5.827  1.00  0.00     0.029 A 
ATOM     37  C   UNL     1       0.650   9.627   6.173  1.00  0.00     0.049 A 
ATOM     38  H   UNL     1      -0.818  10.401   4.913  1.00  0.00     0.167 HD
ATOM     39  C   UNL     1      -3.873  11.896   2.164  1.00  0.00     0.031 A 
ATOM     40  C   UNL     1       0.453  10.157   7.396  1.00  0.00     0.031 A 
ATOM     41  C   UNL     1      -4.165  12.507   3.433  1.00  0.00     0.049 A 
ATOM     42  C   UNL     1      -0.673  11.131   7.598  1.00  0.00     0.074 A 
ATOM     43  C   UNL     1      -5.202  13.365   3.755  1.00  0.00     0.029 A 
ATOM     44  N   UNL     1      -3.424  12.323   4.591  1.00  0.00    -0.354 N 
ATOM     45  N   UNL     1      -1.569  11.539   6.732  1.00  0.00    -0.248 NA
ATOM     46  C   UNL     1      -0.811  11.723   8.936  1.00  0.00     0.031 C 
ATOM     47  C   UNL     1      -5.061  13.737   5.095  1.00  0.00     0.029 A 
ATOM     48  C   UNL     1      -3.968  13.069   5.623  1.00  0.00     0.049 A 
ATOM     49  H   UNL     1      -2.628  11.748   4.668  1.00  0.00     0.167 HD
ATOM     50  C   UNL     1      -2.388  12.423   7.424  1.00  0.00     0.074 A 
ATOM     51  C   UNL     1      -1.888  12.484   8.783  1.00  0.00     0.031 C 
ATOM     52  C   UNL     1      -3.459  13.118   6.971  1.00  0.00     0.031 A 
BRANCH  39  53
ATOM     53  C   UNL     1      -4.762  12.223   0.994  1.00  0.00    -0.014 A 
ATOM     54  C   UNL     1      -5.666  11.277   0.480  1.00  0.00     0.010 A 
ATOM     55  C   UNL     1      -4.726  13.512   0.432  1.00  0.00     0.010 A 
ATOM     56  C   UNL     1      -6.492  11.602  -0.599  1.00  0.00     0.020 A 
ATOM     57  C   UNL     1      -5.569  13.850  -0.631  1.00  0.00     0.020 A 
ATOM     58  C   UNL     1      -6.436  12.887  -1.151  1.00  0.00     0.054 A 
BRANCH  58  59
ATOM     59  S   UNL     1      -7.533  13.287  -2.539  1.00  0.00     0.124 S 
ATOM     60  O   UNL     1      -6.926  12.528  -3.631  1.00  0.00    -0.237 OA
ATOM     61  O   UNL     1      -8.828  12.793  -2.077  1.00  0.00    -0.237 OA
ATOM     62  O   UNL     1      -7.429  14.739  -2.658  1.00  0.00    -0.744 OA
ENDBRANCH  58  59
ENDBRANCH  39  53
BRANCH  40  63
ATOM     63  C   UNL     1       1.352   9.768   8.516  1.00  0.00    -0.014 A 
ATOM     64  C   UNL     1       0.887   8.927   9.541  1.00  0.00     0.010 A 
ATOM     65  C   UNL     1       2.696  10.185   8.529  1.00  0.00     0.010 A 
ATOM     66  C   UNL     1       1.751   8.505  10.555  1.00  0.00     0.020 A 
ATOM     67  C   UNL     1       3.569   9.745   9.527  1.00  0.00     0.020 A 
ATOM     68  C   UNL     1       3.090   8.909  10.537  1.00  0.00     0.054 A 
BRANCH  68  69
ATOM     69  S   UNL     1       4.211   8.277  11.816  1.00  0.00     0.124 S 
ATOM     70  O   UNL     1       3.774   9.014  12.996  1.00  0.00    -0.237 OA
ATOM     71  O   UNL     1       3.913   6.846  11.816  1.00  0.00    -0.237 OA
ATOM     72  O   UNL     1       5.538   8.628  11.313  1.00  0.00    -0.744 OA
ENDBRANCH  68  69
ENDBRANCH  40  63
BRANCH  52  73
ATOM     73  C   UNL     1      -4.189  13.998   7.948  1.00  0.00    -0.014 A 
ATOM     74  C   UNL     1      -3.667  15.248   8.322  1.00  0.00     0.010 A 
ATOM     75  C   UNL     1      -5.466  13.620   8.402  1.00  0.00     0.010 A 
ATOM     76  C   UNL     1      -4.413  16.108   9.133  1.00  0.00     0.020 A 
ATOM     77  C   UNL     1      -6.223  14.486   9.195  1.00  0.00     0.020 A 
ATOM     78  C   UNL     1      -5.691  15.726   9.556  1.00  0.00     0.054 A 
BRANCH  78  79
ATOM     79  S   UNL     1      -6.675  16.902  10.524  1.00  0.00     0.124 S 
ATOM     80  O   UNL     1      -5.991  16.883  11.815  1.00  0.00    -0.237 OA
ATOM     81  O   UNL     1      -6.539  18.139   9.759  1.00  0.00    -0.237 OA
ATOM     82  O   UNL     1      -8.015  16.319  10.522  1.00  0.00    -0.744 OA
ENDBRANCH  78  79
ENDBRANCH  52  73
ENDBRANCH  26  27
ENDBRANCH  19  21
ENDBRANCH  18  19
ENDBRANCH   1  18
TORSDOF 15
