REMARK SMILES Cc1cccc(-c2ncc(C[NH+]3CCC4(CC3)NC(=O)C[C@H]4C(=O)OCCOC(=O)c3ccc(-c4c5nc(c(-c6ccc(S(=O)(=O)[O-])cc6)c6ccc([nH]6)c(-c6ccc(S(=O)(=O)[O-])cc6)c6nc(c(-c7ccc(S(=O)(=O)[O-])cc7)c7ccc4[nH]7)C=C6)C=C5)cc3)cn2)c1
REMARK SMILES IDX 26 1 25 2 23 3 24 4 22 5 12 6 13 7 17 8 14 10 16 11 15 12
REMARK SMILES IDX 18 13 19 14 21 16 20 17 11 18 10 19 7 20 8 21 92 22 9 23
REMARK SMILES IDX 91 24 6 25 1 26 2 27 3 28 93 29 4 30 5 31 27 32 28 33 29 34
REMARK SMILES IDX 30 35 31 36 32 37 90 38 33 39 89 40 34 41 35 42 36 43 83 44
REMARK SMILES IDX 37 45 88 46 82 47 84 48 38 49 87 50 81 51 80 52 39 54 69 55
REMARK SMILES IDX 50 56 68 57 51 58 54 59 67 60 85 61 52 62 53 63 66 65 86 66
REMARK SMILES IDX 55 67 40 68 41 69 49 70 42 71 48 72 43 73 44 74 45 75 46 76
REMARK SMILES IDX 47 77 70 78 71 79 79 80 72 81 78 82 73 83 74 84 75 85 76 86
REMARK SMILES IDX 77 87 56 88 57 89 65 90 58 91 64 92 59 93 60 94 61 95 62 96
REMARK SMILES IDX 63 97
REMARK H PARENT 12 9 18 15 84 53 54 64
REMARK Flexibility Score: inf
ROOT
ATOM      1  C   UNL     1      -0.467   4.392  -4.512  1.00  0.00     0.274 C 
ENDROOT
BRANCH   1   2
ATOM      2  O   UNL     1       0.348   4.598  -3.288  1.00  0.00    -0.462 OA
BRANCH   2   3
ATOM      3  C   UNL     1      -0.340   5.078  -2.250  1.00  0.00     0.311 C 
ATOM      4  O   UNL     1      -1.541   5.197  -2.435  1.00  0.00    -0.252 OA
BRANCH   3   5
ATOM      5  C   UNL     1       0.322   5.532  -0.906  1.00  0.00     0.134 C 
ATOM      6  N   UNL     1      -3.348   6.203   0.764  1.00  0.00    -0.331 N 
ATOM      7  C   UNL     1      -2.283   6.641   1.676  1.00  0.00     0.264 C 
ATOM      8  C   UNL     1      -2.727   5.784  -0.457  1.00  0.00     0.264 C 
ATOM      9  H   UNL     1      -3.908   7.056   0.765  1.00  0.00     0.348 HD
ATOM     10  C   UNL     1      -0.793   6.080   1.518  1.00  0.00     0.091 C 
ATOM     11  C   UNL     1      -1.812   4.588  -0.082  1.00  0.00     0.091 C 
ATOM     12  C   UNL     1      -0.481   5.088   0.343  1.00  0.00     0.064 C 
ATOM     13  N   UNL     1       0.327   3.997   0.855  1.00  0.00    -0.349 N 
ATOM     14  C   UNL     1       1.585   3.935   0.322  1.00  0.00     0.221 C 
ATOM     15  H   UNL     1      -0.002   3.357   1.527  1.00  0.00     0.164 HD
ATOM     16  C   UNL     1       1.748   5.076  -0.627  1.00  0.00     0.117 C 
ATOM     17  O   UNL     1       2.431   3.111   0.624  1.00  0.00    -0.275 OA
BRANCH   6  18
ATOM     18  C   UNL     1      -4.516   5.357   1.107  1.00  0.00     0.302 C 
BRANCH  18  19
ATOM     19  C   UNL     1      -4.370   3.840   0.941  1.00  0.00     0.043 A 
ATOM     20  C   UNL     1      -3.034   1.494   0.465  1.00  0.00     0.159 A 
ATOM     21  N   UNL     1      -3.123   1.930   1.742  1.00  0.00    -0.236 NA
ATOM     22  N   UNL     1      -3.729   2.029  -0.559  1.00  0.00    -0.236 NA
ATOM     23  C   UNL     1      -3.817   3.079   1.952  1.00  0.00     0.124 A 
ATOM     24  C   UNL     1      -4.385   3.196  -0.298  1.00  0.00     0.124 A 
BRANCH  20  25
ATOM     25  C   UNL     1      -2.062   0.412   0.184  1.00  0.00     0.019 A 
ATOM     26  C   UNL     1       1.748  -0.288   0.111  1.00  0.00     0.044 C 
ATOM     27  C   UNL     1       0.253  -0.469   0.054  1.00  0.00    -0.050 A 
ATOM     28  C   UNL     1      -0.255  -1.752  -0.143  1.00  0.00     0.003 A 
ATOM     29  C   UNL     1      -0.656   0.602   0.201  1.00  0.00     0.015 A 
ATOM     30  C   UNL     1      -1.632  -1.957  -0.213  1.00  0.00     0.001 A 
ATOM     31  C   UNL     1      -2.521  -0.887  -0.059  1.00  0.00     0.012 A 
ENDBRANCH  20  25
ENDBRANCH  18  19
ENDBRANCH   6  18
ENDBRANCH   3   5
ENDBRANCH   2   3
ENDBRANCH   1   2
BRANCH   1  32
ATOM     32  C   UNL     1      -1.834   5.176  -4.848  1.00  0.00     0.275 C 
BRANCH  32  33
ATOM     33  O   UNL     1      -2.005   6.634  -4.910  1.00  0.00    -0.458 OA
BRANCH  33  34
ATOM     34  C   UNL     1      -1.712   7.476  -3.872  1.00  0.00     0.338 C 
ATOM     35  O   UNL     1      -2.534   7.867  -3.050  1.00  0.00    -0.246 OA
BRANCH  34  36
ATOM     36  C   UNL     1      -0.257   7.751  -3.862  1.00  0.00     0.060 A 
ATOM     37  C   UNL     1       0.467   8.149  -2.724  1.00  0.00     0.016 A 
ATOM     38  C   UNL     1       0.400   7.197  -4.941  1.00  0.00     0.016 A 
ATOM     39  C   UNL     1       1.825   7.815  -2.619  1.00  0.00     0.010 A 
ATOM     40  C   UNL     1       1.572   6.564  -4.688  1.00  0.00     0.010 A 
ATOM     41  C   UNL     1       2.338   6.947  -3.582  1.00  0.00    -0.014 A 
BRANCH  41  42
ATOM     42  C   UNL     1       3.729   6.738  -3.945  1.00  0.00     0.031 A 
ATOM     43  C   UNL     1       4.449   5.526  -3.477  1.00  0.00     0.074 A 
ATOM     44  C   UNL     1       3.949   7.519  -5.040  1.00  0.00     0.049 A 
ATOM     45  N   UNL     1       5.643   5.494  -2.980  1.00  0.00    -0.248 NA
ATOM     46  C   UNL     1       3.808   4.194  -3.446  1.00  0.00     0.031 C 
ATOM     47  C   UNL     1       4.877   7.456  -6.143  1.00  0.00     0.029 A 
ATOM     48  N   UNL     1       3.154   8.615  -5.442  1.00  0.00    -0.354 N 
ATOM     49  C   UNL     1       6.020   4.155  -3.043  1.00  0.00     0.074 A 
ATOM     50  C   UNL     1       4.794   3.399  -3.011  1.00  0.00     0.031 C 
ATOM     51  C   UNL     1       4.869   8.659  -6.769  1.00  0.00     0.029 A 
ATOM     52  C   UNL     1       3.951   9.549  -6.053  1.00  0.00     0.049 A 
ATOM     53  H   UNL     1       2.183   8.696  -5.306  1.00  0.00     0.167 HD
ATOM     54  C   UNL     1       7.158   3.790  -3.712  1.00  0.00     0.031 A 
ATOM     55  C   UNL     1       4.233  10.669  -5.319  1.00  0.00     0.031 A 
ATOM     56  C   UNL     1       7.645   4.927  -4.488  1.00  0.00     0.049 A 
ATOM     57  C   UNL     1       5.648  10.509  -4.815  1.00  0.00     0.074 A 
ATOM     58  C   UNL     1       7.555   5.211  -5.840  1.00  0.00     0.029 A 
ATOM     59  N   UNL     1       7.986   6.109  -3.852  1.00  0.00    -0.354 N 
ATOM     60  N   UNL     1       6.180   9.364  -4.474  1.00  0.00    -0.248 NA
ATOM     61  C   UNL     1       6.609  11.602  -4.838  1.00  0.00     0.031 C 
ATOM     62  C   UNL     1       7.834   6.592  -6.007  1.00  0.00     0.029 A 
ATOM     63  C   UNL     1       8.016   7.154  -4.753  1.00  0.00     0.049 A 
ATOM     64  H   UNL     1       8.180   6.192  -2.890  1.00  0.00     0.167 HD
ATOM     65  C   UNL     1       7.538   9.510  -4.417  1.00  0.00     0.074 A 
ATOM     66  C   UNL     1       7.752  10.939  -4.598  1.00  0.00     0.031 C 
ATOM     67  C   UNL     1       8.422   8.475  -4.310  1.00  0.00     0.031 A 
BRANCH  54  68
ATOM     68  C   UNL     1       7.616   2.370  -4.007  1.00  0.00    -0.014 A 
ATOM     69  C   UNL     1       8.551   2.156  -5.045  1.00  0.00     0.010 A 
ATOM     70  C   UNL     1       7.253   1.232  -3.257  1.00  0.00     0.010 A 
ATOM     71  C   UNL     1       9.066   0.891  -5.353  1.00  0.00     0.020 A 
ATOM     72  C   UNL     1       7.758  -0.052  -3.563  1.00  0.00     0.020 A 
ATOM     73  C   UNL     1       8.666  -0.211  -4.610  1.00  0.00     0.054 A 
BRANCH  73  74
ATOM     74  S   UNL     1       9.394  -1.824  -5.011  1.00  0.00     0.124 S 
ATOM     75  O   UNL     1       8.980  -2.018  -6.399  1.00  0.00    -0.237 OA
ATOM     76  O   UNL     1      10.820  -1.586  -4.810  1.00  0.00    -0.237 OA
ATOM     77  O   UNL     1       8.776  -2.735  -4.050  1.00  0.00    -0.744 OA
ENDBRANCH  73  74
ENDBRANCH  54  68
BRANCH  55  78
ATOM     78  C   UNL     1       3.056  11.233  -4.542  1.00  0.00    -0.014 A 
ATOM     79  C   UNL     1       1.893  11.578  -5.281  1.00  0.00     0.010 A 
ATOM     80  C   UNL     1       2.924  11.172  -3.142  1.00  0.00     0.010 A 
ATOM     81  C   UNL     1       0.641  11.750  -4.669  1.00  0.00     0.020 A 
ATOM     82  C   UNL     1       1.667  11.371  -2.516  1.00  0.00     0.020 A 
ATOM     83  C   UNL     1       0.529  11.635  -3.286  1.00  0.00     0.054 A 
BRANCH  83  84
ATOM     84  S   UNL     1      -1.142  11.627  -2.540  1.00  0.00     0.124 S 
ATOM     85  O   UNL     1      -1.379  13.046  -2.299  1.00  0.00    -0.237 OA
ATOM     86  O   UNL     1      -1.949  11.027  -3.599  1.00  0.00    -0.237 OA
ATOM     87  O   UNL     1      -0.965  10.808  -1.343  1.00  0.00    -0.744 OA
ENDBRANCH  83  84
ENDBRANCH  55  78
BRANCH  67  88
ATOM     88  C   UNL     1       9.843   8.630  -3.849  1.00  0.00    -0.014 A 
ATOM     89  C   UNL     1      10.289   9.757  -3.150  1.00  0.00     0.010 A 
ATOM     90  C   UNL     1      10.739   7.538  -3.965  1.00  0.00     0.010 A 
ATOM     91  C   UNL     1      11.599   9.841  -2.689  1.00  0.00     0.020 A 
ATOM     92  C   UNL     1      12.024   7.580  -3.435  1.00  0.00     0.020 A 
ATOM     93  C   UNL     1      12.458   8.754  -2.839  1.00  0.00     0.054 A 
BRANCH  93  94
ATOM     94  S   UNL     1      14.141   8.891  -2.213  1.00  0.00     0.124 S 
ATOM     95  O   UNL     1      14.786   9.657  -3.276  1.00  0.00    -0.237 OA
ATOM     96  O   UNL     1      13.956   9.603  -0.950  1.00  0.00    -0.237 OA
ATOM     97  O   UNL     1      14.576   7.504  -2.083  1.00  0.00    -0.744 OA
ENDBRANCH  93  94
ENDBRANCH  67  88
ENDBRANCH  41  42
ENDBRANCH  34  36
ENDBRANCH  33  34
ENDBRANCH  32  33
ENDBRANCH   1  32
TORSDOF 17
