REMARK SMILES O=C(OCCOC(=O)c1ccccc1NCCCO)c1ccc(-c2c3nc(c(-c4ccc(S(=O)(=O)[O-])cc4)c4ccc([nH]4)c(-c4ccc(S(=O)(=O)[O-])cc4)c4nc(c(-c5ccc(S(=O)(=O)[O-])cc5)c5ccc2[nH]5)C=C4)C=C3)cc1
REMARK SMILES IDX 5 1 4 2 3 3 2 4 1 5 20 6 21 7 79 8 22 9 78 10 23 11 24 12
REMARK SMILES IDX 25 13 72 14 26 15 77 16 71 17 73 18 27 19 76 20 70 21 69 22
REMARK SMILES IDX 28 24 58 25 39 26 57 27 40 28 43 29 56 30 74 31 41 32 42 33
REMARK SMILES IDX 55 35 75 36 44 37 29 38 30 39 38 40 31 41 37 42 32 43 33 44
REMARK SMILES IDX 34 45 35 46 36 47 59 48 60 49 68 50 61 51 67 52 62 53 63 54
REMARK SMILES IDX 64 55 65 56 66 57 45 58 46 59 54 60 47 61 53 62 48 63 49 64
REMARK SMILES IDX 50 65 51 66 52 67 6 68 7 69 8 70 9 71 10 72 14 73 11 74
REMARK SMILES IDX 13 75 12 76 15 77 16 79 17 80 18 81 19 82
REMARK H PARENT 73 23 43 34 15 78 19 83
REMARK Flexibility Score: inf
ROOT
ATOM      1  C   UNL     1       4.117   0.021   2.018  1.00  0.00     0.275 C 
ENDROOT
BRANCH   1   2
ATOM      2  C   UNL     1       4.318   1.083   0.933  1.00  0.00     0.275 C 
BRANCH   2   3
ATOM      3  O   UNL     1       3.203   1.215   0.033  1.00  0.00    -0.458 OA
BRANCH   3   4
ATOM      4  C   UNL     1       2.936   0.625  -1.155  1.00  0.00     0.338 C 
ATOM      5  O   UNL     1       1.992   1.070  -1.810  1.00  0.00    -0.246 OA
BRANCH   4   6
ATOM      6  C   UNL     1       3.639  -0.589  -1.703  1.00  0.00     0.060 A 
ATOM      7  C   UNL     1       4.841  -1.137  -1.250  1.00  0.00     0.016 A 
ATOM      8  C   UNL     1       2.992  -1.254  -2.768  1.00  0.00     0.016 A 
ATOM      9  C   UNL     1       5.358  -2.317  -1.801  1.00  0.00     0.010 A 
ATOM     10  C   UNL     1       3.498  -2.439  -3.318  1.00  0.00     0.010 A 
ATOM     11  C   UNL     1       4.689  -2.981  -2.832  1.00  0.00    -0.014 A 
BRANCH  11  12
ATOM     12  C   UNL     1       5.286  -4.204  -3.421  1.00  0.00     0.031 A 
ATOM     13  C   UNL     1       6.118  -4.079  -4.645  1.00  0.00     0.074 A 
ATOM     14  C   UNL     1       5.134  -5.403  -2.830  1.00  0.00     0.049 A 
ATOM     15  N   UNL     1       6.791  -5.011  -5.256  1.00  0.00    -0.248 NA
ATOM     16  C   UNL     1       6.210  -2.745  -5.257  1.00  0.00     0.031 C 
ATOM     17  C   UNL     1       4.361  -5.588  -1.622  1.00  0.00     0.029 A 
ATOM     18  N   UNL     1       5.607  -6.662  -3.099  1.00  0.00    -0.354 N 
ATOM     19  C   UNL     1       7.374  -4.387  -6.343  1.00  0.00     0.074 A 
ATOM     20  C   UNL     1       6.980  -2.995  -6.307  1.00  0.00     0.031 C 
ATOM     21  C   UNL     1       4.428  -6.864  -1.218  1.00  0.00     0.029 A 
ATOM     22  C   UNL     1       5.229  -7.609  -2.167  1.00  0.00     0.049 A 
ATOM     23  H   UNL     1       6.165  -6.871  -3.883  1.00  0.00     0.167 HD
ATOM     24  C   UNL     1       8.151  -4.948  -7.292  1.00  0.00     0.031 A 
ATOM     25  C   UNL     1       5.493  -8.927  -2.073  1.00  0.00     0.031 A 
ATOM     26  C   UNL     1       8.492  -6.344  -7.323  1.00  0.00     0.049 A 
ATOM     27  C   UNL     1       6.348  -9.517  -3.153  1.00  0.00     0.074 A 
ATOM     28  C   UNL     1       9.257  -7.017  -8.256  1.00  0.00     0.029 A 
ATOM     29  N   UNL     1       8.071  -7.285  -6.392  1.00  0.00    -0.354 N 
ATOM     30  N   UNL     1       6.936  -8.895  -4.147  1.00  0.00    -0.248 NA
ATOM     31  C   UNL     1       6.570 -10.966  -3.121  1.00  0.00     0.031 C 
ATOM     32  C   UNL     1       9.244  -8.375  -7.927  1.00  0.00     0.029 A 
ATOM     33  C   UNL     1       8.526  -8.542  -6.752  1.00  0.00     0.049 A 
ATOM     34  H   UNL     1       7.530  -7.088  -5.593  1.00  0.00     0.167 HD
ATOM     35  C   UNL     1       7.587  -9.879  -4.871  1.00  0.00     0.074 A 
ATOM     36  C   UNL     1       7.370 -11.128  -4.165  1.00  0.00     0.031 C 
ATOM     37  C   UNL     1       8.276  -9.764  -6.031  1.00  0.00     0.031 A 
BRANCH  24  38
ATOM     38  C   UNL     1       8.605  -4.058  -8.407  1.00  0.00    -0.014 A 
ATOM     39  C   UNL     1       9.608  -3.093  -8.211  1.00  0.00     0.010 A 
ATOM     40  C   UNL     1       8.020  -4.203  -9.676  1.00  0.00     0.010 A 
ATOM     41  C   UNL     1      10.013  -2.279  -9.271  1.00  0.00     0.020 A 
ATOM     42  C   UNL     1       8.438  -3.407 -10.743  1.00  0.00     0.020 A 
ATOM     43  C   UNL     1       9.429  -2.447 -10.531  1.00  0.00     0.054 A 
BRANCH  43  44
ATOM     44  S   UNL     1      10.024  -1.425 -11.904  1.00  0.00     0.124 S 
ATOM     45  O   UNL     1       9.495  -0.110 -11.552  1.00  0.00    -0.237 OA
ATOM     46  O   UNL     1      11.473  -1.567 -11.800  1.00  0.00    -0.237 OA
ATOM     47  O   UNL     1       9.421  -2.043 -13.083  1.00  0.00    -0.744 OA
ENDBRANCH  43  44
ENDBRANCH  24  38
BRANCH  25  48
ATOM     48  C   UNL     1       4.930  -9.767  -0.969  1.00  0.00    -0.014 A 
ATOM     49  C   UNL     1       5.769 -10.447  -0.067  1.00  0.00     0.010 A 
ATOM     50  C   UNL     1       3.536  -9.919  -0.829  1.00  0.00     0.010 A 
ATOM     51  C   UNL     1       5.232 -11.288   0.918  1.00  0.00     0.020 A 
ATOM     52  C   UNL     1       2.993 -10.726   0.178  1.00  0.00     0.020 A 
ATOM     53  C   UNL     1       3.846 -11.426   1.030  1.00  0.00     0.054 A 
BRANCH  53  54
ATOM     54  S   UNL     1       3.168 -12.522   2.310  1.00  0.00     0.124 S 
ATOM     55  O   UNL     1       3.473 -13.843   1.770  1.00  0.00    -0.237 OA
ATOM     56  O   UNL     1       3.927 -12.130   3.495  1.00  0.00    -0.237 OA
ATOM     57  O   UNL     1       1.750 -12.170   2.343  1.00  0.00    -0.744 OA
ENDBRANCH  53  54
ENDBRANCH  25  48
BRANCH  37  58
ATOM     58  C   UNL     1       8.821 -11.036  -6.607  1.00  0.00    -0.014 A 
ATOM     59  C   UNL     1       7.961 -11.983  -7.190  1.00  0.00     0.010 A 
ATOM     60  C   UNL     1      10.208 -11.261  -6.609  1.00  0.00     0.010 A 
ATOM     61  C   UNL     1       8.479 -13.152  -7.745  1.00  0.00     0.020 A 
ATOM     62  C   UNL     1      10.732 -12.415  -7.192  1.00  0.00     0.020 A 
ATOM     63  C   UNL     1       9.862 -13.357  -7.746  1.00  0.00     0.054 A 
BRANCH  63  64
ATOM     64  S   UNL     1      10.514 -14.856  -8.527  1.00  0.00     0.124 S 
ATOM     65  O   UNL     1      10.138 -15.887  -7.564  1.00  0.00    -0.237 OA
ATOM     66  O   UNL     1       9.796 -14.890  -9.799  1.00  0.00    -0.237 OA
ATOM     67  O   UNL     1      11.947 -14.595  -8.633  1.00  0.00    -0.744 OA
ENDBRANCH  63  64
ENDBRANCH  37  58
ENDBRANCH  11  12
ENDBRANCH   4   6
ENDBRANCH   3   4
ENDBRANCH   2   3
ENDBRANCH   1   2
BRANCH   1  68
ATOM     68  O   UNL     1       3.662  -1.231   1.492  1.00  0.00    -0.458 OA
BRANCH  68  69
ATOM     69  C   UNL     1       2.307  -1.377   1.458  1.00  0.00     0.340 C 
ATOM     70  O   UNL     1       1.488  -0.579   1.869  1.00  0.00    -0.246 OA
BRANCH  69  71
ATOM     71  C   UNL     1       1.945  -2.614   0.730  1.00  0.00     0.083 A 
ATOM     72  C   UNL     1       0.939  -2.466  -0.245  1.00  0.00     0.018 A 
ATOM     73  C   UNL     1       2.544  -3.863   1.003  1.00  0.00     0.049 A 
ATOM     74  C   UNL     1       0.503  -3.564  -0.974  1.00  0.00     0.001 A 
ATOM     75  C   UNL     1       1.948  -4.966   0.375  1.00  0.00     0.026 A 
ATOM     76  C   UNL     1       0.985  -4.820  -0.639  1.00  0.00     0.002 A 
BRANCH  73  77
ATOM     77  N   UNL     1       3.656  -3.970   1.830  1.00  0.00    -0.384 N 
ATOM     78  H   UNL     1       3.877  -3.172   2.363  1.00  0.00     0.160 HD
BRANCH  77  79
ATOM     79  C   UNL     1       4.538  -5.120   2.007  1.00  0.00     0.115 C 
BRANCH  79  80
ATOM     80  C   UNL     1       5.913  -4.924   1.349  1.00  0.00     0.049 C 
BRANCH  80  81
ATOM     81  C   UNL     1       6.773  -3.793   1.897  1.00  0.00     0.158 C 
BRANCH  81  82
ATOM     82  O   UNL     1       7.103  -3.971   3.265  1.00  0.00    -0.396 OA
ATOM     83  H   UNL     1       6.290  -3.985   3.794  1.00  0.00     0.210 HD
ENDBRANCH  81  82
ENDBRANCH  80  81
ENDBRANCH  79  80
ENDBRANCH  77  79
ENDBRANCH  73  77
ENDBRANCH  69  71
ENDBRANCH  68  69
ENDBRANCH   1  68
TORSDOF 19
