REMARK SMILES COC(=O)[C@@H]1C[C@@H](C(=O)OCCOC(=O)c2ccc(-c3c4nc(c(-c5ccc(S(=O)(=O)[O-])cc5)c5ccc([nH]5)c(-c5ccc(S(=O)(=O)[O-])cc5)c5nc(c(-c6ccc(S(=O)(=O)[O-])cc6)c6ccc3[nH]6)C=C5)C=C4)cc2)[C@@H](c2cccc(F)c2F)[N@H+]1C
REMARK SMILES IDX 12 1 11 2 10 3 8 4 9 5 7 6 5 7 6 8 85 9 76 10 86 11 3 13
REMARK SMILES IDX 4 14 2 15 1 16 77 17 78 18 83 19 79 20 81 21 84 22 80 23
REMARK SMILES IDX 82 24 13 25 14 26 15 27 16 28 17 29 75 30 18 31 74 32 19 33
REMARK SMILES IDX 20 34 21 35 68 36 22 37 73 38 67 39 69 40 23 41 72 42 66 43
REMARK SMILES IDX 65 44 24 46 54 47 35 48 53 49 36 50 39 51 52 52 70 53 37 54
REMARK SMILES IDX 38 55 51 57 71 58 40 59 25 60 26 61 34 62 27 63 33 64 28 65
REMARK SMILES IDX 29 66 30 67 31 68 32 69 55 70 56 71 64 72 57 73 63 74 58 75
REMARK SMILES IDX 59 76 60 77 61 78 62 79 41 80 42 81 50 82 43 83 49 84 44 85
REMARK SMILES IDX 45 86 46 87 47 88 48 89
REMARK H PARENT 85 12 69 45 39 56
REMARK Flexibility Score: inf
ROOT
ATOM      1  C   UNL     1       2.988   5.868  -0.086  1.00  0.00     0.275 C 
ENDROOT
BRANCH   1   2
ATOM      2  C   UNL     1       3.624   4.859   0.874  1.00  0.00     0.274 C 
BRANCH   2   3
ATOM      3  O   UNL     1       2.631   3.965   1.416  1.00  0.00    -0.462 OA
BRANCH   3   4
ATOM      4  C   UNL     1       2.229   4.169   2.689  1.00  0.00     0.315 C 
ATOM      5  O   UNL     1       2.730   5.005   3.434  1.00  0.00    -0.252 OA
BRANCH   4   6
ATOM      6  C   UNL     1       1.147   3.222   3.164  1.00  0.00     0.169 C 
ATOM      7  C   UNL     1       0.580   0.921   3.655  1.00  0.00     0.296 C 
ATOM      8  C   UNL     1       1.686   1.964   3.851  1.00  0.00     0.099 C 
ATOM      9  N   UNL     1      -0.557   1.714   3.151  1.00  0.00    -0.319 N 
ATOM     10  C   UNL     1       0.008   2.744   2.242  1.00  0.00     0.233 C 
ATOM     11  C   UNL     1      -1.683   0.945   2.657  1.00  0.00     0.334 C 
ATOM     12  H   UNL     1      -1.029   2.186   3.922  1.00  0.00     0.349 HD
BRANCH   7  13
ATOM     13  C   UNL     1       0.247   0.150   4.930  1.00  0.00     0.364 C 
ATOM     14  O   UNL     1       0.268  -1.077   4.991  1.00  0.00    -0.245 OA
BRANCH  13  15
ATOM     15  O   UNL     1      -0.066   0.971   5.970  1.00  0.00    -0.465 OA
ATOM     16  C   UNL     1      -0.350   0.283   7.189  1.00  0.00     0.282 C 
ENDBRANCH  13  15
ENDBRANCH   7  13
BRANCH  10  17
ATOM     17  C   UNL     1       0.292   2.241   0.832  1.00  0.00     0.049 A 
ATOM     18  C   UNL     1       1.487   1.618   0.434  1.00  0.00     0.013 A 
ATOM     19  C   UNL     1      -0.701   2.405  -0.150  1.00  0.00     0.167 A 
ATOM     20  C   UNL     1       1.711   1.251  -0.899  1.00  0.00     0.004 A 
ATOM     21  C   UNL     1      -0.491   2.008  -1.468  1.00  0.00     0.159 A 
ATOM     22  F   UNL     1      -1.891   2.929   0.182  1.00  0.00    -0.203 F 
ATOM     23  C   UNL     1       0.719   1.449  -1.854  1.00  0.00     0.042 A 
ATOM     24  F   UNL     1      -1.462   2.155  -2.381  1.00  0.00    -0.204 F 
ENDBRANCH  10  17
ENDBRANCH   4   6
ENDBRANCH   3   4
ENDBRANCH   2   3
ENDBRANCH   1   2
BRANCH   1  25
ATOM     25  O   UNL     1       2.233   6.862   0.630  1.00  0.00    -0.458 OA
BRANCH  25  26
ATOM     26  C   UNL     1       0.947   6.525   0.884  1.00  0.00     0.338 C 
ATOM     27  O   UNL     1       0.361   5.527   0.487  1.00  0.00    -0.246 OA
BRANCH  26  28
ATOM     28  C   UNL     1       0.379   7.437   1.887  1.00  0.00     0.060 A 
ATOM     29  C   UNL     1      -0.238   6.861   3.000  1.00  0.00     0.016 A 
ATOM     30  C   UNL     1       0.417   8.825   1.736  1.00  0.00     0.016 A 
ATOM     31  C   UNL     1      -0.819   7.667   3.971  1.00  0.00     0.010 A 
ATOM     32  C   UNL     1      -0.171   9.636   2.712  1.00  0.00     0.010 A 
ATOM     33  C   UNL     1      -0.798   9.059   3.830  1.00  0.00    -0.014 A 
BRANCH  33  34
ATOM     34  C   UNL     1      -1.484   9.884   4.850  1.00  0.00     0.031 A 
ATOM     35  C   UNL     1      -2.830  10.476   4.550  1.00  0.00     0.074 A 
ATOM     36  C   UNL     1      -0.927  10.027   6.067  1.00  0.00     0.049 A 
ATOM     37  N   UNL     1      -3.611  11.183   5.325  1.00  0.00    -0.248 NA
ATOM     38  C   UNL     1      -3.371  10.240   3.201  1.00  0.00     0.031 C 
ATOM     39  C   UNL     1       0.357   9.456   6.480  1.00  0.00     0.029 A 
ATOM     40  N   UNL     1      -1.379  10.677   7.187  1.00  0.00    -0.354 N 
ATOM     41  C   UNL     1      -4.732  11.483   4.560  1.00  0.00     0.074 A 
ATOM     42  C   UNL     1      -4.517  10.903   3.251  1.00  0.00     0.031 C 
ATOM     43  C   UNL     1       0.578   9.762   7.769  1.00  0.00     0.029 A 
ATOM     44  C   UNL     1      -0.527  10.580   8.261  1.00  0.00     0.049 A 
ATOM     45  H   UNL     1      -2.233  11.166   7.218  1.00  0.00     0.167 HD
ATOM     46  C   UNL     1      -5.839  12.175   4.920  1.00  0.00     0.031 A 
ATOM     47  C   UNL     1      -0.623  11.100   9.499  1.00  0.00     0.031 A 
ATOM     48  C   UNL     1      -6.038  12.756   6.222  1.00  0.00     0.049 A 
ATOM     49  C   UNL     1      -1.841  11.907   9.855  1.00  0.00     0.074 A 
ATOM     50  C   UNL     1      -7.123  13.477   6.688  1.00  0.00     0.029 A 
ATOM     51  N   UNL     1      -5.129  12.684   7.268  1.00  0.00    -0.354 N 
ATOM     52  N   UNL     1      -2.894  12.180   9.120  1.00  0.00    -0.248 NA
ATOM     53  C   UNL     1      -1.887  12.470  11.211  1.00  0.00     0.031 C 
ATOM     54  C   UNL     1      -6.848  13.885   7.998  1.00  0.00     0.029 A 
ATOM     55  C   UNL     1      -5.617  13.368   8.370  1.00  0.00     0.049 A 
ATOM     56  H   UNL     1      -4.264  12.215   7.233  1.00  0.00     0.167 HD
ATOM     57  C   UNL     1      -3.735  12.935   9.930  1.00  0.00     0.074 A 
ATOM     58  C   UNL     1      -3.079  13.050  11.218  1.00  0.00     0.031 C 
ATOM     59  C   UNL     1      -4.939  13.487   9.636  1.00  0.00     0.031 A 
BRANCH  46  60
ATOM     60  C   UNL     1      -6.903  12.374   3.872  1.00  0.00    -0.014 A 
ATOM     61  C   UNL     1      -7.719  11.312   3.444  1.00  0.00     0.010 A 
ATOM     62  C   UNL     1      -7.107  13.655   3.326  1.00  0.00     0.010 A 
ATOM     63  C   UNL     1      -8.694  11.518   2.463  1.00  0.00     0.020 A 
ATOM     64  C   UNL     1      -8.098  13.871   2.364  1.00  0.00     0.020 A 
ATOM     65  C   UNL     1      -8.874  12.797   1.927  1.00  0.00     0.054 A 
BRANCH  65  66
ATOM     66  S   UNL     1     -10.159  13.043   0.669  1.00  0.00     0.124 S 
ATOM     67  O   UNL     1      -9.562  12.400  -0.500  1.00  0.00    -0.237 OA
ATOM     68  O   UNL     1     -11.309  12.353   1.246  1.00  0.00    -0.237 OA
ATOM     69  O   UNL     1     -10.287  14.495   0.582  1.00  0.00    -0.744 OA
ENDBRANCH  65  66
ENDBRANCH  46  60
BRANCH  47  70
ATOM     70  C   UNL     1       0.474  10.887  10.483  1.00  0.00    -0.014 A 
ATOM     71  C   UNL     1       0.278  10.087  11.623  1.00  0.00     0.010 A 
ATOM     72  C   UNL     1       1.730  11.488  10.279  1.00  0.00     0.010 A 
ATOM     73  C   UNL     1       1.312   9.906  12.547  1.00  0.00     0.020 A 
ATOM     74  C   UNL     1       2.774  11.286  11.185  1.00  0.00     0.020 A 
ATOM     75  C   UNL     1       2.554  10.506  12.321  1.00  0.00     0.054 A 
BRANCH  75  76
ATOM     76  S   UNL     1       3.898  10.218  13.507  1.00  0.00     0.124 S 
ATOM     77  O   UNL     1       3.499  11.063  14.628  1.00  0.00    -0.237 OA
ATOM     78  O   UNL     1       3.814   8.778  13.737  1.00  0.00    -0.237 OA
ATOM     79  O   UNL     1       5.090  10.657  12.784  1.00  0.00    -0.744 OA
ENDBRANCH  75  76
ENDBRANCH  47  70
BRANCH  59  80
ATOM     80  C   UNL     1      -5.625  14.249  10.739  1.00  0.00    -0.014 A 
ATOM     81  C   UNL     1      -5.138  15.494  11.177  1.00  0.00     0.010 A 
ATOM     82  C   UNL     1      -6.777  13.713  11.343  1.00  0.00     0.010 A 
ATOM     83  C   UNL     1      -5.757  16.162  12.236  1.00  0.00     0.020 A 
ATOM     84  C   UNL     1      -7.417  14.393  12.382  1.00  0.00     0.020 A 
ATOM     85  C   UNL     1      -6.888  15.603  12.837  1.00  0.00     0.054 A 
BRANCH  85  86
ATOM     86  S   UNL     1      -7.676  16.487  14.211  1.00  0.00     0.124 S 
ATOM     87  O   UNL     1      -6.760  16.210  15.314  1.00  0.00    -0.237 OA
ATOM     88  O   UNL     1      -7.692  17.869  13.739  1.00  0.00    -0.237 OA
ATOM     89  O   UNL     1      -8.990  15.857  14.319  1.00  0.00    -0.744 OA
ENDBRANCH  85  86
ENDBRANCH  59  80
ENDBRANCH  33  34
ENDBRANCH  26  28
ENDBRANCH  25  26
ENDBRANCH   1  25
TORSDOF 17
