REMARK SMILES CCn1nc(C)c(Br)c1C[C@H](C(=O)OCCOC(=O)c1ccc(-c2c3nc(c(-c4ccc(S(=O)(=O)[O-])cc4)c4ccc([nH]4)c(-c4ccc(S(=O)(=O)[O-])cc4)c4nc(c(-c5ccc(S(=O)(=O)[O-])cc5)c5ccc2[nH]5)C=C4)C=C3)cc1)c1ccc(F)cc1
REMARK SMILES IDX 15 1 14 2 12 3 13 4 11 5 10 6 9 7 3 8 4 9 5 10 7 11 6 12
REMARK SMILES IDX 8 13 2 14 1 15 80 16 81 17 86 18 82 19 85 20 83 21 84 22
REMARK SMILES IDX 16 23 17 24 18 25 19 26 20 27 21 28 79 29 22 30 78 31 23 32
REMARK SMILES IDX 24 33 25 34 72 35 26 36 77 37 71 38 73 39 27 40 76 41 70 42
REMARK SMILES IDX 69 43 28 45 58 46 39 47 57 48 40 49 43 50 56 51 74 52 41 53
REMARK SMILES IDX 42 54 55 56 75 57 44 58 29 59 30 60 38 61 31 62 37 63 32 64
REMARK SMILES IDX 33 65 34 66 35 67 36 68 59 69 60 70 68 71 61 72 67 73 62 74
REMARK SMILES IDX 63 75 64 76 65 77 66 78 45 79 46 80 54 81 47 82 53 83 48 84
REMARK SMILES IDX 49 85 50 86 51 87 52 88
REMARK H PARENT 73 44 43 55
REMARK Flexibility Score: inf
ROOT
ATOM      1  C   UNL     1       1.639  -2.018  -1.460  1.00  0.00     0.274 C 
ENDROOT
BRANCH   1   2
ATOM      2  O   UNL     1       0.310  -2.534  -1.678  1.00  0.00    -0.462 OA
BRANCH   2   3
ATOM      3  C   UNL     1      -0.196  -3.390  -0.734  1.00  0.00     0.313 C 
ATOM      4  O   UNL     1       0.412  -3.773   0.259  1.00  0.00    -0.252 OA
BRANCH   3   5
ATOM      5  C   UNL     1      -1.552  -3.920  -1.179  1.00  0.00     0.135 C 
BRANCH   5   6
ATOM      6  C   UNL     1      -1.213  -5.273  -1.877  1.00  0.00     0.077 C 
BRANCH   6   7
ATOM      7  C   UNL     1      -2.067  -6.441  -1.534  1.00  0.00     0.054 A 
ATOM      8  N   UNL     1      -3.200  -6.803  -2.218  1.00  0.00    -0.268 N 
ATOM      9  N   UNL     1      -3.987  -7.649  -1.522  1.00  0.00    -0.177 NA
ATOM     10  C   UNL     1      -3.253  -7.950  -0.440  1.00  0.00     0.074 A 
ATOM     11  C   UNL     1      -1.964  -7.396  -0.546  1.00  0.00     0.062 A 
ATOM     12  C   UNL     1      -3.852  -8.707   0.685  1.00  0.00     0.070 C 
ATOM     13  Br  UNL     1      -0.517  -7.738   0.598  1.00  0.00    -0.047 Br
BRANCH   8  14
ATOM     14  C   UNL     1      -3.555  -6.449  -3.581  1.00  0.00     0.141 C 
ATOM     15  C   UNL     1      -2.573  -7.026  -4.595  1.00  0.00     0.029 C 
ENDBRANCH   8  14
ENDBRANCH   6   7
ENDBRANCH   5   6
BRANCH   5  16
ATOM     16  C   UNL     1      -2.645  -3.832  -0.105  1.00  0.00    -0.033 A 
ATOM     17  C   UNL     1      -3.640  -2.835  -0.194  1.00  0.00     0.007 A 
ATOM     18  C   UNL     1      -2.693  -4.675   1.016  1.00  0.00     0.007 A 
ATOM     19  C   UNL     1      -4.670  -2.743   0.756  1.00  0.00     0.039 A 
ATOM     20  C   UNL     1      -3.749  -4.626   1.934  1.00  0.00     0.039 A 
ATOM     21  C   UNL     1      -4.732  -3.662   1.794  1.00  0.00     0.123 A 
ATOM     22  F   UNL     1      -5.724  -3.592   2.691  1.00  0.00    -0.207 F 
ENDBRANCH   5  16
ENDBRANCH   3   5
ENDBRANCH   2   3
ENDBRANCH   1   2
BRANCH   1  23
ATOM     23  C   UNL     1       1.673  -0.719  -0.654  1.00  0.00     0.275 C 
BRANCH  23  24
ATOM     24  O   UNL     1       1.333  -0.946   0.712  1.00  0.00    -0.458 OA
BRANCH  24  25
ATOM     25  C   UNL     1      -0.000  -0.930   0.915  1.00  0.00     0.338 C 
ATOM     26  O   UNL     1      -0.873  -0.786   0.073  1.00  0.00    -0.246 OA
BRANCH  25  27
ATOM     27  C   UNL     1      -0.307  -1.032   2.335  1.00  0.00     0.060 A 
ATOM     28  C   UNL     1      -1.567  -1.545   2.641  1.00  0.00     0.016 A 
ATOM     29  C   UNL     1       0.435  -0.279   3.242  1.00  0.00     0.016 A 
ATOM     30  C   UNL     1      -2.219  -1.094   3.756  1.00  0.00     0.010 A 
ATOM     31  C   UNL     1      -0.208   0.162   4.373  1.00  0.00     0.010 A 
ATOM     32  C   UNL     1      -1.562  -0.159   4.545  1.00  0.00    -0.014 A 
BRANCH  32  33
ATOM     33  C   UNL     1      -2.346   0.498   5.572  1.00  0.00     0.031 A 
ATOM     34  C   UNL     1      -2.694  -0.373   6.722  1.00  0.00     0.074 A 
ATOM     35  C   UNL     1      -2.551   1.827   5.475  1.00  0.00     0.049 A 
ATOM     36  N   UNL     1      -3.819  -0.485   7.349  1.00  0.00    -0.248 NA
ATOM     37  C   UNL     1      -1.667  -1.343   7.155  1.00  0.00     0.031 C 
ATOM     38  C   UNL     1      -1.997   2.731   4.456  1.00  0.00     0.029 A 
ATOM     39  N   UNL     1      -3.092   2.685   6.382  1.00  0.00    -0.354 N 
ATOM     40  C   UNL     1      -3.583  -1.396   8.376  1.00  0.00     0.074 A 
ATOM     41  C   UNL     1      -2.311  -2.010   8.107  1.00  0.00     0.031 C 
ATOM     42  C   UNL     1      -1.927   3.973   4.975  1.00  0.00     0.029 A 
ATOM     43  C   UNL     1      -2.513   3.950   6.305  1.00  0.00     0.049 A 
ATOM     44  H   UNL     1      -3.805   2.442   7.016  1.00  0.00     0.167 HD
ATOM     45  C   UNL     1      -4.314  -1.407   9.522  1.00  0.00     0.031 A 
ATOM     46  C   UNL     1      -2.347   4.824   7.331  1.00  0.00     0.031 A 
ATOM     47  C   UNL     1      -5.592  -0.777   9.359  1.00  0.00     0.049 A 
ATOM     48  C   UNL     1      -3.258   4.400   8.428  1.00  0.00     0.074 A 
ATOM     49  C   UNL     1      -6.670  -1.002   8.525  1.00  0.00     0.029 A 
ATOM     50  N   UNL     1      -5.758   0.491   9.866  1.00  0.00    -0.354 N 
ATOM     51  N   UNL     1      -4.561   4.420   8.341  1.00  0.00    -0.248 NA
ATOM     52  C   UNL     1      -2.722   3.519   9.459  1.00  0.00     0.031 C 
ATOM     53  C   UNL     1      -7.159   0.294   8.201  1.00  0.00     0.029 A 
ATOM     54  C   UNL     1      -6.388   1.228   8.896  1.00  0.00     0.049 A 
ATOM     55  H   UNL     1      -5.477   0.808  10.755  1.00  0.00     0.167 HD
ATOM     56  C   UNL     1      -4.985   3.271   8.998  1.00  0.00     0.074 A 
ATOM     57  C   UNL     1      -3.817   2.810   9.746  1.00  0.00     0.031 C 
ATOM     58  C   UNL     1      -6.146   2.635   8.658  1.00  0.00     0.031 A 
BRANCH  45  59
ATOM     59  C   UNL     1      -3.672  -1.625  10.869  1.00  0.00    -0.014 A 
ATOM     60  C   UNL     1      -4.486  -1.685  12.014  1.00  0.00     0.010 A 
ATOM     61  C   UNL     1      -2.282  -1.475  11.075  1.00  0.00     0.010 A 
ATOM     62  C   UNL     1      -3.942  -1.513  13.294  1.00  0.00     0.020 A 
ATOM     63  C   UNL     1      -1.725  -1.352  12.345  1.00  0.00     0.020 A 
ATOM     64  C   UNL     1      -2.567  -1.324  13.446  1.00  0.00     0.054 A 
BRANCH  64  65
ATOM     65  S   UNL     1      -1.891  -0.943  15.079  1.00  0.00     0.124 S 
ATOM     66  O   UNL     1      -2.424   0.395  15.314  1.00  0.00    -0.237 OA
ATOM     67  O   UNL     1      -2.456  -2.007  15.905  1.00  0.00    -0.237 OA
ATOM     68  O   UNL     1      -0.446  -1.018  14.877  1.00  0.00    -0.744 OA
ENDBRANCH  64  65
ENDBRANCH  45  59
BRANCH  46  69
ATOM     69  C   UNL     1      -1.155   5.696   7.537  1.00  0.00    -0.014 A 
ATOM     70  C   UNL     1      -1.161   6.736   8.482  1.00  0.00     0.010 A 
ATOM     71  C   UNL     1       0.086   5.373   6.942  1.00  0.00     0.010 A 
ATOM     72  C   UNL     1       0.028   7.408   8.828  1.00  0.00     0.020 A 
ATOM     73  C   UNL     1       1.267   6.048   7.262  1.00  0.00     0.020 A 
ATOM     74  C   UNL     1       1.236   7.054   8.219  1.00  0.00     0.054 A 
BRANCH  74  75
ATOM     75  S   UNL     1       2.786   7.838   8.751  1.00  0.00     0.124 S 
ATOM     76  O   UNL     1       2.626   9.206   8.265  1.00  0.00    -0.237 OA
ATOM     77  O   UNL     1       2.744   7.672  10.201  1.00  0.00    -0.237 OA
ATOM     78  O   UNL     1       3.819   7.058   8.071  1.00  0.00    -0.744 OA
ENDBRANCH  74  75
ENDBRANCH  46  69
BRANCH  58  79
ATOM     79  C   UNL     1      -7.125   3.324   7.736  1.00  0.00    -0.014 A 
ATOM     80  C   UNL     1      -6.799   3.743   6.431  1.00  0.00     0.010 A 
ATOM     81  C   UNL     1      -8.474   3.370   8.134  1.00  0.00     0.010 A 
ATOM     82  C   UNL     1      -7.792   4.217   5.561  1.00  0.00     0.020 A 
ATOM     83  C   UNL     1      -9.470   3.822   7.265  1.00  0.00     0.020 A 
ATOM     84  C   UNL     1      -9.123   4.252   5.984  1.00  0.00     0.054 A 
BRANCH  84  85
ATOM     85  S   UNL     1     -10.409   4.810   4.832  1.00  0.00     0.124 S 
ATOM     86  O   UNL     1     -10.126   6.237   4.709  1.00  0.00    -0.237 OA
ATOM     87  O   UNL     1     -10.147   4.011   3.637  1.00  0.00    -0.237 OA
ATOM     88  O   UNL     1     -11.659   4.486   5.521  1.00  0.00    -0.744 OA
ENDBRANCH  84  85
ENDBRANCH  58  79
ENDBRANCH  32  33
ENDBRANCH  25  27
ENDBRANCH  24  25
ENDBRANCH  23  24
ENDBRANCH   1  23
TORSDOF 18
