REMARK SMILES COCC1CCN(C(=O)NC[C@H]2CC[C@H](C(=O)OCCOC(=O)c3ccc(-c4c5nc(c(-c6ccc(S(=O)(=O)[O-])cc6)c6ccc([nH]6)c(-c6ccc(S(=O)(=O)[O-])cc6)c6nc(c(-c7ccc(S(=O)(=O)[O-])cc7)c7ccc4[nH]7)C=C6)C=C5)cc3)O2)CC1
REMARK SMILES IDX 19 1 18 2 16 3 17 4 15 5 12 6 13 7 84 8 14 9 11 10 10 11
REMARK SMILES IDX 4 12 5 13 86 14 6 15 85 16 7 17 8 18 9 19 3 21 2 22 1 23
REMARK SMILES IDX 20 24 21 25 22 26 23 27 24 28 25 29 83 30 26 31 82 32 27 33
REMARK SMILES IDX 28 34 29 35 76 36 30 37 81 38 75 39 77 40 31 41 80 42 74 43
REMARK SMILES IDX 73 44 32 46 62 47 43 48 61 49 44 50 47 51 60 52 78 53 45 54
REMARK SMILES IDX 46 55 59 57 79 58 48 59 33 60 34 61 42 62 35 63 41 64 36 65
REMARK SMILES IDX 37 66 38 67 39 68 40 69 63 70 64 71 72 72 65 73 71 74 66 75
REMARK SMILES IDX 67 76 68 77 69 78 70 79 49 80 50 81 58 82 51 83 57 84 52 85
REMARK SMILES IDX 53 86 54 87 55 88 56 89
REMARK H PARENT 10 20 77 45 47 56
REMARK Flexibility Score: inf
ROOT
ATOM      1  C   UNL     1      -1.783   3.132  -1.975  1.00  0.00     0.274 C 
ENDROOT
BRANCH   1   2
ATOM      2  O   UNL     1      -2.935   2.610  -1.287  1.00  0.00    -0.460 OA
BRANCH   2   3
ATOM      3  C   UNL     1      -3.844   3.539  -0.875  1.00  0.00     0.335 C 
ATOM      4  O   UNL     1      -3.717   4.749  -1.028  1.00  0.00    -0.249 OA
BRANCH   3   5
ATOM      5  C   UNL     1      -5.053   2.907  -0.184  1.00  0.00     0.228 C 
ATOM      6  C   UNL     1      -5.342   1.270   1.458  1.00  0.00     0.138 C 
ATOM      7  C   UNL     1      -5.263   0.556   0.124  1.00  0.00     0.037 C 
ATOM      8  O   UNL     1      -4.799   2.580   1.198  1.00  0.00    -0.361 OA
ATOM      9  C   UNL     1      -5.576   1.647  -0.868  1.00  0.00     0.047 C 
BRANCH   6  10
ATOM     10  C   UNL     1      -6.752   1.374   2.090  1.00  0.00     0.149 C 
BRANCH  10  11
ATOM     11  N   UNL     1      -7.560   2.458   1.550  1.00  0.00    -0.335 N 
ATOM     12  C   UNL     1     -11.337  -0.706   0.037  1.00  0.00     0.018 C 
ATOM     13  C   UNL     1     -11.841   0.684   0.464  1.00  0.00     0.027 C 
ATOM     14  C   UNL     1      -9.855  -0.872   0.409  1.00  0.00     0.027 C 
ATOM     15  C   UNL     1     -10.893   1.836   0.127  1.00  0.00     0.121 C 
ATOM     16  C   UNL     1      -8.996   0.314  -0.006  1.00  0.00     0.121 C 
ATOM     17  N   UNL     1      -9.518   1.556   0.542  1.00  0.00    -0.325 N 
ATOM     18  C   UNL     1      -8.795   2.600   1.045  1.00  0.00     0.317 C 
ATOM     19  O   UNL     1      -9.236   3.753   1.064  1.00  0.00    -0.249 OA
ATOM     20  H   UNL     1      -7.071   3.313   1.558  1.00  0.00     0.165 HD
BRANCH  12  21
ATOM     21  C   UNL     1     -11.625  -1.027  -1.440  1.00  0.00     0.163 C 
BRANCH  21  22
ATOM     22  O   UNL     1     -11.040  -0.077  -2.320  1.00  0.00    -0.384 OA
ATOM     23  C   UNL     1     -12.000   0.554  -3.162  1.00  0.00     0.194 C 
ENDBRANCH  21  22
ENDBRANCH  12  21
ENDBRANCH  10  11
ENDBRANCH   6  10
ENDBRANCH   3   5
ENDBRANCH   2   3
ENDBRANCH   1   2
BRANCH   1  24
ATOM     24  C   UNL     1      -1.945   3.069  -3.497  1.00  0.00     0.275 C 
BRANCH  24  25
ATOM     25  O   UNL     1      -2.961   3.972  -3.971  1.00  0.00    -0.458 OA
BRANCH  25  26
ATOM     26  C   UNL     1      -4.176   3.419  -4.189  1.00  0.00     0.338 C 
ATOM     27  O   UNL     1      -4.482   2.241  -4.061  1.00  0.00    -0.246 OA
BRANCH  26  28
ATOM     28  C   UNL     1      -5.156   4.465  -4.513  1.00  0.00     0.060 A 
ATOM     29  C   UNL     1      -6.228   4.669  -3.638  1.00  0.00     0.016 A 
ATOM     30  C   UNL     1      -5.064   5.189  -5.704  1.00  0.00     0.016 A 
ATOM     31  C   UNL     1      -7.212   5.606  -3.950  1.00  0.00     0.010 A 
ATOM     32  C   UNL     1      -6.053   6.128  -6.014  1.00  0.00     0.010 A 
ATOM     33  C   UNL     1      -7.137   6.339  -5.142  1.00  0.00    -0.014 A 
BRANCH  33  34
ATOM     34  C   UNL     1      -8.194   7.324  -5.481  1.00  0.00     0.031 A 
ATOM     35  C   UNL     1      -9.215   7.007  -6.537  1.00  0.00     0.074 A 
ATOM     36  C   UNL     1      -8.223   8.512  -4.846  1.00  0.00     0.049 A 
ATOM     37  N   UNL     1     -10.165   7.766  -7.018  1.00  0.00    -0.248 NA
ATOM     38  C   UNL     1      -9.160   5.662  -7.133  1.00  0.00     0.031 C 
ATOM     39  C   UNL     1      -7.296   8.931  -3.792  1.00  0.00     0.029 A 
ATOM     40  N   UNL     1      -9.057   9.591  -5.005  1.00  0.00    -0.354 N 
ATOM     41  C   UNL     1     -10.807   7.005  -7.988  1.00  0.00     0.074 A 
ATOM     42  C   UNL     1     -10.135   5.724  -8.032  1.00  0.00     0.031 C 
ATOM     43  C   UNL     1      -7.607  10.180  -3.407  1.00  0.00     0.029 A 
ATOM     44  C   UNL     1      -8.727  10.663  -4.210  1.00  0.00     0.049 A 
ATOM     45  H   UNL     1      -9.819   9.596  -5.628  1.00  0.00     0.167 HD
ATOM     46  C   UNL     1     -11.859   7.346  -8.770  1.00  0.00     0.031 A 
ATOM     47  C   UNL     1      -9.247  11.905  -4.154  1.00  0.00     0.031 A 
ATOM     48  C   UNL     1     -12.536   8.616  -8.713  1.00  0.00     0.049 A 
ATOM     49  C   UNL     1     -10.394  12.265  -5.059  1.00  0.00     0.074 A 
ATOM     50  C   UNL     1     -13.644   9.030  -9.433  1.00  0.00     0.029 A 
ATOM     51  N   UNL     1     -12.169   9.675  -7.899  1.00  0.00    -0.354 N 
ATOM     52  N   UNL     1     -11.015  11.517  -5.939  1.00  0.00    -0.248 NA
ATOM     53  C   UNL     1     -10.911  13.638  -4.963  1.00  0.00     0.031 C 
ATOM     54  C   UNL     1     -13.916  10.359  -9.090  1.00  0.00     0.029 A 
ATOM     55  C   UNL     1     -13.008  10.754  -8.122  1.00  0.00     0.049 A 
ATOM     56  H   UNL     1     -11.422   9.663  -7.258  1.00  0.00     0.167 HD
ATOM     57  C   UNL     1     -12.004  12.324  -6.491  1.00  0.00     0.074 A 
ATOM     58  C   UNL     1     -11.912  13.610  -5.832  1.00  0.00     0.031 C 
ATOM     59  C   UNL     1     -12.904  12.028  -7.460  1.00  0.00     0.031 A 
BRANCH  46  60
ATOM     60  C   UNL     1     -12.340   6.344  -9.783  1.00  0.00    -0.014 A 
ATOM     61  C   UNL     1     -13.115   5.235  -9.401  1.00  0.00     0.010 A 
ATOM     62  C   UNL     1     -12.088   6.567 -11.149  1.00  0.00     0.010 A 
ATOM     63  C   UNL     1     -13.617   4.359 -10.367  1.00  0.00     0.020 A 
ATOM     64  C   UNL     1     -12.604   5.704 -12.120  1.00  0.00     0.020 A 
ATOM     65  C   UNL     1     -13.359   4.600 -11.721  1.00  0.00     0.054 A 
BRANCH  65  66
ATOM     66  S   UNL     1     -14.072   3.479 -12.958  1.00  0.00     0.124 S 
ATOM     67  O   UNL     1     -13.223   2.298 -12.818  1.00  0.00    -0.237 OA
ATOM     68  O   UNL     1     -15.448   3.321 -12.495  1.00  0.00    -0.237 OA
ATOM     69  O   UNL     1     -13.921   4.208 -14.215  1.00  0.00    -0.744 OA
ENDBRANCH  65  66
ENDBRANCH  46  60
BRANCH  47  70
ATOM     70  C   UNL     1      -8.653  12.922  -3.245  1.00  0.00    -0.014 A 
ATOM     71  C   UNL     1      -9.356  13.383  -2.119  1.00  0.00     0.010 A 
ATOM     72  C   UNL     1      -7.381  13.455  -3.523  1.00  0.00     0.010 A 
ATOM     73  C   UNL     1      -8.811  14.381  -1.304  1.00  0.00     0.020 A 
ATOM     74  C   UNL     1      -6.822  14.433  -2.697  1.00  0.00     0.020 A 
ATOM     75  C   UNL     1      -7.549  14.903  -1.603  1.00  0.00     0.054 A 
BRANCH  75  76
ATOM     76  S   UNL     1      -6.845  16.183  -0.526  1.00  0.00     0.124 S 
ATOM     77  O   UNL     1      -7.540  17.381  -0.987  1.00  0.00    -0.237 OA
ATOM     78  O   UNL     1      -7.207  15.716   0.809  1.00  0.00    -0.237 OA
ATOM     79  O   UNL     1      -5.416  16.132  -0.828  1.00  0.00    -0.744 OA
ENDBRANCH  75  76
ENDBRANCH  47  70
BRANCH  59  80
ATOM     80  C   UNL     1     -13.876  13.107  -7.852  1.00  0.00    -0.014 A 
ATOM     81  C   UNL     1     -13.468  14.197  -8.639  1.00  0.00     0.010 A 
ATOM     82  C   UNL     1     -15.225  13.002  -7.468  1.00  0.00     0.010 A 
ATOM     83  C   UNL     1     -14.387  15.181  -9.014  1.00  0.00     0.020 A 
ATOM     84  C   UNL     1     -16.152  13.972  -7.859  1.00  0.00     0.020 A 
ATOM     85  C   UNL     1     -15.723  15.063  -8.619  1.00  0.00     0.054 A 
BRANCH  85  86
ATOM     86  S   UNL     1     -16.910  16.328  -9.152  1.00  0.00     0.124 S 
ATOM     87  O   UNL     1     -16.610  17.429  -8.240  1.00  0.00    -0.237 OA
ATOM     88  O   UNL     1     -16.541  16.551 -10.548  1.00  0.00    -0.237 OA
ATOM     89  O   UNL     1     -18.209  15.690  -8.952  1.00  0.00    -0.744 OA
ENDBRANCH  85  86
ENDBRANCH  59  80
ENDBRANCH  33  34
ENDBRANCH  26  28
ENDBRANCH  25  26
ENDBRANCH  24  25
ENDBRANCH   1  24
TORSDOF 18
