REMARK SMILES CCN(CCC(=O)OCCOC(=O)c1ccc(-c2c3nc(c(-c4ccc(S(=O)(=O)[O-])cc4)c4ccc([nH]4)c(-c4ccc(S(=O)(=O)[O-])cc4)c4nc(c(-c5ccc(S(=O)(=O)[O-])cc5)c5ccc2[nH]5)C=C4)C=C3)cc1)C(=O)N1C[C@@H]2CCC[N@@H+]2C[C@@H]1C
REMARK SMILES IDX 9 1 8 2 6 3 7 4 5 5 4 6 3 7 2 8 1 9 74 10 75 11 76 12 77 13
REMARK SMILES IDX 84 14 78 15 83 16 85 17 79 18 82 19 80 20 81 21 10 23 11 24
REMARK SMILES IDX 12 25 13 26 14 27 15 28 73 29 16 30 72 31 17 32 18 33 19 34
REMARK SMILES IDX 66 35 20 36 71 37 65 38 67 39 21 40 70 41 64 42 63 43 22 45
REMARK SMILES IDX 52 46 33 47 51 48 34 49 37 50 50 51 68 52 35 53 36 54 49 56
REMARK SMILES IDX 69 57 38 58 23 59 24 60 32 61 25 62 31 63 26 64 27 65 28 66
REMARK SMILES IDX 29 67 30 68 53 69 54 70 62 71 55 72 61 73 56 74 57 75 58 76
REMARK SMILES IDX 59 77 60 78 39 79 40 80 48 81 41 82 47 83 42 84 43 85 44 86
REMARK SMILES IDX 45 87 46 88
REMARK H PARENT 82 22 67 44 37 55
REMARK Flexibility Score: inf
ROOT
ATOM      1  C   UNL     1       4.222  -1.138   4.463  1.00  0.00     0.274 C 
ENDROOT
BRANCH   1   2
ATOM      2  O   UNL     1       2.881  -1.569   4.071  1.00  0.00    -0.462 OA
BRANCH   2   3
ATOM      3  C   UNL     1       2.149  -2.675   4.319  1.00  0.00     0.307 C 
ATOM      4  O   UNL     1       2.596  -3.711   4.770  1.00  0.00    -0.252 OA
BRANCH   3   5
ATOM      5  C   UNL     1       0.632  -2.431   4.126  1.00  0.00     0.144 C 
BRANCH   5   6
ATOM      6  C   UNL     1       0.122  -1.067   3.652  1.00  0.00     0.133 C 
BRANCH   6   7
ATOM      7  N   UNL     1       0.881  -0.503   2.574  1.00  0.00    -0.324 N 
BRANCH   7   8
ATOM      8  C   UNL     1       0.607  -0.998   1.214  1.00  0.00     0.118 C 
ATOM      9  C   UNL     1       0.789   0.002   0.068  1.00  0.00     0.027 C 
ENDBRANCH   7   8
BRANCH   7  10
ATOM     10  C   UNL     1       1.998   0.246   2.798  1.00  0.00     0.320 C 
ATOM     11  O   UNL     1       2.775   0.481   1.861  1.00  0.00    -0.248 OA
BRANCH  10  12
ATOM     12  N   UNL     1       2.341   0.740   4.058  1.00  0.00    -0.310 N 
ATOM     13  C   UNL     1       3.274   2.304   3.564  1.00  0.00     0.186 C 
ATOM     14  C   UNL     1       2.119   0.313   5.956  1.00  0.00     0.139 C 
ATOM     15  C   UNL     1       3.685   3.566   4.940  1.00  0.00     0.204 C 
ATOM     16  C   UNL     1       2.927   1.627   7.228  1.00  0.00     0.287 C 
ATOM     17  C   UNL     1       2.608  -0.936   6.754  1.00  0.00     0.037 C 
ATOM     18  C   UNL     1       5.129   4.005   4.987  1.00  0.00     0.073 C 
ATOM     19  N   UNL     1       3.378   3.275   6.648  1.00  0.00    -0.329 N 
ATOM     20  C   UNL     1       5.296   4.677   6.352  1.00  0.00     0.068 C 
ATOM     21  C   UNL     1       4.402   3.981   7.385  1.00  0.00     0.262 C 
ATOM     22  H   UNL     1       2.454   3.656   6.851  1.00  0.00     0.348 HD
ENDBRANCH  10  12
ENDBRANCH   7  10
ENDBRANCH   6   7
ENDBRANCH   5   6
ENDBRANCH   3   5
ENDBRANCH   2   3
ENDBRANCH   1   2
BRANCH   1  23
ATOM     23  C   UNL     1       4.474   0.453   4.944  1.00  0.00     0.275 C 
BRANCH  23  24
ATOM     24  O   UNL     1       3.266   1.688   5.396  1.00  0.00    -0.458 OA
BRANCH  24  25
ATOM     25  C   UNL     1       1.630   2.431   5.272  1.00  0.00     0.338 C 
ATOM     26  O   UNL     1       1.088   2.812   4.219  1.00  0.00    -0.246 OA
BRANCH  25  27
ATOM     27  C   UNL     1       0.627   2.644   6.449  1.00  0.00     0.060 A 
ATOM     28  C   UNL     1      -0.535   1.845   6.544  1.00  0.00     0.016 A 
ATOM     29  C   UNL     1       0.756   3.678   7.377  1.00  0.00     0.016 A 
ATOM     30  C   UNL     1      -1.410   1.943   7.633  1.00  0.00     0.010 A 
ATOM     31  C   UNL     1      -0.065   3.740   8.502  1.00  0.00     0.010 A 
ATOM     32  C   UNL     1      -1.171   2.891   8.628  1.00  0.00    -0.014 A 
BRANCH  32  33
ATOM     33  C   UNL     1      -2.181   3.191   9.672  1.00  0.00     0.031 A 
ATOM     34  C   UNL     1      -2.901   4.514   9.585  1.00  0.00     0.074 A 
ATOM     35  C   UNL     1      -2.423   2.343  10.690  1.00  0.00     0.049 A 
ATOM     36  N   UNL     1      -3.739   5.060  10.426  1.00  0.00    -0.248 NA
ATOM     37  C   UNL     1      -2.605   5.351   8.406  1.00  0.00     0.031 C 
ATOM     38  C   UNL     1      -1.775   1.047  10.896  1.00  0.00     0.029 A 
ATOM     39  N   UNL     1      -3.275   2.461  11.761  1.00  0.00    -0.354 N 
ATOM     40  C   UNL     1      -4.048   6.304   9.886  1.00  0.00     0.074 A 
ATOM     41  C   UNL     1      -3.251   6.467   8.694  1.00  0.00     0.031 C 
ATOM     42  C   UNL     1      -2.251   0.493  12.026  1.00  0.00     0.029 A 
ATOM     43  C   UNL     1      -3.217   1.402  12.637  1.00  0.00     0.049 A 
ATOM     44  H   UNL     1      -3.872   3.233  11.890  1.00  0.00     0.167 HD
ATOM     45  C   UNL     1      -4.948   7.217  10.318  1.00  0.00     0.031 A 
ATOM     46  C   UNL     1      -3.866   1.199  13.802  1.00  0.00     0.031 A 
ATOM     47  C   UNL     1      -5.754   7.042  11.492  1.00  0.00     0.049 A 
ATOM     48  C   UNL     1      -4.855   2.237  14.274  1.00  0.00     0.074 A 
ATOM     49  C   UNL     1      -6.720   7.886  12.007  1.00  0.00     0.029 A 
ATOM     50  N   UNL     1      -5.693   5.938  12.329  1.00  0.00    -0.354 N 
ATOM     51  N   UNL     1      -5.175   3.384  13.721  1.00  0.00    -0.248 NA
ATOM     52  C   UNL     1      -5.589   1.942  15.513  1.00  0.00     0.031 C 
ATOM     53  C   UNL     1      -7.214   7.311  13.182  1.00  0.00     0.029 A 
ATOM     54  C   UNL     1      -6.599   6.082  13.363  1.00  0.00     0.049 A 
ATOM     55  H   UNL     1      -5.093   5.167  12.205  1.00  0.00     0.167 HD
ATOM     56  C   UNL     1      -6.170   3.930  14.528  1.00  0.00     0.074 A 
ATOM     57  C   UNL     1      -6.412   2.978  15.592  1.00  0.00     0.031 C 
ATOM     58  C   UNL     1      -6.825   5.112  14.404  1.00  0.00     0.031 A 
BRANCH  45  59
ATOM     59  C   UNL     1      -5.117   8.467   9.495  1.00  0.00    -0.014 A 
ATOM     60  C   UNL     1      -5.680   8.409   8.205  1.00  0.00     0.010 A 
ATOM     61  C   UNL     1      -4.737   9.715  10.018  1.00  0.00     0.010 A 
ATOM     62  C   UNL     1      -5.827   9.569   7.442  1.00  0.00     0.020 A 
ATOM     63  C   UNL     1      -4.914  10.883   9.271  1.00  0.00     0.020 A 
ATOM     64  C   UNL     1      -5.446  10.800   7.982  1.00  0.00     0.054 A 
BRANCH  64  65
ATOM     65  S   UNL     1      -5.696  12.294   6.985  1.00  0.00     0.124 S 
ATOM     66  O   UNL     1      -4.679  12.139   5.948  1.00  0.00    -0.237 OA
ATOM     67  O   UNL     1      -7.078  12.148   6.535  1.00  0.00    -0.237 OA
ATOM     68  O   UNL     1      -5.462  13.384   7.929  1.00  0.00    -0.744 OA
ENDBRANCH  64  65
ENDBRANCH  45  59
BRANCH  46  69
ATOM     69  C   UNL     1      -3.616  -0.034  14.604  1.00  0.00    -0.014 A 
ATOM     70  C   UNL     1      -4.617  -1.012  14.753  1.00  0.00     0.010 A 
ATOM     71  C   UNL     1      -2.379  -0.226  15.247  1.00  0.00     0.010 A 
ATOM     72  C   UNL     1      -4.399  -2.137  15.556  1.00  0.00     0.020 A 
ATOM     73  C   UNL     1      -2.146  -1.366  16.024  1.00  0.00     0.020 A 
ATOM     74  C   UNL     1      -3.164  -2.307  16.187  1.00  0.00     0.054 A 
BRANCH  74  75
ATOM     75  S   UNL     1      -2.895  -3.788  17.201  1.00  0.00     0.124 S 
ATOM     76  O   UNL     1      -3.710  -3.503  18.378  1.00  0.00    -0.237 OA
ATOM     77  O   UNL     1      -3.385  -4.856  16.334  1.00  0.00    -0.237 OA
ATOM     78  O   UNL     1      -1.451  -3.791  17.425  1.00  0.00    -0.744 OA
ENDBRANCH  74  75
ENDBRANCH  46  69
BRANCH  58  79
ATOM     79  C   UNL     1      -7.897   5.420  15.416  1.00  0.00    -0.014 A 
ATOM     80  C   UNL     1      -7.577   5.735  16.747  1.00  0.00     0.010 A 
ATOM     81  C   UNL     1      -9.244   5.446  15.008  1.00  0.00     0.010 A 
ATOM     82  C   UNL     1      -8.589   6.031  17.664  1.00  0.00     0.020 A 
ATOM     83  C   UNL     1     -10.255   5.773  15.913  1.00  0.00     0.020 A 
ATOM     84  C   UNL     1      -9.922   6.047  17.241  1.00  0.00     0.054 A 
BRANCH  84  85
ATOM     85  S   UNL     1     -11.213   6.465  18.443  1.00  0.00     0.124 S 
ATOM     86  O   UNL     1     -11.260   5.261  19.268  1.00  0.00    -0.237 OA
ATOM     87  O   UNL     1     -10.670   7.653  19.096  1.00  0.00    -0.237 OA
ATOM     88  O   UNL     1     -12.394   6.700  17.616  1.00  0.00    -0.744 OA
ENDBRANCH  84  85
ENDBRANCH  58  79
ENDBRANCH  32  33
ENDBRANCH  25  27
ENDBRANCH  24  25
ENDBRANCH  23  24
ENDBRANCH   1  23
TORSDOF 19
