REMARK SMILES Nc1cc(F)c([C@H]([NH3+])C(=O)OCCOC(=O)c2ccc(-c3c4nc(c(-c5ccc(S(=O)(=O)[O-])cc5)c5ccc([nH]5)c(-c5ccc(S(=O)(=O)[O-])cc5)c5nc(c(-c6ccc(S(=O)(=O)[O-])cc6)c6ccc3[nH]6)C=C5)C=C4)cc2)cc1F
REMARK SMILES IDX 13 1 12 2 11 3 9 4 10 5 7 6 6 7 2 8 3 9 78 10 4 11 77 12
REMARK SMILES IDX 79 13 5 14 1 15 8 18 14 22 15 23 16 24 17 25 18 26 76 27
REMARK SMILES IDX 19 28 75 29 20 30 21 31 22 32 69 33 23 34 74 35 68 36 70 37
REMARK SMILES IDX 24 38 73 39 67 40 66 41 25 43 55 44 36 45 54 46 37 47 40 48
REMARK SMILES IDX 53 49 71 50 38 51 39 52 52 54 72 55 41 56 26 57 27 58 35 59
REMARK SMILES IDX 28 60 34 61 29 62 30 63 31 64 32 65 33 66 56 67 57 68 65 69
REMARK SMILES IDX 58 70 64 71 59 72 60 73 61 74 62 75 63 76 42 77 43 78 51 79
REMARK SMILES IDX 44 80 50 81 45 82 46 83 47 84 48 85 49 86
REMARK H PARENT 1 16 1 17 8 19 8 20 8 21 70 42 40 53
REMARK Flexibility Score: inf
ROOT
ATOM      1  C   UNL     1      -2.313   0.169   6.614  1.00  0.00     0.275 C 
ENDROOT
BRANCH   1   2
ATOM      2  C   UNL     1      -1.292  -0.921   6.957  1.00  0.00     0.274 C 
BRANCH   2   3
ATOM      3  O   UNL     1      -0.820  -1.578   5.767  1.00  0.00    -0.457 OA
BRANCH   3   4
ATOM      4  C   UNL     1      -1.410  -2.777   5.468  1.00  0.00     0.369 C 
ATOM      5  O   UNL     1      -2.203  -3.361   6.196  1.00  0.00    -0.245 OA
BRANCH   4   6
ATOM      6  C   UNL     1      -0.950  -3.300   4.091  1.00  0.00     0.326 C 
BRANCH   6   7
ATOM      7  C   UNL     1       0.209  -4.251   4.237  1.00  0.00     0.060 A 
ATOM      8  C   UNL     1       2.303  -6.124   4.571  1.00  0.00     0.071 A 
ATOM      9  C   UNL     1       0.974  -6.533   4.649  1.00  0.00     0.068 A 
ATOM     10  C   UNL     1       2.567  -4.760   4.375  1.00  0.00     0.146 A 
ATOM     11  C   UNL     1      -0.052  -5.606   4.475  1.00  0.00     0.135 A 
ATOM     12  C   UNL     1       1.544  -3.831   4.203  1.00  0.00     0.055 A 
ATOM     13  F   UNL     1       3.838  -4.330   4.345  1.00  0.00    -0.205 F 
ATOM     14  F   UNL     1      -1.320  -6.035   4.543  1.00  0.00    -0.206 F 
BRANCH   8  15
ATOM     15  N   UNL     1       3.333  -7.027   4.812  1.00  0.00    -0.396 N 
ATOM     16  H   UNL     1       3.130  -7.981   4.947  1.00  0.00     0.156 HD
ATOM     17  H   UNL     1       4.265  -6.712   4.847  1.00  0.00     0.156 HD
ENDBRANCH   8  15
ENDBRANCH   6   7
BRANCH   6  18
ATOM     18  N   UNL     1      -0.675  -2.190   3.142  1.00  0.00    -0.342 N 
ATOM     19  H   UNL     1       0.090  -1.618   3.500  1.00  0.00     0.345 HD
ATOM     20  H   UNL     1      -1.511  -1.614   3.041  1.00  0.00     0.345 HD
ATOM     21  H   UNL     1      -0.415  -2.575   2.234  1.00  0.00     0.345 HD
ENDBRANCH   6  18
ENDBRANCH   4   6
ENDBRANCH   3   4
ENDBRANCH   2   3
ENDBRANCH   1   2
BRANCH   1  22
ATOM     22  O   UNL     1      -3.564  -0.385   6.170  1.00  0.00    -0.458 OA
BRANCH  22  23
ATOM     23  C   UNL     1      -3.658  -0.639   4.841  1.00  0.00     0.338 C 
ATOM     24  O   UNL     1      -2.822  -0.418   3.987  1.00  0.00    -0.246 OA
BRANCH  23  25
ATOM     25  C   UNL     1      -4.883  -1.416   4.591  1.00  0.00     0.060 A 
ATOM     26  C   UNL     1      -6.136  -0.929   4.960  1.00  0.00     0.016 A 
ATOM     27  C   UNL     1      -4.760  -2.651   3.948  1.00  0.00     0.016 A 
ATOM     28  C   UNL     1      -7.267  -1.706   4.707  1.00  0.00     0.010 A 
ATOM     29  C   UNL     1      -5.887  -3.423   3.691  1.00  0.00     0.010 A 
ATOM     30  C   UNL     1      -7.148  -2.960   4.078  1.00  0.00    -0.014 A 
BRANCH  30  31
ATOM     31  C   UNL     1      -8.350  -3.765   3.773  1.00  0.00     0.031 A 
ATOM     32  C   UNL     1      -8.652  -5.016   4.542  1.00  0.00     0.074 A 
ATOM     33  C   UNL     1      -9.163  -3.359   2.781  1.00  0.00     0.049 A 
ATOM     34  N   UNL     1      -9.715  -5.776   4.481  1.00  0.00    -0.248 NA
ATOM     35  C   UNL     1      -7.631  -5.481   5.493  1.00  0.00     0.031 C 
ATOM     36  C   UNL     1      -8.928  -2.184   1.941  1.00  0.00     0.029 A 
ATOM     37  N   UNL     1     -10.349  -3.870   2.324  1.00  0.00    -0.354 N 
ATOM     38  C   UNL     1      -9.508  -6.788   5.408  1.00  0.00     0.074 A 
ATOM     39  C   UNL     1      -8.185  -6.591   5.961  1.00  0.00     0.031 C 
ATOM     40  C   UNL     1      -9.965  -2.033   1.106  1.00  0.00     0.029 A 
ATOM     41  C   UNL     1     -10.922  -3.115   1.329  1.00  0.00     0.049 A 
ATOM     42  H   UNL     1     -10.752  -4.698   2.674  1.00  0.00     0.167 HD
ATOM     43  C   UNL     1     -10.361  -7.770   5.786  1.00  0.00     0.031 A 
ATOM     44  C   UNL     1     -12.096  -3.259   0.683  1.00  0.00     0.031 A 
ATOM     45  C   UNL     1     -11.659  -7.971   5.193  1.00  0.00     0.049 A 
ATOM     46  C   UNL     1     -13.014  -4.378   1.084  1.00  0.00     0.074 A 
ATOM     47  C   UNL     1     -12.609  -8.925   5.510  1.00  0.00     0.029 A 
ATOM     48  N   UNL     1     -12.187  -7.211   4.157  1.00  0.00    -0.354 N 
ATOM     49  N   UNL     1     -12.840  -5.285   2.016  1.00  0.00    -0.248 NA
ATOM     50  C   UNL     1     -14.290  -4.485   0.367  1.00  0.00     0.031 C 
ATOM     51  C   UNL     1     -13.678  -8.788   4.622  1.00  0.00     0.029 A 
ATOM     52  C   UNL     1     -13.436  -7.694   3.803  1.00  0.00     0.049 A 
ATOM     53  H   UNL     1     -11.740  -6.442   3.736  1.00  0.00     0.167 HD
ATOM     54  C   UNL     1     -13.989  -6.066   2.007  1.00  0.00     0.074 A 
ATOM     55  C   UNL     1     -14.860  -5.511   0.990  1.00  0.00     0.031 C 
ATOM     56  C   UNL     1     -14.290  -7.144   2.774  1.00  0.00     0.031 A 
BRANCH  43  57
ATOM     57  C   UNL     1      -9.929  -8.686   6.905  1.00  0.00    -0.014 A 
ATOM     58  C   UNL     1      -9.754 -10.063   6.675  1.00  0.00     0.010 A 
ATOM     59  C   UNL     1      -9.770  -8.192   8.214  1.00  0.00     0.010 A 
ATOM     60  C   UNL     1      -9.442 -10.927   7.729  1.00  0.00     0.020 A 
ATOM     61  C   UNL     1      -9.425  -9.046   9.265  1.00  0.00     0.020 A 
ATOM     62  C   UNL     1      -9.281 -10.413   9.019  1.00  0.00     0.054 A 
BRANCH  62  63
ATOM     63  S   UNL     1      -8.863 -11.546  10.373  1.00  0.00     0.124 S 
ATOM     64  O   UNL     1     -10.136 -12.215  10.621  1.00  0.00    -0.237 OA
ATOM     65  O   UNL     1      -7.816 -12.377   9.783  1.00  0.00    -0.237 OA
ATOM     66  O   UNL     1      -8.408 -10.653  11.437  1.00  0.00    -0.744 OA
ENDBRANCH  62  63
ENDBRANCH  43  57
BRANCH  44  67
ATOM     67  C   UNL     1     -12.467  -2.241  -0.337  1.00  0.00    -0.014 A 
ATOM     68  C   UNL     1     -11.739  -2.141  -1.538  1.00  0.00     0.010 A 
ATOM     69  C   UNL     1     -13.426  -1.259  -0.035  1.00  0.00     0.010 A 
ATOM     70  C   UNL     1     -11.897  -1.031  -2.372  1.00  0.00     0.020 A 
ATOM     71  C   UNL     1     -13.608  -0.162  -0.882  1.00  0.00     0.020 A 
ATOM     72  C   UNL     1     -12.812  -0.034  -2.022  1.00  0.00     0.054 A 
BRANCH  72  73
ATOM     73  S   UNL     1     -12.897   1.463  -3.044  1.00  0.00     0.124 S 
ATOM     74  O   UNL     1     -11.642   2.128  -2.704  1.00  0.00    -0.237 OA
ATOM     75  O   UNL     1     -12.975   0.920  -4.398  1.00  0.00    -0.237 OA
ATOM     76  O   UNL     1     -14.106   2.133  -2.572  1.00  0.00    -0.744 OA
ENDBRANCH  72  73
ENDBRANCH  44  67
BRANCH  56  77
ATOM     77  C   UNL     1     -15.612  -7.833   2.545  1.00  0.00    -0.014 A 
ATOM     78  C   UNL     1     -16.586  -7.833   3.562  1.00  0.00     0.010 A 
ATOM     79  C   UNL     1     -15.829  -8.607   1.391  1.00  0.00     0.010 A 
ATOM     80  C   UNL     1     -17.727  -8.632   3.453  1.00  0.00     0.020 A 
ATOM     81  C   UNL     1     -16.986  -9.382   1.264  1.00  0.00     0.020 A 
ATOM     82  C   UNL     1     -17.912  -9.413   2.310  1.00  0.00     0.054 A 
BRANCH  82  83
ATOM     83  S   UNL     1     -19.369 -10.489   2.215  1.00  0.00     0.124 S 
ATOM     84  O   UNL     1     -19.021 -11.560   3.144  1.00  0.00    -0.237 OA
ATOM     85  O   UNL     1     -20.449  -9.606   2.647  1.00  0.00    -0.237 OA
ATOM     86  O   UNL     1     -19.418 -10.878   0.807  1.00  0.00    -0.744 OA
ENDBRANCH  82  83
ENDBRANCH  56  77
ENDBRANCH  30  31
ENDBRANCH  23  25
ENDBRANCH  22  23
ENDBRANCH   1  22
TORSDOF 17
