REMARK SMILES O=C(OCCOC(=O)c1cncc(OCCCc2ccccc2)n1)c1ccc(-c2c3nc(c(-c4ccc(S(=O)(=O)[O-])cc4)c4ccc([nH]4)c(-c4ccc(S(=O)(=O)[O-])cc4)c4nc(c(-c5ccc(S(=O)(=O)[O-])cc5)c5ccc2[nH]5)C=C4)C=C3)cc1
REMARK SMILES IDX 5 1 4 2 3 3 2 4 1 5 25 6 26 7 84 8 27 9 83 10 28 11 29 12
REMARK SMILES IDX 30 13 77 14 31 15 82 16 76 17 78 18 32 19 81 20 75 21 74 22
REMARK SMILES IDX 33 24 63 25 44 26 62 27 45 28 48 29 61 30 79 31 46 32 47 33
REMARK SMILES IDX 60 35 80 36 49 37 34 38 35 39 43 40 36 41 42 42 37 43 38 44
REMARK SMILES IDX 39 45 40 46 41 47 64 48 65 49 73 50 66 51 72 52 67 53 68 54
REMARK SMILES IDX 69 55 70 56 71 57 50 58 51 59 59 60 52 61 58 62 53 63 54 64
REMARK SMILES IDX 55 65 56 66 57 67 6 68 7 69 8 70 9 71 10 72 24 73 11 74
REMARK SMILES IDX 13 75 12 76 14 77 15 78 16 79 17 80 18 81 19 82 23 83 20 84
REMARK SMILES IDX 22 85 21 86
REMARK H PARENT 78 23 48 34
REMARK Flexibility Score: inf
ROOT
ATOM      1  C   UNL     1       4.095  -2.372  -1.155  1.00  0.00     0.275 C 
ENDROOT
BRANCH   1   2
ATOM      2  C   UNL     1       5.001  -1.905   0.005  1.00  0.00     0.275 C 
BRANCH   2   3
ATOM      3  O   UNL     1       4.704  -0.685   0.707  1.00  0.00    -0.458 OA
BRANCH   3   4
ATOM      4  C   UNL     1       3.641   0.022   0.271  1.00  0.00     0.338 C 
ATOM      5  O   UNL     1       2.490  -0.353   0.384  1.00  0.00    -0.246 OA
BRANCH   4   6
ATOM      6  C   UNL     1       4.115   1.217  -0.481  1.00  0.00     0.060 A 
ATOM      7  C   UNL     1       5.396   1.248  -1.056  1.00  0.00     0.016 A 
ATOM      8  C   UNL     1       3.217   2.241  -0.760  1.00  0.00     0.016 A 
ATOM      9  C   UNL     1       5.750   2.256  -1.943  1.00  0.00     0.010 A 
ATOM     10  C   UNL     1       3.568   3.258  -1.646  1.00  0.00     0.010 A 
ATOM     11  C   UNL     1       4.829   3.256  -2.250  1.00  0.00    -0.014 A 
BRANCH  11  12
ATOM     12  C   UNL     1       5.226   4.376  -3.116  1.00  0.00     0.031 A 
ATOM     13  C   UNL     1       5.665   5.640  -2.455  1.00  0.00     0.074 A 
ATOM     14  C   UNL     1       5.166   4.252  -4.453  1.00  0.00     0.049 A 
ATOM     15  N   UNL     1       6.106   6.739  -2.998  1.00  0.00    -0.248 NA
ATOM     16  C   UNL     1       5.610   5.664  -0.983  1.00  0.00     0.031 C 
ATOM     17  C   UNL     1       4.752   3.046  -5.167  1.00  0.00     0.029 A 
ATOM     18  N   UNL     1       5.419   5.157  -5.448  1.00  0.00    -0.354 N 
ATOM     19  C   UNL     1       6.418   7.573  -1.933  1.00  0.00     0.074 A 
ATOM     20  C   UNL     1       6.047   6.884  -0.719  1.00  0.00     0.031 C 
ATOM     21  C   UNL     1       4.711   3.304  -6.485  1.00  0.00     0.029 A 
ATOM     22  C   UNL     1       5.114   4.689  -6.705  1.00  0.00     0.049 A 
ATOM     23  H   UNL     1       5.783   6.056  -5.281  1.00  0.00     0.167 HD
ATOM     24  C   UNL     1       6.991   8.796  -1.975  1.00  0.00     0.031 A 
ATOM     25  C   UNL     1       5.149   5.320  -7.894  1.00  0.00     0.031 A 
ATOM     26  C   UNL     1       7.277   9.478  -3.206  1.00  0.00     0.049 A 
ATOM     27  C   UNL     1       5.697   6.720  -7.925  1.00  0.00     0.074 A 
ATOM     28  C   UNL     1       7.860  10.714  -3.397  1.00  0.00     0.029 A 
ATOM     29  N   UNL     1       6.965   8.975  -4.465  1.00  0.00    -0.354 N 
ATOM     30  N   UNL     1       6.086   7.468  -6.916  1.00  0.00    -0.248 NA
ATOM     31  C   UNL     1       5.860   7.348  -9.240  1.00  0.00     0.031 C 
ATOM     32  C   UNL     1       7.853  10.981  -4.771  1.00  0.00     0.029 A 
ATOM     33  C   UNL     1       7.321   9.886  -5.439  1.00  0.00     0.049 A 
ATOM     34  H   UNL     1       6.551   8.098  -4.636  1.00  0.00     0.167 HD
ATOM     35  C   UNL     1       6.594   8.631  -7.476  1.00  0.00     0.074 A 
ATOM     36  C   UNL     1       6.441   8.496  -8.914  1.00  0.00     0.031 C 
ATOM     37  C   UNL     1       7.159   9.701  -6.863  1.00  0.00     0.031 A 
BRANCH  24  38
ATOM     38  C   UNL     1       7.292   9.443  -0.651  1.00  0.00    -0.014 A 
ATOM     39  C   UNL     1       8.270   8.904   0.208  1.00  0.00     0.010 A 
ATOM     40  C   UNL     1       6.542  10.551  -0.223  1.00  0.00     0.010 A 
ATOM     41  C   UNL     1       8.439   9.411   1.498  1.00  0.00     0.020 A 
ATOM     42  C   UNL     1       6.728  11.080   1.058  1.00  0.00     0.020 A 
ATOM     43  C   UNL     1       7.653  10.487   1.921  1.00  0.00     0.054 A 
BRANCH  43  44
ATOM     44  S   UNL     1       7.851  11.094   3.618  1.00  0.00     0.124 S 
ATOM     45  O   UNL     1       7.186  10.046   4.390  1.00  0.00    -0.237 OA
ATOM     46  O   UNL     1       9.302  11.159   3.771  1.00  0.00    -0.237 OA
ATOM     47  O   UNL     1       7.170  12.386   3.606  1.00  0.00    -0.744 OA
ENDBRANCH  43  44
ENDBRANCH  24  38
BRANCH  25  48
ATOM     48  C   UNL     1       4.691   4.609  -9.118  1.00  0.00    -0.014 A 
ATOM     49  C   UNL     1       5.611   4.110 -10.055  1.00  0.00     0.010 A 
ATOM     50  C   UNL     1       3.319   4.351  -9.310  1.00  0.00     0.010 A 
ATOM     51  C   UNL     1       5.171   3.366 -11.157  1.00  0.00     0.020 A 
ATOM     52  C   UNL     1       2.877   3.593 -10.400  1.00  0.00     0.020 A 
ATOM     53  C   UNL     1       3.807   3.104 -11.318  1.00  0.00     0.054 A 
BRANCH  53  54
ATOM     54  S   UNL     1       3.275   2.065 -12.709  1.00  0.00     0.124 S 
ATOM     55  O   UNL     1       3.547   2.926 -13.856  1.00  0.00    -0.237 OA
ATOM     56  O   UNL     1       4.141   0.897 -12.576  1.00  0.00    -0.237 OA
ATOM     57  O   UNL     1       1.861   1.818 -12.434  1.00  0.00    -0.744 OA
ENDBRANCH  53  54
ENDBRANCH  25  48
BRANCH  37  58
ATOM     58  C   UNL     1       7.710  10.788  -7.741  1.00  0.00    -0.014 A 
ATOM     59  C   UNL     1       6.865  11.721  -8.364  1.00  0.00     0.010 A 
ATOM     60  C   UNL     1       9.105  10.944  -7.833  1.00  0.00     0.010 A 
ATOM     61  C   UNL     1       7.410  12.798  -9.065  1.00  0.00     0.020 A 
ATOM     62  C   UNL     1       9.652  12.033  -8.511  1.00  0.00     0.020 A 
ATOM     63  C   UNL     1       8.800  12.953  -9.125  1.00  0.00     0.054 A 
BRANCH  63  64
ATOM     64  S   UNL     1       9.479  14.418  -9.948  1.00  0.00     0.124 S 
ATOM     65  O   UNL     1       9.281  14.093 -11.357  1.00  0.00    -0.237 OA
ATOM     66  O   UNL     1       8.642  15.495  -9.426  1.00  0.00    -0.237 OA
ATOM     67  O   UNL     1      10.871  14.449  -9.505  1.00  0.00    -0.744 OA
ENDBRANCH  63  64
ENDBRANCH  37  58
ENDBRANCH  11  12
ENDBRANCH   4   6
ENDBRANCH   3   4
ENDBRANCH   2   3
ENDBRANCH   1   2
BRANCH   1  68
ATOM     68  O   UNL     1       3.731  -1.326  -2.077  1.00  0.00    -0.457 OA
BRANCH  68  69
ATOM     69  C   UNL     1       2.513  -1.511  -2.669  1.00  0.00     0.358 C 
ATOM     70  O   UNL     1       1.869  -2.549  -2.683  1.00  0.00    -0.244 OA
BRANCH  69  71
ATOM     71  C   UNL     1       2.052  -0.266  -3.314  1.00  0.00     0.170 A 
ATOM     72  C   UNL     1       2.376  -0.004  -4.631  1.00  0.00     0.147 A 
ATOM     73  N   UNL     1       1.290   0.578  -2.572  1.00  0.00    -0.203 NA
ATOM     74  N   UNL     1       1.970   1.130  -5.257  1.00  0.00    -0.257 NA
ATOM     75  C   UNL     1       0.913   1.724  -3.176  1.00  0.00     0.233 A 
ATOM     76  C   UNL     1       1.265   2.005  -4.490  1.00  0.00     0.179 A 
BRANCH  75  77
ATOM     77  O   UNL     1       0.536   2.725  -2.323  1.00  0.00    -0.477 OA
BRANCH  77  78
ATOM     78  C   UNL     1      -0.856   2.962  -2.226  1.00  0.00     0.232 C 
BRANCH  78  79
ATOM     79  C   UNL     1      -1.656   2.012  -1.326  1.00  0.00     0.046 C 
BRANCH  79  80
ATOM     80  C   UNL     1      -0.963   1.183  -0.239  1.00  0.00     0.039 C 
BRANCH  80  81
ATOM     81  C   UNL     1      -0.234   1.792   0.935  1.00  0.00    -0.048 A 
ATOM     82  C   UNL     1       0.272   0.889   1.891  1.00  0.00     0.004 A 
ATOM     83  C   UNL     1       0.077   3.145   1.085  1.00  0.00     0.004 A 
ATOM     84  C   UNL     1       1.123   1.304   2.915  1.00  0.00     0.000 A 
ATOM     85  C   UNL     1       0.933   3.564   2.115  1.00  0.00     0.000 A 
ATOM     86  C   UNL     1       1.469   2.645   3.016  1.00  0.00     0.000 A 
ENDBRANCH  80  81
ENDBRANCH  79  80
ENDBRANCH  78  79
ENDBRANCH  77  78
ENDBRANCH  75  77
ENDBRANCH  69  71
ENDBRANCH  68  69
ENDBRANCH   1  68
TORSDOF 19
