REMARK SMILES C[C@H](CNC(=O)c1ccc(Br)nc1)C(=O)OCCOC(=O)c1ccc(-c2c3nc(c(-c4ccc(S(=O)(=O)[O-])cc4)c4ccc([nH]4)c(-c4ccc(S(=O)(=O)[O-])cc4)c4nc(c(-c5ccc(S(=O)(=O)[O-])cc5)c5ccc2[nH]5)C=C4)C=C3)cc1
REMARK SMILES IDX 17 1 16 2 14 3 15 4 2 5 1 6 3 7 4 8 5 9 6 11 7 12 8 13 13 14
REMARK SMILES IDX 9 15 12 16 10 17 11 18 18 19 19 20 20 21 21 22 22 23 23 24
REMARK SMILES IDX 81 25 24 26 80 27 25 28 26 29 27 30 74 31 28 32 79 33 73 34
REMARK SMILES IDX 75 35 29 36 78 37 72 38 71 39 30 41 60 42 41 43 59 44 42 45
REMARK SMILES IDX 45 46 58 47 76 48 43 49 44 50 57 52 77 53 46 54 31 55 32 56
REMARK SMILES IDX 40 57 33 58 39 59 34 60 35 61 36 62 37 63 38 64 61 65 62 66
REMARK SMILES IDX 70 67 63 68 69 69 64 70 65 71 66 72 67 73 68 74 47 75 48 76
REMARK SMILES IDX 56 77 49 78 55 79 50 80 51 81 52 82 53 83 54 84
REMARK H PARENT 4 10 75 40 45 51
REMARK Flexibility Score: inf
ROOT
ATOM      1  C   UNL     1      -2.870   0.586  -1.166  1.00  0.00     0.274 C 
ENDROOT
BRANCH   1   2
ATOM      2  O   UNL     1      -1.429   0.504  -1.187  1.00  0.00    -0.462 OA
BRANCH   2   3
ATOM      3  C   UNL     1      -0.776   1.693  -1.090  1.00  0.00     0.310 C 
ATOM      4  O   UNL     1      -1.328   2.785  -1.026  1.00  0.00    -0.252 OA
BRANCH   3   5
ATOM      5  C   UNL     1       0.732   1.554  -1.142  1.00  0.00     0.115 C 
ATOM      6  C   UNL     1       1.196   1.675  -2.590  1.00  0.00     0.022 C 
BRANCH   5   7
ATOM      7  C   UNL     1       1.264   0.284  -0.465  1.00  0.00     0.131 C 
BRANCH   7   8
ATOM      8  N   UNL     1       2.634   0.493   0.004  1.00  0.00    -0.351 N 
ATOM      9  C   UNL     1       3.166   0.340   1.260  1.00  0.00     0.252 C 
ATOM     10  H   UNL     1       3.271   0.789  -0.686  1.00  0.00     0.163 HD
ATOM     11  O   UNL     1       4.252   0.850   1.520  1.00  0.00    -0.269 OA
BRANCH   9  12
ATOM     12  C   UNL     1       2.471  -0.439   2.298  1.00  0.00     0.058 A 
ATOM     13  C   UNL     1       1.964  -1.714   2.053  1.00  0.00     0.018 A 
ATOM     14  C   UNL     1       2.420   0.050   3.597  1.00  0.00     0.126 A 
ATOM     15  C   UNL     1       1.396  -2.432   3.106  1.00  0.00     0.037 A 
ATOM     16  N   UNL     1       1.850  -0.616   4.630  1.00  0.00    -0.249 NA
ATOM     17  C   UNL     1       1.355  -1.845   4.365  1.00  0.00     0.106 A 
ATOM     18  Br  UNL     1       0.593  -2.819   5.801  1.00  0.00    -0.029 Br
ENDBRANCH   9  12
ENDBRANCH   7   8
ENDBRANCH   5   7
ENDBRANCH   3   5
ENDBRANCH   2   3
ENDBRANCH   1   2
BRANCH   1  19
ATOM     19  C   UNL     1      -3.453   0.259   0.213  1.00  0.00     0.275 C 
BRANCH  19  20
ATOM     20  O   UNL     1      -3.014   1.189   1.220  1.00  0.00    -0.458 OA
BRANCH  20  21
ATOM     21  C   UNL     1      -1.918   0.791   1.907  1.00  0.00     0.338 C 
ATOM     22  O   UNL     1      -1.316  -0.262   1.772  1.00  0.00    -0.246 OA
BRANCH  21  23
ATOM     23  C   UNL     1      -1.432   1.874   2.777  1.00  0.00     0.060 A 
ATOM     24  C   UNL     1      -0.136   2.348   2.563  1.00  0.00     0.016 A 
ATOM     25  C   UNL     1      -2.180   2.323   3.866  1.00  0.00     0.016 A 
ATOM     26  C   UNL     1       0.445   3.231   3.466  1.00  0.00     0.010 A 
ATOM     27  C   UNL     1      -1.597   3.216   4.773  1.00  0.00     0.010 A 
ATOM     28  C   UNL     1      -0.269   3.643   4.597  1.00  0.00    -0.014 A 
BRANCH  28  29
ATOM     29  C   UNL     1       0.437   4.424   5.642  1.00  0.00     0.031 A 
ATOM     30  C   UNL     1       0.904   3.730   6.893  1.00  0.00     0.074 A 
ATOM     31  C   UNL     1       0.721   5.723   5.440  1.00  0.00     0.049 A 
ATOM     32  N   UNL     1       1.547   4.226   7.919  1.00  0.00    -0.248 NA
ATOM     33  C   UNL     1       0.607   2.293   7.003  1.00  0.00     0.031 C 
ATOM     34  C   UNL     1       0.363   6.492   4.248  1.00  0.00     0.029 A 
ATOM     35  N   UNL     1       1.394   6.621   6.230  1.00  0.00    -0.354 N 
ATOM     36  C   UNL     1       1.709   3.169   8.809  1.00  0.00     0.074 A 
ATOM     37  C   UNL     1       1.083   2.011   8.208  1.00  0.00     0.031 C 
ATOM     38  C   UNL     1       0.838   7.743   4.376  1.00  0.00     0.029 A 
ATOM     39  C   UNL     1       1.507   7.870   5.669  1.00  0.00     0.049 A 
ATOM     40  H   UNL     1       1.761   6.392   7.114  1.00  0.00     0.167 HD
ATOM     41  C   UNL     1       2.327   3.163  10.014  1.00  0.00     0.031 A 
ATOM     42  C   UNL     1       2.084   8.991   6.144  1.00  0.00     0.031 A 
ATOM     43  C   UNL     1       2.972   4.308  10.600  1.00  0.00     0.049 A 
ATOM     44  C   UNL     1       2.756   8.961   7.489  1.00  0.00     0.074 A 
ATOM     45  C   UNL     1       3.634   4.399  11.812  1.00  0.00     0.029 A 
ATOM     46  N   UNL     1       3.047   5.560  10.009  1.00  0.00    -0.354 N 
ATOM     47  N   UNL     1       2.889   7.957   8.322  1.00  0.00    -0.248 NA
ATOM     48  C   UNL     1       3.366  10.215   7.953  1.00  0.00     0.031 C 
ATOM     49  C   UNL     1       4.083   5.716  11.968  1.00  0.00     0.029 A 
ATOM     50  C   UNL     1       3.736   6.433  10.834  1.00  0.00     0.049 A 
ATOM     51  H   UNL     1       2.667   5.794   9.131  1.00  0.00     0.167 HD
ATOM     52  C   UNL     1       3.619   8.451   9.397  1.00  0.00     0.074 A 
ATOM     53  C   UNL     1       3.908   9.840   9.104  1.00  0.00     0.031 C 
ATOM     54  C   UNL     1       4.017   7.812  10.525  1.00  0.00     0.031 A 
BRANCH  41  55
ATOM     55  C   UNL     1       2.299   1.877  10.796  1.00  0.00    -0.014 A 
ATOM     56  C   UNL     1       3.098   0.779  10.430  1.00  0.00     0.010 A 
ATOM     57  C   UNL     1       1.466   1.773  11.925  1.00  0.00     0.010 A 
ATOM     58  C   UNL     1       3.033  -0.415  11.156  1.00  0.00     0.020 A 
ATOM     59  C   UNL     1       1.416   0.589  12.666  1.00  0.00     0.020 A 
ATOM     60  C   UNL     1       2.186  -0.505  12.265  1.00  0.00     0.054 A 
BRANCH  60  61
ATOM     61  S   UNL     1       2.123  -2.058  13.201  1.00  0.00     0.124 S 
ATOM     62  O   UNL     1       1.275  -2.890  12.351  1.00  0.00    -0.237 OA
ATOM     63  O   UNL     1       3.527  -2.455  13.268  1.00  0.00    -0.237 OA
ATOM     64  O   UNL     1       1.530  -1.667  14.478  1.00  0.00    -0.744 OA
ENDBRANCH  60  61
ENDBRANCH  41  55
BRANCH  42  65
ATOM     65  C   UNL     1       2.055  10.239   5.336  1.00  0.00    -0.014 A 
ATOM     66  C   UNL     1       3.222  10.714   4.713  1.00  0.00     0.010 A 
ATOM     67  C   UNL     1       0.855  10.955   5.181  1.00  0.00     0.010 A 
ATOM     68  C   UNL     1       3.193  11.892   3.961  1.00  0.00     0.020 A 
ATOM     69  C   UNL     1       0.816  12.120   4.411  1.00  0.00     0.020 A 
ATOM     70  C   UNL     1       1.989  12.588   3.815  1.00  0.00     0.054 A 
BRANCH  70  71
ATOM     71  S   UNL     1       1.956  14.085   2.789  1.00  0.00     0.124 S 
ATOM     72  O   UNL     1       2.522  15.083   3.690  1.00  0.00    -0.237 OA
ATOM     73  O   UNL     1       2.792  13.712   1.650  1.00  0.00    -0.237 OA
ATOM     74  O   UNL     1       0.537  14.252   2.479  1.00  0.00    -0.744 OA
ENDBRANCH  70  71
ENDBRANCH  42  65
BRANCH  54  75
ATOM     75  C   UNL     1       4.840   8.601  11.506  1.00  0.00    -0.014 A 
ATOM     76  C   UNL     1       4.252   9.572  12.335  1.00  0.00     0.010 A 
ATOM     77  C   UNL     1       6.219   8.343  11.619  1.00  0.00     0.010 A 
ATOM     78  C   UNL     1       5.036  10.300  13.235  1.00  0.00     0.020 A 
ATOM     79  C   UNL     1       7.002   9.055  12.532  1.00  0.00     0.020 A 
ATOM     80  C   UNL     1       6.408  10.042  13.322  1.00  0.00     0.054 A 
BRANCH  80  81
ATOM     81  S   UNL     1       7.407  10.979  14.511  1.00  0.00     0.124 S 
ATOM     82  O   UNL     1       7.613  12.241  13.806  1.00  0.00    -0.237 OA
ATOM     83  O   UNL     1       6.536  11.050  15.683  1.00  0.00    -0.237 OA
ATOM     84  O   UNL     1       8.602  10.156  14.682  1.00  0.00    -0.744 OA
ENDBRANCH  80  81
ENDBRANCH  54  75
ENDBRANCH  28  29
ENDBRANCH  21  23
ENDBRANCH  20  21
ENDBRANCH  19  20
ENDBRANCH   1  19
TORSDOF 17
