REMARK SMILES COc1cc(CC(=O)N[C@@H](CC(=O)OCCOC(=O)c2ccc(-c3c4nc(c(-c5ccc(S(=O)(=O)[O-])cc5)c5ccc([nH]5)c(-c5ccc(S(=O)(=O)[O-])cc5)c5nc(c(-c6ccc(S(=O)(=O)[O-])cc6)c6ccc3[nH]6)C=C5)C=C4)cc2)c2cccs2)ccc1C
REMARK SMILES IDX 15 1 14 2 12 3 13 4 11 5 10 6 9 7 7 8 8 9 6 11 5 12 3 13
REMARK SMILES IDX 4 14 87 15 86 16 88 17 85 18 2 19 1 20 80 21 81 22 84 23
REMARK SMILES IDX 82 24 83 25 16 26 17 27 18 28 19 29 20 30 21 31 79 32 22 33
REMARK SMILES IDX 78 34 23 35 24 36 25 37 72 38 26 39 77 40 71 41 73 42 27 43
REMARK SMILES IDX 76 44 70 45 69 46 28 48 58 49 39 50 57 51 40 52 43 53 56 54
REMARK SMILES IDX 74 55 41 56 42 57 55 59 75 60 44 61 29 62 30 63 38 64 31 65
REMARK SMILES IDX 37 66 32 67 33 68 34 69 35 70 36 71 59 72 60 73 68 74 61 75
REMARK SMILES IDX 67 76 62 77 63 78 64 79 65 80 66 81 45 82 46 83 54 84 47 85
REMARK SMILES IDX 53 86 48 87 49 88 50 89 51 90 52 91
REMARK H PARENT 9 10 73 47 43 58
REMARK Flexibility Score: inf
ROOT
ATOM      1  C   UNL     1       5.810  -9.347   0.815  1.00  0.00     0.274 C 
ENDROOT
BRANCH   1   2
ATOM      2  O   UNL     1       5.082  -8.102   0.017  1.00  0.00    -0.462 OA
BRANCH   2   3
ATOM      3  C   UNL     1       4.938  -7.566  -1.237  1.00  0.00     0.308 C 
ATOM      4  O   UNL     1       5.006  -8.250  -2.256  1.00  0.00    -0.252 OA
BRANCH   3   5
ATOM      5  C   UNL     1       4.394  -6.066  -1.299  1.00  0.00     0.153 C 
BRANCH   5   6
ATOM      6  C   UNL     1       5.120  -4.713  -1.492  1.00  0.00     0.133 C 
BRANCH   6   7
ATOM      7  N   UNL     1       5.520  -4.505  -2.868  1.00  0.00    -0.348 N 
ATOM      8  C   UNL     1       4.665  -4.073  -3.853  1.00  0.00     0.224 C 
ATOM      9  O   UNL     1       4.758  -4.575  -4.976  1.00  0.00    -0.275 OA
ATOM     10  H   UNL     1       6.458  -4.682  -3.112  1.00  0.00     0.164 HD
BRANCH   8  11
ATOM     11  C   UNL     1       3.754  -2.871  -3.608  1.00  0.00     0.135 C 
BRANCH  11  12
ATOM     12  C   UNL     1       2.435  -3.034  -2.878  1.00  0.00    -0.035 A 
ATOM     13  C   UNL     1       0.878  -2.177  -1.180  1.00  0.00     0.122 A 
ATOM     14  C   UNL     1       2.138  -2.176  -1.798  1.00  0.00     0.051 A 
ATOM     15  C   UNL     1      -0.112  -3.063  -1.619  1.00  0.00    -0.009 A 
ATOM     16  C   UNL     1       0.181  -3.926  -2.689  1.00  0.00     0.007 A 
ATOM     17  C   UNL     1      -1.494  -3.081  -1.021  1.00  0.00     0.048 C 
ATOM     18  C   UNL     1       1.437  -3.909  -3.316  1.00  0.00     0.005 A 
BRANCH  13  19
ATOM     19  O   UNL     1       0.574  -1.377  -0.109  1.00  0.00    -0.496 OA
ATOM     20  C   UNL     1       1.046  -0.039  -0.201  1.00  0.00     0.278 C 
ENDBRANCH  13  19
ENDBRANCH  11  12
ENDBRANCH   8  11
ENDBRANCH   6   7
BRANCH   6  21
ATOM     21  C   UNL     1       6.152  -4.263  -0.490  1.00  0.00     0.027 A 
ATOM     22  C   UNL     1       5.940  -3.380   0.568  1.00  0.00     0.017 A 
ATOM     23  S   UNL     1       7.760  -4.845  -0.468  1.00  0.00    -0.147 S 
ATOM     24  C   UNL     1       6.999  -3.399   1.522  1.00  0.00     0.012 A 
ATOM     25  C   UNL     1       8.033  -4.204   1.103  1.00  0.00     0.065 A 
ENDBRANCH   6  21
ENDBRANCH   5   6
ENDBRANCH   3   5
ENDBRANCH   2   3
ENDBRANCH   1   2
BRANCH   1  26
ATOM     26  C   UNL     1       6.295  -9.129   2.669  1.00  0.00     0.275 C 
BRANCH  26  27
ATOM     27  O   UNL     1       5.179  -8.388   3.992  1.00  0.00    -0.458 OA
BRANCH  27  28
ATOM     28  C   UNL     1       3.846  -7.285   4.215  1.00  0.00     0.338 C 
ATOM     29  O   UNL     1       3.571  -7.139   5.421  1.00  0.00    -0.246 OA
BRANCH  28  30
ATOM     30  C   UNL     1       2.605  -6.457   3.041  1.00  0.00     0.060 A 
ATOM     31  C   UNL     1       1.229  -6.463   3.348  1.00  0.00     0.016 A 
ATOM     32  C   UNL     1       2.573  -6.451   1.556  1.00  0.00     0.016 A 
ATOM     33  C   UNL     1       0.175  -6.944   2.326  1.00  0.00     0.010 A 
ATOM     34  C   UNL     1       1.571  -6.657   0.532  1.00  0.00     0.010 A 
ATOM     35  C   UNL     1       0.437  -7.266   0.947  1.00  0.00    -0.014 A 
BRANCH  35  36
ATOM     36  C   UNL     1       0.077  -8.527   0.084  1.00  0.00     0.031 A 
ATOM     37  C   UNL     1      -0.493  -8.383  -1.277  1.00  0.00     0.074 A 
ATOM     38  C   UNL     1       0.529  -9.828   0.177  1.00  0.00     0.049 A 
ATOM     39  N   UNL     1      -1.752  -8.454  -1.557  1.00  0.00    -0.248 NA
ATOM     40  C   UNL     1       0.393  -8.396  -2.458  1.00  0.00     0.031 C 
ATOM     41  C   UNL     1       0.038 -11.072  -0.454  1.00  0.00     0.029 A 
ATOM     42  N   UNL     1       1.432 -10.388   1.044  1.00  0.00    -0.354 N 
ATOM     43  C   UNL     1      -1.804  -8.855  -2.885  1.00  0.00     0.074 A 
ATOM     44  C   UNL     1      -0.485  -8.598  -3.447  1.00  0.00     0.031 C 
ATOM     45  C   UNL     1       0.256 -12.111   0.394  1.00  0.00     0.029 A 
ATOM     46  C   UNL     1       0.970 -11.608   1.551  1.00  0.00     0.049 A 
ATOM     47  H   UNL     1       2.297  -9.982   1.281  1.00  0.00     0.167 HD
ATOM     48  C   UNL     1      -2.647  -9.847  -3.314  1.00  0.00     0.031 A 
ATOM     49  C   UNL     1       0.643 -11.615   2.886  1.00  0.00     0.031 A 
ATOM     50  C   UNL     1      -3.079 -10.724  -2.214  1.00  0.00     0.049 A 
ATOM     51  C   UNL     1      -0.891 -11.380   3.011  1.00  0.00     0.074 A 
ATOM     52  C   UNL     1      -2.895 -12.081  -1.979  1.00  0.00     0.029 A 
ATOM     53  N   UNL     1      -3.538 -10.195  -1.013  1.00  0.00    -0.354 N 
ATOM     54  N   UNL     1      -1.699 -11.438   1.985  1.00  0.00    -0.248 NA
ATOM     55  C   UNL     1      -1.633 -11.017   4.226  1.00  0.00     0.031 C 
ATOM     56  C   UNL     1      -3.157 -12.340  -0.609  1.00  0.00     0.029 A 
ATOM     57  C   UNL     1      -3.519 -11.149  -0.010  1.00  0.00     0.049 A 
ATOM     58  H   UNL     1      -3.838  -9.265  -0.892  1.00  0.00     0.167 HD
ATOM     59  C   UNL     1      -2.953 -10.989   2.312  1.00  0.00     0.074 A 
ATOM     60  C   UNL     1      -2.883 -10.815   3.751  1.00  0.00     0.031 C 
ATOM     61  C   UNL     1      -3.908 -10.784   1.351  1.00  0.00     0.031 A 
BRANCH  48  62
ATOM     62  C   UNL     1      -2.802 -10.229  -4.780  1.00  0.00    -0.014 A 
ATOM     63  C   UNL     1      -3.472 -11.417  -5.141  1.00  0.00     0.010 A 
ATOM     64  C   UNL     1      -2.410  -9.393  -5.849  1.00  0.00     0.010 A 
ATOM     65  C   UNL     1      -3.674 -11.791  -6.478  1.00  0.00     0.020 A 
ATOM     66  C   UNL     1      -2.586  -9.764  -7.195  1.00  0.00     0.020 A 
ATOM     67  C   UNL     1      -3.219 -10.965  -7.501  1.00  0.00     0.054 A 
BRANCH  67  68
ATOM     68  S   UNL     1      -3.515 -11.462  -9.219  1.00  0.00     0.124 S 
ATOM     69  O   UNL     1      -2.844 -12.758  -9.293  1.00  0.00    -0.237 OA
ATOM     70  O   UNL     1      -4.973 -11.507  -9.286  1.00  0.00    -0.237 OA
ATOM     71  O   UNL     1      -2.892 -10.398 -10.003  1.00  0.00    -0.744 OA
ENDBRANCH  67  68
ENDBRANCH  48  62
BRANCH  49  72
ATOM     72  C   UNL     1       1.746 -10.831   3.642  1.00  0.00    -0.014 A 
ATOM     73  C   UNL     1       3.088 -11.175   3.515  1.00  0.00     0.010 A 
ATOM     74  C   UNL     1       1.635  -9.482   3.559  1.00  0.00     0.010 A 
ATOM     75  C   UNL     1       4.127 -10.216   2.980  1.00  0.00     0.020 A 
ATOM     76  C   UNL     1       2.625  -8.772   2.688  1.00  0.00     0.020 A 
ATOM     77  C   UNL     1       3.982  -8.821   2.353  1.00  0.00     0.054 A 
BRANCH  77  78
ATOM     78  S   UNL     1       5.431  -6.920   2.198  1.00  0.00     0.124 S 
ATOM     79  O   UNL     1       5.897  -6.442   3.507  1.00  0.00    -0.237 OA
ATOM     80  O   UNL     1       6.612  -7.245   1.388  1.00  0.00    -0.237 OA
ATOM     81  O   UNL     1       4.753  -5.775   1.570  1.00  0.00    -0.744 OA
ENDBRANCH  77  78
ENDBRANCH  49  72
BRANCH  61  82
ATOM     82  C   UNL     1      -5.336 -10.310   1.542  1.00  0.00    -0.014 A 
ATOM     83  C   UNL     1      -5.821  -9.594   2.642  1.00  0.00     0.010 A 
ATOM     84  C   UNL     1      -6.264 -10.575   0.497  1.00  0.00     0.010 A 
ATOM     85  C   UNL     1      -7.182  -9.245   2.734  1.00  0.00     0.020 A 
ATOM     86  C   UNL     1      -7.603 -10.193   0.555  1.00  0.00     0.020 A 
ATOM     87  C   UNL     1      -8.066  -9.565   1.699  1.00  0.00     0.054 A 
BRANCH  87  88
ATOM     88  S   UNL     1      -9.823  -9.155   1.846  1.00  0.00     0.124 S 
ATOM     89  O   UNL     1     -10.319 -10.261   2.661  1.00  0.00    -0.237 OA
ATOM     90  O   UNL     1      -9.800  -7.851   2.504  1.00  0.00    -0.237 OA
ATOM     91  O   UNL     1     -10.293  -9.139   0.463  1.00  0.00    -0.744 OA
ENDBRANCH  87  88
ENDBRANCH  61  82
ENDBRANCH  35  36
ENDBRANCH  28  30
ENDBRANCH  27  28
ENDBRANCH  26  27
ENDBRANCH   1  26
TORSDOF 20
