REMARK SMILES Cc1cc(C(=O)OCCOC(=O)c2ccc(-c3c4nc(c(-c5ccc(S(=O)(=O)[O-])cc5)c5ccc([nH]5)c(-c5ccc(S(=O)(=O)[O-])cc5)c5nc(c(-c6ccc(S(=O)(=O)[O-])cc6)c6ccc3[nH]6)C=C5)C=C4)cc2)ccc1NS(=O)(=O)c1ccc(C#N)cc1C
REMARK SMILES IDX 8 1 7 2 5 3 6 4 4 5 1 6 2 7 3 8 75 9 74 10 73 11 76 12 77 14
REMARK SMILES IDX 78 15 79 16 80 17 81 18 87 19 82 20 86 21 88 22 83 23 84 24
REMARK SMILES IDX 85 25 9 26 10 27 11 28 12 29 13 30 14 31 72 32 15 33 71 34
REMARK SMILES IDX 16 35 17 36 18 37 65 38 19 39 70 40 64 41 66 42 20 43 69 44
REMARK SMILES IDX 63 45 62 46 21 48 51 49 32 50 50 51 33 52 36 53 49 54 67 55
REMARK SMILES IDX 34 56 35 57 48 59 68 60 37 61 22 62 23 63 31 64 24 65 30 66
REMARK SMILES IDX 25 67 26 68 27 69 28 70 29 71 52 72 53 73 61 74 54 75 60 76
REMARK SMILES IDX 55 77 56 78 57 79 58 80 59 81 38 82 39 83 47 84 40 85 46 86
REMARK SMILES IDX 41 87 42 88 43 89 44 90 45 91
REMARK H PARENT 76 13 66 47 36 58
REMARK Flexibility Score: inf
ROOT
ATOM      1  C   UNL     1      -4.242  -2.513  -1.733  1.00  0.00     0.275 C 
ENDROOT
BRANCH   1   2
ATOM      2  O   UNL     1      -3.103  -1.699  -2.062  1.00  0.00    -0.458 OA
BRANCH   2   3
ATOM      3  C   UNL     1      -2.572  -1.022  -1.018  1.00  0.00     0.338 C 
ATOM      4  O   UNL     1      -3.060  -0.908   0.098  1.00  0.00    -0.246 OA
BRANCH   3   5
ATOM      5  C   UNL     1      -1.396  -0.216  -1.383  1.00  0.00     0.060 A 
ATOM      6  C   UNL     1       2.141   0.311  -0.097  1.00  0.00     0.046 C 
ATOM      7  C   UNL     1       0.766   0.612  -0.630  1.00  0.00    -0.026 A 
ATOM      8  C   UNL     1      -0.144  -0.435  -0.794  1.00  0.00     0.021 A 
ATOM      9  C   UNL     1       0.303   1.897  -0.913  1.00  0.00     0.052 A 
ATOM     10  C   UNL     1      -0.788   2.066  -1.773  1.00  0.00     0.028 A 
ATOM     11  C   UNL     1      -1.666   1.006  -1.983  1.00  0.00     0.018 A 
BRANCH   9  12
ATOM     12  N   UNL     1       0.788   2.958  -0.092  1.00  0.00    -0.279 N 
ATOM     13  H   UNL     1       1.642   2.818   0.377  1.00  0.00     0.180 HD
BRANCH  12  14
ATOM     14  S   UNL     1       0.010   4.422   0.132  1.00  0.00     0.262 S 
ATOM     15  O   UNL     1       0.563   4.996   1.340  1.00  0.00    -0.201 OA
ATOM     16  O   UNL     1       0.099   5.120  -1.136  1.00  0.00    -0.201 OA
BRANCH  14  17
ATOM     17  C   UNL     1      -1.747   4.146   0.453  1.00  0.00     0.090 A 
ATOM     18  C   UNL     1      -2.229   2.884   0.838  1.00  0.00     0.024 A 
ATOM     19  C   UNL     1      -2.663   5.167   0.122  1.00  0.00    -0.029 A 
ATOM     20  C   UNL     1      -3.596   2.584   0.722  1.00  0.00     0.021 A 
ATOM     21  C   UNL     1      -4.030   4.846   0.014  1.00  0.00     0.024 A 
ATOM     22  C   UNL     1      -2.285   6.610  -0.076  1.00  0.00     0.046 C 
ATOM     23  C   UNL     1      -4.492   3.551   0.265  1.00  0.00     0.052 A 
BRANCH  23  24
ATOM     24  C   UNL     1      -5.873   3.229   0.009  1.00  0.00     0.099 C 
ATOM     25  N   UNL     1      -6.971   3.002  -0.254  1.00  0.00    -0.192 NA
ENDBRANCH  23  24
ENDBRANCH  14  17
ENDBRANCH  12  14
ENDBRANCH   9  12
ENDBRANCH   3   5
ENDBRANCH   2   3
ENDBRANCH   1   2
BRANCH   1  26
ATOM     26  C   UNL     1      -4.270  -3.841  -2.524  1.00  0.00     0.275 C 
BRANCH  26  27
ATOM     27  O   UNL     1      -3.160  -4.770  -2.451  1.00  0.00    -0.458 OA
BRANCH  27  28
ATOM     28  C   UNL     1      -1.970  -4.293  -2.002  1.00  0.00     0.338 C 
ATOM     29  O   UNL     1      -1.203  -3.647  -2.692  1.00  0.00    -0.246 OA
BRANCH  28  30
ATOM     30  C   UNL     1      -1.967  -4.358  -0.517  1.00  0.00     0.060 A 
ATOM     31  C   UNL     1      -1.025  -3.599   0.183  1.00  0.00     0.016 A 
ATOM     32  C   UNL     1      -3.120  -4.823   0.114  1.00  0.00     0.016 A 
ATOM     33  C   UNL     1      -1.287  -3.172   1.473  1.00  0.00     0.010 A 
ATOM     34  C   UNL     1      -3.485  -4.245   1.293  1.00  0.00     0.010 A 
ATOM     35  C   UNL     1      -2.536  -3.485   1.992  1.00  0.00    -0.014 A 
BRANCH  35  36
ATOM     36  C   UNL     1      -2.825  -3.474   3.408  1.00  0.00     0.031 A 
ATOM     37  C   UNL     1      -3.399  -2.249   3.994  1.00  0.00     0.074 A 
ATOM     38  C   UNL     1      -2.685  -4.751   3.855  1.00  0.00     0.049 A 
ATOM     39  N   UNL     1      -3.329  -1.926   5.232  1.00  0.00    -0.248 NA
ATOM     40  C   UNL     1      -4.054  -1.188   3.210  1.00  0.00     0.031 C 
ATOM     41  C   UNL     1      -3.133  -5.490   5.015  1.00  0.00     0.029 A 
ATOM     42  N   UNL     1      -1.864  -5.695   3.204  1.00  0.00    -0.354 N 
ATOM     43  C   UNL     1      -4.315  -0.974   5.441  1.00  0.00     0.074 A 
ATOM     44  C   UNL     1      -4.542  -0.375   4.159  1.00  0.00     0.031 C 
ATOM     45  C   UNL     1      -2.320  -6.561   5.179  1.00  0.00     0.029 A 
ATOM     46  C   UNL     1      -1.271  -6.499   4.159  1.00  0.00     0.049 A 
ATOM     47  H   UNL     1      -1.736  -5.770   2.231  1.00  0.00     0.167 HD
ATOM     48  C   UNL     1      -5.018  -1.025   6.609  1.00  0.00     0.031 A 
ATOM     49  C   UNL     1       0.058  -6.250   4.367  1.00  0.00     0.031 A 
ATOM     50  C   UNL     1      -4.505  -2.146   7.397  1.00  0.00     0.049 A 
ATOM     51  C   UNL     1       0.175  -5.475   5.661  1.00  0.00     0.074 A 
ATOM     52  C   UNL     1      -4.939  -3.455   7.514  1.00  0.00     0.029 A 
ATOM     53  N   UNL     1      -3.174  -2.128   7.783  1.00  0.00    -0.354 N 
ATOM     54  N   UNL     1      -0.657  -4.544   6.061  1.00  0.00    -0.248 NA
ATOM     55  C   UNL     1       1.115  -5.892   6.693  1.00  0.00     0.031 C 
ATOM     56  C   UNL     1      -3.806  -4.243   7.869  1.00  0.00     0.029 A 
ATOM     57  C   UNL     1      -2.690  -3.419   7.904  1.00  0.00     0.049 A 
ATOM     58  H   UNL     1      -2.647  -1.313   7.949  1.00  0.00     0.167 HD
ATOM     59  C   UNL     1      -0.482  -4.353   7.408  1.00  0.00     0.074 A 
ATOM     60  C   UNL     1       0.661  -5.194   7.744  1.00  0.00     0.031 C 
ATOM     61  C   UNL     1      -1.289  -3.623   8.236  1.00  0.00     0.031 A 
BRANCH  48  62
ATOM     62  C   UNL     1      -6.327  -0.344   6.952  1.00  0.00    -0.014 A 
ATOM     63  C   UNL     1      -7.017  -0.796   8.101  1.00  0.00     0.010 A 
ATOM     64  C   UNL     1      -6.944   0.699   6.233  1.00  0.00     0.010 A 
ATOM     65  C   UNL     1      -8.254  -0.276   8.498  1.00  0.00     0.020 A 
ATOM     66  C   UNL     1      -8.192   1.236   6.625  1.00  0.00     0.020 A 
ATOM     67  C   UNL     1      -8.840   0.740   7.755  1.00  0.00     0.054 A 
BRANCH  67  68
ATOM     68  S   UNL     1     -10.437   1.395   8.316  1.00  0.00     0.124 S 
ATOM     69  O   UNL     1     -11.306   0.224   8.221  1.00  0.00    -0.237 OA
ATOM     70  O   UNL     1     -10.135   1.843   9.673  1.00  0.00    -0.237 OA
ATOM     71  O   UNL     1     -10.730   2.462   7.362  1.00  0.00    -0.744 OA
ENDBRANCH  67  68
ENDBRANCH  48  62
BRANCH  49  72
ATOM     72  C   UNL     1       0.866  -6.068   3.096  1.00  0.00    -0.014 A 
ATOM     73  C   UNL     1       0.749  -7.082   2.106  1.00  0.00     0.010 A 
ATOM     74  C   UNL     1       1.513  -4.880   2.716  1.00  0.00     0.010 A 
ATOM     75  C   UNL     1       1.130  -6.875   0.772  1.00  0.00     0.020 A 
ATOM     76  C   UNL     1       1.933  -4.678   1.376  1.00  0.00     0.020 A 
ATOM     77  C   UNL     1       1.707  -5.664   0.407  1.00  0.00     0.054 A 
BRANCH  77  78
ATOM     78  S   UNL     1       1.917  -5.316  -1.377  1.00  0.00     0.124 S 
ATOM     79  O   UNL     1       3.170  -5.998  -1.683  1.00  0.00    -0.237 OA
ATOM     80  O   UNL     1       0.717  -5.927  -1.947  1.00  0.00    -0.237 OA
ATOM     81  O   UNL     1       1.968  -3.857  -1.424  1.00  0.00    -0.744 OA
ENDBRANCH  77  78
ENDBRANCH  49  72
BRANCH  61  82
ATOM     82  C   UNL     1      -0.803  -3.052   9.542  1.00  0.00    -0.014 A 
ATOM     83  C   UNL     1       0.557  -2.925   9.851  1.00  0.00     0.010 A 
ATOM     84  C   UNL     1      -1.729  -2.459  10.434  1.00  0.00     0.010 A 
ATOM     85  C   UNL     1       0.970  -2.361  11.055  1.00  0.00     0.020 A 
ATOM     86  C   UNL     1      -1.322  -1.806  11.592  1.00  0.00     0.020 A 
ATOM     87  C   UNL     1       0.025  -1.814  11.920  1.00  0.00     0.054 A 
BRANCH  87  88
ATOM     88  S   UNL     1       0.584  -1.108  13.478  1.00  0.00     0.124 S 
ATOM     89  O   UNL     1       0.778  -2.308  14.287  1.00  0.00    -0.237 OA
ATOM     90  O   UNL     1       1.807  -0.407  13.092  1.00  0.00    -0.237 OA
ATOM     91  O   UNL     1      -0.522  -0.246  13.884  1.00  0.00    -0.744 OA
ENDBRANCH  87  88
ENDBRANCH  61  82
ENDBRANCH  35  36
ENDBRANCH  28  30
ENDBRANCH  27  28
ENDBRANCH  26  27
ENDBRANCH   1  26
TORSDOF 18
