REMARK SMILES Cc1cc(C(=O)N[C@@H]2C(=O)N3C(C(=O)OCCOC(=O)c4ccc(-c5c6nc(c(-c7ccc(S(=O)(=O)[O-])cc7)c7ccc([nH]7)c(-c7ccc(S(=O)(=O)[O-])cc7)c7nc(c(-c8ccc(S(=O)(=O)[O-])cc8)c8ccc5[nH]8)C=C7)C=C6)cc4)=C(CSc4nnc(C)s4)CS[C@H]23)n(C)n1
REMARK SMILES IDX 16 1 15 2 13 3 14 4 12 5 8 6 9 7 92 8 10 9 11 10 91 11 90 12
REMARK SMILES IDX 81 13 7 14 5 15 6 16 4 18 1 19 2 20 3 21 95 22 93 23 94 24
REMARK SMILES IDX 82 25 83 26 84 27 85 28 89 29 86 30 87 31 88 32 17 33 18 34
REMARK SMILES IDX 19 35 20 36 21 37 22 38 80 39 23 40 79 41 24 42 25 43 26 44
REMARK SMILES IDX 73 45 27 46 78 47 72 48 74 49 28 50 77 51 71 52 70 53 29 55
REMARK SMILES IDX 59 56 40 57 58 58 41 59 44 60 57 61 75 62 42 63 43 64 56 66
REMARK SMILES IDX 76 67 45 68 30 69 31 70 39 71 32 72 38 73 33 74 34 75 35 76
REMARK SMILES IDX 36 77 37 78 60 79 61 80 69 81 62 82 68 83 63 84 64 85 65 86
REMARK SMILES IDX 66 87 67 88 46 89 47 90 55 91 48 92 54 93 49 94 50 95 51 96
REMARK SMILES IDX 52 97 53 98
REMARK H PARENT 7 17 74 54 44 65
REMARK Flexibility Score: inf
ROOT
ATOM      1  C   UNL     1      -3.863   0.682  -3.364  1.00  0.00     0.275 C 
ENDROOT
BRANCH   1   2
ATOM      2  O   UNL     1      -3.990  -0.682  -2.910  1.00  0.00    -0.457 OA
BRANCH   2   3
ATOM      3  C   UNL     1      -2.856  -1.412  -2.898  1.00  0.00     0.355 C 
ATOM      4  O   UNL     1      -1.746  -1.017  -3.236  1.00  0.00    -0.244 OA
BRANCH   3   5
ATOM      5  C   UNL     1      -3.071  -2.834  -2.475  1.00  0.00     0.132 C 
ATOM      6  C   UNL     1      -0.856  -4.284  -0.333  1.00  0.00     0.206 C 
ATOM      7  C   UNL     1      -1.967  -3.180  -0.271  1.00  0.00     0.253 C 
ATOM      8  C   UNL     1      -1.616  -4.665  -1.651  1.00  0.00     0.181 C 
ATOM      9  O   UNL     1      -2.536  -2.523   0.571  1.00  0.00    -0.272 OA
ATOM     10  N   UNL     1      -2.125  -3.307  -1.614  1.00  0.00    -0.289 N 
ATOM     11  S   UNL     1      -3.031  -5.793  -1.497  1.00  0.00    -0.129 SA
ATOM     12  C   UNL     1      -3.855  -5.186  -2.985  1.00  0.00     0.106 C 
ATOM     13  C   UNL     1      -3.881  -3.674  -3.161  1.00  0.00    -0.019 C 
BRANCH   6  14
ATOM     14  N   UNL     1      -0.750  -5.226   0.798  1.00  0.00    -0.336 N 
ATOM     15  C   UNL     1      -0.215  -6.496   0.833  1.00  0.00     0.270 C 
ATOM     16  O   UNL     1      -0.163  -7.061   1.922  1.00  0.00    -0.268 OA
ATOM     17  H   UNL     1      -1.114  -4.900   1.653  1.00  0.00     0.164 HD
BRANCH  15  18
ATOM     18  C   UNL     1       0.169  -7.124  -0.408  1.00  0.00     0.126 A 
ATOM     19  C   UNL     1       0.572  -7.394  -4.027  1.00  0.00     0.069 C 
ATOM     20  C   UNL     1       0.494  -7.568  -2.558  1.00  0.00     0.060 A 
ATOM     21  C   UNL     1       0.756  -6.613  -1.554  1.00  0.00     0.059 A 
ATOM     22  N   UNL     1       0.056  -8.713  -2.033  1.00  0.00    -0.178 NA
ATOM     23  N   UNL     1      -0.019  -8.455  -0.706  1.00  0.00    -0.263 N 
ATOM     24  C   UNL     1      -0.355  -9.551   0.172  1.00  0.00     0.174 C 
ENDBRANCH  15  18
ENDBRANCH   6  14
BRANCH  13  25
ATOM     25  C   UNL     1      -4.799  -3.249  -4.285  1.00  0.00     0.111 C 
BRANCH  25  26
ATOM     26  S   UNL     1      -6.332  -2.406  -3.831  1.00  0.00    -0.089 SA
BRANCH  26  27
ATOM     27  C   UNL     1      -6.721  -3.000  -2.241  1.00  0.00     0.174 A 
ATOM     28  N   UNL     1      -6.761  -4.279  -1.949  1.00  0.00    -0.132 NA
ATOM     29  S   UNL     1      -7.198  -1.965  -0.961  1.00  0.00    -0.091 S 
ATOM     30  N   UNL     1      -7.175  -4.500  -0.648  1.00  0.00    -0.143 NA
ATOM     31  C   UNL     1      -7.457  -3.377  -0.019  1.00  0.00     0.115 A 
ATOM     32  C   UNL     1      -7.999  -3.293   1.363  1.00  0.00     0.081 C 
ENDBRANCH  26  27
ENDBRANCH  25  26
ENDBRANCH  13  25
ENDBRANCH   3   5
ENDBRANCH   2   3
ENDBRANCH   1   2
BRANCH   1  33
ATOM     33  C   UNL     1      -3.985   1.643  -2.189  1.00  0.00     0.275 C 
BRANCH  33  34
ATOM     34  O   UNL     1      -2.850   1.472  -1.324  1.00  0.00    -0.458 OA
BRANCH  34  35
ATOM     35  C   UNL     1      -3.103   0.800  -0.177  1.00  0.00     0.338 C 
ATOM     36  O   UNL     1      -4.190   0.427   0.229  1.00  0.00    -0.246 OA
BRANCH  35  37
ATOM     37  C   UNL     1      -1.839   0.575   0.543  1.00  0.00     0.060 A 
ATOM     38  C   UNL     1      -0.840  -0.208  -0.033  1.00  0.00     0.016 A 
ATOM     39  C   UNL     1      -1.717   1.007   1.861  1.00  0.00     0.016 A 
ATOM     40  C   UNL     1       0.202  -0.686   0.758  1.00  0.00     0.010 A 
ATOM     41  C   UNL     1      -0.593   0.638   2.608  1.00  0.00     0.010 A 
ATOM     42  C   UNL     1       0.356  -0.260   2.086  1.00  0.00    -0.014 A 
BRANCH  42  43
ATOM     43  C   UNL     1       1.482  -0.765   2.928  1.00  0.00     0.031 A 
ATOM     44  C   UNL     1       1.216  -1.371   4.288  1.00  0.00     0.074 A 
ATOM     45  C   UNL     1       2.754  -0.686   2.483  1.00  0.00     0.049 A 
ATOM     46  N   UNL     1       2.065  -1.660   5.243  1.00  0.00    -0.248 NA
ATOM     47  C   UNL     1      -0.185  -1.672   4.627  1.00  0.00     0.031 C 
ATOM     48  C   UNL     1       3.169  -0.170   1.176  1.00  0.00     0.029 A 
ATOM     49  N   UNL     1       3.938  -1.048   3.080  1.00  0.00    -0.354 N 
ATOM     50  C   UNL     1       1.299  -2.101   6.319  1.00  0.00     0.074 A 
ATOM     51  C   UNL     1      -0.084  -2.047   5.896  1.00  0.00     0.031 C 
ATOM     52  C   UNL     1       4.496  -0.304   1.047  1.00  0.00     0.029 A 
ATOM     53  C   UNL     1       5.045  -0.795   2.304  1.00  0.00     0.049 A 
ATOM     54  H   UNL     1       3.989  -1.450   3.978  1.00  0.00     0.167 HD
ATOM     55  C   UNL     1       1.710  -2.502   7.547  1.00  0.00     0.031 A 
ATOM     56  C   UNL     1       6.360  -0.884   2.577  1.00  0.00     0.031 A 
ATOM     57  C   UNL     1       3.093  -2.605   7.943  1.00  0.00     0.049 A 
ATOM     58  C   UNL     1       6.794  -1.305   3.950  1.00  0.00     0.074 A 
ATOM     59  C   UNL     1       3.612  -3.023   9.157  1.00  0.00     0.029 A 
ATOM     60  N   UNL     1       4.176  -2.307   7.130  1.00  0.00    -0.354 N 
ATOM     61  N   UNL     1       6.053  -1.648   4.976  1.00  0.00    -0.248 NA
ATOM     62  C   UNL     1       8.239  -1.331   4.207  1.00  0.00     0.031 C 
ATOM     63  C   UNL     1       5.007  -2.930   9.093  1.00  0.00     0.029 A 
ATOM     64  C   UNL     1       5.359  -2.512   7.820  1.00  0.00     0.049 A 
ATOM     65  H   UNL     1       4.113  -1.994   6.198  1.00  0.00     0.167 HD
ATOM     66  C   UNL     1       6.944  -1.936   6.002  1.00  0.00     0.074 A 
ATOM     67  C   UNL     1       8.277  -1.752   5.464  1.00  0.00     0.031 C 
ATOM     68  C   UNL     1       6.679  -2.314   7.277  1.00  0.00     0.031 A 
BRANCH  55  69
ATOM     69  C   UNL     1       0.653  -2.810   8.581  1.00  0.00    -0.014 A 
ATOM     70  C   UNL     1      -0.156  -3.957   8.502  1.00  0.00     0.010 A 
ATOM     71  C   UNL     1       0.502  -1.946   9.683  1.00  0.00     0.010 A 
ATOM     72  C   UNL     1      -1.123  -4.210   9.482  1.00  0.00     0.020 A 
ATOM     73  C   UNL     1      -0.443  -2.211  10.679  1.00  0.00     0.020 A 
ATOM     74  C   UNL     1      -1.264  -3.333  10.562  1.00  0.00     0.054 A 
BRANCH  74  75
ATOM     75  S   UNL     1      -2.516  -3.690  11.826  1.00  0.00     0.124 S 
ATOM     76  O   UNL     1      -3.755  -3.355  11.127  1.00  0.00    -0.237 OA
ATOM     77  O   UNL     1      -2.310  -5.112  12.091  1.00  0.00    -0.237 OA
ATOM     78  O   UNL     1      -2.163  -2.798  12.927  1.00  0.00    -0.744 OA
ENDBRANCH  74  75
ENDBRANCH  55  69
BRANCH  56  79
ATOM     79  C   UNL     1       7.353  -0.500   1.536  1.00  0.00    -0.014 A 
ATOM     80  C   UNL     1       8.157  -1.473   0.919  1.00  0.00     0.010 A 
ATOM     81  C   UNL     1       7.457   0.841   1.117  1.00  0.00     0.010 A 
ATOM     82  C   UNL     1       9.042  -1.114  -0.102  1.00  0.00     0.020 A 
ATOM     83  C   UNL     1       8.314   1.197   0.073  1.00  0.00     0.020 A 
ATOM     84  C   UNL     1       9.106   0.217  -0.526  1.00  0.00     0.054 A 
BRANCH  84  85
ATOM     85  S   UNL     1      10.188   0.645  -1.918  1.00  0.00     0.124 S 
ATOM     86  O   UNL     1      11.508   0.618  -1.296  1.00  0.00    -0.237 OA
ATOM     87  O   UNL     1       9.915  -0.427  -2.872  1.00  0.00    -0.237 OA
ATOM     88  O   UNL     1       9.713   1.965  -2.326  1.00  0.00    -0.744 OA
ENDBRANCH  84  85
ENDBRANCH  56  79
BRANCH  68  89
ATOM     89  C   UNL     1       7.861  -2.581   8.169  1.00  0.00    -0.014 A 
ATOM     90  C   UNL     1       8.652  -1.530   8.665  1.00  0.00     0.010 A 
ATOM     91  C   UNL     1       8.167  -3.904   8.538  1.00  0.00     0.010 A 
ATOM     92  C   UNL     1       9.752  -1.800   9.484  1.00  0.00     0.020 A 
ATOM     93  C   UNL     1       9.249  -4.175   9.378  1.00  0.00     0.020 A 
ATOM     94  C   UNL     1      10.045  -3.122   9.832  1.00  0.00     0.054 A 
BRANCH  94  95
ATOM     95  S   UNL     1      11.463  -3.445  10.917  1.00  0.00     0.124 S 
ATOM     96  O   UNL     1      12.590  -3.232  10.014  1.00  0.00    -0.237 OA
ATOM     97  O   UNL     1      11.299  -2.443  11.967  1.00  0.00    -0.237 OA
ATOM     98  O   UNL     1      11.261  -4.827  11.347  1.00  0.00    -0.744 OA
ENDBRANCH  94  95
ENDBRANCH  68  89
ENDBRANCH  42  43
ENDBRANCH  35  37
ENDBRANCH  34  35
ENDBRANCH  33  34
ENDBRANCH   1  33
TORSDOF 19
