REMARK SMILES O=C(OCCOC(=O)[C@@H]1CCCN1S(=O)(=O)c1ccc(Br)c2ccccc12)c1ccc(-c2c3nc(c(-c4ccc(S(=O)(=O)[O-])cc4)c4ccc([nH]4)c(-c4ccc(S(=O)(=O)[O-])cc4)c4nc(c(-c5ccc(S(=O)(=O)[O-])cc5)c5ccc2[nH]5)C=C4)C=C3)cc1
REMARK SMILES IDX 4 1 3 2 2 3 1 4 28 5 29 6 87 7 30 8 86 9 31 10 32 11 33 12
REMARK SMILES IDX 80 13 34 14 85 15 79 16 81 17 35 18 84 19 78 20 77 21 36 23
REMARK SMILES IDX 66 24 47 25 65 26 48 27 51 28 64 29 82 30 49 31 50 32 63 34
REMARK SMILES IDX 83 35 52 36 37 37 38 38 46 39 39 40 45 41 40 42 41 43 42 44
REMARK SMILES IDX 43 45 44 46 67 47 68 48 76 49 69 50 75 51 70 52 71 53 72 54
REMARK SMILES IDX 73 55 74 56 53 57 54 58 62 59 55 60 61 61 56 62 57 63 58 64
REMARK SMILES IDX 59 65 60 66 5 67 6 68 7 69 8 70 9 71 10 72 13 73 11 74 12 75
REMARK SMILES IDX 14 76 15 77 16 78 17 79 18 80 27 81 19 82 22 83 26 84 20 85
REMARK SMILES IDX 23 86 25 87 21 88 24 89
REMARK H PARENT 81 22 51 33
REMARK Flexibility Score: inf
ROOT
ATOM      1  C   UNL     1       4.794  -1.415   0.372  1.00  0.00     0.275 C 
ENDROOT
BRANCH   1   2
ATOM      2  O   UNL     1       3.987  -0.503   1.133  1.00  0.00    -0.458 OA
BRANCH   2   3
ATOM      3  C   UNL     1       4.104   0.851   1.154  1.00  0.00     0.338 C 
ATOM      4  O   UNL     1       3.711   1.492   2.122  1.00  0.00    -0.246 OA
BRANCH   3   5
ATOM      5  C   UNL     1       4.492   1.569  -0.087  1.00  0.00     0.060 A 
ATOM      6  C   UNL     1       5.650   1.299  -0.823  1.00  0.00     0.016 A 
ATOM      7  C   UNL     1       3.646   2.603  -0.506  1.00  0.00     0.016 A 
ATOM      8  C   UNL     1       5.897   1.949  -2.034  1.00  0.00     0.010 A 
ATOM      9  C   UNL     1       3.898   3.269  -1.708  1.00  0.00     0.010 A 
ATOM     10  C   UNL     1       5.018   2.932  -2.489  1.00  0.00    -0.014 A 
BRANCH  10  11
ATOM     11  C   UNL     1       5.381   3.788  -3.640  1.00  0.00     0.031 A 
ATOM     12  C   UNL     1       5.869   5.169  -3.316  1.00  0.00     0.074 A 
ATOM     13  C   UNL     1       5.248   3.381  -4.917  1.00  0.00     0.049 A 
ATOM     14  N   UNL     1       6.177   6.149  -4.119  1.00  0.00    -0.248 NA
ATOM     15  C   UNL     1       6.019   5.484  -1.883  1.00  0.00     0.031 C 
ATOM     16  C   UNL     1       4.839   2.049  -5.357  1.00  0.00     0.029 A 
ATOM     17  N   UNL     1       5.412   4.072  -6.092  1.00  0.00    -0.354 N 
ATOM     18  C   UNL     1       6.550   7.196  -3.286  1.00  0.00     0.074 A 
ATOM     19  C   UNL     1       6.345   6.763  -1.924  1.00  0.00     0.031 C 
ATOM     20  C   UNL     1       4.684   2.045  -6.692  1.00  0.00     0.029 A 
ATOM     21  C   UNL     1       5.038   3.361  -7.210  1.00  0.00     0.049 A 
ATOM     22  H   UNL     1       5.765   4.990  -6.131  1.00  0.00     0.167 HD
ATOM     23  C   UNL     1       7.066   8.399  -3.623  1.00  0.00     0.031 A 
ATOM     24  C   UNL     1       5.004   3.730  -8.507  1.00  0.00     0.031 A 
ATOM     25  C   UNL     1       7.268   8.812  -4.978  1.00  0.00     0.049 A 
ATOM     26  C   UNL     1       5.545   5.085  -8.874  1.00  0.00     0.074 A 
ATOM     27  C   UNL     1       7.811   9.988  -5.454  1.00  0.00     0.029 A 
ATOM     28  N   UNL     1       6.924   8.043  -6.082  1.00  0.00    -0.354 N 
ATOM     29  N   UNL     1       5.977   6.036  -8.078  1.00  0.00    -0.248 NA
ATOM     30  C   UNL     1       5.652   5.400 -10.305  1.00  0.00     0.031 C 
ATOM     31  C   UNL     1       7.773   9.940  -6.852  1.00  0.00     0.029 A 
ATOM     32  C   UNL     1       7.242   8.717  -7.242  1.00  0.00     0.049 A 
ATOM     33  H   UNL     1       6.514   7.149  -6.041  1.00  0.00     0.167 HD
ATOM     34  C   UNL     1       6.462   7.037  -8.911  1.00  0.00     0.074 A 
ATOM     35  C   UNL     1       6.250   6.585 -10.272  1.00  0.00     0.031 C 
ATOM     36  C   UNL     1       7.046   8.214  -8.580  1.00  0.00     0.031 A 
BRANCH  23  37
ATOM     37  C   UNL     1       7.420   9.308  -2.478  1.00  0.00    -0.014 A 
ATOM     38  C   UNL     1       8.475   8.980  -1.604  1.00  0.00     0.010 A 
ATOM     39  C   UNL     1       6.608  10.417  -2.191  1.00  0.00     0.010 A 
ATOM     40  C   UNL     1       8.641   9.677  -0.406  1.00  0.00     0.020 A 
ATOM     41  C   UNL     1       6.795  11.140  -1.009  1.00  0.00     0.020 A 
ATOM     42  C   UNL     1       7.782  10.737  -0.105  1.00  0.00     0.054 A 
BRANCH  42  43
ATOM     43  S   UNL     1       7.947  11.564   1.500  1.00  0.00     0.124 S 
ATOM     44  O   UNL     1       7.275  10.622   2.391  1.00  0.00    -0.237 OA
ATOM     45  O   UNL     1       9.395  11.661   1.668  1.00  0.00    -0.237 OA
ATOM     46  O   UNL     1       7.260  12.838   1.302  1.00  0.00    -0.744 OA
ENDBRANCH  42  43
ENDBRANCH  23  37
BRANCH  24  47
ATOM     47  C   UNL     1       4.508   2.781  -9.542  1.00  0.00    -0.014 A 
ATOM     48  C   UNL     1       5.405   2.093 -10.377  1.00  0.00     0.010 A 
ATOM     49  C   UNL     1       3.128   2.536  -9.678  1.00  0.00     0.010 A 
ATOM     50  C   UNL     1       4.935   1.188 -11.335  1.00  0.00     0.020 A 
ATOM     51  C   UNL     1       2.654   1.619 -10.624  1.00  0.00     0.020 A 
ATOM     52  C   UNL     1       3.561   0.955 -11.452  1.00  0.00     0.054 A 
BRANCH  52  53
ATOM     53  S   UNL     1       2.983  -0.267 -12.665  1.00  0.00     0.124 S 
ATOM     54  O   UNL     1       3.237   0.415 -13.930  1.00  0.00    -0.237 OA
ATOM     55  O   UNL     1       3.840  -1.416 -12.382  1.00  0.00    -0.237 OA
ATOM     56  O   UNL     1       1.575  -0.450 -12.322  1.00  0.00    -0.744 OA
ENDBRANCH  52  53
ENDBRANCH  24  47
BRANCH  36  57
ATOM     57  C   UNL     1       7.564   9.079  -9.693  1.00  0.00    -0.014 A 
ATOM     58  C   UNL     1       6.696   9.894 -10.437  1.00  0.00     0.010 A 
ATOM     59  C   UNL     1       8.955   9.197  -9.870  1.00  0.00     0.010 A 
ATOM     60  C   UNL     1       7.216  10.834 -11.328  1.00  0.00     0.020 A 
ATOM     61  C   UNL     1       9.477  10.150 -10.745  1.00  0.00     0.020 A 
ATOM     62  C   UNL     1       8.603  10.967 -11.464  1.00  0.00     0.054 A 
BRANCH  62  63
ATOM     63  S   UNL     1       9.253  12.295 -12.514  1.00  0.00     0.124 S 
ATOM     64  O   UNL     1       9.028  11.760 -13.854  1.00  0.00    -0.237 OA
ATOM     65  O   UNL     1       8.418  13.435 -12.143  1.00  0.00    -0.237 OA
ATOM     66  O   UNL     1      10.653  12.400 -12.111  1.00  0.00    -0.744 OA
ENDBRANCH  62  63
ENDBRANCH  36  57
ENDBRANCH  10  11
ENDBRANCH   3   5
ENDBRANCH   2   3
ENDBRANCH   1   2
BRANCH   1  67
ATOM     67  C   UNL     1       4.185  -1.895  -0.952  1.00  0.00     0.274 C 
BRANCH  67  68
ATOM     68  O   UNL     1       3.348  -0.928  -1.611  1.00  0.00    -0.461 OA
BRANCH  68  69
ATOM     69  C   UNL     1       2.265  -1.440  -2.279  1.00  0.00     0.324 C 
ATOM     70  O   UNL     1       1.982  -2.635  -2.299  1.00  0.00    -0.250 OA
BRANCH  69  71
ATOM     71  C   UNL     1       1.464  -0.406  -3.038  1.00  0.00     0.183 C 
ATOM     72  C   UNL     1       2.102   0.960  -3.125  1.00  0.00     0.034 C 
ATOM     73  N   UNL     1       0.022  -0.081  -2.757  1.00  0.00    -0.184 NA
ATOM     74  C   UNL     1       1.093   1.817  -3.858  1.00  0.00     0.019 C 
ATOM     75  C   UNL     1      -0.238   1.083  -3.696  1.00  0.00     0.103 C 
BRANCH  73  76
ATOM     76  S   UNL     1      -0.501   0.288  -1.156  1.00  0.00     0.244 S 
ATOM     77  O   UNL     1       0.444   1.242  -0.598  1.00  0.00    -0.207 OA
ATOM     78  O   UNL     1      -1.889   0.668  -1.247  1.00  0.00    -0.207 OA
BRANCH  76  79
ATOM     79  C   UNL     1      -0.354  -1.218  -0.194  1.00  0.00     0.090 A 
ATOM     80  C   UNL     1       0.901  -1.408   0.393  1.00  0.00     0.023 A 
ATOM     81  C   UNL     1      -1.425  -2.106   0.124  1.00  0.00     0.003 A 
ATOM     82  C   UNL     1       1.204  -2.562   1.094  1.00  0.00     0.018 A 
ATOM     83  C   UNL     1      -1.120  -3.272   0.900  1.00  0.00    -0.003 A 
ATOM     84  C   UNL     1      -2.788  -1.913  -0.222  1.00  0.00     0.010 A 
ATOM     85  C   UNL     1       0.215  -3.508   1.310  1.00  0.00     0.025 A 
ATOM     86  C   UNL     1      -2.170  -4.142   1.279  1.00  0.00     0.010 A 
ATOM     87  C   UNL     1      -3.807  -2.764   0.213  1.00  0.00     0.001 A 
ATOM     88  Br  UNL     1       0.776  -5.087   2.225  1.00  0.00    -0.050 Br
ATOM     89  C   UNL     1      -3.498  -3.880   0.964  1.00  0.00     0.001 A 
ENDBRANCH  76  79
ENDBRANCH  73  76
ENDBRANCH  69  71
ENDBRANCH  68  69
ENDBRANCH  67  68
ENDBRANCH   1  67
TORSDOF 16
