REMARK SMILES Cc1ccc(Cl)c(Nc2ccccc2C(=O)N[C@@H](C)C(=O)OCCOC(=O)c2ccc(-c3c4nc(c(-c5ccc(S(=O)(=O)[O-])cc5)c5ccc([nH]5)c(-c5ccc(S(=O)(=O)[O-])cc5)c5nc(c(-c6ccc(S(=O)(=O)[O-])cc6)c6ccc3[nH]6)C=C5)C=C4)cc2)c1Cl
REMARK SMILES IDX 23 1 22 2 20 3 21 4 18 5 19 6 17 7 15 8 16 9 14 11 9 12
REMARK SMILES IDX 10 13 11 14 13 15 12 16 8 17 7 19 1 20 2 21 3 22 88 23 4 24
REMARK SMILES IDX 89 25 5 26 6 27 24 28 25 29 26 30 27 31 28 32 29 33 87 34
REMARK SMILES IDX 30 35 86 36 31 37 32 38 33 39 80 40 34 41 85 42 79 43 81 44
REMARK SMILES IDX 35 45 84 46 78 47 77 48 36 50 66 51 47 52 65 53 48 54 51 55
REMARK SMILES IDX 64 56 82 57 49 58 50 59 63 61 83 62 52 63 37 64 38 65 46 66
REMARK SMILES IDX 39 67 45 68 40 69 41 70 42 71 43 72 44 73 67 74 68 75 76 76
REMARK SMILES IDX 69 77 75 78 70 79 71 80 72 81 73 82 74 83 53 84 54 85 62 86
REMARK SMILES IDX 55 87 61 88 56 89 57 90 58 91 59 92 60 93
REMARK H PARENT 17 10 8 18 81 49 51 60
REMARK Flexibility Score: inf
ROOT
ATOM      1  C   UNL     1      -1.136   3.021   0.148  1.00  0.00     0.274 C 
ENDROOT
BRANCH   1   2
ATOM      2  O   UNL     1      -1.313   1.649   0.693  1.00  0.00    -0.461 OA
BRANCH   2   3
ATOM      3  C   UNL     1      -0.763   1.169   1.870  1.00  0.00     0.328 C 
ATOM      4  O   UNL     1      -0.165   1.873   2.657  1.00  0.00    -0.250 OA
BRANCH   3   5
ATOM      5  C   UNL     1      -0.991  -0.430   2.081  1.00  0.00     0.189 C 
ATOM      6  C   UNL     1      -2.260  -0.672   2.897  1.00  0.00     0.043 C 
BRANCH   5   7
ATOM      7  N   UNL     1       0.184  -1.085   2.739  1.00  0.00    -0.339 N 
ATOM      8  C   UNL     1       0.953  -2.235   2.811  1.00  0.00     0.254 C 
ATOM      9  O   UNL     1       1.754  -2.125   3.761  1.00  0.00    -0.269 OA
ATOM     10  H   UNL     1       0.563  -0.438   3.376  1.00  0.00     0.164 HD
BRANCH   8  11
ATOM     11  C   UNL     1       1.061  -3.566   2.033  1.00  0.00     0.063 A 
ATOM     12  C   UNL     1       0.391  -4.079   0.896  1.00  0.00     0.051 A 
ATOM     13  C   UNL     1       0.721  -5.346   0.327  1.00  0.00     0.027 A 
ATOM     14  C   UNL     1       1.821  -6.063   0.755  1.00  0.00     0.002 A 
ATOM     15  C   UNL     1       2.151  -4.378   2.462  1.00  0.00     0.016 A 
ATOM     16  C   UNL     1       2.549  -5.567   1.818  1.00  0.00     0.001 A 
BRANCH  12  17
ATOM     17  N   UNL     1      -0.299  -3.295  -0.024  1.00  0.00    -0.352 N 
ATOM     18  H   UNL     1      -1.232  -3.530  -0.230  1.00  0.00     0.167 HD
BRANCH  17  19
ATOM     19  C   UNL     1       0.272  -2.181  -0.675  1.00  0.00     0.077 A 
ATOM     20  C   UNL     1       3.273   0.095   0.148  1.00  0.00     0.046 C 
ATOM     21  C   UNL     1       1.943  -0.437  -0.296  1.00  0.00    -0.030 A 
ATOM     22  C   UNL     1       0.917   0.445  -0.511  1.00  0.00     0.006 A 
ATOM     23  C   UNL     1       1.630  -1.770  -0.486  1.00  0.00     0.069 A 
ATOM     24  C   UNL     1      -0.332   0.037  -1.027  1.00  0.00     0.023 A 
ATOM     25  Cl  UNL     1       2.946  -2.888  -0.566  1.00  0.00    -0.082 Cl
ATOM     26  C   UNL     1      -0.664  -1.278  -1.133  1.00  0.00     0.066 A 
ATOM     27  Cl  UNL     1      -2.291  -1.706  -1.529  1.00  0.00    -0.082 Cl
ENDBRANCH  17  19
ENDBRANCH  12  17
ENDBRANCH   8  11
ENDBRANCH   5   7
ENDBRANCH   3   5
ENDBRANCH   2   3
ENDBRANCH   1   2
BRANCH   1  28
ATOM     28  C   UNL     1      -0.138   3.349  -1.097  1.00  0.00     0.275 C 
BRANCH  28  29
ATOM     29  O   UNL     1      -0.056   2.424  -2.255  1.00  0.00    -0.458 OA
BRANCH  29  30
ATOM     30  C   UNL     1       1.173   2.265  -2.901  1.00  0.00     0.338 C 
ATOM     31  O   UNL     1       2.097   3.055  -2.772  1.00  0.00    -0.246 OA
BRANCH  30  32
ATOM     32  C   UNL     1       1.378   0.907  -3.609  1.00  0.00     0.060 A 
ATOM     33  C   UNL     1       0.337   0.014  -3.799  1.00  0.00     0.016 A 
ATOM     34  C   UNL     1       2.661   0.405  -3.921  1.00  0.00     0.016 A 
ATOM     35  C   UNL     1       0.592  -1.356  -4.074  1.00  0.00     0.010 A 
ATOM     36  C   UNL     1       2.875  -0.937  -4.405  1.00  0.00     0.010 A 
ATOM     37  C   UNL     1       1.831  -1.869  -4.502  1.00  0.00    -0.014 A 
BRANCH  37  38
ATOM     38  C   UNL     1       1.925  -3.276  -5.131  1.00  0.00     0.031 A 
ATOM     39  C   UNL     1       3.110  -4.246  -4.973  1.00  0.00     0.074 A 
ATOM     40  C   UNL     1       0.914  -3.743  -5.917  1.00  0.00     0.049 A 
ATOM     41  N   UNL     1       3.397  -5.328  -5.675  1.00  0.00    -0.248 NA
ATOM     42  C   UNL     1       4.069  -4.002  -3.889  1.00  0.00     0.031 C 
ATOM     43  C   UNL     1      -0.351  -3.059  -6.197  1.00  0.00     0.029 A 
ATOM     44  N   UNL     1       0.786  -4.918  -6.645  1.00  0.00    -0.354 N 
ATOM     45  C   UNL     1       4.581  -5.858  -5.153  1.00  0.00     0.074 A 
ATOM     46  C   UNL     1       4.941  -4.996  -4.044  1.00  0.00     0.031 C 
ATOM     47  C   UNL     1      -1.146  -3.838  -6.931  1.00  0.00     0.029 A 
ATOM     48  C   UNL     1      -0.379  -4.984  -7.383  1.00  0.00     0.049 A 
ATOM     49  H   UNL     1       1.460  -5.635  -6.636  1.00  0.00     0.167 HD
ATOM     50  C   UNL     1       5.315  -6.934  -5.560  1.00  0.00     0.031 A 
ATOM     51  C   UNL     1      -0.790  -5.757  -8.409  1.00  0.00     0.031 A 
ATOM     52  C   UNL     1       4.975  -7.823  -6.653  1.00  0.00     0.049 A 
ATOM     53  C   UNL     1       0.102  -6.812  -8.971  1.00  0.00     0.074 A 
ATOM     54  C   UNL     1       5.685  -8.922  -7.125  1.00  0.00     0.029 A 
ATOM     55  N   UNL     1       3.846  -7.728  -7.448  1.00  0.00    -0.354 N 
ATOM     56  N   UNL     1       1.272  -7.205  -8.541  1.00  0.00    -0.248 NA
ATOM     57  C   UNL     1      -0.366  -7.498 -10.184  1.00  0.00     0.031 C 
ATOM     58  C   UNL     1       5.021  -9.444  -8.242  1.00  0.00     0.029 A 
ATOM     59  C   UNL     1       3.864  -8.713  -8.429  1.00  0.00     0.049 A 
ATOM     60  H   UNL     1       3.133  -7.058  -7.335  1.00  0.00     0.167 HD
ATOM     61  C   UNL     1       1.685  -8.184  -9.435  1.00  0.00     0.074 A 
ATOM     62  C   UNL     1       0.631  -8.342 -10.414  1.00  0.00     0.031 C 
ATOM     63  C   UNL     1       2.847  -8.877  -9.434  1.00  0.00     0.031 A 
BRANCH  50  64
ATOM     64  C   UNL     1       6.646  -7.206  -4.882  1.00  0.00    -0.014 A 
ATOM     65  C   UNL     1       6.736  -7.835  -3.628  1.00  0.00     0.010 A 
ATOM     66  C   UNL     1       7.837  -6.950  -5.595  1.00  0.00     0.010 A 
ATOM     67  C   UNL     1       7.988  -8.169  -3.088  1.00  0.00     0.020 A 
ATOM     68  C   UNL     1       9.086  -7.301  -5.069  1.00  0.00     0.020 A 
ATOM     69  C   UNL     1       9.156  -7.893  -3.809  1.00  0.00     0.054 A 
BRANCH  69  70
ATOM     70  S   UNL     1      10.764  -8.350  -3.096  1.00  0.00     0.124 S 
ATOM     71  O   UNL     1      10.927  -7.343  -2.050  1.00  0.00    -0.237 OA
ATOM     72  O   UNL     1      10.535  -9.713  -2.624  1.00  0.00    -0.237 OA
ATOM     73  O   UNL     1      11.690  -8.232  -4.220  1.00  0.00    -0.744 OA
ENDBRANCH  69  70
ENDBRANCH  50  64
BRANCH  51  74
ATOM     74  C   UNL     1      -2.079  -5.425  -9.084  1.00  0.00    -0.014 A 
ATOM     75  C   UNL     1      -3.199  -6.259  -8.952  1.00  0.00     0.010 A 
ATOM     76  C   UNL     1      -2.198  -4.219  -9.806  1.00  0.00     0.010 A 
ATOM     77  C   UNL     1      -4.425  -5.878  -9.507  1.00  0.00     0.020 A 
ATOM     78  C   UNL     1      -3.428  -3.818 -10.325  1.00  0.00     0.020 A 
ATOM     79  C   UNL     1      -4.535  -4.653 -10.175  1.00  0.00     0.054 A 
BRANCH  79  80
ATOM     80  S   UNL     1      -6.160  -4.118 -10.776  1.00  0.00     0.124 S 
ATOM     81  O   UNL     1      -6.300  -4.895 -12.002  1.00  0.00    -0.237 OA
ATOM     82  O   UNL     1      -7.046  -4.499  -9.678  1.00  0.00    -0.237 OA
ATOM     83  O   UNL     1      -5.997  -2.677 -10.958  1.00  0.00    -0.744 OA
ENDBRANCH  79  80
ENDBRANCH  51  74
BRANCH  63  84
ATOM     84  C   UNL     1       3.042  -9.893 -10.526  1.00  0.00    -0.014 A 
ATOM     85  C   UNL     1       3.325  -9.491 -11.844  1.00  0.00     0.010 A 
ATOM     86  C   UNL     1       2.938 -11.265 -10.239  1.00  0.00     0.010 A 
ATOM     87  C   UNL     1       3.474 -10.441 -12.860  1.00  0.00     0.020 A 
ATOM     88  C   UNL     1       3.107 -12.220 -11.247  1.00  0.00     0.020 A 
ATOM     89  C   UNL     1       3.362 -11.800 -12.555  1.00  0.00     0.054 A 
BRANCH  89  90
ATOM     90  S   UNL     1       3.588 -13.016 -13.884  1.00  0.00     0.124 S 
ATOM     91  O   UNL     1       2.345 -12.879 -14.637  1.00  0.00    -0.237 OA
ATOM     92  O   UNL     1       4.789 -12.532 -14.560  1.00  0.00    -0.237 OA
ATOM     93  O   UNL     1       3.750 -14.282 -13.172  1.00  0.00    -0.744 OA
ENDBRANCH  89  90
ENDBRANCH  63  84
ENDBRANCH  37  38
ENDBRANCH  30  32
ENDBRANCH  29  30
ENDBRANCH  28  29
ENDBRANCH   1  28
TORSDOF 18
