REMARK SMILES N#C/C(=C\c1ccc(Oc2ccccc2Cl)c([N+](=O)[O-])c1)C(=O)OCCOC(=O)c1ccc(-c2c3nc(c(-c4ccc(S(=O)(=O)[O-])cc4)c4ccc([nH]4)c(-c4ccc(S(=O)(=O)[O-])cc4)c4nc(c(-c5ccc(S(=O)(=O)[O-])cc5)c5ccc2[nH]5)C=C4)C=C3)cc1
REMARK SMILES IDX 25 1 24 2 22 3 23 4 3 5 4 6 2 7 1 8 5 9 6 10 21 11 7 12
REMARK SMILES IDX 17 13 8 14 18 15 19 16 20 17 9 18 10 19 11 20 15 21 12 22
REMARK SMILES IDX 14 23 16 24 13 25 26 26 27 27 28 28 29 29 30 30 31 31 89 32
REMARK SMILES IDX 32 33 88 34 33 35 34 36 35 37 82 38 36 39 87 40 81 41 83 42
REMARK SMILES IDX 37 43 86 44 80 45 79 46 38 48 68 49 49 50 67 51 50 52 53 53
REMARK SMILES IDX 66 54 84 55 51 56 52 57 65 59 85 60 54 61 39 62 40 63 48 64
REMARK SMILES IDX 41 65 47 66 42 67 43 68 44 69 45 70 46 71 69 72 70 73 78 74
REMARK SMILES IDX 71 75 77 76 72 77 73 78 74 79 75 80 76 81 55 82 56 83 64 84
REMARK SMILES IDX 57 85 63 86 58 87 59 88 60 89 61 90 62 91
REMARK H PARENT 83 47 53 58
REMARK Flexibility Score: inf
ROOT
ATOM      1  C   UNL     1       6.422   2.603  -0.184  1.00  0.00     0.275 C 
ENDROOT
BRANCH   1   2
ATOM      2  O   UNL     1       5.703   1.363  -0.330  1.00  0.00    -0.458 OA
BRANCH   2   3
ATOM      3  C   UNL     1       4.544   1.262   0.368  1.00  0.00     0.349 C 
ATOM      4  O   UNL     1       4.159   2.042   1.227  1.00  0.00    -0.245 OA
BRANCH   3   5
ATOM      5  C   UNL     1       3.777   0.080  -0.059  1.00  0.00     0.138 C 
ATOM      6  C   UNL     1       4.430  -1.101  -0.192  1.00  0.00     0.035 C 
BRANCH   5   7
ATOM      7  C   UNL     1       2.257   0.080  -0.059  1.00  0.00     0.107 C 
ATOM      8  N   UNL     1       0.996   0.080  -0.059  1.00  0.00    -0.192 NA
ENDBRANCH   5   7
BRANCH   6   9
ATOM      9  C   UNL     1       3.753  -2.409  -0.314  1.00  0.00    -0.017 A 
ATOM     10  C   UNL     1       4.117  -3.456   0.539  1.00  0.00     0.012 A 
ATOM     11  C   UNL     1       2.674  -2.604  -1.180  1.00  0.00     0.098 A 
ATOM     12  C   UNL     1       3.391  -4.657   0.545  1.00  0.00     0.055 A 
ATOM     13  C   UNL     1       1.889  -3.765  -1.086  1.00  0.00     0.312 A 
ATOM     14  C   UNL     1       2.257  -4.834  -0.264  1.00  0.00     0.204 A 
BRANCH  13  15
ATOM     15  N   UNL     1       0.617  -3.695  -1.778  1.00  0.00     0.066 N 
ATOM     16  O   UNL     1      -0.406  -3.721  -1.083  1.00  0.00    -0.258 OA
ATOM     17  O   UNL     1       0.657  -3.557  -3.008  1.00  0.00    -0.258 OA
ENDBRANCH  13  15
BRANCH  14  18
ATOM     18  O   UNL     1       1.675  -6.073  -0.095  1.00  0.00    -0.449 OA
BRANCH  18  19
ATOM     19  C   UNL     1       0.738  -6.537  -0.984  1.00  0.00     0.146 A 
ATOM     20  C   UNL     1      -0.525  -6.804  -0.444  1.00  0.00     0.049 A 
ATOM     21  C   UNL     1       0.980  -6.774  -2.342  1.00  0.00     0.083 A 
ATOM     22  C   UNL     1      -1.573  -7.195  -1.276  1.00  0.00     0.004 A 
ATOM     23  C   UNL     1      -0.079  -7.136  -3.177  1.00  0.00     0.024 A 
ATOM     24  Cl  UNL     1       2.553  -6.613  -3.037  1.00  0.00    -0.080 Cl
ATOM     25  C   UNL     1      -1.356  -7.333  -2.647  1.00  0.00     0.002 A 
ENDBRANCH  18  19
ENDBRANCH  14  18
ENDBRANCH   6   9
ENDBRANCH   3   5
ENDBRANCH   2   3
ENDBRANCH   1   2
BRANCH   1  26
ATOM     26  C   UNL     1       6.145   3.516  -1.380  1.00  0.00     0.275 C 
BRANCH  26  27
ATOM     27  O   UNL     1       4.779   3.981  -1.378  1.00  0.00    -0.458 OA
BRANCH  27  28
ATOM     28  C   UNL     1       3.928   3.252  -2.138  1.00  0.00     0.338 C 
ATOM     29  O   UNL     1       4.201   2.268  -2.805  1.00  0.00    -0.246 OA
BRANCH  28  30
ATOM     30  C   UNL     1       2.540   3.690  -1.932  1.00  0.00     0.060 A 
ATOM     31  C   UNL     1       1.856   3.150  -0.854  1.00  0.00     0.016 A 
ATOM     32  C   UNL     1       1.845   4.406  -2.900  1.00  0.00     0.016 A 
ATOM     33  C   UNL     1       0.470   3.161  -0.824  1.00  0.00     0.010 A 
ATOM     34  C   UNL     1       0.454   4.562  -2.772  1.00  0.00     0.010 A 
ATOM     35  C   UNL     1      -0.260   3.898  -1.756  1.00  0.00    -0.014 A 
BRANCH  35  36
ATOM     36  C   UNL     1      -1.749   3.929  -1.658  1.00  0.00     0.031 A 
ATOM     37  C   UNL     1      -2.596   3.568  -2.852  1.00  0.00     0.074 A 
ATOM     38  C   UNL     1      -2.350   4.238  -0.487  1.00  0.00     0.049 A 
ATOM     39  N   UNL     1      -3.882   3.737  -3.032  1.00  0.00    -0.248 NA
ATOM     40  C   UNL     1      -1.910   2.957  -4.003  1.00  0.00     0.031 C 
ATOM     41  C   UNL     1      -1.665   4.520   0.781  1.00  0.00     0.029 A 
ATOM     42  N   UNL     1      -3.680   4.351  -0.161  1.00  0.00    -0.354 N 
ATOM     43  C   UNL     1      -4.143   3.322  -4.334  1.00  0.00     0.074 A 
ATOM     44  C   UNL     1      -2.883   2.894  -4.901  1.00  0.00     0.031 C 
ATOM     45  C   UNL     1      -2.571   4.707   1.748  1.00  0.00     0.029 A 
ATOM     46  C   UNL     1      -3.898   4.701   1.153  1.00  0.00     0.049 A 
ATOM     47  H   UNL     1      -4.408   4.196  -0.805  1.00  0.00     0.167 HD
ATOM     48  C   UNL     1      -5.327   3.309  -4.993  1.00  0.00     0.031 A 
ATOM     49  C   UNL     1      -5.026   5.047   1.803  1.00  0.00     0.031 A 
ATOM     50  C   UNL     1      -6.582   3.684  -4.394  1.00  0.00     0.049 A 
ATOM     51  C   UNL     1      -6.311   5.095   1.030  1.00  0.00     0.074 A 
ATOM     52  C   UNL     1      -7.840   3.699  -4.971  1.00  0.00     0.029 A 
ATOM     53  N   UNL     1      -6.743   4.089  -3.076  1.00  0.00    -0.354 N 
ATOM     54  N   UNL     1      -6.530   4.778  -0.223  1.00  0.00    -0.248 NA
ATOM     55  C   UNL     1      -7.499   5.568   1.752  1.00  0.00     0.031 C 
ATOM     56  C   UNL     1      -8.751   4.175  -4.023  1.00  0.00     0.029 A 
ATOM     57  C   UNL     1      -8.074   4.384  -2.832  1.00  0.00     0.049 A 
ATOM     58  H   UNL     1      -6.019   4.156  -2.413  1.00  0.00     0.167 HD
ATOM     59  C   UNL     1      -7.887   4.989  -0.433  1.00  0.00     0.074 A 
ATOM     60  C   UNL     1      -8.440   5.442   0.827  1.00  0.00     0.031 C 
ATOM     61  C   UNL     1      -8.608   4.827  -1.569  1.00  0.00     0.031 A 
BRANCH  48  62
ATOM     62  C   UNL     1      -5.322   2.937  -6.455  1.00  0.00    -0.014 A 
ATOM     63  C   UNL     1      -5.099   1.620  -6.892  1.00  0.00     0.010 A 
ATOM     64  C   UNL     1      -5.614   3.931  -7.410  1.00  0.00     0.010 A 
ATOM     65  C   UNL     1      -5.140   1.310  -8.256  1.00  0.00     0.020 A 
ATOM     66  C   UNL     1      -5.685   3.620  -8.771  1.00  0.00     0.020 A 
ATOM     67  C   UNL     1      -5.435   2.312  -9.187  1.00  0.00     0.054 A 
BRANCH  67  68
ATOM     68  S   UNL     1      -5.522   1.874 -10.946  1.00  0.00     0.124 S 
ATOM     69  O   UNL     1      -4.119   1.624 -11.266  1.00  0.00    -0.237 OA
ATOM     70  O   UNL     1      -6.385   0.696 -10.940  1.00  0.00    -0.237 OA
ATOM     71  O   UNL     1      -6.099   3.062 -11.573  1.00  0.00    -0.744 OA
ENDBRANCH  67  68
ENDBRANCH  48  62
BRANCH  49  72
ATOM     72  C   UNL     1      -4.972   5.459   3.236  1.00  0.00    -0.014 A 
ATOM     73  C   UNL     1      -5.621   4.705   4.228  1.00  0.00     0.010 A 
ATOM     74  C   UNL     1      -4.267   6.618   3.615  1.00  0.00     0.010 A 
ATOM     75  C   UNL     1      -5.587   5.114   5.565  1.00  0.00     0.020 A 
ATOM     76  C   UNL     1      -4.196   7.008   4.955  1.00  0.00     0.020 A 
ATOM     77  C   UNL     1      -4.872   6.262   5.920  1.00  0.00     0.054 A 
BRANCH  77  78
ATOM     78  S   UNL     1      -4.816   6.757   7.664  1.00  0.00     0.124 S 
ATOM     79  O   UNL     1      -6.170   7.257   7.882  1.00  0.00    -0.237 OA
ATOM     80  O   UNL     1      -4.487   5.504   8.339  1.00  0.00    -0.237 OA
ATOM     81  O   UNL     1      -3.763   7.770   7.699  1.00  0.00    -0.744 OA
ENDBRANCH  77  78
ENDBRANCH  49  72
BRANCH  61  82
ATOM     82  C   UNL     1     -10.088   5.089  -1.485  1.00  0.00    -0.014 A 
ATOM     83  C   UNL     1     -10.594   6.393  -1.347  1.00  0.00     0.010 A 
ATOM     84  C   UNL     1     -10.985   4.011  -1.590  1.00  0.00     0.010 A 
ATOM     85  C   UNL     1     -11.973   6.610  -1.280  1.00  0.00     0.020 A 
ATOM     86  C   UNL     1     -12.364   4.227  -1.558  1.00  0.00     0.020 A 
ATOM     87  C   UNL     1     -12.848   5.525  -1.388  1.00  0.00     0.054 A 
BRANCH  87  88
ATOM     88  S   UNL     1     -14.633   5.839  -1.344  1.00  0.00     0.124 S 
ATOM     89  O   UNL     1     -14.848   6.177   0.060  1.00  0.00    -0.237 OA
ATOM     90  O   UNL     1     -14.787   6.944  -2.287  1.00  0.00    -0.237 OA
ATOM     91  O   UNL     1     -15.220   4.572  -1.776  1.00  0.00    -0.744 OA
ENDBRANCH  87  88
ENDBRANCH  61  82
ENDBRANCH  35  36
ENDBRANCH  28  30
ENDBRANCH  27  28
ENDBRANCH  26  27
ENDBRANCH   1  26
TORSDOF 19
