REMARK SMILES O=C(CNC(=S)N(Cc1ccccc1Cl)C1CCCCC1)OCCOC(=O)c1ccc(-c2c3nc(c(-c4ccc(S(=O)(=O)[O-])cc4)c4ccc([nH]4)c(-c4ccc(S(=O)(=O)[O-])cc4)c4nc(c(-c5ccc(S(=O)(=O)[O-])cc5)c5ccc2[nH]5)C=C4)C=C3)cc1
REMARK SMILES IDX 23 1 22 2 2 3 1 4 3 5 4 6 5 8 6 9 7 10 8 11 9 12 10 13 14 14
REMARK SMILES IDX 11 15 13 16 15 17 12 18 16 19 17 20 21 21 18 22 20 23 19 24
REMARK SMILES IDX 24 25 25 26 26 27 27 28 28 29 29 30 87 31 30 32 86 33 31 34
REMARK SMILES IDX 32 35 33 36 80 37 34 38 85 39 79 40 81 41 35 42 84 43 78 44
REMARK SMILES IDX 77 45 36 47 66 48 47 49 65 50 48 51 51 52 64 53 82 54 49 55
REMARK SMILES IDX 50 56 63 58 83 59 52 60 37 61 38 62 46 63 39 64 45 65 40 66
REMARK SMILES IDX 41 67 42 68 43 69 44 70 67 71 68 72 76 73 69 74 75 75 70 76
REMARK SMILES IDX 71 77 72 78 73 79 74 80 53 81 54 82 62 83 55 84 61 85 56 86
REMARK SMILES IDX 57 87 58 88 59 89 60 90
REMARK H PARENT 4 7 81 46 51 57
REMARK Flexibility Score: inf
ROOT
ATOM      1  C   UNL     1       3.858  -1.168   0.231  1.00  0.00     0.274 C 
ENDROOT
BRANCH   1   2
ATOM      2  O   UNL     1       2.888  -0.612   1.138  1.00  0.00    -0.461 OA
BRANCH   2   3
ATOM      3  C   UNL     1       2.241   0.537   0.832  1.00  0.00     0.325 C 
ATOM      4  O   UNL     1       1.012   0.567   0.832  1.00  0.00    -0.250 OA
BRANCH   3   5
ATOM      5  C   UNL     1       3.063   1.786   0.492  1.00  0.00     0.238 C 
BRANCH   5   6
ATOM      6  N   UNL     1       4.431   1.859   1.014  1.00  0.00    -0.352 N 
ATOM      7  H   UNL     1       4.382   1.845   1.997  1.00  0.00     0.163 HD
BRANCH   6   8
ATOM      8  C   UNL     1       5.729   1.937   0.666  1.00  0.00     0.169 C 
ATOM      9  S   UNL     1       6.636   2.193   2.074  1.00  0.00    -0.041 S 
BRANCH   8  10
ATOM     10  N   UNL     1       6.226   1.773  -0.621  1.00  0.00    -0.342 N 
BRANCH  10  11
ATOM     11  C   UNL     1       5.390   1.433  -1.777  1.00  0.00     0.156 C 
BRANCH  11  12
ATOM     12  C   UNL     1       5.700   2.022  -3.138  1.00  0.00    -0.010 A 
ATOM     13  C   UNL     1       5.932   1.136  -4.212  1.00  0.00     0.007 A 
ATOM     14  C   UNL     1       5.599   3.393  -3.418  1.00  0.00     0.046 A 
ATOM     15  C   UNL     1       6.039   1.603  -5.523  1.00  0.00     0.000 A 
ATOM     16  C   UNL     1       5.721   3.858  -4.732  1.00  0.00     0.021 A 
ATOM     17  Cl  UNL     1       5.235   4.546  -2.188  1.00  0.00    -0.084 Cl
ATOM     18  C   UNL     1       5.929   2.964  -5.784  1.00  0.00     0.002 A 
ENDBRANCH  11  12
ENDBRANCH  10  11
BRANCH  10  19
ATOM     19  C   UNL     1       7.698   1.631  -0.896  1.00  0.00     0.085 C 
ATOM     20  C   UNL     1       8.533   2.900  -0.634  1.00  0.00     0.025 C 
ATOM     21  C   UNL     1       8.277   0.325  -0.311  1.00  0.00     0.025 C 
ATOM     22  C   UNL     1      10.029   2.671  -0.840  1.00  0.00     0.002 C 
ATOM     23  C   UNL     1       9.777   0.192  -0.546  1.00  0.00     0.002 C 
ATOM     24  C   UNL     1      10.521   1.440  -0.087  1.00  0.00     0.000 C 
ENDBRANCH  10  19
ENDBRANCH   8  10
ENDBRANCH   6   8
ENDBRANCH   5   6
ENDBRANCH   3   5
ENDBRANCH   2   3
ENDBRANCH   1   2
BRANCH   1  25
ATOM     25  C   UNL     1       3.253  -1.603  -1.109  1.00  0.00     0.275 C 
BRANCH  25  26
ATOM     26  O   UNL     1       2.888  -0.439  -1.873  1.00  0.00    -0.458 OA
BRANCH  26  27
ATOM     27  C   UNL     1       1.601  -0.376  -2.316  1.00  0.00     0.338 C 
ATOM     28  O   UNL     1       0.756  -1.236  -2.239  1.00  0.00    -0.246 OA
BRANCH  27  29
ATOM     29  C   UNL     1       1.370   1.011  -2.783  1.00  0.00     0.060 A 
ATOM     30  C   UNL     1       0.339   1.754  -2.202  1.00  0.00     0.016 A 
ATOM     31  C   UNL     1       2.203   1.595  -3.739  1.00  0.00     0.016 A 
ATOM     32  C   UNL     1       0.153   3.092  -2.568  1.00  0.00     0.010 A 
ATOM     33  C   UNL     1       2.025   2.936  -4.090  1.00  0.00     0.010 A 
ATOM     34  C   UNL     1       0.992   3.696  -3.516  1.00  0.00    -0.014 A 
BRANCH  34  35
ATOM     35  C   UNL     1       0.743   5.091  -3.970  1.00  0.00     0.031 A 
ATOM     36  C   UNL     1       0.159   5.336  -5.337  1.00  0.00     0.074 A 
ATOM     37  C   UNL     1       1.041   6.143  -3.181  1.00  0.00     0.049 A 
ATOM     38  N   UNL     1      -0.168   6.470  -5.903  1.00  0.00    -0.248 NA
ATOM     39  C   UNL     1      -0.078   4.153  -6.180  1.00  0.00     0.031 C 
ATOM     40  C   UNL     1       1.643   6.066  -1.850  1.00  0.00     0.029 A 
ATOM     41  N   UNL     1       0.878   7.491  -3.395  1.00  0.00    -0.354 N 
ATOM     42  C   UNL     1      -0.648   6.139  -7.164  1.00  0.00     0.074 A 
ATOM     43  C   UNL     1      -0.528   4.704  -7.299  1.00  0.00     0.031 C 
ATOM     44  C   UNL     1       1.792   7.312  -1.364  1.00  0.00     0.029 A 
ATOM     45  C   UNL     1       1.310   8.276  -2.351  1.00  0.00     0.049 A 
ATOM     46  H   UNL     1       0.488   7.861  -4.220  1.00  0.00     0.167 HD
ATOM     47  C   UNL     1      -1.163   6.949  -8.119  1.00  0.00     0.031 A 
ATOM     48  C   UNL     1       1.319   9.617  -2.205  1.00  0.00     0.031 A 
ATOM     49  C   UNL     1      -1.307   8.373  -7.996  1.00  0.00     0.049 A 
ATOM     50  C   UNL     1       0.767  10.498  -3.298  1.00  0.00     0.074 A 
ATOM     51  C   UNL     1      -1.897   9.255  -8.886  1.00  0.00     0.029 A 
ATOM     52  N   UNL     1      -0.850   9.127  -6.929  1.00  0.00    -0.354 N 
ATOM     53  N   UNL     1       0.219  10.155  -4.439  1.00  0.00    -0.248 NA
ATOM     54  C   UNL     1       0.828  11.952  -3.075  1.00  0.00     0.031 C 
ATOM     55  C   UNL     1      -1.752  10.550  -8.379  1.00  0.00     0.029 A 
ATOM     56  C   UNL     1      -1.110  10.468  -7.155  1.00  0.00     0.049 A 
ATOM     57  H   UNL     1      -0.406   8.764  -6.128  1.00  0.00     0.167 HD
ATOM     58  C   UNL     1      -0.149  11.347  -5.056  1.00  0.00     0.074 A 
ATOM     59  C   UNL     1       0.223  12.420  -4.159  1.00  0.00     0.031 C 
ATOM     60  C   UNL     1      -0.742  11.534  -6.260  1.00  0.00     0.031 A 
BRANCH  47  61
ATOM     61  C   UNL     1      -1.625   6.307  -9.396  1.00  0.00    -0.014 A 
ATOM     62  C   UNL     1      -2.828   5.580  -9.441  1.00  0.00     0.010 A 
ATOM     63  C   UNL     1      -0.883   6.489 -10.577  1.00  0.00     0.010 A 
ATOM     64  C   UNL     1      -3.269   5.024 -10.643  1.00  0.00     0.020 A 
ATOM     65  C   UNL     1      -1.332   5.950 -11.785  1.00  0.00     0.020 A 
ATOM     66  C   UNL     1      -2.517   5.210 -11.807  1.00  0.00     0.054 A 
BRANCH  66  67
ATOM     67  S   UNL     1      -3.133   4.510 -13.362  1.00  0.00     0.124 S 
ATOM     68  O   UNL     1      -2.834   3.090 -13.191  1.00  0.00    -0.237 OA
ATOM     69  O   UNL     1      -4.551   4.861 -13.334  1.00  0.00    -0.237 OA
ATOM     70  O   UNL     1      -2.345   5.192 -14.386  1.00  0.00    -0.744 OA
ENDBRANCH  66  67
ENDBRANCH  47  61
BRANCH  48  71
ATOM     71  C   UNL     1       1.878  10.237  -0.973  1.00  0.00    -0.014 A 
ATOM     72  C   UNL     1       1.031  10.859  -0.039  1.00  0.00     0.010 A 
ATOM     73  C   UNL     1       3.268  10.261  -0.762  1.00  0.00     0.010 A 
ATOM     74  C   UNL     1       1.567  11.530   1.065  1.00  0.00     0.020 A 
ATOM     75  C   UNL     1       3.806  10.911   0.353  1.00  0.00     0.020 A 
ATOM     76  C   UNL     1       2.952  11.559   1.248  1.00  0.00     0.054 A 
BRANCH  76  77
ATOM     77  S   UNL     1       3.630  12.434   2.686  1.00  0.00     0.124 S 
ATOM     78  O   UNL     1       3.545  13.828   2.259  1.00  0.00    -0.237 OA
ATOM     79  O   UNL     1       2.717  12.044   3.758  1.00  0.00    -0.237 OA
ATOM     80  O   UNL     1       4.983  11.896   2.804  1.00  0.00    -0.744 OA
ENDBRANCH  76  77
ENDBRANCH  48  71
BRANCH  60  81
ATOM     81  C   UNL     1      -1.048  12.946  -6.683  1.00  0.00    -0.014 A 
ATOM     82  C   UNL     1      -0.026  13.807  -7.118  1.00  0.00     0.010 A 
ATOM     83  C   UNL     1      -2.381  13.393  -6.717  1.00  0.00     0.010 A 
ATOM     84  C   UNL     1      -0.329  15.098  -7.561  1.00  0.00     0.020 A 
ATOM     85  C   UNL     1      -2.691  14.675  -7.180  1.00  0.00     0.020 A 
ATOM     86  C   UNL     1      -1.661  15.524  -7.590  1.00  0.00     0.054 A 
BRANCH  86  87
ATOM     87  S   UNL     1      -2.038  17.181  -8.228  1.00  0.00     0.124 S 
ATOM     88  O   UNL     1      -1.653  18.033  -7.107  1.00  0.00    -0.237 OA
ATOM     89  O   UNL     1      -1.185  17.274  -9.410  1.00  0.00    -0.237 OA
ATOM     90  O   UNL     1      -3.471  17.126  -8.507  1.00  0.00    -0.744 OA
ENDBRANCH  86  87
ENDBRANCH  60  81
ENDBRANCH  34  35
ENDBRANCH  27  29
ENDBRANCH  26  27
ENDBRANCH  25  26
ENDBRANCH   1  25
TORSDOF 20
