REMARK SMILES CC1=C[C@@H]([C@@H]2N=N[C@H](S)N2/N=C/c2ccc(C(=O)OCCOC(=O)c3ccc(-c4c5nc(c(-c6ccc(S(=O)(=O)[O-])cc6)c6ccc([nH]6)c(-c6ccc(S(=O)(=O)[O-])cc6)c6nc(c(-c7ccc(S(=O)(=O)[O-])cc7)c7ccc4[nH]7)C=C6)C=C5)cc3)cc2)N=N1
REMARK SMILES IDX 20 1 19 2 17 3 18 4 16 5 13 6 14 7 86 8 15 9 85 10 12 11
REMARK SMILES IDX 11 12 10 13 5 14 6 15 7 16 8 17 4 18 1 19 2 20 3 21 88 22
REMARK SMILES IDX 87 23 9 24 21 26 22 27 23 28 24 29 25 30 26 31 84 32 27 33
REMARK SMILES IDX 83 34 28 35 29 36 30 37 77 38 31 39 82 40 76 41 78 42 32 43
REMARK SMILES IDX 81 44 75 45 74 46 33 48 63 49 44 50 62 51 45 52 48 53 61 54
REMARK SMILES IDX 79 55 46 56 47 57 60 59 80 60 49 61 34 62 35 63 43 64 36 65
REMARK SMILES IDX 42 66 37 67 38 68 39 69 40 70 41 71 64 72 65 73 73 74 66 75
REMARK SMILES IDX 72 76 67 77 68 78 69 79 70 80 71 81 50 82 51 83 59 84 52 85
REMARK SMILES IDX 58 86 53 87 54 88 55 89 56 90 57 91
REMARK H PARENT 9 25 78 47 48 58
REMARK Flexibility Score: inf
ROOT
ATOM      1  C   UNL     1      -3.267  -1.556   6.166  1.00  0.00     0.275 C 
ENDROOT
BRANCH   1   2
ATOM      2  O   UNL     1      -3.136  -1.783   4.754  1.00  0.00    -0.458 OA
BRANCH   2   3
ATOM      3  C   UNL     1      -3.086  -3.084   4.375  1.00  0.00     0.338 C 
ATOM      4  O   UNL     1      -2.973  -4.052   5.115  1.00  0.00    -0.246 OA
BRANCH   3   5
ATOM      5  C   UNL     1      -3.280  -3.207   2.911  1.00  0.00     0.060 A 
ATOM      6  C   UNL     1      -3.574  -3.570   0.171  1.00  0.00    -0.005 A 
ATOM      7  C   UNL     1      -3.941  -4.600   1.039  1.00  0.00     0.010 A 
ATOM      8  C   UNL     1      -3.112  -2.345   0.658  1.00  0.00     0.010 A 
ATOM      9  C   UNL     1      -3.778  -4.421   2.412  1.00  0.00     0.016 A 
ATOM     10  C   UNL     1      -2.980  -2.157   2.033  1.00  0.00     0.016 A 
BRANCH   6  11
ATOM     11  C   UNL     1      -3.647  -3.815  -1.277  1.00  0.00     0.141 C 
ATOM     12  N   UNL     1      -2.818  -3.241  -2.088  1.00  0.00    -0.180 NA
BRANCH  12  13
ATOM     13  N   UNL     1      -2.930  -3.515  -3.410  1.00  0.00    -0.233 NA
ATOM     14  C   UNL     1      -1.797  -3.263  -4.304  1.00  0.00     0.274 C 
ATOM     15  N   UNL     1      -1.832  -4.288  -5.383  1.00  0.00    -0.161 NA
ATOM     16  N   UNL     1      -2.833  -5.032  -5.250  1.00  0.00    -0.153 NA
ATOM     17  C   UNL     1      -3.610  -4.640  -4.054  1.00  0.00     0.298 C 
BRANCH  14  18
ATOM     18  C   UNL     1      -1.837  -1.830  -4.904  1.00  0.00     0.201 C 
ATOM     19  C   UNL     1      -4.097  -1.361  -7.783  1.00  0.00     0.068 C 
ATOM     20  C   UNL     1      -3.009  -1.427  -6.776  1.00  0.00     0.058 C 
ATOM     21  C   UNL     1      -3.168  -1.451  -5.456  1.00  0.00     0.031 C 
ATOM     22  N   UNL     1      -1.697  -1.579  -7.149  1.00  0.00    -0.160 NA
ATOM     23  N   UNL     1      -0.972  -1.756  -6.125  1.00  0.00    -0.177 NA
ENDBRANCH  14  18
BRANCH  17  24
ATOM     24  S   UNL     1      -5.356  -4.194  -4.401  1.00  0.00    -0.128 SA
ATOM     25  H   UNL     1      -5.393  -3.105  -5.215  1.00  0.00     0.106 HD
ENDBRANCH  17  24
ENDBRANCH  12  13
ENDBRANCH   6  11
ENDBRANCH   3   5
ENDBRANCH   2   3
ENDBRANCH   1   2
BRANCH   1  26
ATOM     26  C   UNL     1      -4.730  -1.495   6.580  1.00  0.00     0.275 C 
BRANCH  26  27
ATOM     27  O   UNL     1      -5.357  -2.776   6.514  1.00  0.00    -0.458 OA
BRANCH  27  28
ATOM     28  C   UNL     1      -6.042  -3.014   5.373  1.00  0.00     0.338 C 
ATOM     29  O   UNL     1      -5.891  -2.467   4.293  1.00  0.00    -0.246 OA
BRANCH  28  30
ATOM     30  C   UNL     1      -7.189  -3.877   5.673  1.00  0.00     0.060 A 
ATOM     31  C   UNL     1      -7.942  -4.356   4.596  1.00  0.00     0.016 A 
ATOM     32  C   UNL     1      -7.652  -3.964   6.994  1.00  0.00     0.016 A 
ATOM     33  C   UNL     1      -9.226  -4.803   4.835  1.00  0.00     0.010 A 
ATOM     34  C   UNL     1      -8.938  -4.390   7.227  1.00  0.00     0.010 A 
ATOM     35  C   UNL     1      -9.730  -4.748   6.140  1.00  0.00    -0.014 A 
BRANCH  35  36
ATOM     36  C   UNL     1     -11.093  -5.179   6.369  1.00  0.00     0.031 A 
ATOM     37  C   UNL     1     -11.263  -6.647   6.311  1.00  0.00     0.074 A 
ATOM     38  C   UNL     1     -12.072  -4.343   6.757  1.00  0.00     0.049 A 
ATOM     39  N   UNL     1     -11.880  -7.337   5.412  1.00  0.00    -0.248 NA
ATOM     40  C   UNL     1     -10.511  -7.455   7.285  1.00  0.00     0.031 C 
ATOM     41  C   UNL     1     -11.952  -2.942   7.168  1.00  0.00     0.029 A 
ATOM     42  N   UNL     1     -13.381  -4.623   6.986  1.00  0.00    -0.354 N 
ATOM     43  C   UNL     1     -11.778  -8.660   5.826  1.00  0.00     0.074 A 
ATOM     44  C   UNL     1     -10.766  -8.688   6.851  1.00  0.00     0.031 C 
ATOM     45  C   UNL     1     -13.082  -2.575   7.816  1.00  0.00     0.029 A 
ATOM     46  C   UNL     1     -14.043  -3.665   7.742  1.00  0.00     0.049 A 
ATOM     47  H   UNL     1     -13.823  -5.434   6.646  1.00  0.00     0.167 HD
ATOM     48  C   UNL     1     -12.711  -9.590   5.487  1.00  0.00     0.031 A 
ATOM     49  C   UNL     1     -15.257  -3.808   8.332  1.00  0.00     0.031 A 
ATOM     50  C   UNL     1     -13.570  -9.129   4.429  1.00  0.00     0.049 A 
ATOM     51  C   UNL     1     -15.947  -4.936   7.656  1.00  0.00     0.074 A 
ATOM     52  C   UNL     1     -13.379  -8.728   3.122  1.00  0.00     0.029 A 
ATOM     53  N   UNL     1     -14.811  -8.664   4.797  1.00  0.00    -0.354 N 
ATOM     54  N   UNL     1     -16.337  -4.903   6.412  1.00  0.00    -0.248 NA
ATOM     55  C   UNL     1     -15.819  -6.268   8.229  1.00  0.00     0.031 C 
ATOM     56  C   UNL     1     -14.307  -7.665   2.922  1.00  0.00     0.029 A 
ATOM     57  C   UNL     1     -15.051  -7.512   4.095  1.00  0.00     0.049 A 
ATOM     58  H   UNL     1     -15.418  -9.083   5.449  1.00  0.00     0.167 HD
ATOM     59  C   UNL     1     -16.093  -6.180   5.925  1.00  0.00     0.074 A 
ATOM     60  C   UNL     1     -15.877  -7.002   7.114  1.00  0.00     0.031 C 
ATOM     61  C   UNL     1     -15.815  -6.391   4.604  1.00  0.00     0.031 A 
BRANCH  48  62
ATOM     62  C   UNL     1     -13.105 -10.730   6.393  1.00  0.00    -0.014 A 
ATOM     63  C   UNL     1     -14.030 -11.682   5.922  1.00  0.00     0.010 A 
ATOM     64  C   UNL     1     -12.817 -10.745   7.774  1.00  0.00     0.010 A 
ATOM     65  C   UNL     1     -14.683 -12.555   6.802  1.00  0.00     0.020 A 
ATOM     66  C   UNL     1     -13.425 -11.642   8.652  1.00  0.00     0.020 A 
ATOM     67  C   UNL     1     -14.383 -12.517   8.164  1.00  0.00     0.054 A 
BRANCH  67  68
ATOM     68  S   UNL     1     -15.307 -13.570   9.307  1.00  0.00     0.124 S 
ATOM     69  O   UNL     1     -16.645 -12.993   9.231  1.00  0.00    -0.237 OA
ATOM     70  O   UNL     1     -15.149 -14.892   8.706  1.00  0.00    -0.237 OA
ATOM     71  O   UNL     1     -14.614 -13.383  10.580  1.00  0.00    -0.744 OA
ENDBRANCH  67  68
ENDBRANCH  48  62
BRANCH  49  72
ATOM     72  C   UNL     1     -15.701  -3.268   9.641  1.00  0.00    -0.014 A 
ATOM     73  C   UNL     1     -17.055  -3.313  10.021  1.00  0.00     0.010 A 
ATOM     74  C   UNL     1     -14.752  -2.964  10.640  1.00  0.00     0.010 A 
ATOM     75  C   UNL     1     -17.438  -3.129  11.361  1.00  0.00     0.020 A 
ATOM     76  C   UNL     1     -15.126  -2.770  11.974  1.00  0.00     0.020 A 
ATOM     77  C   UNL     1     -16.466  -2.880  12.334  1.00  0.00     0.054 A 
BRANCH  77  78
ATOM     78  S   UNL     1     -16.944  -2.831  14.087  1.00  0.00     0.124 S 
ATOM     79  O   UNL     1     -17.684  -1.576  14.173  1.00  0.00    -0.237 OA
ATOM     80  O   UNL     1     -17.740  -4.047  14.233  1.00  0.00    -0.237 OA
ATOM     81  O   UNL     1     -15.664  -2.846  14.793  1.00  0.00    -0.744 OA
ENDBRANCH  77  78
ENDBRANCH  49  72
BRANCH  61  82
ATOM     82  C   UNL     1     -16.107  -5.281   3.621  1.00  0.00    -0.014 A 
ATOM     83  C   UNL     1     -15.498  -4.012   3.663  1.00  0.00     0.010 A 
ATOM     84  C   UNL     1     -16.924  -5.598   2.521  1.00  0.00     0.010 A 
ATOM     85  C   UNL     1     -15.723  -3.078   2.639  1.00  0.00     0.020 A 
ATOM     86  C   UNL     1     -17.136  -4.680   1.491  1.00  0.00     0.020 A 
ATOM     87  C   UNL     1     -16.541  -3.420   1.558  1.00  0.00     0.054 A 
BRANCH  87  88
ATOM     88  S   UNL     1     -16.788  -2.230   0.211  1.00  0.00     0.124 S 
ATOM     89  O   UNL     1     -17.593  -1.191   0.849  1.00  0.00    -0.237 OA
ATOM     90  O   UNL     1     -15.422  -1.844  -0.136  1.00  0.00    -0.237 OA
ATOM     91  O   UNL     1     -17.482  -3.006  -0.816  1.00  0.00    -0.744 OA
ENDBRANCH  87  88
ENDBRANCH  61  82
ENDBRANCH  35  36
ENDBRANCH  28  30
ENDBRANCH  27  28
ENDBRANCH  26  27
ENDBRANCH   1  26
TORSDOF 18
