REMARK SMILES Cc1c(Br)c(C)c2c(c1Br)O[C@H](C(F)(F)F)C(C(=O)OCCOC(=O)c1ccc(-c3c4nc(c(-c5ccc(S(=O)(=O)[O-])cc5)c5ccc([nH]5)c(-c5ccc(S(=O)(=O)[O-])cc5)c5nc(c(-c6ccc(S(=O)(=O)[O-])cc6)c6ccc3[nH]6)C=C5)C=C4)cc1)=C2
REMARK SMILES IDX 22 1 21 2 20 3 18 4 19 5 17 6 1 7 2 8 3 9 9 10 4 11 5 12
REMARK SMILES IDX 8 13 10 14 6 15 7 16 11 17 86 18 12 19 13 20 14 21 15 22
REMARK SMILES IDX 16 23 23 24 24 25 25 26 26 27 27 28 85 29 28 30 84 31 29 32
REMARK SMILES IDX 30 33 31 34 78 35 32 36 83 37 77 38 79 39 33 40 82 41 76 42
REMARK SMILES IDX 75 43 34 45 64 46 45 47 63 48 46 49 49 50 62 51 80 52 47 53
REMARK SMILES IDX 48 54 61 56 81 57 50 58 35 59 36 60 44 61 37 62 43 63 38 64
REMARK SMILES IDX 39 65 40 66 41 67 42 68 65 69 66 70 74 71 67 72 73 73 68 74
REMARK SMILES IDX 69 75 70 76 71 77 72 78 51 79 52 80 60 81 53 82 59 83 54 84
REMARK SMILES IDX 55 85 56 86 57 87 58 88
REMARK H PARENT 79 44 49 55
REMARK Flexibility Score: inf
ROOT
ATOM      1  C   UNL     1       0.361  -8.446   6.290  1.00  0.00     0.275 C 
ENDROOT
BRANCH   1   2
ATOM      2  C   UNL     1      -0.182  -8.610   4.871  1.00  0.00     0.275 C 
BRANCH   2   3
ATOM      3  O   UNL     1       0.227  -7.516   4.021  1.00  0.00    -0.459 OA
BRANCH   3   4
ATOM      4  C   UNL     1      -0.730  -6.599   3.748  1.00  0.00     0.338 C 
ATOM      5  O   UNL     1      -1.889  -6.622   4.131  1.00  0.00    -0.246 OA
BRANCH   4   6
ATOM      6  C   UNL     1      -0.184  -5.515   2.910  1.00  0.00     0.087 C 
ATOM      7  C   UNL     1       1.139  -0.040  -0.412  1.00  0.00     0.047 C 
ATOM      8  C   UNL     1       0.728  -1.095   0.589  1.00  0.00    -0.019 A 
ATOM      9  C   UNL     1       0.030  -0.782   1.781  1.00  0.00     0.025 A 
ATOM     10  C   UNL     1       1.058  -2.447   0.342  1.00  0.00     0.064 A 
ATOM     11  Br  UNL     1      -0.377   1.050   2.181  1.00  0.00    -0.050 Br
ATOM     12  C   UNL     1      -0.367  -1.799   2.686  1.00  0.00    -0.026 A 
ATOM     13  C   UNL     1       0.677  -3.468   1.229  1.00  0.00     0.142 A 
ATOM     14  Br  UNL     1       2.036  -2.938  -1.234  1.00  0.00    -0.046 Br
ATOM     15  C   UNL     1      -1.103  -1.486   3.974  1.00  0.00     0.046 C 
ATOM     16  C   UNL     1      -0.044  -3.151   2.386  1.00  0.00     0.022 A 
ATOM     17  O   UNL     1       1.069  -4.747   0.920  1.00  0.00    -0.474 OA
ATOM     18  C   UNL     1      -0.460  -4.252   3.252  1.00  0.00     0.027 C 
ATOM     19  C   UNL     1       0.537  -5.876   1.654  1.00  0.00     0.316 C 
BRANCH  19  20
ATOM     20  C   UNL     1      -0.349  -6.714   0.719  1.00  0.00     0.430 C 
ATOM     21  F   UNL     1       0.299  -7.024  -0.430  1.00  0.00    -0.167 F 
ATOM     22  F   UNL     1      -0.700  -7.893   1.289  1.00  0.00    -0.167 F 
ATOM     23  F   UNL     1      -1.490  -6.072   0.381  1.00  0.00    -0.167 F 
ENDBRANCH  19  20
ENDBRANCH   4   6
ENDBRANCH   3   4
ENDBRANCH   2   3
ENDBRANCH   1   2
BRANCH   1  24
ATOM     24  O   UNL     1      -0.256  -7.319   6.936  1.00  0.00    -0.458 OA
BRANCH  24  25
ATOM     25  C   UNL     1       0.523  -6.219   7.052  1.00  0.00     0.338 C 
ATOM     26  O   UNL     1       1.688  -6.096   6.714  1.00  0.00    -0.246 OA
BRANCH  25  27
ATOM     27  C   UNL     1      -0.273  -5.104   7.586  1.00  0.00     0.060 A 
ATOM     28  C   UNL     1      -1.251  -4.548   6.773  1.00  0.00     0.016 A 
ATOM     29  C   UNL     1       0.046  -4.502   8.801  1.00  0.00     0.016 A 
ATOM     30  C   UNL     1      -1.808  -3.318   7.095  1.00  0.00     0.010 A 
ATOM     31  C   UNL     1      -0.631  -3.336   9.192  1.00  0.00     0.010 A 
ATOM     32  C   UNL     1      -1.535  -2.699   8.323  1.00  0.00    -0.014 A 
BRANCH  32  33
ATOM     33  C   UNL     1      -2.188  -1.395   8.657  1.00  0.00     0.031 A 
ATOM     34  C   UNL     1      -1.362  -0.193   9.059  1.00  0.00     0.074 A 
ATOM     35  C   UNL     1      -3.529  -1.261   8.543  1.00  0.00     0.049 A 
ATOM     36  N   UNL     1      -1.766   0.978   9.484  1.00  0.00    -0.248 NA
ATOM     37  C   UNL     1       0.103  -0.324   8.986  1.00  0.00     0.031 C 
ATOM     38  C   UNL     1      -4.455  -2.317   8.120  1.00  0.00     0.029 A 
ATOM     39  N   UNL     1      -4.349  -0.174   8.731  1.00  0.00    -0.354 N 
ATOM     40  C   UNL     1      -0.613   1.698   9.782  1.00  0.00     0.074 A 
ATOM     41  C   UNL     1       0.508   0.830   9.500  1.00  0.00     0.031 C 
ATOM     42  C   UNL     1      -5.684  -1.804   7.981  1.00  0.00     0.029 A 
ATOM     43  C   UNL     1      -5.670  -0.418   8.430  1.00  0.00     0.049 A 
ATOM     44  H   UNL     1      -4.022   0.698   9.051  1.00  0.00     0.167 HD
ATOM     45  C   UNL     1      -0.498   2.967  10.245  1.00  0.00     0.031 A 
ATOM     46  C   UNL     1      -6.765   0.361   8.536  1.00  0.00     0.031 A 
ATOM     47  C   UNL     1      -1.615   3.844  10.482  1.00  0.00     0.049 A 
ATOM     48  C   UNL     1      -6.619   1.743   9.101  1.00  0.00     0.074 A 
ATOM     49  C   UNL     1      -1.601   5.143  10.961  1.00  0.00     0.029 A 
ATOM     50  N   UNL     1      -2.942   3.525  10.234  1.00  0.00    -0.354 N 
ATOM     51  N   UNL     1      -5.524   2.373   9.454  1.00  0.00    -0.248 NA
ATOM     52  C   UNL     1      -7.854   2.510   9.311  1.00  0.00     0.031 C 
ATOM     53  C   UNL     1      -2.922   5.592  11.048  1.00  0.00     0.029 A 
ATOM     54  C   UNL     1      -3.755   4.596  10.564  1.00  0.00     0.049 A 
ATOM     55  H   UNL     1      -3.259   2.664   9.877  1.00  0.00     0.167 HD
ATOM     56  C   UNL     1      -5.938   3.615   9.919  1.00  0.00     0.074 A 
ATOM     57  C   UNL     1      -7.380   3.655   9.784  1.00  0.00     0.031 C 
ATOM     58  C   UNL     1      -5.188   4.625  10.420  1.00  0.00     0.031 A 
BRANCH  45  59
ATOM     59  C   UNL     1       0.883   3.485  10.562  1.00  0.00    -0.014 A 
ATOM     60  C   UNL     1       1.798   3.809   9.545  1.00  0.00     0.010 A 
ATOM     61  C   UNL     1       1.245   3.716  11.903  1.00  0.00     0.010 A 
ATOM     62  C   UNL     1       3.059   4.324   9.864  1.00  0.00     0.020 A 
ATOM     63  C   UNL     1       2.494   4.257  12.226  1.00  0.00     0.020 A 
ATOM     64  C   UNL     1       3.398   4.545  11.203  1.00  0.00     0.054 A 
BRANCH  64  65
ATOM     65  S   UNL     1       5.029   5.244  11.583  1.00  0.00     0.124 S 
ATOM     66  O   UNL     1       5.918   4.135  11.246  1.00  0.00    -0.237 OA
ATOM     67  O   UNL     1       5.099   6.397  10.690  1.00  0.00    -0.237 OA
ATOM     68  O   UNL     1       4.949   5.564  13.006  1.00  0.00    -0.744 OA
ENDBRANCH  64  65
ENDBRANCH  45  59
BRANCH  46  69
ATOM     69  C   UNL     1      -8.099  -0.173   8.136  1.00  0.00    -0.014 A 
ATOM     70  C   UNL     1      -8.772   0.349   7.018  1.00  0.00     0.010 A 
ATOM     71  C   UNL     1      -8.684  -1.236   8.850  1.00  0.00     0.010 A 
ATOM     72  C   UNL     1     -10.002  -0.185   6.620  1.00  0.00     0.020 A 
ATOM     73  C   UNL     1      -9.896  -1.795   8.434  1.00  0.00     0.020 A 
ATOM     74  C   UNL     1     -10.552  -1.260   7.325  1.00  0.00     0.054 A 
BRANCH  74  75
ATOM     75  S   UNL     1     -12.111  -1.984   6.745  1.00  0.00     0.124 S 
ATOM     76  O   UNL     1     -13.077  -0.950   7.103  1.00  0.00    -0.237 OA
ATOM     77  O   UNL     1     -11.866  -2.155   5.316  1.00  0.00    -0.237 OA
ATOM     78  O   UNL     1     -12.215  -3.228   7.505  1.00  0.00    -0.744 OA
ENDBRANCH  74  75
ENDBRANCH  46  69
BRANCH  58  79
ATOM     79  C   UNL     1      -5.901   5.883  10.834  1.00  0.00    -0.014 A 
ATOM     80  C   UNL     1      -6.651   5.933  12.021  1.00  0.00     0.010 A 
ATOM     81  C   UNL     1      -5.742   7.053  10.069  1.00  0.00     0.010 A 
ATOM     82  C   UNL     1      -7.239   7.132  12.432  1.00  0.00     0.020 A 
ATOM     83  C   UNL     1      -6.307   8.259  10.489  1.00  0.00     0.020 A 
ATOM     84  C   UNL     1      -7.057   8.289  11.667  1.00  0.00     0.054 A 
BRANCH  84  85
ATOM     85  S   UNL     1      -7.768   9.847  12.265  1.00  0.00     0.124 S 
ATOM     86  O   UNL     1      -9.198   9.623  12.072  1.00  0.00    -0.237 OA
ATOM     87  O   UNL     1      -7.320   9.888  13.655  1.00  0.00    -0.237 OA
ATOM     88  O   UNL     1      -7.173  10.858  11.394  1.00  0.00    -0.744 OA
ENDBRANCH  84  85
ENDBRANCH  58  79
ENDBRANCH  32  33
ENDBRANCH  25  27
ENDBRANCH  24  25
ENDBRANCH   1  24
TORSDOF 15
