REMARK SMILES CC(=O)N[C@@H](C[NH2+]CCc1ccc(F)cc1C)C(=O)OCCOC(=O)c1ccc(-c2c3nc(c(-c4ccc(S(=O)(=O)[O-])cc4)c4ccc([nH]4)c(-c4ccc(S(=O)(=O)[O-])cc4)c4nc(c(-c5ccc(S(=O)(=O)[O-])cc5)c5ccc2[nH]5)C=C4)C=C3)cc1
REMARK SMILES IDX 21 1 20 2 18 3 19 4 5 5 4 6 1 7 2 8 3 9 6 11 7 12 8 15 9 16
REMARK SMILES IDX 10 17 11 18 16 19 12 20 15 21 17 22 13 23 14 24 22 25 23 26
REMARK SMILES IDX 24 27 25 28 26 29 27 30 85 31 28 32 84 33 29 34 30 35 31 36
REMARK SMILES IDX 78 37 32 38 83 39 77 40 79 41 33 42 82 43 76 44 75 45 34 47
REMARK SMILES IDX 64 48 45 49 63 50 46 51 49 52 62 53 80 54 47 55 48 56 61 58
REMARK SMILES IDX 81 59 50 60 35 61 36 62 44 63 37 64 43 65 38 66 39 67 40 68
REMARK SMILES IDX 41 69 42 70 65 71 66 72 74 73 67 74 73 75 68 76 69 77 70 78
REMARK SMILES IDX 71 79 72 80 51 81 52 82 60 83 53 84 59 85 54 86 55 87 56 88
REMARK SMILES IDX 57 89 58 90
REMARK H PARENT 4 10 7 13 7 14 79 46 49 57
REMARK Flexibility Score: inf
ROOT
ATOM      1  C   UNL     1      -0.313   5.736  -1.128  1.00  0.00     0.274 C 
ENDROOT
BRANCH   1   2
ATOM      2  O   UNL     1       0.250   4.467  -1.505  1.00  0.00    -0.460 OA
BRANCH   2   3
ATOM      3  C   UNL     1       1.400   4.104  -0.868  1.00  0.00     0.334 C 
ATOM      4  O   UNL     1       1.968   4.777  -0.015  1.00  0.00    -0.250 OA
BRANCH   3   5
ATOM      5  C   UNL     1       1.940   2.749  -1.357  1.00  0.00     0.247 C 
BRANCH   5   6
ATOM      6  N   UNL     1       1.003   2.016  -2.219  1.00  0.00    -0.338 N 
ATOM      7  C   UNL     1       1.001  -0.089  -0.931  1.00  0.00     0.114 C 
ATOM      8  C   UNL     1       0.540   0.742  -2.098  1.00  0.00     0.217 C 
ATOM      9  O   UNL     1      -0.241   0.302  -2.939  1.00  0.00    -0.275 OA
ATOM     10  H   UNL     1       0.661   2.518  -2.994  1.00  0.00     0.164 HD
ENDBRANCH   5   6
BRANCH   5  11
ATOM     11  C   UNL     1       3.285   2.983  -2.071  1.00  0.00     0.297 C 
BRANCH  11  12
ATOM     12  N   UNL     1       3.093   3.737  -3.317  1.00  0.00    -0.344 N 
ATOM     13  H   UNL     1       2.641   4.624  -3.095  1.00  0.00     0.346 HD
ATOM     14  H   UNL     1       2.519   3.165  -3.937  1.00  0.00     0.346 HD
BRANCH  12  15
ATOM     15  C   UNL     1       4.350   4.013  -4.010  1.00  0.00     0.265 C 
BRANCH  15  16
ATOM     16  C   UNL     1       4.962   2.838  -4.797  1.00  0.00     0.097 C 
BRANCH  16  17
ATOM     17  C   UNL     1       4.010   1.884  -5.501  1.00  0.00    -0.039 A 
ATOM     18  C   UNL     1       4.142   0.509  -5.206  1.00  0.00     0.007 A 
ATOM     19  C   UNL     1       3.031   2.285  -6.438  1.00  0.00    -0.045 A 
ATOM     20  C   UNL     1       3.313  -0.443  -5.796  1.00  0.00     0.039 A 
ATOM     21  C   UNL     1       2.186   1.312  -7.003  1.00  0.00     0.043 A 
ATOM     22  C   UNL     1       2.788   3.716  -6.831  1.00  0.00     0.045 C 
ATOM     23  C   UNL     1       2.338  -0.032  -6.687  1.00  0.00     0.123 A 
ATOM     24  F   UNL     1       1.539  -0.940  -7.263  1.00  0.00    -0.207 F 
ENDBRANCH  16  17
ENDBRANCH  15  16
ENDBRANCH  12  15
ENDBRANCH  11  12
ENDBRANCH   5  11
ENDBRANCH   3   5
ENDBRANCH   2   3
ENDBRANCH   1   2
BRANCH   1  25
ATOM     25  C   UNL     1      -1.550   5.559  -0.246  1.00  0.00     0.275 C 
BRANCH  25  26
ATOM     26  O   UNL     1      -1.221   4.913   0.997  1.00  0.00    -0.458 OA
BRANCH  26  27
ATOM     27  C   UNL     1      -1.449   3.579   1.012  1.00  0.00     0.338 C 
ATOM     28  O   UNL     1      -1.928   2.900   0.121  1.00  0.00    -0.246 OA
BRANCH  27  29
ATOM     29  C   UNL     1      -0.887   2.984   2.231  1.00  0.00     0.060 A 
ATOM     30  C   UNL     1       0.328   2.313   2.109  1.00  0.00     0.016 A 
ATOM     31  C   UNL     1      -1.605   2.934   3.424  1.00  0.00     0.016 A 
ATOM     32  C   UNL     1       0.809   1.534   3.151  1.00  0.00     0.010 A 
ATOM     33  C   UNL     1      -1.100   2.179   4.491  1.00  0.00     0.010 A 
ATOM     34  C   UNL     1       0.092   1.445   4.349  1.00  0.00    -0.014 A 
BRANCH  34  35
ATOM     35  C   UNL     1       0.572   0.509   5.396  1.00  0.00     0.031 A 
ATOM     36  C   UNL     1      -0.203  -0.747   5.693  1.00  0.00     0.074 A 
ATOM     37  C   UNL     1       1.748   0.736   6.012  1.00  0.00     0.049 A 
ATOM     38  N   UNL     1       0.040  -1.673   6.585  1.00  0.00    -0.248 NA
ATOM     39  C   UNL     1      -1.406  -0.994   4.882  1.00  0.00     0.031 C 
ATOM     40  C   UNL     1       2.623   1.886   5.769  1.00  0.00     0.029 A 
ATOM     41  N   UNL     1       2.424  -0.005   6.947  1.00  0.00    -0.354 N 
ATOM     42  C   UNL     1      -1.002  -2.587   6.476  1.00  0.00     0.074 A 
ATOM     43  C   UNL     1      -1.877  -2.106   5.428  1.00  0.00     0.031 C 
ATOM     44  C   UNL     1       3.739   1.750   6.504  1.00  0.00     0.029 A 
ATOM     45  C   UNL     1       3.635   0.536   7.308  1.00  0.00     0.049 A 
ATOM     46  H   UNL     1       2.076  -0.846   7.323  1.00  0.00     0.167 HD
ATOM     47  C   UNL     1      -1.214  -3.720   7.187  1.00  0.00     0.031 A 
ATOM     48  C   UNL     1       4.553   0.112   8.196  1.00  0.00     0.031 A 
ATOM     49  C   UNL     1      -0.329  -4.214   8.208  1.00  0.00     0.049 A 
ATOM     50  C   UNL     1       4.298  -1.151   8.967  1.00  0.00     0.074 A 
ATOM     51  C   UNL     1      -0.469  -5.340   9.002  1.00  0.00     0.029 A 
ATOM     52  N   UNL     1       0.872  -3.621   8.565  1.00  0.00    -0.354 N 
ATOM     53  N   UNL     1       3.273  -1.966   8.896  1.00  0.00    -0.248 NA
ATOM     54  C   UNL     1       5.323  -1.547   9.943  1.00  0.00     0.031 C 
ATOM     55  C   UNL     1       0.640  -5.415   9.854  1.00  0.00     0.029 A 
ATOM     56  C   UNL     1       1.485  -4.356   9.565  1.00  0.00     0.049 A 
ATOM     57  H   UNL     1       1.236  -2.798   8.165  1.00  0.00     0.167 HD
ATOM     58  C   UNL     1       3.529  -2.973   9.819  1.00  0.00     0.074 A 
ATOM     59  C   UNL     1       4.817  -2.680  10.414  1.00  0.00     0.031 C 
ATOM     60  C   UNL     1       2.761  -4.040  10.152  1.00  0.00     0.031 A 
BRANCH  47  61
ATOM     61  C   UNL     1      -2.485  -4.475   6.911  1.00  0.00    -0.014 A 
ATOM     62  C   UNL     1      -2.630  -5.272   5.762  1.00  0.00     0.010 A 
ATOM     63  C   UNL     1      -3.550  -4.388   7.826  1.00  0.00     0.010 A 
ATOM     64  C   UNL     1      -3.834  -5.939   5.514  1.00  0.00     0.020 A 
ATOM     65  C   UNL     1      -4.747  -5.069   7.592  1.00  0.00     0.020 A 
ATOM     66  C   UNL     1      -4.888  -5.825   6.426  1.00  0.00     0.054 A 
BRANCH  66  67
ATOM     67  S   UNL     1      -6.441  -6.703   6.092  1.00  0.00     0.124 S 
ATOM     68  O   UNL     1      -7.080  -5.821   5.120  1.00  0.00    -0.237 OA
ATOM     69  O   UNL     1      -5.983  -7.988   5.569  1.00  0.00    -0.237 OA
ATOM     70  O   UNL     1      -7.089  -6.764   7.400  1.00  0.00    -0.744 OA
ENDBRANCH  66  67
ENDBRANCH  47  61
BRANCH  48  71
ATOM     71  C   UNL     1       5.791   0.905   8.414  1.00  0.00    -0.014 A 
ATOM     72  C   UNL     1       7.029   0.447   7.933  1.00  0.00     0.010 A 
ATOM     73  C   UNL     1       5.728   2.141   9.084  1.00  0.00     0.010 A 
ATOM     74  C   UNL     1       8.185   1.209   8.121  1.00  0.00     0.020 A 
ATOM     75  C   UNL     1       6.878   2.916   9.253  1.00  0.00     0.020 A 
ATOM     76  C   UNL     1       8.102   2.441   8.778  1.00  0.00     0.054 A 
BRANCH  76  77
ATOM     77  S   UNL     1       9.595   3.458   8.945  1.00  0.00     0.124 S 
ATOM     78  O   UNL     1      10.233   2.868  10.117  1.00  0.00    -0.237 OA
ATOM     79  O   UNL     1      10.280   3.237   7.673  1.00  0.00    -0.237 OA
ATOM     80  O   UNL     1       9.064   4.807   9.129  1.00  0.00    -0.744 OA
ENDBRANCH  76  77
ENDBRANCH  48  71
BRANCH  60  81
ATOM     81  C   UNL     1       3.312  -4.968  11.197  1.00  0.00    -0.014 A 
ATOM     82  C   UNL     1       3.300  -4.609  12.557  1.00  0.00     0.010 A 
ATOM     83  C   UNL     1       3.847  -6.211  10.816  1.00  0.00     0.010 A 
ATOM     84  C   UNL     1       3.856  -5.460  13.515  1.00  0.00     0.020 A 
ATOM     85  C   UNL     1       4.387  -7.072  11.773  1.00  0.00     0.020 A 
ATOM     86  C   UNL     1       4.408  -6.681  13.115  1.00  0.00     0.054 A 
BRANCH  86  87
ATOM     87  S   UNL     1       5.128  -7.777  14.368  1.00  0.00     0.124 S 
ATOM     88  O   UNL     1       6.459  -7.203  14.542  1.00  0.00    -0.237 OA
ATOM     89  O   UNL     1       4.221  -7.617  15.503  1.00  0.00    -0.237 OA
ATOM     90  O   UNL     1       5.092  -9.093  13.734  1.00  0.00    -0.744 OA
ENDBRANCH  86  87
ENDBRANCH  60  81
ENDBRANCH  34  35
ENDBRANCH  27  29
ENDBRANCH  26  27
ENDBRANCH  25  26
ENDBRANCH   1  25
TORSDOF 20
