REMARK SMILES Cc1cc(SCC(=O)OCCOC(=O)c2ccc(-c3c4nc(c(-c5ccc(S(=O)(=O)[O-])cc5)c5ccc([nH]5)c(-c5ccc(S(=O)(=O)[O-])cc5)c5nc(c(-c6ccc(S(=O)(=O)[O-])cc6)c6ccc3[nH]6)C=C5)C=C4)cc2)c2cc(I)ccc2n1
REMARK SMILES IDX 11 1 10 2 9 3 7 4 8 5 6 6 5 7 4 8 1 9 2 10 3 11 82 12 81 13
REMARK SMILES IDX 75 14 80 15 76 16 79 17 77 18 78 19 12 20 13 21 14 22 15 23
REMARK SMILES IDX 16 24 74 25 17 26 73 27 18 28 19 29 20 30 67 31 21 32 72 33
REMARK SMILES IDX 66 34 68 35 22 36 71 37 65 38 64 39 23 41 53 42 34 43 52 44
REMARK SMILES IDX 35 45 38 46 51 47 69 48 36 49 37 50 50 52 70 53 39 54 24 55
REMARK SMILES IDX 25 56 33 57 26 58 32 59 27 60 28 61 29 62 30 63 31 64 54 65
REMARK SMILES IDX 55 66 63 67 56 68 62 69 57 70 58 71 59 72 60 73 61 74 40 75
REMARK SMILES IDX 41 76 49 77 42 78 48 79 43 80 44 81 45 82 46 83 47 84
REMARK H PARENT 68 40 38 51
REMARK Flexibility Score: inf
ROOT
ATOM      1  C   UNL     1       2.545  -1.148  -4.649  1.00  0.00     0.275 C 
ENDROOT
BRANCH   1   2
ATOM      2  C   UNL     1       1.728  -0.536  -5.784  1.00  0.00     0.274 C 
BRANCH   2   3
ATOM      3  O   UNL     1       0.780   0.438  -5.301  1.00  0.00    -0.461 OA
BRANCH   3   4
ATOM      4  C   UNL     1      -0.497   0.006  -5.149  1.00  0.00     0.316 C 
ATOM      5  O   UNL     1      -0.855  -1.155  -5.335  1.00  0.00    -0.251 OA
BRANCH   4   6
ATOM      6  C   UNL     1      -1.497   1.066  -4.738  1.00  0.00     0.197 C 
BRANCH   6   7
ATOM      7  S   UNL     1      -0.855   2.759  -4.587  1.00  0.00    -0.114 SA
BRANCH   7   8
ATOM      8  C   UNL     1      -0.414   2.990  -2.845  1.00  0.00     0.019 A 
ATOM      9  C   UNL     1       0.071   1.063   0.385  1.00  0.00     0.067 C 
ATOM     10  C   UNL     1       0.009   2.176  -0.619  1.00  0.00     0.039 A 
ATOM     11  C   UNL     1      -0.388   1.939  -1.929  1.00  0.00     0.039 A 
ATOM     12  N   UNL     1       0.398   3.393  -0.193  1.00  0.00    -0.253 NA
ATOM     13  C   UNL     1       0.376   4.414  -1.052  1.00  0.00     0.072 A 
ATOM     14  C   UNL     1      -0.041   4.291  -2.396  1.00  0.00     0.015 A 
ATOM     15  C   UNL     1       0.790   5.648  -0.572  1.00  0.00     0.030 A 
ATOM     16  C   UNL     1      -0.058   5.467  -3.194  1.00  0.00     0.026 A 
ATOM     17  C   UNL     1       0.784   6.792  -1.369  1.00  0.00     0.017 A 
ATOM     18  C   UNL     1       0.346   6.699  -2.681  1.00  0.00     0.014 A 
ATOM     19  I   UNL     1       0.285   8.393  -3.879  1.00  0.00    -0.044 I 
ENDBRANCH   7   8
ENDBRANCH   6   7
ENDBRANCH   4   6
ENDBRANCH   3   4
ENDBRANCH   2   3
ENDBRANCH   1   2
BRANCH   1  20
ATOM     20  O   UNL     1       1.691  -1.850  -3.729  1.00  0.00    -0.458 OA
BRANCH  20  21
ATOM     21  C   UNL     1       1.520  -1.235  -2.539  1.00  0.00     0.338 C 
ATOM     22  O   UNL     1       2.026  -0.192  -2.165  1.00  0.00    -0.246 OA
BRANCH  21  23
ATOM     23  C   UNL     1       0.576  -1.989  -1.704  1.00  0.00     0.060 A 
ATOM     24  C   UNL     1       1.061  -2.696  -0.605  1.00  0.00     0.016 A 
ATOM     25  C   UNL     1      -0.799  -1.846  -1.909  1.00  0.00     0.016 A 
ATOM     26  C   UNL     1       0.158  -3.282   0.282  1.00  0.00     0.010 A 
ATOM     27  C   UNL     1      -1.698  -2.376  -0.985  1.00  0.00     0.010 A 
ATOM     28  C   UNL     1      -1.227  -3.117   0.106  1.00  0.00    -0.014 A 
BRANCH  28  29
ATOM     29  C   UNL     1      -2.172  -3.759   1.049  1.00  0.00     0.031 A 
ATOM     30  C   UNL     1      -2.955  -4.965   0.615  1.00  0.00     0.074 A 
ATOM     31  C   UNL     1      -2.303  -3.282   2.302  1.00  0.00     0.049 A 
ATOM     32  N   UNL     1      -3.663  -5.785   1.346  1.00  0.00    -0.248 NA
ATOM     33  C   UNL     1      -2.947  -5.293  -0.821  1.00  0.00     0.031 C 
ATOM     34  C   UNL     1      -1.660  -2.073   2.820  1.00  0.00     0.029 A 
ATOM     35  N   UNL     1      -3.011  -3.768   3.374  1.00  0.00    -0.354 N 
ATOM     36  C   UNL     1      -4.142  -6.750   0.469  1.00  0.00     0.074 A 
ATOM     37  C   UNL     1      -3.719  -6.370  -0.859  1.00  0.00     0.031 C 
ATOM     38  C   UNL     1      -1.982  -1.926   4.117  1.00  0.00     0.029 A 
ATOM     39  C   UNL     1      -2.837  -3.038   4.526  1.00  0.00     0.049 A 
ATOM     40  H   UNL     1      -3.588  -4.564   3.322  1.00  0.00     0.167 HD
ATOM     41  C   UNL     1      -4.831  -7.878   0.753  1.00  0.00     0.031 A 
ATOM     42  C   UNL     1      -3.278  -3.262   5.780  1.00  0.00     0.031 A 
ATOM     43  C   UNL     1      -5.265  -8.245   2.072  1.00  0.00     0.049 A 
ATOM     44  C   UNL     1      -4.024  -4.534   6.081  1.00  0.00     0.074 A 
ATOM     45  C   UNL     1      -5.962  -9.373   2.464  1.00  0.00     0.029 A 
ATOM     46  N   UNL     1      -5.037  -7.493   3.213  1.00  0.00    -0.354 N 
ATOM     47  N   UNL     1      -4.380  -5.491   5.257  1.00  0.00    -0.248 NA
ATOM     48  C   UNL     1      -4.388  -4.783   7.484  1.00  0.00     0.031 C 
ATOM     49  C   UNL     1      -6.178  -9.292   3.842  1.00  0.00     0.029 A 
ATOM     50  C   UNL     1      -5.576  -8.135   4.312  1.00  0.00     0.049 A 
ATOM     51  H   UNL     1      -4.561  -6.631   3.238  1.00  0.00     0.167 HD
ATOM     52  C   UNL     1      -4.971  -6.471   6.046  1.00  0.00     0.074 A 
ATOM     53  C   UNL     1      -4.928  -5.994   7.412  1.00  0.00     0.031 C 
ATOM     54  C   UNL     1      -5.497  -7.661   5.669  1.00  0.00     0.031 A 
BRANCH  41  55
ATOM     55  C   UNL     1      -5.106  -8.831  -0.376  1.00  0.00    -0.014 A 
ATOM     56  C   UNL     1      -6.412  -9.013  -0.857  1.00  0.00     0.010 A 
ATOM     57  C   UNL     1      -4.062  -9.617  -0.897  1.00  0.00     0.010 A 
ATOM     58  C   UNL     1      -6.675  -9.982  -1.830  1.00  0.00     0.020 A 
ATOM     59  C   UNL     1      -4.317 -10.572  -1.883  1.00  0.00     0.020 A 
ATOM     60  C   UNL     1      -5.627 -10.761  -2.329  1.00  0.00     0.054 A 
BRANCH  60  61
ATOM     61  S   UNL     1      -5.985 -12.021  -3.583  1.00  0.00     0.124 S 
ATOM     62  O   UNL     1      -6.551 -13.101  -2.781  1.00  0.00    -0.237 OA
ATOM     63  O   UNL     1      -6.921 -11.335  -4.470  1.00  0.00    -0.237 OA
ATOM     64  O   UNL     1      -4.675 -12.297  -4.172  1.00  0.00    -0.744 OA
ENDBRANCH  60  61
ENDBRANCH  41  55
BRANCH  42  65
ATOM     65  C   UNL     1      -2.936  -2.299   6.861  1.00  0.00    -0.014 A 
ATOM     66  C   UNL     1      -3.584  -1.054   6.932  1.00  0.00     0.010 A 
ATOM     67  C   UNL     1      -1.935  -2.605   7.800  1.00  0.00     0.010 A 
ATOM     68  C   UNL     1      -3.229  -0.124   7.914  1.00  0.00     0.020 A 
ATOM     69  C   UNL     1      -1.591  -1.686   8.796  1.00  0.00     0.020 A 
ATOM     70  C   UNL     1      -2.228  -0.444   8.835  1.00  0.00     0.054 A 
BRANCH  70  71
ATOM     71  S   UNL     1      -1.781   0.771  10.108  1.00  0.00     0.124 S 
ATOM     72  O   UNL     1      -0.865   1.643   9.379  1.00  0.00    -0.237 OA
ATOM     73  O   UNL     1      -3.070   1.363  10.458  1.00  0.00    -0.237 OA
ATOM     74  O   UNL     1      -1.171  -0.046  11.155  1.00  0.00    -0.744 OA
ENDBRANCH  70  71
ENDBRANCH  42  65
BRANCH  54  75
ATOM     75  C   UNL     1      -6.041  -8.573   6.734  1.00  0.00    -0.014 A 
ATOM     76  C   UNL     1      -5.353  -9.764   7.037  1.00  0.00     0.010 A 
ATOM     77  C   UNL     1      -7.296  -8.335   7.318  1.00  0.00     0.010 A 
ATOM     78  C   UNL     1      -5.925 -10.716   7.882  1.00  0.00     0.020 A 
ATOM     79  C   UNL     1      -7.862  -9.277   8.180  1.00  0.00     0.020 A 
ATOM     80  C   UNL     1      -7.184 -10.473   8.435  1.00  0.00     0.054 A 
BRANCH  80  81
ATOM     81  S   UNL     1      -7.939 -11.735   9.499  1.00  0.00     0.124 S 
ATOM     82  O   UNL     1      -8.538 -12.639   8.523  1.00  0.00    -0.237 OA
ATOM     83  O   UNL     1      -6.795 -12.270  10.233  1.00  0.00    -0.237 OA
ATOM     84  O   UNL     1      -8.885 -10.972  10.309  1.00  0.00    -0.744 OA
ENDBRANCH  80  81
ENDBRANCH  54  75
ENDBRANCH  28  29
ENDBRANCH  21  23
ENDBRANCH  20  21
ENDBRANCH   1  20
TORSDOF 16
