REMARK SMILES O=C(OCCOC(=O)c1cnc(OCC2CC2)c(Cl)c1)c1ccc(-c2c3nc(c(-c4ccc(S(=O)(=O)[O-])cc4)c4ccc([nH]4)c(-c4ccc(S(=O)(=O)[O-])cc4)c4nc(c(-c5ccc(S(=O)(=O)[O-])cc5)c5ccc2[nH]5)C=C4)C=C3)cc1
REMARK SMILES IDX 4 1 3 2 2 3 1 4 21 5 22 6 80 7 23 8 79 9 24 10 25 11 26 12
REMARK SMILES IDX 73 13 27 14 78 15 72 16 74 17 28 18 77 19 71 20 70 21 29 23
REMARK SMILES IDX 59 24 40 25 58 26 41 27 44 28 57 29 75 30 42 31 43 32 56 34
REMARK SMILES IDX 76 35 45 36 30 37 31 38 39 39 32 40 38 41 33 42 34 43 35 44
REMARK SMILES IDX 36 45 37 46 60 47 61 48 69 49 62 50 68 51 63 52 64 53 65 54
REMARK SMILES IDX 66 55 67 56 46 57 47 58 55 59 48 60 54 61 49 62 50 63 51 64
REMARK SMILES IDX 52 65 53 66 5 67 6 68 7 69 8 70 9 71 10 72 20 73 11 74 18 75
REMARK SMILES IDX 12 76 19 77 13 78 14 79 15 80 16 81 17 82
REMARK H PARENT 74 22 44 33
REMARK Flexibility Score: inf
ROOT
ATOM      1  C   UNL     1       3.921   1.432  -0.760  1.00  0.00     0.275 C 
ENDROOT
BRANCH   1   2
ATOM      2  O   UNL     1       2.869   0.482  -1.005  1.00  0.00    -0.458 OA
BRANCH   2   3
ATOM      3  C   UNL     1       2.774  -0.829  -0.679  1.00  0.00     0.338 C 
ATOM      4  O   UNL     1       1.807  -1.467  -1.092  1.00  0.00    -0.246 OA
BRANCH   3   5
ATOM      5  C   UNL     1       3.704  -1.512   0.274  1.00  0.00     0.060 A 
ATOM      6  C   UNL     1       5.035  -1.163   0.502  1.00  0.00     0.016 A 
ATOM      7  C   UNL     1       3.172  -2.589   1.007  1.00  0.00     0.016 A 
ATOM      8  C   UNL     1       5.784  -1.792   1.495  1.00  0.00     0.010 A 
ATOM      9  C   UNL     1       3.914  -3.218   2.010  1.00  0.00     0.010 A 
ATOM     10  C   UNL     1       5.228  -2.812   2.264  1.00  0.00    -0.014 A 
BRANCH  10  11
ATOM     11  C   UNL     1       6.085  -3.501   3.251  1.00  0.00     0.031 A 
ATOM     12  C   UNL     1       6.548  -4.896   2.955  1.00  0.00     0.074 A 
ATOM     13  C   UNL     1       6.463  -2.861   4.375  1.00  0.00     0.049 A 
ATOM     14  N   UNL     1       7.316  -5.673   3.669  1.00  0.00    -0.248 NA
ATOM     15  C   UNL     1       6.107  -5.486   1.679  1.00  0.00     0.031 C 
ATOM     16  C   UNL     1       6.043  -1.511   4.764  1.00  0.00     0.029 A 
ATOM     17  N   UNL     1       7.221  -3.286   5.437  1.00  0.00    -0.354 N 
ATOM     18  C   UNL     1       7.507  -6.812   2.898  1.00  0.00     0.074 A 
ATOM     19  C   UNL     1       6.691  -6.673   1.714  1.00  0.00     0.031 C 
ATOM     20  C   UNL     1       6.466  -1.260   6.015  1.00  0.00     0.029 A 
ATOM     21  C   UNL     1       7.186  -2.425   6.511  1.00  0.00     0.049 A 
ATOM     22  H   UNL     1       7.737  -4.124   5.432  1.00  0.00     0.167 HD
ATOM     23  C   UNL     1       8.340  -7.852   3.129  1.00  0.00     0.031 A 
ATOM     24  C   UNL     1       7.641  -2.589   7.768  1.00  0.00     0.031 A 
ATOM     25  C   UNL     1       9.105  -7.997   4.336  1.00  0.00     0.049 A 
ATOM     26  C   UNL     1       8.420  -3.836   8.082  1.00  0.00     0.074 A 
ATOM     27  C   UNL     1       9.994  -8.996   4.684  1.00  0.00     0.029 A 
ATOM     28  N   UNL     1       9.050  -7.114   5.406  1.00  0.00    -0.354 N 
ATOM     29  N   UNL     1       8.662  -4.870   7.310  1.00  0.00    -0.248 NA
ATOM     30  C   UNL     1       9.033  -3.917   9.413  1.00  0.00     0.031 C 
ATOM     31  C   UNL     1      10.442  -8.741   5.985  1.00  0.00     0.029 A 
ATOM     32  C   UNL     1       9.878  -7.551   6.423  1.00  0.00     0.049 A 
ATOM     33  H   UNL     1       8.503  -6.296   5.436  1.00  0.00     0.167 HD
ATOM     34  C   UNL     1       9.509  -5.696   8.039  1.00  0.00     0.074 A 
ATOM     35  C   UNL     1       9.726  -5.042   9.316  1.00  0.00     0.031 C 
ATOM     36  C   UNL     1      10.076  -6.875   7.680  1.00  0.00     0.031 A 
BRANCH  23  37
ATOM     37  C   UNL     1       8.479  -8.873   2.034  1.00  0.00    -0.014 A 
ATOM     38  C   UNL     1       9.118  -8.531   0.825  1.00  0.00     0.010 A 
ATOM     39  C   UNL     1       7.987 -10.178   2.201  1.00  0.00     0.010 A 
ATOM     40  C   UNL     1       9.228  -9.462  -0.209  1.00  0.00     0.020 A 
ATOM     41  C   UNL     1       8.118 -11.122   1.176  1.00  0.00     0.020 A 
ATOM     42  C   UNL     1       8.725 -10.752  -0.027  1.00  0.00     0.054 A 
BRANCH  42  43
ATOM     43  S   UNL     1       8.906 -11.947  -1.380  1.00  0.00     0.124 S 
ATOM     44  O   UNL     1       7.965 -11.428  -2.370  1.00  0.00    -0.237 OA
ATOM     45  O   UNL     1      10.319 -11.818  -1.731  1.00  0.00    -0.237 OA
ATOM     46  O   UNL     1       8.532 -13.221  -0.772  1.00  0.00    -0.744 OA
ENDBRANCH  42  43
ENDBRANCH  23  37
BRANCH  24  47
ATOM     47  C   UNL     1       7.358  -1.572   8.819  1.00  0.00    -0.014 A 
ATOM     48  C   UNL     1       8.378  -0.749   9.327  1.00  0.00     0.010 A 
ATOM     49  C   UNL     1       6.058  -1.450   9.346  1.00  0.00     0.010 A 
ATOM     50  C   UNL     1       8.114   0.147  10.369  1.00  0.00     0.020 A 
ATOM     51  C   UNL     1       5.785  -0.538  10.371  1.00  0.00     0.020 A 
ATOM     52  C   UNL     1       6.819   0.243  10.888  1.00  0.00     0.054 A 
BRANCH  52  53
ATOM     53  S   UNL     1       6.506   1.417  12.237  1.00  0.00     0.124 S 
ATOM     54  O   UNL     1       7.220   0.799  13.351  1.00  0.00    -0.237 OA
ATOM     55  O   UNL     1       7.089   2.652  11.718  1.00  0.00    -0.237 OA
ATOM     56  O   UNL     1       5.050   1.425  12.355  1.00  0.00    -0.744 OA
ENDBRANCH  52  53
ENDBRANCH  24  47
BRANCH  36  57
ATOM     57  C   UNL     1      11.042  -7.488   8.655  1.00  0.00    -0.014 A 
ATOM     58  C   UNL     1      10.605  -8.065   9.860  1.00  0.00     0.010 A 
ATOM     59  C   UNL     1      12.412  -7.508   8.337  1.00  0.00     0.010 A 
ATOM     60  C   UNL     1      11.530  -8.612  10.751  1.00  0.00     0.020 A 
ATOM     61  C   UNL     1      13.335  -8.085   9.208  1.00  0.00     0.020 A 
ATOM     62  C   UNL     1      12.890  -8.617  10.419  1.00  0.00     0.054 A 
BRANCH  62  63
ATOM     63  S   UNL     1      14.068  -9.358  11.580  1.00  0.00     0.124 S 
ATOM     64  O   UNL     1      14.132  -8.347  12.632  1.00  0.00    -0.237 OA
ATOM     65  O   UNL     1      13.411 -10.610  11.948  1.00  0.00    -0.237 OA
ATOM     66  O   UNL     1      15.286  -9.510  10.787  1.00  0.00    -0.744 OA
ENDBRANCH  62  63
ENDBRANCH  36  57
ENDBRANCH  10  11
ENDBRANCH   3   5
ENDBRANCH   2   3
ENDBRANCH   1   2
BRANCH   1  67
ATOM     67  C   UNL     1       3.903   2.096   0.622  1.00  0.00     0.275 C 
BRANCH  67  68
ATOM     68  O   UNL     1       3.524   1.223   1.698  1.00  0.00    -0.458 OA
BRANCH  68  69
ATOM     69  C   UNL     1       2.201   1.228   2.005  1.00  0.00     0.339 C 
ATOM     70  O   UNL     1       1.330   1.900   1.480  1.00  0.00    -0.246 OA
BRANCH  69  71
ATOM     71  C   UNL     1       1.922   0.175   2.989  1.00  0.00     0.080 A 
ATOM     72  C   UNL     1       1.012  -0.807   2.656  1.00  0.00     0.131 A 
ATOM     73  C   UNL     1       2.531   0.106   4.236  1.00  0.00     0.043 A 
ATOM     74  N   UNL     1       0.770  -1.888   3.433  1.00  0.00    -0.220 NA
ATOM     75  C   UNL     1       2.249  -0.975   5.092  1.00  0.00     0.104 A 
ATOM     76  C   UNL     1       1.407  -1.996   4.632  1.00  0.00     0.232 A 
ATOM     77  Cl  UNL     1       2.998  -0.901   6.642  1.00  0.00    -0.078 Cl
BRANCH  76  78
ATOM     78  O   UNL     1       1.170  -3.226   5.155  1.00  0.00    -0.476 OA
BRANCH  78  79
ATOM     79  C   UNL     1       1.326  -3.531   6.534  1.00  0.00     0.235 C 
BRANCH  79  80
ATOM     80  C   UNL     1       2.629  -4.208   6.852  1.00  0.00     0.027 C 
ATOM     81  C   UNL     1       3.087  -5.446   6.109  1.00  0.00     0.007 C 
ATOM     82  C   UNL     1       3.821  -4.154   5.938  1.00  0.00     0.007 C 
ENDBRANCH  79  80
ENDBRANCH  78  79
ENDBRANCH  76  78
ENDBRANCH  69  71
ENDBRANCH  68  69
ENDBRANCH  67  68
ENDBRANCH   1  67
TORSDOF 17
