REMARK SMILES COCc1cccc(C[NH2+][C@H](C)[C@H](C)C(=O)OCCOC(=O)c2ccc(-c3c4nc(c(-c5ccc(S(=O)(=O)[O-])cc5)c5ccc([nH]5)c(-c5ccc(S(=O)(=O)[O-])cc5)c5nc(c(-c6ccc(S(=O)(=O)[O-])cc6)c6ccc3[nH]6)C=C5)C=C4)cc2)c1
REMARK SMILES IDX 17 1 15 2 16 3 13 4 14 5 11 6 12 7 10 8 9 11 8 12 4 13 5 14
REMARK SMILES IDX 83 15 6 16 7 17 3 18 2 19 1 20 18 21 19 22 20 23 21 24 22 25
REMARK SMILES IDX 23 26 24 27 82 28 25 29 81 30 26 31 27 32 28 33 75 34 29 35
REMARK SMILES IDX 80 36 74 37 76 38 30 39 79 40 73 41 72 42 31 44 61 45 42 46
REMARK SMILES IDX 60 47 43 48 46 49 59 50 77 51 44 52 45 53 58 55 78 56 47 57
REMARK SMILES IDX 32 58 33 59 41 60 34 61 40 62 35 63 36 64 37 65 38 66 39 67
REMARK SMILES IDX 62 68 63 69 71 70 64 71 70 72 65 73 66 74 67 75 68 76 69 77
REMARK SMILES IDX 48 78 49 79 57 80 50 81 56 82 51 83 52 84 53 85 54 86 55 87
REMARK H PARENT 10 9 10 10 76 43 46 54
REMARK Flexibility Score: inf
ROOT
ATOM      1  O   UNL     1       3.867  -9.157   1.521  1.00  0.00    -0.462 OA
ENDROOT
BRANCH   1   2
ATOM      2  C   UNL     1       4.189  -8.598   2.719  1.00  0.00     0.314 C 
ATOM      3  O   UNL     1       5.143  -8.949   3.404  1.00  0.00    -0.252 OA
BRANCH   2   4
ATOM      4  C   UNL     1       3.230  -7.492   3.144  1.00  0.00     0.154 C 
ATOM      5  C   UNL     1       2.598  -6.800   1.928  1.00  0.00     0.026 C 
BRANCH   4   6
ATOM      6  C   UNL     1       2.191  -8.009   4.172  1.00  0.00     0.193 C 
ATOM      7  C   UNL     1       2.872  -8.695   5.369  1.00  0.00     0.076 C 
BRANCH   6   8
ATOM      8  N   UNL     1       1.379  -6.879   4.666  1.00  0.00    -0.340 N 
ATOM      9  H   UNL     1       1.949  -6.330   5.310  1.00  0.00     0.346 HD
ATOM     10  H   UNL     1       1.088  -6.339   3.852  1.00  0.00     0.346 HD
BRANCH   8  11
ATOM     11  C   UNL     1       0.167  -7.295   5.362  1.00  0.00     0.297 C 
BRANCH  11  12
ATOM     12  C   UNL     1      -0.719  -6.105   5.641  1.00  0.00     0.006 A 
ATOM     13  C   UNL     1      -2.749  -4.835   5.172  1.00  0.00    -0.022 A 
ATOM     14  C   UNL     1      -2.428  -3.959   6.217  1.00  0.00     0.006 A 
ATOM     15  C   UNL     1      -1.875  -5.892   4.881  1.00  0.00     0.015 A 
ATOM     16  C   UNL     1      -1.248  -4.130   6.944  1.00  0.00     0.001 A 
ATOM     17  C   UNL     1      -0.399  -5.199   6.660  1.00  0.00     0.009 A 
BRANCH  13  18
ATOM     18  C   UNL     1      -4.029  -4.671   4.391  1.00  0.00     0.195 C 
BRANCH  18  19
ATOM     19  O   UNL     1      -5.111  -5.429   4.937  1.00  0.00    -0.380 OA
ATOM     20  C   UNL     1      -5.005  -6.826   4.696  1.00  0.00     0.195 C 
ENDBRANCH  18  19
ENDBRANCH  13  18
ENDBRANCH  11  12
ENDBRANCH   8  11
ENDBRANCH   6   8
ENDBRANCH   4   6
ENDBRANCH   2   4
ENDBRANCH   1   2
BRANCH   1  21
ATOM     21  C   UNL     1       4.771 -10.172   1.042  1.00  0.00     0.274 C 
BRANCH  21  22
ATOM     22  C   UNL     1       5.878  -9.600   0.147  1.00  0.00     0.275 C 
BRANCH  22  23
ATOM     23  O   UNL     1       6.811  -8.787   0.883  1.00  0.00    -0.458 OA
BRANCH  23  24
ATOM     24  C   UNL     1       6.558  -7.457   0.849  1.00  0.00     0.338 C 
ATOM     25  O   UNL     1       5.670  -6.899   0.226  1.00  0.00    -0.246 OA
BRANCH  24  26
ATOM     26  C   UNL     1       7.431  -6.740   1.792  1.00  0.00     0.060 A 
ATOM     27  C   UNL     1       6.822  -6.042   2.838  1.00  0.00     0.016 A 
ATOM     28  C   UNL     1       8.807  -6.644   1.587  1.00  0.00     0.016 A 
ATOM     29  C   UNL     1       7.576  -5.232   3.679  1.00  0.00     0.010 A 
ATOM     30  C   UNL     1       9.566  -5.818   2.426  1.00  0.00     0.010 A 
ATOM     31  C   UNL     1       8.950  -5.090   3.461  1.00  0.00    -0.014 A 
BRANCH  31  32
ATOM     32  C   UNL     1       9.703  -4.080   4.239  1.00  0.00     0.031 A 
ATOM     33  C   UNL     1      10.044  -2.764   3.596  1.00  0.00     0.074 A 
ATOM     34  C   UNL     1      10.026  -4.310   5.525  1.00  0.00     0.049 A 
ATOM     35  N   UNL     1      10.750  -1.770   4.069  1.00  0.00    -0.248 NA
ATOM     36  C   UNL     1       9.517  -2.538   2.240  1.00  0.00     0.031 C 
ATOM     37  C   UNL     1       9.683  -5.515   6.281  1.00  0.00     0.029 A 
ATOM     38  N   UNL     1      10.711  -3.533   6.423  1.00  0.00    -0.354 N 
ATOM     39  C   UNL     1      10.773  -0.811   3.064  1.00  0.00     0.074 A 
ATOM     40  C   UNL     1      10.019  -1.347   1.950  1.00  0.00     0.031 C 
ATOM     41  C   UNL     1      10.162  -5.396   7.531  1.00  0.00     0.029 A 
ATOM     42  C   UNL     1      10.878  -4.128   7.650  1.00  0.00     0.049 A 
ATOM     43  H   UNL     1      11.051  -2.634   6.210  1.00  0.00     0.167 HD
ATOM     44  C   UNL     1      11.370   0.404   3.067  1.00  0.00     0.031 A 
ATOM     45  C   UNL     1      11.553  -3.709   8.738  1.00  0.00     0.031 A 
ATOM     46  C   UNL     1      12.118   0.932   4.176  1.00  0.00     0.049 A 
ATOM     47  C   UNL     1      12.249  -2.376   8.703  1.00  0.00     0.074 A 
ATOM     48  C   UNL     1      12.791   2.138   4.267  1.00  0.00     0.029 A 
ATOM     49  N   UNL     1      12.284   0.288   5.393  1.00  0.00    -0.354 N 
ATOM     50  N   UNL     1      12.303  -1.501   7.726  1.00  0.00    -0.248 NA
ATOM     51  C   UNL     1      12.971  -1.971   9.917  1.00  0.00     0.031 C 
ATOM     52  C   UNL     1      13.389   2.210   5.531  1.00  0.00     0.029 A 
ATOM     53  C   UNL     1      13.049   1.069   6.241  1.00  0.00     0.049 A 
ATOM     54  H   UNL     1      11.911  -0.594   5.620  1.00  0.00     0.167 HD
ATOM     55  C   UNL     1      13.046  -0.432   8.216  1.00  0.00     0.074 A 
ATOM     56  C   UNL     1      13.410  -0.766   9.579  1.00  0.00     0.031 C 
ATOM     57  C   UNL     1      13.395   0.722   7.596  1.00  0.00     0.031 A 
BRANCH  44  58
ATOM     58  C   UNL     1      11.270   1.222   1.808  1.00  0.00    -0.014 A 
ATOM     59  C   UNL     1      10.072   1.865   1.448  1.00  0.00     0.010 A 
ATOM     60  C   UNL     1      12.397   1.355   0.977  1.00  0.00     0.010 A 
ATOM     61  C   UNL     1       9.992   2.592   0.258  1.00  0.00     0.020 A 
ATOM     62  C   UNL     1      12.327   2.101  -0.203  1.00  0.00     0.020 A 
ATOM     63  C   UNL     1      11.118   2.698  -0.565  1.00  0.00     0.054 A 
BRANCH  63  64
ATOM     64  S   UNL     1      10.992   3.650  -2.105  1.00  0.00     0.124 S 
ATOM     65  O   UNL     1      10.270   2.722  -2.972  1.00  0.00    -0.237 OA
ATOM     66  O   UNL     1      10.244   4.835  -1.693  1.00  0.00    -0.237 OA
ATOM     67  O   UNL     1      12.384   3.893  -2.475  1.00  0.00    -0.744 OA
ENDBRANCH  63  64
ENDBRANCH  44  58
BRANCH  45  68
ATOM     68  C   UNL     1      11.625  -4.577   9.944  1.00  0.00    -0.014 A 
ATOM     69  C   UNL     1      10.928  -4.239  11.117  1.00  0.00     0.010 A 
ATOM     70  C   UNL     1      12.388  -5.759   9.918  1.00  0.00     0.010 A 
ATOM     71  C   UNL     1      11.004  -5.061  12.246  1.00  0.00     0.020 A 
ATOM     72  C   UNL     1      12.447  -6.594  11.036  1.00  0.00     0.020 A 
ATOM     73  C   UNL     1      11.763  -6.234  12.198  1.00  0.00     0.054 A 
BRANCH  73  74
ATOM     74  S   UNL     1      11.805  -7.318  13.653  1.00  0.00     0.124 S 
ATOM     75  O   UNL     1      12.747  -6.622  14.522  1.00  0.00    -0.237 OA
ATOM     76  O   UNL     1      10.412  -7.312  14.095  1.00  0.00    -0.237 OA
ATOM     77  O   UNL     1      12.272  -8.593  13.113  1.00  0.00    -0.744 OA
ENDBRANCH  73  74
ENDBRANCH  45  68
BRANCH  57  78
ATOM     78  C   UNL     1      14.172   1.728   8.399  1.00  0.00    -0.014 A 
ATOM     79  C   UNL     1      15.537   1.541   8.678  1.00  0.00     0.010 A 
ATOM     80  C   UNL     1      13.533   2.899   8.844  1.00  0.00     0.010 A 
ATOM     81  C   UNL     1      16.242   2.495   9.418  1.00  0.00     0.020 A 
ATOM     82  C   UNL     1      14.239   3.864   9.566  1.00  0.00     0.020 A 
ATOM     83  C   UNL     1      15.586   3.648   9.862  1.00  0.00     0.054 A 
BRANCH  83  84
ATOM     84  S   UNL     1      16.526   4.889  10.792  1.00  0.00     0.124 S 
ATOM     85  O   UNL     1      16.589   4.288  12.121  1.00  0.00    -0.237 OA
ATOM     86  O   UNL     1      17.794   4.947  10.068  1.00  0.00    -0.237 OA
ATOM     87  O   UNL     1      15.703   6.093  10.690  1.00  0.00    -0.744 OA
ENDBRANCH  83  84
ENDBRANCH  57  78
ENDBRANCH  31  32
ENDBRANCH  24  26
ENDBRANCH  23  24
ENDBRANCH  22  23
ENDBRANCH  21  22
ENDBRANCH   1  21
TORSDOF 20
