REMARK SMILES CCc1cc(C)c2c(c1)C=C(C(=O)OCCOC(=O)c1ccc(-c3c4nc(c(-c5ccc(S(=O)(=O)[O-])cc5)c5ccc([nH]5)c(-c5ccc(S(=O)(=O)[O-])cc5)c5nc(c(-c6ccc(S(=O)(=O)[O-])cc6)c6ccc3[nH]6)C=C5)C=C4)cc1)[C@@H](C(F)(F)F)O2
REMARK SMILES IDX 16 1 15 2 14 3 12 4 13 5 11 6 3 7 4 8 9 9 5 10 8 11 6 12
REMARK SMILES IDX 7 13 10 14 85 15 80 16 2 17 1 18 81 19 82 20 83 21 84 22
REMARK SMILES IDX 17 23 18 24 19 25 20 26 21 27 79 28 22 29 78 30 23 31 24 32
REMARK SMILES IDX 25 33 72 34 26 35 77 36 71 37 73 38 27 39 76 40 70 41 69 42
REMARK SMILES IDX 28 44 58 45 39 46 57 47 40 48 43 49 56 50 74 51 41 52 42 53
REMARK SMILES IDX 55 55 75 56 44 57 29 58 30 59 38 60 31 61 37 62 32 63 33 64
REMARK SMILES IDX 34 65 35 66 36 67 59 68 60 69 68 70 61 71 67 72 62 73 63 74
REMARK SMILES IDX 64 75 65 76 66 77 45 78 46 79 54 80 47 81 53 82 48 83 49 84
REMARK SMILES IDX 50 85 51 86 52 87
REMARK H PARENT 73 43 43 54
REMARK Flexibility Score: inf
ROOT
ATOM      1  C   UNL     1       7.922   6.217   4.615  1.00  0.00     0.275 C 
ENDROOT
BRANCH   1   2
ATOM      2  C   UNL     1       7.574   6.795   3.244  1.00  0.00     0.275 C 
BRANCH   2   3
ATOM      3  O   UNL     1       6.201   6.519   2.897  1.00  0.00    -0.459 OA
BRANCH   3   4
ATOM      4  C   UNL     1       6.010   5.588   1.929  1.00  0.00     0.338 C 
ATOM      5  O   UNL     1       6.877   4.983   1.326  1.00  0.00    -0.246 OA
BRANCH   4   6
ATOM      6  C   UNL     1       4.563   5.338   1.750  1.00  0.00     0.087 C 
ATOM      7  C   UNL     1       0.987   2.132   1.306  1.00  0.00    -0.047 A 
ATOM      8  C   UNL     1       0.061   3.181   1.238  1.00  0.00     0.011 A 
ATOM      9  C   UNL     1       2.346   2.443   1.415  1.00  0.00     0.015 A 
ATOM     10  C   UNL     1       0.477   4.522   1.303  1.00  0.00    -0.008 A 
ATOM     11  C   UNL     1       2.772   3.774   1.470  1.00  0.00     0.018 A 
ATOM     12  C   UNL     1      -0.537   5.626   1.215  1.00  0.00     0.048 C 
ATOM     13  C   UNL     1       1.842   4.812   1.452  1.00  0.00     0.130 A 
ATOM     14  C   UNL     1       4.188   4.070   1.554  1.00  0.00     0.027 C 
ATOM     15  O   UNL     1       2.194   6.128   1.579  1.00  0.00    -0.475 OA
ATOM     16  C   UNL     1       3.594   6.485   1.765  1.00  0.00     0.316 C 
BRANCH   7  17
ATOM     17  C   UNL     1       0.538   0.692   1.271  1.00  0.00     0.032 C 
ATOM     18  C   UNL     1       0.996  -0.030   0.011  1.00  0.00     0.009 C 
ENDBRANCH   7  17
BRANCH  16  19
ATOM     19  C   UNL     1       3.948   7.522   0.685  1.00  0.00     0.430 C 
ATOM     20  F   UNL     1       3.072   8.557   0.688  1.00  0.00    -0.167 F 
ATOM     21  F   UNL     1       5.175   8.063   0.879  1.00  0.00    -0.167 F 
ATOM     22  F   UNL     1       3.938   6.990  -0.559  1.00  0.00    -0.167 F 
ENDBRANCH  16  19
ENDBRANCH   4   6
ENDBRANCH   3   4
ENDBRANCH   2   3
ENDBRANCH   1   2
BRANCH   1  23
ATOM     23  O   UNL     1       7.908   4.779   4.568  1.00  0.00    -0.458 OA
BRANCH  23  24
ATOM     24  C   UNL     1       6.847   4.192   5.166  1.00  0.00     0.338 C 
ATOM     25  O   UNL     1       5.935   4.738   5.764  1.00  0.00    -0.246 OA
BRANCH  24  26
ATOM     26  C   UNL     1       6.893   2.743   4.931  1.00  0.00     0.060 A 
ATOM     27  C   UNL     1       6.519   2.266   3.678  1.00  0.00     0.016 A 
ATOM     28  C   UNL     1       7.150   1.857   5.975  1.00  0.00     0.016 A 
ATOM     29  C   UNL     1       6.287   0.909   3.485  1.00  0.00     0.010 A 
ATOM     30  C   UNL     1       7.005   0.482   5.755  1.00  0.00     0.010 A 
ATOM     31  C   UNL     1       6.526  -0.001   4.523  1.00  0.00    -0.014 A 
BRANCH  31  32
ATOM     32  C   UNL     1       6.221  -1.443   4.336  1.00  0.00     0.031 A 
ATOM     33  C   UNL     1       5.137  -2.093   5.156  1.00  0.00     0.074 A 
ATOM     34  C   UNL     1       6.880  -2.164   3.407  1.00  0.00     0.049 A 
ATOM     35  N   UNL     1       4.806  -3.357   5.229  1.00  0.00    -0.248 NA
ATOM     36  C   UNL     1       4.318  -1.209   6.002  1.00  0.00     0.031 C 
ATOM     37  C   UNL     1       7.896  -1.639   2.491  1.00  0.00     0.029 A 
ATOM     38  N   UNL     1       6.785  -3.491   3.070  1.00  0.00    -0.354 N 
ATOM     39  C   UNL     1       3.767  -3.424   6.151  1.00  0.00     0.074 A 
ATOM     40  C   UNL     1       3.524  -2.076   6.616  1.00  0.00     0.031 C 
ATOM     41  C   UNL     1       8.306  -2.626   1.678  1.00  0.00     0.029 A 
ATOM     42  C   UNL     1       7.641  -3.867   2.062  1.00  0.00     0.049 A 
ATOM     43  H   UNL     1       6.163  -4.116   3.510  1.00  0.00     0.167 HD
ATOM     44  C   UNL     1       3.080  -4.512   6.572  1.00  0.00     0.031 A 
ATOM     45  C   UNL     1       7.892  -5.077   1.525  1.00  0.00     0.031 A 
ATOM     46  C   UNL     1       3.309  -5.847   6.091  1.00  0.00     0.049 A 
ATOM     47  C   UNL     1       7.170  -6.281   2.058  1.00  0.00     0.074 A 
ATOM     48  C   UNL     1       2.677  -7.018   6.474  1.00  0.00     0.029 A 
ATOM     49  N   UNL     1       4.231  -6.190   5.114  1.00  0.00    -0.354 N 
ATOM     50  N   UNL     1       6.247  -6.337   2.988  1.00  0.00    -0.248 NA
ATOM     51  C   UNL     1       7.531  -7.584   1.484  1.00  0.00     0.031 C 
ATOM     52  C   UNL     1       3.242  -8.074   5.753  1.00  0.00     0.029 A 
ATOM     53  C   UNL     1       4.192  -7.554   4.888  1.00  0.00     0.049 A 
ATOM     54  H   UNL     1       4.824  -5.556   4.651  1.00  0.00     0.167 HD
ATOM     55  C   UNL     1       5.907  -7.679   3.102  1.00  0.00     0.074 A 
ATOM     56  C   UNL     1       6.718  -8.401   2.143  1.00  0.00     0.031 C 
ATOM     57  C   UNL     1       5.004  -8.258   3.929  1.00  0.00     0.031 A 
BRANCH  44  58
ATOM     58  C   UNL     1       2.032  -4.315   7.633  1.00  0.00    -0.014 A 
ATOM     59  C   UNL     1       0.771  -3.782   7.319  1.00  0.00     0.010 A 
ATOM     60  C   UNL     1       2.292  -4.742   8.948  1.00  0.00     0.010 A 
ATOM     61  C   UNL     1      -0.210  -3.665   8.309  1.00  0.00     0.020 A 
ATOM     62  C   UNL     1       1.308  -4.644   9.936  1.00  0.00     0.020 A 
ATOM     63  C   UNL     1       0.063  -4.103   9.610  1.00  0.00     0.054 A 
BRANCH  63  64
ATOM     64  S   UNL     1      -1.242  -3.966  10.862  1.00  0.00     0.124 S 
ATOM     65  O   UNL     1      -1.469  -2.523  10.910  1.00  0.00    -0.237 OA
ATOM     66  O   UNL     1      -2.324  -4.753  10.275  1.00  0.00    -0.237 OA
ATOM     67  O   UNL     1      -0.636  -4.537  12.062  1.00  0.00    -0.744 OA
ENDBRANCH  63  64
ENDBRANCH  44  58
BRANCH  45  68
ATOM     68  C   UNL     1       8.903  -5.200   0.442  1.00  0.00    -0.014 A 
ATOM     69  C   UNL     1       8.503  -5.417  -0.887  1.00  0.00     0.010 A 
ATOM     70  C   UNL     1      10.272  -5.038   0.729  1.00  0.00     0.010 A 
ATOM     71  C   UNL     1       9.453  -5.457  -1.913  1.00  0.00     0.020 A 
ATOM     72  C   UNL     1      11.222  -5.055  -0.296  1.00  0.00     0.020 A 
ATOM     73  C   UNL     1      10.805  -5.262  -1.612  1.00  0.00     0.054 A 
BRANCH  73  74
ATOM     74  S   UNL     1      12.005  -5.242  -2.972  1.00  0.00     0.124 S 
ATOM     75  O   UNL     1      11.880  -6.593  -3.512  1.00  0.00    -0.237 OA
ATOM     76  O   UNL     1      11.490  -4.171  -3.821  1.00  0.00    -0.237 OA
ATOM     77  O   UNL     1      13.274  -4.950  -2.309  1.00  0.00    -0.744 OA
ENDBRANCH  73  74
ENDBRANCH  45  68
BRANCH  57  78
ATOM     78  C   UNL     1       4.809  -9.743   3.825  1.00  0.00    -0.014 A 
ATOM     79  C   UNL     1       5.719 -10.634   4.420  1.00  0.00     0.010 A 
ATOM     80  C   UNL     1       3.643 -10.247   3.220  1.00  0.00     0.010 A 
ATOM     81  C   UNL     1       5.466 -12.008   4.409  1.00  0.00     0.020 A 
ATOM     82  C   UNL     1       3.378 -11.618   3.224  1.00  0.00     0.020 A 
ATOM     83  C   UNL     1       4.292 -12.490   3.820  1.00  0.00     0.054 A 
BRANCH  83  84
ATOM     84  S   UNL     1       3.962 -14.273   3.880  1.00  0.00     0.124 S 
ATOM     85  O   UNL     1       5.078 -14.818   3.111  1.00  0.00    -0.237 OA
ATOM     86  O   UNL     1       3.991 -14.549   5.313  1.00  0.00    -0.237 OA
ATOM     87  O   UNL     1       2.651 -14.406   3.249  1.00  0.00    -0.744 OA
ENDBRANCH  83  84
ENDBRANCH  57  78
ENDBRANCH  31  32
ENDBRANCH  24  26
ENDBRANCH  23  24
ENDBRANCH   1  23
TORSDOF 16
