REMARK SMILES Cc1ccc(C(N)=O)c(NCc2ccc(C(=O)OCCOC(=O)c3ccc(-c4c5nc(c(-c6ccc(S(=O)(=O)[O-])cc6)c6ccc([nH]6)c(-c6ccc(S(=O)(=O)[O-])cc6)c6nc(c(-c7ccc(S(=O)(=O)[O-])cc7)c7ccc4[nH]7)C=C6)C=C5)cc3)o2)n1
REMARK SMILES IDX 19 1 18 2 16 3 17 4 15 5 12 6 13 7 84 8 14 9 11 10 10 11
REMARK SMILES IDX 9 13 1 14 2 15 3 16 85 17 4 18 5 19 6 20 7 21 8 22 20 25
REMARK SMILES IDX 21 26 22 27 23 28 24 29 25 30 83 31 26 32 82 33 27 34 28 35
REMARK SMILES IDX 29 36 76 37 30 38 81 39 75 40 77 41 31 42 80 43 74 44 73 45
REMARK SMILES IDX 32 47 62 48 43 49 61 50 44 51 47 52 60 53 78 54 45 55 46 56
REMARK SMILES IDX 59 58 79 59 48 60 33 61 34 62 42 63 35 64 41 65 36 66 37 67
REMARK SMILES IDX 38 68 39 69 40 70 63 71 64 72 72 73 65 74 71 75 66 76 67 77
REMARK SMILES IDX 68 78 69 79 70 80 49 81 50 82 58 83 51 84 57 85 52 86 53 87
REMARK SMILES IDX 54 88 55 89 56 90
REMARK H PARENT 10 12 7 23 7 24 77 46 47 57
REMARK Flexibility Score: inf
ROOT
ATOM      1  C   UNL     1      -0.973   9.135  -4.760  1.00  0.00     0.275 C 
ENDROOT
BRANCH   1   2
ATOM      2  O   UNL     1      -1.072   7.726  -4.482  1.00  0.00    -0.456 OA
BRANCH   2   3
ATOM      3  C   UNL     1      -0.279   7.273  -3.462  1.00  0.00     0.374 C 
ATOM      4  O   UNL     1       0.564   7.951  -2.895  1.00  0.00    -0.242 OA
BRANCH   3   5
ATOM      5  C   UNL     1      -0.656   5.925  -3.100  1.00  0.00     0.211 A 
ATOM      6  C   UNL     1      -0.842   4.266  -1.649  1.00  0.00     0.124 A 
ATOM      7  C   UNL     1      -1.540   3.880  -2.775  1.00  0.00     0.048 A 
ATOM      8  O   UNL     1      -0.248   5.471  -1.873  1.00  0.00    -0.452 OA
ATOM      9  C   UNL     1      -1.434   4.952  -3.700  1.00  0.00     0.058 A 
BRANCH   6  10
ATOM     10  C   UNL     1      -0.661   3.704  -0.277  1.00  0.00     0.190 C 
BRANCH  10  11
ATOM     11  N   UNL     1      -1.525   2.572   0.042  1.00  0.00    -0.362 N 
ATOM     12  H   UNL     1      -2.461   2.721   0.310  1.00  0.00     0.162 HD
BRANCH  11  13
ATOM     13  C   UNL     1      -1.014   1.281  -0.037  1.00  0.00     0.139 A 
ATOM     14  C   UNL     1       2.394  -0.116  -0.106  1.00  0.00     0.067 C 
ATOM     15  C   UNL     1       0.897  -0.075  -0.097  1.00  0.00     0.040 A 
ATOM     16  C   UNL     1       0.144  -1.234  -0.024  1.00  0.00     0.024 A 
ATOM     17  N   UNL     1       0.331   1.154  -0.124  1.00  0.00    -0.236 NA
ATOM     18  C   UNL     1      -1.240  -1.117   0.018  1.00  0.00     0.019 A 
ATOM     19  C   UNL     1      -1.842   0.150   0.007  1.00  0.00     0.081 A 
BRANCH  19  20
ATOM     20  C   UNL     1      -3.331   0.186   0.032  1.00  0.00     0.252 C 
ATOM     21  N   UNL     1      -3.958   1.348  -0.316  1.00  0.00    -0.365 N 
ATOM     22  O   UNL     1      -3.990  -0.808   0.319  1.00  0.00    -0.269 OA
ATOM     23  H   UNL     1      -3.427   2.144  -0.546  1.00  0.00     0.159 HD
ATOM     24  H   UNL     1      -4.941   1.389  -0.338  1.00  0.00     0.159 HD
ENDBRANCH  19  20
ENDBRANCH  11  13
ENDBRANCH  10  11
ENDBRANCH   6  10
ENDBRANCH   3   5
ENDBRANCH   2   3
ENDBRANCH   1   2
BRANCH   1  25
ATOM     25  C   UNL     1      -2.082   9.932  -4.061  1.00  0.00     0.275 C 
BRANCH  25  26
ATOM     26  O   UNL     1      -1.892  10.003  -2.635  1.00  0.00    -0.458 OA
BRANCH  26  27
ATOM     27  C   UNL     1      -2.519   9.038  -1.919  1.00  0.00     0.338 C 
ATOM     28  O   UNL     1      -3.225   8.146  -2.361  1.00  0.00    -0.246 OA
BRANCH  27  29
ATOM     29  C   UNL     1      -2.124   9.122  -0.501  1.00  0.00     0.060 A 
ATOM     30  C   UNL     1      -1.561   7.984   0.081  1.00  0.00     0.016 A 
ATOM     31  C   UNL     1      -2.358  10.262   0.270  1.00  0.00     0.016 A 
ATOM     32  C   UNL     1      -1.224   7.976   1.432  1.00  0.00     0.010 A 
ATOM     33  C   UNL     1      -2.025  10.253   1.631  1.00  0.00     0.010 A 
ATOM     34  C   UNL     1      -1.463   9.106   2.221  1.00  0.00    -0.014 A 
BRANCH  34  35
ATOM     35  C   UNL     1      -1.159   9.055   3.672  1.00  0.00     0.031 A 
ATOM     36  C   UNL     1      -2.272   8.894   4.669  1.00  0.00     0.074 A 
ATOM     37  C   UNL     1       0.120   9.103   4.091  1.00  0.00     0.049 A 
ATOM     38  N   UNL     1      -2.209   8.835   5.974  1.00  0.00    -0.248 NA
ATOM     39  C   UNL     1      -3.635   8.779   4.125  1.00  0.00     0.031 C 
ATOM     40  C   UNL     1       1.291   9.209   3.218  1.00  0.00     0.029 A 
ATOM     41  N   UNL     1       0.649   9.061   5.357  1.00  0.00    -0.354 N 
ATOM     42  C   UNL     1      -3.520   8.690   6.411  1.00  0.00     0.074 A 
ATOM     43  C   UNL     1      -4.359   8.687   5.232  1.00  0.00     0.031 C 
ATOM     44  C   UNL     1       2.401   9.216   3.975  1.00  0.00     0.029 A 
ATOM     45  C   UNL     1       2.020   9.155   5.384  1.00  0.00     0.049 A 
ATOM     46  H   UNL     1       0.098   8.972   6.168  1.00  0.00     0.167 HD
ATOM     47  C   UNL     1      -3.982   8.570   7.679  1.00  0.00     0.031 A 
ATOM     48  C   UNL     1       2.873   9.206   6.426  1.00  0.00     0.031 A 
ATOM     49  C   UNL     1      -3.147   8.582   8.851  1.00  0.00     0.049 A 
ATOM     50  C   UNL     1       2.329   9.133   7.827  1.00  0.00     0.074 A 
ATOM     51  C   UNL     1      -3.523   8.463  10.178  1.00  0.00     0.029 A 
ATOM     52  N   UNL     1      -1.767   8.724   8.839  1.00  0.00    -0.354 N 
ATOM     53  N   UNL     1       1.086   8.994   8.222  1.00  0.00    -0.248 NA
ATOM     54  C   UNL     1       3.304   9.224   8.923  1.00  0.00     0.031 C 
ATOM     55  C   UNL     1      -2.376   8.579  10.971  1.00  0.00     0.029 A 
ATOM     56  C   UNL     1      -1.279   8.719  10.136  1.00  0.00     0.049 A 
ATOM     57  H   UNL     1      -1.216   8.815   8.029  1.00  0.00     0.167 HD
ATOM     58  C   UNL     1       1.132   8.962   9.611  1.00  0.00     0.074 A 
ATOM     59  C   UNL     1       2.526   9.081   9.987  1.00  0.00     0.031 C 
ATOM     60  C   UNL     1       0.110   8.844  10.495  1.00  0.00     0.031 A 
BRANCH  47  61
ATOM     61  C   UNL     1      -5.471   8.455   7.864  1.00  0.00    -0.014 A 
ATOM     62  C   UNL     1      -6.155   7.269   7.548  1.00  0.00     0.010 A 
ATOM     63  C   UNL     1      -6.191   9.543   8.390  1.00  0.00     0.010 A 
ATOM     64  C   UNL     1      -7.541   7.186   7.716  1.00  0.00     0.020 A 
ATOM     65  C   UNL     1      -7.573   9.457   8.581  1.00  0.00     0.020 A 
ATOM     66  C   UNL     1      -8.242   8.284   8.225  1.00  0.00     0.054 A 
BRANCH  66  67
ATOM     67  S   UNL     1     -10.038   8.150   8.440  1.00  0.00     0.124 S 
ATOM     68  O   UNL     1     -10.514   8.264   7.064  1.00  0.00    -0.237 OA
ATOM     69  O   UNL     1     -10.193   6.833   9.052  1.00  0.00    -0.237 OA
ATOM     70  O   UNL     1     -10.368   9.279   9.308  1.00  0.00    -0.744 OA
ENDBRANCH  66  67
ENDBRANCH  47  61
BRANCH  48  71
ATOM     71  C   UNL     1       4.332   9.358   6.180  1.00  0.00    -0.014 A 
ATOM     72  C   UNL     1       5.217   8.294   6.425  1.00  0.00     0.010 A 
ATOM     73  C   UNL     1       4.842  10.573   5.686  1.00  0.00     0.010 A 
ATOM     74  C   UNL     1       6.587   8.445   6.191  1.00  0.00     0.020 A 
ATOM     75  C   UNL     1       6.207  10.720   5.428  1.00  0.00     0.020 A 
ATOM     76  C   UNL     1       7.073   9.658   5.692  1.00  0.00     0.054 A 
BRANCH  76  77
ATOM     77  S   UNL     1       8.846   9.817   5.340  1.00  0.00     0.124 S 
ATOM     78  O   UNL     1       9.406   9.992   6.676  1.00  0.00    -0.237 OA
ATOM     79  O   UNL     1       9.156   8.548   4.685  1.00  0.00    -0.237 OA
ATOM     80  O   UNL     1       8.917  10.990   4.471  1.00  0.00    -0.744 OA
ENDBRANCH  76  77
ENDBRANCH  48  71
BRANCH  60  81
ATOM     81  C   UNL     1       0.463   8.813  11.958  1.00  0.00    -0.014 A 
ATOM     82  C   UNL     1       0.847   9.983  12.637  1.00  0.00     0.010 A 
ATOM     83  C   UNL     1       0.359   7.606  12.672  1.00  0.00     0.010 A 
ATOM     84  C   UNL     1       1.148   9.940  14.001  1.00  0.00     0.020 A 
ATOM     85  C   UNL     1       0.637   7.564  14.041  1.00  0.00     0.020 A 
ATOM     86  C   UNL     1       1.044   8.729  14.694  1.00  0.00     0.054 A 
BRANCH  86  87
ATOM     87  S   UNL     1       1.398   8.705  16.474  1.00  0.00     0.124 S 
ATOM     88  O   UNL     1       2.857   8.749  16.494  1.00  0.00    -0.237 OA
ATOM     89  O   UNL     1       0.726   9.911  16.953  1.00  0.00    -0.237 OA
ATOM     90  O   UNL     1       0.805   7.449  16.926  1.00  0.00    -0.744 OA
ENDBRANCH  86  87
ENDBRANCH  60  81
ENDBRANCH  34  35
ENDBRANCH  27  29
ENDBRANCH  26  27
ENDBRANCH  25  26
ENDBRANCH   1  25
TORSDOF 18
