REMARK SMILES O=C(CCCCCN1C(=O)/C(=C2\C(=O)Nc3ccccc32)SC1=S)OCCOC(=O)c1ccc(-c2c3nc(c(-c4ccc(S(=O)(=O)[O-])cc4)c4ccc([nH]4)c(-c4ccc(S(=O)(=O)[O-])cc4)c4nc(c(-c5ccc(S(=O)(=O)[O-])cc5)c5ccc2[nH]5)C=C4)C=C3)cc1
REMARK SMILES IDX 26 1 25 2 2 3 1 4 3 5 4 6 5 7 6 8 7 9 8 10 9 11 23 12 10 13
REMARK SMILES IDX 11 14 22 15 24 16 12 17 13 18 21 19 14 20 15 21 16 22 20 23
REMARK SMILES IDX 17 25 19 26 18 27 27 28 28 29 29 30 30 31 31 32 32 33 90 34
REMARK SMILES IDX 33 35 89 36 34 37 35 38 36 39 83 40 37 41 88 42 82 43 84 44
REMARK SMILES IDX 38 45 87 46 81 47 80 48 39 50 69 51 50 52 68 53 51 54 54 55
REMARK SMILES IDX 67 56 85 57 52 58 53 59 66 61 86 62 55 63 40 64 41 65 49 66
REMARK SMILES IDX 42 67 48 68 43 69 44 70 45 71 46 72 47 73 70 74 71 75 79 76
REMARK SMILES IDX 72 77 78 78 73 79 74 80 75 81 76 82 77 83 56 84 57 85 65 86
REMARK SMILES IDX 58 87 64 88 59 89 60 90 61 91 62 92 63 93
REMARK H PARENT 15 24 84 49 54 60
REMARK Flexibility Score: inf
ROOT
ATOM      1  C   UNL     1       3.174  -1.765   0.113  1.00  0.00     0.274 C 
ENDROOT
BRANCH   1   2
ATOM      2  O   UNL     1       1.983  -0.986   0.297  1.00  0.00    -0.462 OA
BRANCH   2   3
ATOM      3  C   UNL     1       2.124   0.162   1.016  1.00  0.00     0.305 C 
ATOM      4  O   UNL     1       1.627   0.293   2.127  1.00  0.00    -0.252 OA
BRANCH   3   5
ATOM      5  C   UNL     1       2.789   1.291   0.255  1.00  0.00     0.123 C 
BRANCH   5   6
ATOM      6  C   UNL     1       3.821   2.075   1.058  1.00  0.00     0.012 C 
BRANCH   6   7
ATOM      7  C   UNL     1       5.094   1.298   1.411  1.00  0.00     0.002 C 
BRANCH   7   8
ATOM      8  C   UNL     1       5.880   0.704   0.235  1.00  0.00     0.022 C 
BRANCH   8   9
ATOM      9  C   UNL     1       6.545   1.697  -0.713  1.00  0.00     0.127 C 
BRANCH   9  10
ATOM     10  N   UNL     1       7.633   2.451  -0.107  1.00  0.00    -0.293 N 
ATOM     11  C   UNL     1       7.416   3.783   0.215  1.00  0.00     0.267 C 
ATOM     12  C   UNL     1       8.876   1.946   0.197  1.00  0.00     0.148 C 
ATOM     13  O   UNL     1       6.317   4.291   0.362  1.00  0.00    -0.268 OA
ATOM     14  C   UNL     1       8.725   4.444   0.477  1.00  0.00     0.093 C 
ATOM     15  S   UNL     1       9.834   3.202   0.955  1.00  0.00    -0.053 SA
ATOM     16  S   UNL     1       9.488   0.419  -0.080  1.00  0.00    -0.052 S 
ATOM     17  C   UNL     1       9.042   5.720   0.211  1.00  0.00     0.069 C 
ATOM     18  C   UNL     1       8.104   6.707  -0.447  1.00  0.00     0.257 C 
ATOM     19  C   UNL     1      10.350   6.402   0.320  1.00  0.00     0.012 A 
ATOM     20  O   UNL     1       6.972   6.530  -0.854  1.00  0.00    -0.269 OA
ATOM     21  N   UNL     1       8.851   7.854  -0.629  1.00  0.00    -0.321 N 
ATOM     22  C   UNL     1      10.165   7.679  -0.218  1.00  0.00     0.049 A 
ATOM     23  C   UNL     1      11.608   6.031   0.768  1.00  0.00     0.011 A 
ATOM     24  H   UNL     1       8.496   8.692  -1.005  1.00  0.00     0.170 HD
ATOM     25  C   UNL     1      11.191   8.595  -0.352  1.00  0.00     0.027 A 
ATOM     26  C   UNL     1      12.668   6.935   0.631  1.00  0.00     0.001 A 
ATOM     27  C   UNL     1      12.461   8.205   0.071  1.00  0.00     0.002 A 
ENDBRANCH   9  10
ENDBRANCH   8   9
ENDBRANCH   7   8
ENDBRANCH   6   7
ENDBRANCH   5   6
ENDBRANCH   3   5
ENDBRANCH   2   3
ENDBRANCH   1   2
BRANCH   1  28
ATOM     28  C   UNL     1       3.441  -2.087  -1.363  1.00  0.00     0.275 C 
BRANCH  28  29
ATOM     29  O   UNL     1       3.413  -0.905  -2.180  1.00  0.00    -0.458 OA
BRANCH  29  30
ATOM     30  C   UNL     1       2.198  -0.626  -2.726  1.00  0.00     0.338 C 
ATOM     31  O   UNL     1       1.212  -1.343  -2.703  1.00  0.00    -0.246 OA
BRANCH  30  32
ATOM     32  C   UNL     1       2.175   0.778  -3.196  1.00  0.00     0.060 A 
ATOM     33  C   UNL     1       3.254   1.361  -3.869  1.00  0.00     0.016 A 
ATOM     34  C   UNL     1       1.028   1.533  -2.922  1.00  0.00     0.016 A 
ATOM     35  C   UNL     1       3.171   2.695  -4.287  1.00  0.00     0.010 A 
ATOM     36  C   UNL     1       0.952   2.866  -3.328  1.00  0.00     0.010 A 
ATOM     37  C   UNL     1       2.016   3.453  -4.029  1.00  0.00    -0.014 A 
BRANCH  37  38
ATOM     38  C   UNL     1       1.837   4.802  -4.619  1.00  0.00     0.031 A 
ATOM     39  C   UNL     1       2.076   6.052  -3.828  1.00  0.00     0.074 A 
ATOM     40  C   UNL     1       1.384   4.885  -5.884  1.00  0.00     0.049 A 
ATOM     41  N   UNL     1       1.948   7.296  -4.215  1.00  0.00    -0.248 NA
ATOM     42  C   UNL     1       2.509   5.891  -2.434  1.00  0.00     0.031 C 
ATOM     43  C   UNL     1       1.106   3.737  -6.748  1.00  0.00     0.029 A 
ATOM     44  N   UNL     1       1.066   5.974  -6.657  1.00  0.00    -0.354 N 
ATOM     45  C   UNL     1       2.299   8.072  -3.119  1.00  0.00     0.074 A 
ATOM     46  C   UNL     1       2.610   7.156  -2.040  1.00  0.00     0.031 C 
ATOM     47  C   UNL     1       0.662   4.181  -7.933  1.00  0.00     0.029 A 
ATOM     48  C   UNL     1       0.595   5.641  -7.904  1.00  0.00     0.049 A 
ATOM     49  H   UNL     1       1.167   6.903  -6.348  1.00  0.00     0.167 HD
ATOM     50  C   UNL     1       2.367   9.422  -3.031  1.00  0.00     0.031 A 
ATOM     51  C   UNL     1       0.149   6.413  -8.916  1.00  0.00     0.031 A 
ATOM     52  C   UNL     1       2.045  10.325  -4.111  1.00  0.00     0.049 A 
ATOM     53  C   UNL     1       0.161   7.906  -8.773  1.00  0.00     0.074 A 
ATOM     54  C   UNL     1       2.170  11.704  -4.136  1.00  0.00     0.029 A 
ATOM     55  N   UNL     1       1.516   9.953  -5.337  1.00  0.00    -0.354 N 
ATOM     56  N   UNL     1       0.575   8.625  -7.759  1.00  0.00    -0.248 NA
ATOM     57  C   UNL     1      -0.344   8.694  -9.906  1.00  0.00     0.031 C 
ATOM     58  C   UNL     1       1.647  12.170  -5.345  1.00  0.00     0.029 A 
ATOM     59  C   UNL     1       1.261  11.078  -6.106  1.00  0.00     0.049 A 
ATOM     60  H   UNL     1       1.346   9.025  -5.621  1.00  0.00     0.167 HD
ATOM     61  C   UNL     1       0.398   9.951  -8.135  1.00  0.00     0.074 A 
ATOM     62  C   UNL     1      -0.158   9.937  -9.473  1.00  0.00     0.031 C 
ATOM     63  C   UNL     1       0.685  11.072  -7.430  1.00  0.00     0.031 A 
BRANCH  50  64
ATOM     64  C   UNL     1       2.814  10.034  -1.728  1.00  0.00    -0.014 A 
ATOM     65  C   UNL     1       1.917  10.816  -0.977  1.00  0.00     0.010 A 
ATOM     66  C   UNL     1       4.155   9.944  -1.312  1.00  0.00     0.010 A 
ATOM     67  C   UNL     1       2.355  11.518   0.149  1.00  0.00     0.020 A 
ATOM     68  C   UNL     1       4.591  10.626  -0.172  1.00  0.00     0.020 A 
ATOM     69  C   UNL     1       3.694  11.427   0.538  1.00  0.00     0.054 A 
BRANCH  69  70
ATOM     70  S   UNL     1       4.255  12.364   1.988  1.00  0.00     0.124 S 
ATOM     71  O   UNL     1       4.340  13.723   1.463  1.00  0.00    -0.237 OA
ATOM     72  O   UNL     1       3.188  12.127   2.958  1.00  0.00    -0.237 OA
ATOM     73  O   UNL     1       5.537  11.745   2.321  1.00  0.00    -0.744 OA
ENDBRANCH  69  70
ENDBRANCH  50  64
BRANCH  51  74
ATOM     74  C   UNL     1      -0.296   5.742 -10.165  1.00  0.00    -0.014 A 
ATOM     75  C   UNL     1      -1.495   5.006 -10.186  1.00  0.00     0.010 A 
ATOM     76  C   UNL     1       0.559   5.699 -11.278  1.00  0.00     0.010 A 
ATOM     77  C   UNL     1      -1.793   4.174 -11.268  1.00  0.00     0.020 A 
ATOM     78  C   UNL     1       0.253   4.885 -12.372  1.00  0.00     0.020 A 
ATOM     79  C   UNL     1      -0.902   4.099 -12.342  1.00  0.00     0.054 A 
BRANCH  79  80
ATOM     80  S   UNL     1      -1.242   2.919 -13.677  1.00  0.00     0.124 S 
ATOM     81  O   UNL     1      -0.879   1.649 -13.052  1.00  0.00    -0.237 OA
ATOM     82  O   UNL     1      -2.668   3.115 -13.922  1.00  0.00    -0.237 OA
ATOM     83  O   UNL     1      -0.361   3.359 -14.755  1.00  0.00    -0.744 OA
ENDBRANCH  79  80
ENDBRANCH  51  74
BRANCH  63  84
ATOM     84  C   UNL     1       0.400  12.410  -8.061  1.00  0.00    -0.014 A 
ATOM     85  C   UNL     1       1.468  13.246  -8.438  1.00  0.00     0.010 A 
ATOM     86  C   UNL     1      -0.915  12.903  -8.137  1.00  0.00     0.010 A 
ATOM     87  C   UNL     1       1.232  14.567  -8.831  1.00  0.00     0.020 A 
ATOM     88  C   UNL     1      -1.157  14.217  -8.554  1.00  0.00     0.020 A 
ATOM     89  C   UNL     1      -0.079  15.049  -8.869  1.00  0.00     0.054 A 
BRANCH  89  90
ATOM     90  S   UNL     1      -0.360  16.785  -9.318  1.00  0.00     0.124 S 
ATOM     91  O   UNL     1       0.029  17.485  -8.098  1.00  0.00    -0.237 OA
ATOM     92  O   UNL     1       0.531  16.970 -10.461  1.00  0.00    -0.237 OA
ATOM     93  O   UNL     1      -1.786  16.830  -9.637  1.00  0.00    -0.744 OA
ENDBRANCH  89  90
ENDBRANCH  63  84
ENDBRANCH  37  38
ENDBRANCH  30  32
ENDBRANCH  29  30
ENDBRANCH  28  29
ENDBRANCH   1  28
TORSDOF 19
