REMARK SMILES CC(C)[C@H](NC(=O)CCC1=c2ccccc2=NC1)C(=O)OCCOC(=O)c1ccc(-c2c3nc(c(-c4ccc(S(=O)(=O)[O-])cc4)c4ccc([nH]4)c(-c4ccc(S(=O)(=O)[O-])cc4)c4nc(c(-c5ccc(S(=O)(=O)[O-])cc5)c5ccc2[nH]5)C=C4)C=C3)cc1
REMARK SMILES IDX 22 1 21 2 19 3 20 4 4 5 2 6 1 7 3 8 5 9 6 10 7 12 8 13 9 14
REMARK SMILES IDX 10 15 11 16 18 17 12 18 16 19 17 20 13 21 15 22 14 23 23 24
REMARK SMILES IDX 24 25 25 26 26 27 27 28 28 29 86 30 29 31 85 32 30 33 31 34
REMARK SMILES IDX 32 35 79 36 33 37 84 38 78 39 80 40 34 41 83 42 77 43 76 44
REMARK SMILES IDX 35 46 65 47 46 48 64 49 47 50 50 51 63 52 81 53 48 54 49 55
REMARK SMILES IDX 62 57 82 58 51 59 36 60 37 61 45 62 38 63 44 64 39 65 40 66
REMARK SMILES IDX 41 67 42 68 43 69 66 70 67 71 75 72 68 73 74 74 69 75 70 76
REMARK SMILES IDX 71 77 72 78 73 79 52 80 53 81 61 82 54 83 60 84 55 85 56 86
REMARK SMILES IDX 57 87 58 88 59 89
REMARK H PARENT 5 11 80 45 50 56
REMARK Flexibility Score: inf
ROOT
ATOM      1  C   UNL     1      -1.919  -4.967   2.225  1.00  0.00     0.274 C 
ENDROOT
BRANCH   1   2
ATOM      2  O   UNL     1      -1.154  -3.860   1.679  1.00  0.00    -0.461 OA
BRANCH   2   3
ATOM      3  C   UNL     1      -1.796  -2.735   1.000  1.00  0.00     0.329 C 
ATOM      4  O   UNL     1      -2.978  -2.723   1.435  1.00  0.00    -0.250 OA
BRANCH   3   5
ATOM      5  C   UNL     1      -0.867  -1.571  -0.621  1.00  0.00     0.194 C 
BRANCH   5   6
ATOM      6  C   UNL     1      -1.123  -1.530  -2.406  1.00  0.00     0.017 C 
ATOM      7  C   UNL     1      -0.635  -2.704  -3.266  1.00  0.00     0.010 C 
ATOM      8  C   UNL     1      -2.453  -0.946  -2.946  1.00  0.00     0.010 C 
ENDBRANCH   5   6
BRANCH   5   9
ATOM      9  N   UNL     1       0.707  -0.927  -0.760  1.00  0.00    -0.343 N 
ATOM     10  C   UNL     1       1.369   0.157  -0.248  1.00  0.00     0.221 C 
ATOM     11  H   UNL     1       1.279  -1.466  -1.352  1.00  0.00     0.164 HD
ATOM     12  O   UNL     1       2.531   0.311  -0.649  1.00  0.00    -0.275 OA
BRANCH  10  13
ATOM     13  C   UNL     1       0.855   1.070   0.882  1.00  0.00     0.104 C 
BRANCH  13  14
ATOM     14  C   UNL     1      -0.573   1.603   0.842  1.00  0.00     0.043 C 
BRANCH  14  15
ATOM     15  C   UNL     1      -1.666   0.598   1.075  1.00  0.00    -0.039 C 
ATOM     16  C   UNL     1      -1.453  -0.715   1.239  1.00  0.00     0.001 A 
ATOM     17  C   UNL     1      -3.075   0.910   0.515  1.00  0.00     0.174 C 
ATOM     18  C   UNL     1       0.047  -1.797   1.332  1.00  0.00     0.010 A 
ATOM     19  C   UNL     1      -2.832  -1.231   0.001  1.00  0.00     0.065 A 
ATOM     20  N   UNL     1      -3.682  -0.282  -0.202  1.00  0.00    -0.280 NA
ATOM     21  C   UNL     1       0.267  -3.042   0.363  1.00  0.00     0.001 A 
ATOM     22  C   UNL     1      -2.503  -2.939  -0.889  1.00  0.00     0.028 A 
ATOM     23  C   UNL     1      -1.121  -3.680  -0.730  1.00  0.00     0.002 A 
ENDBRANCH  14  15
ENDBRANCH  13  14
ENDBRANCH  10  13
ENDBRANCH   5   9
ENDBRANCH   3   5
ENDBRANCH   2   3
ENDBRANCH   1   2
BRANCH   1  24
ATOM     24  C   UNL     1      -1.473  -5.295   3.649  1.00  0.00     0.275 C 
BRANCH  24  25
ATOM     25  O   UNL     1      -1.957  -4.289   4.546  1.00  0.00    -0.458 OA
BRANCH  25  26
ATOM     26  C   UNL     1      -1.097  -3.269   4.751  1.00  0.00     0.338 C 
ATOM     27  O   UNL     1       0.077  -3.197   4.433  1.00  0.00    -0.246 OA
BRANCH  26  28
ATOM     28  C   UNL     1      -1.877  -2.123   5.218  1.00  0.00     0.060 A 
ATOM     29  C   UNL     1      -2.099  -1.847   6.551  1.00  0.00     0.016 A 
ATOM     30  C   UNL     1      -2.307  -1.238   4.241  1.00  0.00     0.016 A 
ATOM     31  C   UNL     1      -2.757  -0.658   6.872  1.00  0.00     0.010 A 
ATOM     32  C   UNL     1      -2.832  -0.000   4.550  1.00  0.00     0.010 A 
ATOM     33  C   UNL     1      -3.082   0.300   5.876  1.00  0.00    -0.014 A 
BRANCH  33  34
ATOM     34  C   UNL     1      -3.566   1.644   6.258  1.00  0.00     0.031 A 
ATOM     35  C   UNL     1      -4.891   2.179   5.802  1.00  0.00     0.074 A 
ATOM     36  C   UNL     1      -2.765   2.362   7.068  1.00  0.00     0.049 A 
ATOM     37  N   UNL     1      -5.583   3.157   6.326  1.00  0.00    -0.248 NA
ATOM     38  C   UNL     1      -5.515   1.588   4.605  1.00  0.00     0.031 C 
ATOM     39  C   UNL     1      -1.387   1.993   7.411  1.00  0.00     0.029 A 
ATOM     40  N   UNL     1      -3.007   3.482   7.816  1.00  0.00    -0.354 N 
ATOM     41  C   UNL     1      -6.732   3.268   5.552  1.00  0.00     0.074 A 
ATOM     42  C   UNL     1      -6.605   2.331   4.463  1.00  0.00     0.031 C 
ATOM     43  C   UNL     1      -0.968   2.765   8.419  1.00  0.00     0.029 A 
ATOM     44  C   UNL     1      -2.021   3.718   8.749  1.00  0.00     0.049 A 
ATOM     45  H   UNL     1      -3.799   4.055   7.700  1.00  0.00     0.167 HD
ATOM     46  C   UNL     1      -7.811   4.053   5.773  1.00  0.00     0.031 A 
ATOM     47  C   UNL     1      -1.995   4.565   9.795  1.00  0.00     0.031 A 
ATOM     48  C   UNL     1      -7.889   4.972   6.880  1.00  0.00     0.049 A 
ATOM     49  C   UNL     1      -3.227   5.377  10.066  1.00  0.00     0.074 A 
ATOM     50  C   UNL     1      -8.953   5.766   7.263  1.00  0.00     0.029 A 
ATOM     51  N   UNL     1      -6.860   5.218   7.780  1.00  0.00    -0.354 N 
ATOM     52  N   UNL     1      -4.377   5.359   9.431  1.00  0.00    -0.248 NA
ATOM     53  C   UNL     1      -3.171   6.306  11.198  1.00  0.00     0.031 C 
ATOM     54  C   UNL     1      -8.537   6.557   8.335  1.00  0.00     0.029 A 
ATOM     55  C   UNL     1      -7.247   6.189   8.688  1.00  0.00     0.049 A 
ATOM     56  H   UNL     1      -5.984   4.769   7.774  1.00  0.00     0.167 HD
ATOM     57  C   UNL     1      -5.182   6.285  10.080  1.00  0.00     0.074 A 
ATOM     58  C   UNL     1      -4.405   6.795  11.195  1.00  0.00     0.031 C 
ATOM     59  C   UNL     1      -6.437   6.697   9.771  1.00  0.00     0.031 A 
BRANCH  46  60
ATOM     60  C   UNL     1      -9.008   3.928   4.859  1.00  0.00    -0.014 A 
ATOM     61  C   UNL     1      -9.471   5.049   4.144  1.00  0.00     0.010 A 
ATOM     62  C   UNL     1      -9.772   2.745   4.829  1.00  0.00     0.010 A 
ATOM     63  C   UNL     1     -10.697   5.010   3.471  1.00  0.00     0.020 A 
ATOM     64  C   UNL     1     -10.981   2.690   4.127  1.00  0.00     0.020 A 
ATOM     65  C   UNL     1     -11.452   3.835   3.482  1.00  0.00     0.054 A 
BRANCH  65  66
ATOM     66  S   UNL     1     -13.082   3.835   2.683  1.00  0.00     0.124 S 
ATOM     67  O   UNL     1     -13.858   4.702   3.565  1.00  0.00    -0.237 OA
ATOM     68  O   UNL     1     -12.787   4.380   1.361  1.00  0.00    -0.237 OA
ATOM     69  O   UNL     1     -13.471   2.426   2.695  1.00  0.00    -0.744 OA
ENDBRANCH  65  66
ENDBRANCH  46  60
BRANCH  47  70
ATOM     70  C   UNL     1      -0.798   4.582  10.683  1.00  0.00    -0.014 A 
ATOM     71  C   UNL     1       0.462   4.933  10.159  1.00  0.00     0.010 A 
ATOM     72  C   UNL     1      -0.875   4.126  12.011  1.00  0.00     0.010 A 
ATOM     73  C   UNL     1       1.624   4.752  10.911  1.00  0.00     0.020 A 
ATOM     74  C   UNL     1       0.284   3.988  12.785  1.00  0.00     0.020 A 
ATOM     75  C   UNL     1       1.528   4.267  12.216  1.00  0.00     0.054 A 
BRANCH  75  76
ATOM     76  S   UNL     1       3.060   3.974  13.142  1.00  0.00     0.124 S 
ATOM     77  O   UNL     1       3.601   2.800  12.463  1.00  0.00    -0.237 OA
ATOM     78  O   UNL     1       3.798   5.217  12.933  1.00  0.00    -0.237 OA
ATOM     79  O   UNL     1       2.598   3.749  14.509  1.00  0.00    -0.744 OA
ENDBRANCH  75  76
ENDBRANCH  47  70
BRANCH  59  80
ATOM     80  C   UNL     1      -7.029   7.797  10.616  1.00  0.00    -0.014 A 
ATOM     81  C   UNL     1      -8.197   7.565  11.366  1.00  0.00     0.010 A 
ATOM     82  C   UNL     1      -6.480   9.092  10.586  1.00  0.00     0.010 A 
ATOM     83  C   UNL     1      -8.821   8.614  12.044  1.00  0.00     0.020 A 
ATOM     84  C   UNL     1      -7.074  10.132  11.302  1.00  0.00     0.020 A 
ATOM     85  C   UNL     1      -8.256   9.891  12.006  1.00  0.00     0.054 A 
BRANCH  85  86
ATOM     86  S   UNL     1      -9.085  11.239  12.887  1.00  0.00     0.124 S 
ATOM     87  O   UNL     1     -10.254  11.482  12.047  1.00  0.00    -0.237 OA
ATOM     88  O   UNL     1      -9.359  10.645  14.193  1.00  0.00    -0.237 OA
ATOM     89  O   UNL     1      -8.089  12.309  12.894  1.00  0.00    -0.744 OA
ENDBRANCH  85  86
ENDBRANCH  59  80
ENDBRANCH  33  34
ENDBRANCH  26  28
ENDBRANCH  25  26
ENDBRANCH  24  25
ENDBRANCH   1  24
TORSDOF 19
