REMARK SMILES O=C(Cc1cccn1-c1ccccc1F)OCCOC(=O)c1ccc(-c2c3nc(c(-c4ccc(S(=O)(=O)[O-])cc4)c4ccc([nH]4)c(-c4ccc(S(=O)(=O)[O-])cc4)c4nc(c(-c5ccc(S(=O)(=O)[O-])cc5)c5ccc2[nH]5)C=C4)C=C3)cc1
REMARK SMILES IDX 18 1 17 2 16 3 2 4 1 5 3 6 4 7 5 8 8 9 6 10 7 11 9 12 10 13
REMARK SMILES IDX 14 14 11 15 13 16 15 17 12 18 19 19 20 20 21 21 22 22 23 23
REMARK SMILES IDX 81 24 24 25 80 26 25 27 26 28 27 29 74 30 28 31 79 32 73 33
REMARK SMILES IDX 75 34 29 35 78 36 72 37 71 38 30 40 60 41 41 42 59 43 42 44
REMARK SMILES IDX 45 45 58 46 76 47 43 48 44 49 57 51 77 52 46 53 31 54 32 55
REMARK SMILES IDX 40 56 33 57 39 58 34 59 35 60 36 61 37 62 38 63 61 64 62 65
REMARK SMILES IDX 70 66 63 67 69 68 64 69 65 70 66 71 67 72 68 73 47 74 48 75
REMARK SMILES IDX 56 76 49 77 55 78 50 79 51 80 52 81 53 82 54 83
REMARK H PARENT 75 39 45 50
REMARK Flexibility Score: inf
ROOT
ATOM      1  C   UNL     1       4.635   2.010   0.427  1.00  0.00     0.275 C 
ENDROOT
BRANCH   1   2
ATOM      2  C   UNL     1       4.328   1.319  -0.892  1.00  0.00     0.274 C 
BRANCH   2   3
ATOM      3  O   UNL     1       2.957   0.915  -1.067  1.00  0.00    -0.462 OA
BRANCH   3   4
ATOM      4  C   UNL     1       2.465  -0.339  -0.887  1.00  0.00     0.311 C 
ATOM      5  O   UNL     1       1.378  -0.635  -1.382  1.00  0.00    -0.252 OA
BRANCH   4   6
ATOM      6  C   UNL     1       3.234  -1.324  -0.028  1.00  0.00     0.177 C 
BRANCH   6   7
ATOM      7  C   UNL     1       3.955  -2.382  -0.810  1.00  0.00     0.034 A 
ATOM      8  C   UNL     1       5.053  -2.214  -1.641  1.00  0.00     0.024 A 
ATOM      9  N   UNL     1       3.789  -3.750  -0.613  1.00  0.00    -0.318 N 
ATOM     10  C   UNL     1       5.568  -3.481  -1.965  1.00  0.00     0.020 A 
ATOM     11  C   UNL     1       4.777  -4.403  -1.328  1.00  0.00     0.091 A 
BRANCH   9  12
ATOM     12  C   UNL     1       2.933  -4.398   0.307  1.00  0.00     0.081 A 
ATOM     13  C   UNL     1       3.490  -5.298   1.226  1.00  0.00     0.030 A 
ATOM     14  C   UNL     1       1.566  -4.133   0.339  1.00  0.00     0.147 A 
ATOM     15  C   UNL     1       2.680  -5.882   2.200  1.00  0.00     0.002 A 
ATOM     16  C   UNL     1       0.754  -4.733   1.299  1.00  0.00     0.041 A 
ATOM     17  F   UNL     1       0.994  -3.338  -0.574  1.00  0.00    -0.205 F 
ATOM     18  C   UNL     1       1.314  -5.599   2.239  1.00  0.00     0.003 A 
ENDBRANCH   9  12
ENDBRANCH   6   7
ENDBRANCH   4   6
ENDBRANCH   3   4
ENDBRANCH   2   3
ENDBRANCH   1   2
BRANCH   1  19
ATOM     19  O   UNL     1       4.416   1.149   1.533  1.00  0.00    -0.458 OA
BRANCH  19  20
ATOM     20  C   UNL     1       3.142   1.139   1.993  1.00  0.00     0.338 C 
ATOM     21  O   UNL     1       2.158   1.588   1.450  1.00  0.00    -0.246 OA
BRANCH  20  22
ATOM     22  C   UNL     1       3.159   0.648   3.372  1.00  0.00     0.060 A 
ATOM     23  C   UNL     1       1.929   0.652   4.031  1.00  0.00     0.016 A 
ATOM     24  C   UNL     1       4.384   0.598   4.050  1.00  0.00     0.016 A 
ATOM     25  C   UNL     1       1.934   0.845   5.391  1.00  0.00     0.010 A 
ATOM     26  C   UNL     1       4.390   0.872   5.391  1.00  0.00     0.010 A 
ATOM     27  C   UNL     1       3.163   1.034   6.036  1.00  0.00    -0.014 A 
BRANCH  27  28
ATOM     28  C   UNL     1       3.147   1.192   7.485  1.00  0.00     0.031 A 
ATOM     29  C   UNL     1       3.152  -0.228   8.101  1.00  0.00     0.074 A 
ATOM     30  C   UNL     1       3.032   2.492   7.925  1.00  0.00     0.049 A 
ATOM     31  N   UNL     1       2.545  -0.657   9.154  1.00  0.00    -0.248 NA
ATOM     32  C   UNL     1       3.804  -1.379   7.389  1.00  0.00     0.031 C 
ATOM     33  C   UNL     1       3.105   3.711   7.068  1.00  0.00     0.029 A 
ATOM     34  N   UNL     1       2.836   3.080   9.156  1.00  0.00    -0.354 N 
ATOM     35  C   UNL     1       2.946  -1.993   9.377  1.00  0.00     0.074 A 
ATOM     36  C   UNL     1       3.588  -2.431   8.183  1.00  0.00     0.031 C 
ATOM     37  C   UNL     1       2.846   4.839   7.777  1.00  0.00     0.029 A 
ATOM     38  C   UNL     1       2.603   4.493   9.164  1.00  0.00     0.049 A 
ATOM     39  H   UNL     1       2.856   2.555   9.989  1.00  0.00     0.167 HD
ATOM     40  C   UNL     1       2.889  -2.563  10.614  1.00  0.00     0.031 A 
ATOM     41  C   UNL     1       2.196   5.285  10.215  1.00  0.00     0.031 A 
ATOM     42  C   UNL     1       2.314  -1.626  11.522  1.00  0.00     0.049 A 
ATOM     43  C   UNL     1       2.241   4.376  11.370  1.00  0.00     0.074 A 
ATOM     44  C   UNL     1       1.050  -1.099  11.607  1.00  0.00     0.029 A 
ATOM     45  N   UNL     1       3.214  -0.784  12.138  1.00  0.00    -0.354 N 
ATOM     46  N   UNL     1       3.326   3.935  11.927  1.00  0.00    -0.248 NA
ATOM     47  C   UNL     1       0.976   3.822  11.872  1.00  0.00     0.031 C 
ATOM     48  C   UNL     1       1.317   0.277  11.759  1.00  0.00     0.029 A 
ATOM     49  C   UNL     1       2.660   0.467  12.110  1.00  0.00     0.049 A 
ATOM     50  H   UNL     1       4.085  -1.034  12.524  1.00  0.00     0.167 HD
ATOM     51  C   UNL     1       2.888   2.782  12.524  1.00  0.00     0.074 A 
ATOM     52  C   UNL     1       1.463   2.949  12.748  1.00  0.00     0.031 C 
ATOM     53  C   UNL     1       3.525   1.609  12.261  1.00  0.00     0.031 A 
BRANCH  40  54
ATOM     54  C   UNL     1       3.586  -3.746  11.223  1.00  0.00    -0.014 A 
ATOM     55  C   UNL     1       3.176  -4.085  12.539  1.00  0.00     0.010 A 
ATOM     56  C   UNL     1       4.809  -4.257  10.769  1.00  0.00     0.010 A 
ATOM     57  C   UNL     1       4.024  -4.739  13.425  1.00  0.00     0.020 A 
ATOM     58  C   UNL     1       5.649  -4.969  11.646  1.00  0.00     0.020 A 
ATOM     59  C   UNL     1       5.274  -5.150  12.981  1.00  0.00     0.054 A 
BRANCH  59  60
ATOM     60  S   UNL     1       6.407  -5.863  14.202  1.00  0.00     0.124 S 
ATOM     61  O   UNL     1       6.751  -4.703  15.017  1.00  0.00    -0.237 OA
ATOM     62  O   UNL     1       5.567  -6.862  14.861  1.00  0.00    -0.237 OA
ATOM     63  O   UNL     1       7.488  -6.410  13.387  1.00  0.00    -0.744 OA
ENDBRANCH  59  60
ENDBRANCH  40  54
BRANCH  41  64
ATOM     64  C   UNL     1       1.632   6.668  10.535  1.00  0.00    -0.014 A 
ATOM     65  C   UNL     1       1.464   7.752   9.665  1.00  0.00     0.010 A 
ATOM     66  C   UNL     1       1.075   6.862  11.840  1.00  0.00     0.010 A 
ATOM     67  C   UNL     1       0.643   8.863  10.026  1.00  0.00     0.020 A 
ATOM     68  C   UNL     1       0.217   7.910  12.186  1.00  0.00     0.020 A 
ATOM     69  C   UNL     1      -0.030   8.898  11.256  1.00  0.00     0.054 A 
BRANCH  69  70
ATOM     70  S   UNL     1      -1.338  10.120  11.596  1.00  0.00     0.124 S 
ATOM     71  O   UNL     1      -0.577  11.308  11.969  1.00  0.00    -0.237 OA
ATOM     72  O   UNL     1      -2.045  10.195  10.320  1.00  0.00    -0.237 OA
ATOM     73  O   UNL     1      -2.107   9.509  12.681  1.00  0.00    -0.744 OA
ENDBRANCH  69  70
ENDBRANCH  41  64
BRANCH  53  74
ATOM     74  C   UNL     1       4.984   1.705  11.815  1.00  0.00    -0.014 A 
ATOM     75  C   UNL     1       5.907   2.379  12.637  1.00  0.00     0.010 A 
ATOM     76  C   UNL     1       5.473   1.217  10.584  1.00  0.00     0.010 A 
ATOM     77  C   UNL     1       7.248   2.556  12.262  1.00  0.00     0.020 A 
ATOM     78  C   UNL     1       6.818   1.398  10.189  1.00  0.00     0.020 A 
ATOM     79  C   UNL     1       7.703   2.061  11.041  1.00  0.00     0.054 A 
BRANCH  79  80
ATOM     80  S   UNL     1       9.456   2.291  10.605  1.00  0.00     0.124 S 
ATOM     81  O   UNL     1       9.615   3.743  10.646  1.00  0.00    -0.237 OA
ATOM     82  O   UNL     1      10.143   1.559  11.665  1.00  0.00    -0.237 OA
ATOM     83  O   UNL     1       9.568   1.700   9.272  1.00  0.00    -0.744 OA
ENDBRANCH  79  80
ENDBRANCH  53  74
ENDBRANCH  27  28
ENDBRANCH  20  22
ENDBRANCH  19  20
ENDBRANCH   1  19
TORSDOF 16
