REMARK SMILES C[C@H](NC(=O)NCCc1ccccc1F)C(=O)OCCOC(=O)c1ccc(-c2c3nc(c(-c4ccc(S(=O)(=O)[O-])cc4)c4ccc([nH]4)c(-c4ccc(S(=O)(=O)[O-])cc4)c4nc(c(-c5ccc(S(=O)(=O)[O-])cc5)c5ccc2[nH]5)C=C4)C=C3)cc1
REMARK SMILES IDX 19 1 18 2 16 3 17 4 2 5 1 6 3 7 4 8 5 10 6 11 7 13 8 14 9 15
REMARK SMILES IDX 10 16 14 17 11 18 13 19 15 20 12 21 20 22 21 23 22 24 23 25
REMARK SMILES IDX 24 26 25 27 83 28 26 29 82 30 27 31 28 32 29 33 76 34 30 35
REMARK SMILES IDX 81 36 75 37 77 38 31 39 80 40 74 41 73 42 32 44 62 45 43 46
REMARK SMILES IDX 61 47 44 48 47 49 60 50 78 51 45 52 46 53 59 55 79 56 48 57
REMARK SMILES IDX 33 58 34 59 42 60 35 61 41 62 36 63 37 64 38 65 39 66 40 67
REMARK SMILES IDX 63 68 64 69 72 70 65 71 71 72 66 73 67 74 68 75 69 76 70 77
REMARK SMILES IDX 49 78 50 79 58 80 51 81 57 82 52 83 53 84 54 85 55 86 56 87
REMARK H PARENT 3 9 6 12 77 43 47 54
REMARK Flexibility Score: inf
ROOT
ATOM      1  C   UNL     1      -3.207   0.351  -0.812  1.00  0.00     0.274 C 
ENDROOT
BRANCH   1   2
ATOM      2  O   UNL     1      -1.782   0.519  -0.667  1.00  0.00    -0.461 OA
BRANCH   2   3
ATOM      3  C   UNL     1      -1.338   1.807  -0.720  1.00  0.00     0.328 C 
ATOM      4  O   UNL     1      -2.050   2.784  -0.928  1.00  0.00    -0.250 OA
BRANCH   3   5
ATOM      5  C   UNL     1       0.189   1.917  -0.587  1.00  0.00     0.190 C 
ATOM      6  C   UNL     1       0.732   2.324  -1.954  1.00  0.00     0.043 C 
BRANCH   5   7
ATOM      7  N   UNL     1       0.840   0.695  -0.132  1.00  0.00    -0.325 N 
ATOM      8  C   UNL     1       2.063   0.434   0.348  1.00  0.00     0.315 C 
ATOM      9  H   UNL     1       0.263  -0.102  -0.190  1.00  0.00     0.166 HD
ATOM     10  O   UNL     1       2.412  -0.745   0.423  1.00  0.00    -0.249 OA
ATOM     11  N   UNL     1       2.926   1.377   0.750  1.00  0.00    -0.338 N 
ATOM     12  H   UNL     1       3.821   1.014   0.942  1.00  0.00     0.165 HD
BRANCH  11  13
ATOM     13  C   UNL     1       2.845   2.816   0.969  1.00  0.00     0.122 C 
BRANCH  13  14
ATOM     14  C   UNL     1       2.003   3.170   2.195  1.00  0.00     0.060 C 
BRANCH  14  15
ATOM     15  C   UNL     1       2.760   3.818   3.324  1.00  0.00    -0.010 A 
ATOM     16  C   UNL     1       3.043   5.191   3.301  1.00  0.00     0.007 A 
ATOM     17  C   UNL     1       3.133   3.077   4.451  1.00  0.00     0.126 A 
ATOM     18  C   UNL     1       3.671   5.800   4.391  1.00  0.00     0.000 A 
ATOM     19  C   UNL     1       3.755   3.679   5.540  1.00  0.00     0.039 A 
ATOM     20  F   UNL     1       2.859   1.766   4.504  1.00  0.00    -0.207 F 
ATOM     21  C   UNL     1       4.023   5.046   5.511  1.00  0.00     0.003 A 
ENDBRANCH  14  15
ENDBRANCH  13  14
ENDBRANCH  11  13
ENDBRANCH   5   7
ENDBRANCH   3   5
ENDBRANCH   2   3
ENDBRANCH   1   2
BRANCH   1  22
ATOM     22  C   UNL     1      -3.824  -0.157   0.485  1.00  0.00     0.275 C 
BRANCH  22  23
ATOM     23  O   UNL     1      -3.395   0.665   1.585  1.00  0.00    -0.458 OA
BRANCH  23  24
ATOM     24  C   UNL     1      -2.787  -0.008   2.589  1.00  0.00     0.338 C 
ATOM     25  O   UNL     1      -2.625  -1.217   2.675  1.00  0.00    -0.246 OA
BRANCH  24  26
ATOM     26  C   UNL     1      -2.327   0.926   3.628  1.00  0.00     0.060 A 
ATOM     27  C   UNL     1      -1.381   1.900   3.323  1.00  0.00     0.016 A 
ATOM     28  C   UNL     1      -2.718   0.715   4.952  1.00  0.00     0.016 A 
ATOM     29  C   UNL     1      -0.751   2.588   4.363  1.00  0.00     0.010 A 
ATOM     30  C   UNL     1      -2.122   1.453   5.982  1.00  0.00     0.010 A 
ATOM     31  C   UNL     1      -1.076   2.349   5.707  1.00  0.00    -0.014 A 
BRANCH  31  32
ATOM     32  C   UNL     1      -0.225   2.910   6.805  1.00  0.00     0.031 A 
ATOM     33  C   UNL     1       0.463   1.973   7.777  1.00  0.00     0.074 A 
ATOM     34  C   UNL     1       0.023   4.231   6.913  1.00  0.00     0.049 A 
ATOM     35  N   UNL     1       1.111   2.254   8.882  1.00  0.00    -0.248 NA
ATOM     36  C   UNL     1       0.399   0.534   7.476  1.00  0.00     0.031 C 
ATOM     37  C   UNL     1      -0.475   5.272   6.014  1.00  0.00     0.029 A 
ATOM     38  N   UNL     1       0.801   4.920   7.815  1.00  0.00    -0.354 N 
ATOM     39  C   UNL     1       1.441   1.027   9.451  1.00  0.00     0.074 A 
ATOM     40  C   UNL     1       0.943   0.002   8.560  1.00  0.00     0.031 C 
ATOM     41  C   UNL     1       0.081   6.447   6.352  1.00  0.00     0.029 A 
ATOM     42  C   UNL     1       0.899   6.265   7.548  1.00  0.00     0.049 A 
ATOM     43  H   UNL     1       1.247   4.490   8.580  1.00  0.00     0.167 HD
ATOM     44  C   UNL     1       2.088   0.771  10.614  1.00  0.00     0.031 A 
ATOM     45  C   UNL     1       1.552   7.249   8.197  1.00  0.00     0.031 A 
ATOM     46  C   UNL     1       2.674   1.773  11.463  1.00  0.00     0.049 A 
ATOM     47  C   UNL     1       2.284   6.947   9.476  1.00  0.00     0.074 A 
ATOM     48  C   UNL     1       3.344   1.602  12.664  1.00  0.00     0.029 A 
ATOM     49  N   UNL     1       2.698   3.128  11.184  1.00  0.00    -0.354 N 
ATOM     50  N   UNL     1       2.482   5.792  10.061  1.00  0.00    -0.248 NA
ATOM     51  C   UNL     1       2.854   8.096  10.198  1.00  0.00     0.031 C 
ATOM     52  C   UNL     1       3.757   2.860  13.120  1.00  0.00     0.029 A 
ATOM     53  C   UNL     1       3.374   3.806  12.184  1.00  0.00     0.049 A 
ATOM     54  H   UNL     1       2.294   3.549  10.390  1.00  0.00     0.167 HD
ATOM     55  C   UNL     1       3.193   6.076  11.223  1.00  0.00     0.074 A 
ATOM     56  C   UNL     1       3.422   7.505  11.240  1.00  0.00     0.031 C 
ATOM     57  C   UNL     1       3.603   5.226  12.197  1.00  0.00     0.031 A 
BRANCH  44  58
ATOM     58  C   UNL     1       2.142  -0.661  11.072  1.00  0.00    -0.014 A 
ATOM     59  C   UNL     1       3.026  -1.591  10.500  1.00  0.00     0.010 A 
ATOM     60  C   UNL     1       1.296  -1.071  12.119  1.00  0.00     0.010 A 
ATOM     61  C   UNL     1       3.031  -2.919  10.940  1.00  0.00     0.020 A 
ATOM     62  C   UNL     1       1.314  -2.390  12.576  1.00  0.00     0.020 A 
ATOM     63  C   UNL     1       2.168  -3.312  11.969  1.00  0.00     0.054 A 
BRANCH  63  64
ATOM     64  S   UNL     1       2.193  -5.036  12.533  1.00  0.00     0.124 S 
ATOM     65  O   UNL     1       1.389  -5.699  11.509  1.00  0.00    -0.237 OA
ATOM     66  O   UNL     1       3.617  -5.362  12.523  1.00  0.00    -0.237 OA
ATOM     67  O   UNL     1       1.583  -4.973  13.859  1.00  0.00    -0.744 OA
ENDBRANCH  63  64
ENDBRANCH  44  58
BRANCH  45  68
ATOM     68  C   UNL     1       1.523   8.638   7.667  1.00  0.00    -0.014 A 
ATOM     69  C   UNL     1       2.687   9.211   7.124  1.00  0.00     0.010 A 
ATOM     70  C   UNL     1       0.340   9.397   7.709  1.00  0.00     0.010 A 
ATOM     71  C   UNL     1       2.670  10.521   6.638  1.00  0.00     0.020 A 
ATOM     72  C   UNL     1       0.312  10.697   7.200  1.00  0.00     0.020 A 
ATOM     73  C   UNL     1       1.481  11.255   6.678  1.00  0.00     0.054 A 
BRANCH  73  74
ATOM     74  S   UNL     1       1.453  12.930   5.982  1.00  0.00     0.124 S 
ATOM     75  O   UNL     1       1.983  13.724   7.085  1.00  0.00    -0.237 OA
ATOM     76  O   UNL     1       2.323  12.806   4.814  1.00  0.00    -0.237 OA
ATOM     77  O   UNL     1       0.041  13.141   5.673  1.00  0.00    -0.744 OA
ENDBRANCH  73  74
ENDBRANCH  45  68
BRANCH  57  78
ATOM     78  C   UNL     1       4.360   5.816  13.355  1.00  0.00    -0.014 A 
ATOM     79  C   UNL     1       3.694   6.540  14.360  1.00  0.00     0.010 A 
ATOM     80  C   UNL     1       5.748   5.616  13.457  1.00  0.00     0.010 A 
ATOM     81  C   UNL     1       4.409   7.084  15.431  1.00  0.00     0.020 A 
ATOM     82  C   UNL     1       6.464   6.143  14.537  1.00  0.00     0.020 A 
ATOM     83  C   UNL     1       5.791   6.888  15.508  1.00  0.00     0.054 A 
BRANCH  83  84
ATOM     84  S   UNL     1       6.699   7.579  16.920  1.00  0.00     0.124 S 
ATOM     85  O   UNL     1       6.835   8.981  16.535  1.00  0.00    -0.237 OA
ATOM     86  O   UNL     1       5.802   7.319  18.043  1.00  0.00    -0.237 OA
ATOM     87  O   UNL     1       7.944   6.812  16.936  1.00  0.00    -0.744 OA
ENDBRANCH  83  84
ENDBRANCH  57  78
ENDBRANCH  31  32
ENDBRANCH  24  26
ENDBRANCH  23  24
ENDBRANCH  22  23
ENDBRANCH   1  22
TORSDOF 18
