REMARK SMILES CCNC(=O)NC(=O)[C@@H](C)[NH2+][C@](C)(CC)C(=O)OCCOC(=O)c1ccc(-c2c3nc(c(-c4ccc(S(=O)(=O)[O-])cc4)c4ccc([nH]4)c(-c4ccc(S(=O)(=O)[O-])cc4)c4nc(c(-c5ccc(S(=O)(=O)[O-])cc5)c5ccc2[nH]5)C=C4)C=C3)cc1
REMARK SMILES IDX 19 1 18 2 16 3 17 4 12 5 13 6 11 7 9 10 10 11 7 12 3 13 4 14
REMARK SMILES IDX 5 16 6 17 8 19 2 20 1 21 14 22 15 23 20 24 21 25 22 26 23 27
REMARK SMILES IDX 24 28 25 29 83 30 26 31 82 32 27 33 28 34 29 35 76 36 30 37
REMARK SMILES IDX 81 38 75 39 77 40 31 41 80 42 74 43 73 44 32 46 62 47 43 48
REMARK SMILES IDX 61 49 44 50 47 51 60 52 78 53 45 54 46 55 59 57 79 58 48 59
REMARK SMILES IDX 33 60 34 61 42 62 35 63 41 64 36 65 37 66 38 67 39 68 40 69
REMARK SMILES IDX 63 70 64 71 72 72 65 73 71 74 66 75 67 76 68 77 69 78 70 79
REMARK SMILES IDX 49 80 50 81 58 82 51 83 57 84 52 85 53 86 54 87 55 88 56 89
REMARK H PARENT 11 8 11 9 3 15 6 18 77 45 47 56
REMARK Flexibility Score: inf
ROOT
ATOM      1  C   UNL     1       0.324   2.908  -4.272  1.00  0.00     0.274 C 
ENDROOT
BRANCH   1   2
ATOM      2  O   UNL     1       0.990   1.647  -4.068  1.00  0.00    -0.457 OA
BRANCH   2   3
ATOM      3  C   UNL     1       0.586   0.967  -2.969  1.00  0.00     0.367 C 
ATOM      4  O   UNL     1      -0.329   1.341  -2.232  1.00  0.00    -0.245 OA
BRANCH   3   5
ATOM      5  C   UNL     1       1.458  -0.280  -2.590  1.00  0.00     0.191 C 
ATOM      6  C   UNL     1       0.535  -1.505  -2.602  1.00  0.00     0.092 C 
BRANCH   5   7
ATOM      7  N   UNL     1       1.940   0.099  -1.232  1.00  0.00    -0.322 N 
ATOM      8  H   UNL     1       2.688   0.776  -1.383  1.00  0.00     0.347 HD
ATOM      9  H   UNL     1       1.065   0.376  -0.786  1.00  0.00     0.347 HD
BRANCH   7  10
ATOM     10  C   UNL     1       2.461  -0.856  -0.254  1.00  0.00     0.270 C 
ATOM     11  C   UNL     1       1.565  -1.951   0.347  1.00  0.00     0.086 C 
BRANCH  10  12
ATOM     12  C   UNL     1       3.014  -0.057   0.957  1.00  0.00     0.285 C 
ATOM     13  N   UNL     1       0.167   1.615   0.817  1.00  0.00    -0.338 N 
ATOM     14  C   UNL     1       1.439   1.855   1.213  1.00  0.00     0.321 C 
ATOM     15  H   UNL     1      -0.276   2.382   0.388  1.00  0.00     0.165 HD
ATOM     16  O   UNL     1       1.846   3.015   1.245  1.00  0.00    -0.248 OA
ATOM     17  N   UNL     1       2.221   0.834   1.668  1.00  0.00    -0.273 N 
ATOM     18  H   UNL     1       2.225   0.712   2.645  1.00  0.00     0.175 HD
ATOM     19  O   UNL     1       4.162  -0.260   1.371  1.00  0.00    -0.268 OA
BRANCH  13  20
ATOM     20  C   UNL     1      -0.658   0.424   0.915  1.00  0.00     0.114 C 
ATOM     21  C   UNL     1      -2.138   0.729   0.771  1.00  0.00     0.027 C 
ENDBRANCH  13  20
ENDBRANCH  10  12
ENDBRANCH   7  10
ENDBRANCH   5   7
BRANCH   5  22
ATOM     22  C   UNL     1       2.650  -0.515  -3.549  1.00  0.00     0.077 C 
ATOM     23  C   UNL     1       2.272  -0.971  -4.965  1.00  0.00     0.011 C 
ENDBRANCH   5  22
ENDBRANCH   3   5
ENDBRANCH   2   3
ENDBRANCH   1   2
BRANCH   1  24
ATOM     24  C   UNL     1      -0.876   2.772  -5.206  1.00  0.00     0.275 C 
BRANCH  24  25
ATOM     25  O   UNL     1      -1.854   1.869  -4.655  1.00  0.00    -0.458 OA
BRANCH  25  26
ATOM     26  C   UNL     1      -2.114   0.769  -5.391  1.00  0.00     0.338 C 
ATOM     27  O   UNL     1      -1.642   0.488  -6.489  1.00  0.00    -0.246 OA
BRANCH  26  28
ATOM     28  C   UNL     1      -3.057  -0.122  -4.695  1.00  0.00     0.060 A 
ATOM     29  C   UNL     1      -2.727  -0.647  -3.448  1.00  0.00     0.016 A 
ATOM     30  C   UNL     1      -4.192  -0.580  -5.361  1.00  0.00     0.016 A 
ATOM     31  C   UNL     1      -3.449  -1.714  -2.918  1.00  0.00     0.010 A 
ATOM     32  C   UNL     1      -4.978  -1.581  -4.780  1.00  0.00     0.010 A 
ATOM     33  C   UNL     1      -4.586  -2.197  -3.578  1.00  0.00    -0.014 A 
BRANCH  33  34
ATOM     34  C   UNL     1      -5.320  -3.385  -3.060  1.00  0.00     0.031 A 
ATOM     35  C   UNL     1      -5.448  -4.617  -3.921  1.00  0.00     0.074 A 
ATOM     36  C   UNL     1      -5.854  -3.384  -1.821  1.00  0.00     0.049 A 
ATOM     37  N   UNL     1      -6.218  -5.662  -3.760  1.00  0.00    -0.248 NA
ATOM     38  C   UNL     1      -4.601  -4.678  -5.125  1.00  0.00     0.031 C 
ATOM     39  C   UNL     1      -5.744  -2.298  -0.844  1.00  0.00     0.029 A 
ATOM     40  N   UNL     1      -6.599  -4.338  -1.170  1.00  0.00    -0.354 N 
ATOM     41  C   UNL     1      -5.989  -6.477  -4.864  1.00  0.00     0.074 A 
ATOM     42  C   UNL     1      -5.006  -5.808  -5.687  1.00  0.00     0.031 C 
ATOM     43  C   UNL     1      -6.375  -2.655   0.285  1.00  0.00     0.029 A 
ATOM     44  C   UNL     1      -7.012  -3.952   0.083  1.00  0.00     0.049 A 
ATOM     45  H   UNL     1      -6.816  -5.213  -1.564  1.00  0.00     0.167 HD
ATOM     46  C   UNL     1      -6.552  -7.671  -5.167  1.00  0.00     0.031 A 
ATOM     47  C   UNL     1      -7.854  -4.544   0.953  1.00  0.00     0.031 A 
ATOM     48  C   UNL     1      -7.508  -8.348  -4.332  1.00  0.00     0.049 A 
ATOM     49  C   UNL     1      -8.511  -5.841   0.572  1.00  0.00     0.074 A 
ATOM     50  C   UNL     1      -8.175  -9.538  -4.572  1.00  0.00     0.029 A 
ATOM     51  N   UNL     1      -7.914  -7.907  -3.082  1.00  0.00    -0.354 N 
ATOM     52  N   UNL     1      -8.363  -6.548  -0.523  1.00  0.00    -0.248 NA
ATOM     53  C   UNL     1      -9.464  -6.411   1.535  1.00  0.00     0.031 C 
ATOM     54  C   UNL     1      -9.004  -9.803  -3.476  1.00  0.00     0.029 A 
ATOM     55  C   UNL     1      -8.819  -8.801  -2.537  1.00  0.00     0.049 A 
ATOM     56  H   UNL     1      -7.605  -7.080  -2.647  1.00  0.00     0.167 HD
ATOM     57  C   UNL     1      -9.196  -7.651  -0.374  1.00  0.00     0.074 A 
ATOM     58  C   UNL     1      -9.826  -7.530   0.924  1.00  0.00     0.031 C 
ATOM     59  C   UNL     1      -9.426  -8.669  -1.239  1.00  0.00     0.031 A 
BRANCH  46  60
ATOM     60  C   UNL     1      -6.179  -8.307  -6.479  1.00  0.00    -0.014 A 
ATOM     61  C   UNL     1      -4.941  -8.947  -6.654  1.00  0.00     0.010 A 
ATOM     62  C   UNL     1      -7.106  -8.303  -7.538  1.00  0.00     0.010 A 
ATOM     63  C   UNL     1      -4.624  -9.548  -7.876  1.00  0.00     0.020 A 
ATOM     64  C   UNL     1      -6.802  -8.921  -8.753  1.00  0.00     0.020 A 
ATOM     65  C   UNL     1      -5.556  -9.528  -8.920  1.00  0.00     0.054 A 
BRANCH  65  66
ATOM     66  S   UNL     1      -5.132 -10.340 -10.486  1.00  0.00     0.124 S 
ATOM     67  O   UNL     1      -4.197  -9.386 -11.075  1.00  0.00    -0.237 OA
ATOM     68  O   UNL     1      -4.547 -11.604 -10.046  1.00  0.00    -0.237 OA
ATOM     69  O   UNL     1      -6.416 -10.458 -11.173  1.00  0.00    -0.744 OA
ENDBRANCH  65  66
ENDBRANCH  46  60
BRANCH  47  70
ATOM     70  C   UNL     1      -8.189  -3.875   2.240  1.00  0.00    -0.014 A 
ATOM     71  C   UNL     1      -7.766  -4.417   3.466  1.00  0.00     0.010 A 
ATOM     72  C   UNL     1      -8.951  -2.691   2.242  1.00  0.00     0.010 A 
ATOM     73  C   UNL     1      -8.118  -3.801   4.671  1.00  0.00     0.020 A 
ATOM     74  C   UNL     1      -9.279  -2.056   3.442  1.00  0.00     0.020 A 
ATOM     75  C   UNL     1      -8.875  -2.625   4.650  1.00  0.00     0.054 A 
BRANCH  75  76
ATOM     76  S   UNL     1      -9.292  -1.814   6.219  1.00  0.00     0.124 S 
ATOM     77  O   UNL     1     -10.427  -2.610   6.676  1.00  0.00    -0.237 OA
ATOM     78  O   UNL     1      -8.062  -1.961   6.992  1.00  0.00    -0.237 OA
ATOM     79  O   UNL     1      -9.605  -0.445   5.817  1.00  0.00    -0.744 OA
ENDBRANCH  75  76
ENDBRANCH  47  70
BRANCH  59  80
ATOM     80  C   UNL     1     -10.365  -9.753  -0.791  1.00  0.00    -0.014 A 
ATOM     81  C   UNL     1     -11.756  -9.549  -0.780  1.00  0.00     0.010 A 
ATOM     82  C   UNL     1      -9.848 -11.007  -0.421  1.00  0.00     0.010 A 
ATOM     83  C   UNL     1     -12.614 -10.576  -0.378  1.00  0.00     0.020 A 
ATOM     84  C   UNL     1     -10.705 -12.042  -0.038  1.00  0.00     0.020 A 
ATOM     85  C   UNL     1     -12.082 -11.815  -0.006  1.00  0.00     0.054 A 
BRANCH  85  86
ATOM     86  S   UNL     1     -13.216 -13.148   0.472  1.00  0.00     0.124 S 
ATOM     87  O   UNL     1     -13.578 -12.764   1.833  1.00  0.00    -0.237 OA
ATOM     88  O   UNL     1     -14.284 -13.034  -0.518  1.00  0.00    -0.237 OA
ATOM     89  O   UNL     1     -12.398 -14.353   0.360  1.00  0.00    -0.744 OA
ENDBRANCH  85  86
ENDBRANCH  59  80
ENDBRANCH  33  34
ENDBRANCH  26  28
ENDBRANCH  25  26
ENDBRANCH  24  25
ENDBRANCH   1  24
TORSDOF 19
