REMARK SMILES Cc1cc2c(cc1C)O[C@H](C(=O)OCCOC(=O)c1ccc(-c3c4nc(c(-c5ccc(S(=O)(=O)[O-])cc5)c5ccc([nH]5)c(-c5ccc(S(=O)(=O)[O-])cc5)c5nc(c(-c6ccc(S(=O)(=O)[O-])cc6)c6ccc3[nH]6)C=C5)C=C4)cc1)C2
REMARK SMILES IDX 16 1 15 2 14 3 13 4 11 5 12 6 10 7 1 8 2 9 3 10 7 11 4 12
REMARK SMILES IDX 6 13 8 14 5 15 79 16 9 17 17 18 18 19 19 20 20 21 78 22
REMARK SMILES IDX 21 23 77 24 22 25 23 26 24 27 71 28 25 29 76 30 70 31 72 32
REMARK SMILES IDX 26 33 75 34 69 35 68 36 27 38 57 39 38 40 56 41 39 42 42 43
REMARK SMILES IDX 55 44 73 45 40 46 41 47 54 49 74 50 43 51 28 52 29 53 37 54
REMARK SMILES IDX 30 55 36 56 31 57 32 58 33 59 34 60 35 61 58 62 59 63 67 64
REMARK SMILES IDX 60 65 66 66 61 67 62 68 63 69 64 70 65 71 44 72 45 73 53 74
REMARK SMILES IDX 46 75 52 76 47 77 48 78 49 79 50 80 51 81
REMARK H PARENT 72 37 42 48
REMARK Flexibility Score: inf
ROOT
ATOM      1  O   UNL     1      -1.579  -7.815  -5.800  1.00  0.00    -0.458 OA
ENDROOT
BRANCH   1   2
ATOM      2  C   UNL     1      -0.738  -8.655  -4.987  1.00  0.00     0.275 C 
BRANCH   2   3
ATOM      3  C   UNL     1       0.712  -8.164  -4.892  1.00  0.00     0.274 C 
BRANCH   3   4
ATOM      4  O   UNL     1       0.860  -7.027  -4.017  1.00  0.00    -0.459 OA
BRANCH   4   5
ATOM      5  C   UNL     1       0.732  -5.825  -4.640  1.00  0.00     0.347 C 
ATOM      6  O   UNL     1       0.558  -5.700  -5.851  1.00  0.00    -0.248 OA
BRANCH   5   7
ATOM      7  C   UNL     1       0.915  -4.637  -3.721  1.00  0.00     0.287 C 
ATOM      8  C   UNL     1       0.990  -0.343   0.312  1.00  0.00     0.044 C 
ATOM      9  C   UNL     1       0.527  -1.193  -0.842  1.00  0.00    -0.048 A 
ATOM     10  C   UNL     1       0.805  -2.582  -0.787  1.00  0.00     0.011 A 
ATOM     11  C   UNL     1      -0.066  -0.632  -2.008  1.00  0.00    -0.045 A 
ATOM     12  C   UNL     1       0.542  -3.363  -1.897  1.00  0.00    -0.001 A 
ATOM     13  C   UNL     1      -0.380  -1.464  -3.092  1.00  0.00     0.050 A 
ATOM     14  C   UNL     1      -0.296   0.839  -2.229  1.00  0.00     0.045 C 
ATOM     15  C   UNL     1      -0.020  -2.787  -3.024  1.00  0.00     0.124 A 
ATOM     16  C   UNL     1       0.819  -4.798  -2.202  1.00  0.00     0.097 C 
ATOM     17  O   UNL     1      -0.056  -3.629  -4.102  1.00  0.00    -0.478 OA
ENDBRANCH   5   7
ENDBRANCH   4   5
ENDBRANCH   3   4
ENDBRANCH   2   3
ENDBRANCH   1   2
BRANCH   1  18
ATOM     18  C   UNL     1      -2.205  -6.799  -5.153  1.00  0.00     0.338 C 
ATOM     19  O   UNL     1      -2.092  -6.512  -3.974  1.00  0.00    -0.246 OA
BRANCH  18  20
ATOM     20  C   UNL     1      -3.026  -6.029  -6.114  1.00  0.00     0.060 A 
ATOM     21  C   UNL     1      -3.991  -6.667  -6.898  1.00  0.00     0.016 A 
ATOM     22  C   UNL     1      -2.871  -4.642  -6.184  1.00  0.00     0.016 A 
ATOM     23  C   UNL     1      -4.795  -5.912  -7.760  1.00  0.00     0.010 A 
ATOM     24  C   UNL     1      -3.679  -3.889  -7.043  1.00  0.00     0.010 A 
ATOM     25  C   UNL     1      -4.648  -4.516  -7.841  1.00  0.00    -0.014 A 
BRANCH  25  26
ATOM     26  C   UNL     1      -5.524  -3.716  -8.737  1.00  0.00     0.031 A 
ATOM     27  C   UNL     1      -4.991  -3.148 -10.024  1.00  0.00     0.074 A 
ATOM     28  C   UNL     1      -6.814  -3.510  -8.402  1.00  0.00     0.049 A 
ATOM     29  N   UNL     1      -5.625  -2.466 -10.945  1.00  0.00    -0.248 NA
ATOM     30  C   UNL     1      -3.568  -3.379 -10.321  1.00  0.00     0.031 C 
ATOM     31  C   UNL     1      -7.456  -4.016  -7.189  1.00  0.00     0.029 A 
ATOM     32  N   UNL     1      -7.819  -2.836  -9.054  1.00  0.00    -0.354 N 
ATOM     33  C   UNL     1      -4.689  -2.206 -11.938  1.00  0.00     0.074 A 
ATOM     34  C   UNL     1      -3.431  -2.761 -11.488  1.00  0.00     0.031 C 
ATOM     35  C   UNL     1      -8.753  -3.666  -7.201  1.00  0.00     0.029 A 
ATOM     36  C   UNL     1      -9.029  -2.878  -8.400  1.00  0.00     0.049 A 
ATOM     37  H   UNL     1      -7.685  -2.367  -9.909  1.00  0.00     0.167 HD
ATOM     38  C   UNL     1      -4.868  -1.581 -13.126  1.00  0.00     0.031 A 
ATOM     39  C   UNL     1     -10.228  -2.349  -8.725  1.00  0.00     0.031 A 
ATOM     40  C   UNL     1      -6.118  -1.015 -13.568  1.00  0.00     0.049 A 
ATOM     41  C   UNL     1     -10.379  -1.585 -10.013  1.00  0.00     0.074 A 
ATOM     42  C   UNL     1      -6.386  -0.369 -14.764  1.00  0.00     0.029 A 
ATOM     43  N   UNL     1      -7.301  -1.024 -12.847  1.00  0.00    -0.354 N 
ATOM     44  N   UNL     1      -9.489  -1.377 -10.954  1.00  0.00    -0.248 NA
ATOM     45  C   UNL     1     -11.696  -0.990 -10.291  1.00  0.00     0.031 C 
ATOM     46  C   UNL     1      -7.711   0.068 -14.739  1.00  0.00     0.029 A 
ATOM     47  C   UNL     1      -8.292  -0.371 -13.560  1.00  0.00     0.049 A 
ATOM     48  H   UNL     1      -7.419  -1.433 -11.959  1.00  0.00     0.167 HD
ATOM     49  C   UNL     1     -10.145  -0.655 -11.945  1.00  0.00     0.074 A 
ATOM     50  C   UNL     1     -11.508  -0.467 -11.497  1.00  0.00     0.031 C 
ATOM     51  C   UNL     1      -9.654  -0.193 -13.120  1.00  0.00     0.031 A 
BRANCH  38  52
ATOM     52  C   UNL     1      -3.699  -1.486 -14.071  1.00  0.00    -0.014 A 
ATOM     53  C   UNL     1      -3.138  -0.231 -14.373  1.00  0.00     0.010 A 
ATOM     54  C   UNL     1      -3.264  -2.619 -14.781  1.00  0.00     0.010 A 
ATOM     55  C   UNL     1      -2.195  -0.104 -15.398  1.00  0.00     0.020 A 
ATOM     56  C   UNL     1      -2.303  -2.500 -15.789  1.00  0.00     0.020 A 
ATOM     57  C   UNL     1      -1.795  -1.238 -16.109  1.00  0.00     0.054 A 
BRANCH  57  58
ATOM     58  S   UNL     1      -0.613  -1.046 -17.472  1.00  0.00     0.124 S 
ATOM     59  O   UNL     1      -1.436  -0.436 -18.512  1.00  0.00    -0.237 OA
ATOM     60  O   UNL     1       0.410  -0.181 -16.888  1.00  0.00    -0.237 OA
ATOM     61  O   UNL     1      -0.177  -2.415 -17.743  1.00  0.00    -0.744 OA
ENDBRANCH  57  58
ENDBRANCH  38  52
BRANCH  39  62
ATOM     62  C   UNL     1     -11.393  -2.564  -7.821  1.00  0.00    -0.014 A 
ATOM     63  C   UNL     1     -11.427  -1.977  -6.543  1.00  0.00     0.010 A 
ATOM     64  C   UNL     1     -12.453  -3.400  -8.215  1.00  0.00     0.010 A 
ATOM     65  C   UNL     1     -12.472  -2.258  -5.659  1.00  0.00     0.020 A 
ATOM     66  C   UNL     1     -13.516  -3.660  -7.344  1.00  0.00     0.020 A 
ATOM     67  C   UNL     1     -13.504  -3.108  -6.061  1.00  0.00     0.054 A 
BRANCH  67  68
ATOM     68  S   UNL     1     -14.835  -3.484  -4.886  1.00  0.00     0.124 S 
ATOM     69  O   UNL     1     -14.190  -4.452  -4.004  1.00  0.00    -0.237 OA
ATOM     70  O   UNL     1     -15.116  -2.180  -4.292  1.00  0.00    -0.237 OA
ATOM     71  O   UNL     1     -15.897  -4.020  -5.734  1.00  0.00    -0.744 OA
ENDBRANCH  67  68
ENDBRANCH  39  62
BRANCH  51  72
ATOM     72  C   UNL     1     -10.578   0.558 -14.046  1.00  0.00    -0.014 A 
ATOM     73  C   UNL     1     -10.925  -0.006 -15.289  1.00  0.00     0.010 A 
ATOM     74  C   UNL     1     -10.973   1.876 -13.761  1.00  0.00     0.010 A 
ATOM     75  C   UNL     1     -11.608   0.748 -16.247  1.00  0.00     0.020 A 
ATOM     76  C   UNL     1     -11.682   2.625 -14.707  1.00  0.00     0.020 A 
ATOM     77  C   UNL     1     -11.968   2.065 -15.955  1.00  0.00     0.054 A 
BRANCH  77  78
ATOM     78  S   UNL     1     -12.803   3.048 -17.231  1.00  0.00     0.124 S 
ATOM     79  O   UNL     1     -11.704   3.380 -18.133  1.00  0.00    -0.237 OA
ATOM     80  O   UNL     1     -13.792   2.114 -17.762  1.00  0.00    -0.237 OA
ATOM     81  O   UNL     1     -13.361   4.175 -16.486  1.00  0.00    -0.744 OA
ENDBRANCH  77  78
ENDBRANCH  51  72
ENDBRANCH  25  26
ENDBRANCH  18  20
ENDBRANCH   1  18
TORSDOF 14
