REMARK SMILES O=C(OCCOC(=O)[C@H](c1c[nH]c2ccc(Br)cc12)[N@H+]1CCC[C@H](c2nc3ccccc3s2)C1)c1ccc(-c2c3nc(c(-c4ccc(S(=O)(=O)[O-])cc4)c4ccc([nH]4)c(-c4ccc(S(=O)(=O)[O-])cc4)c4nc(c(-c5ccc(S(=O)(=O)[O-])cc5)c5ccc2[nH]5)C=C4)C=C3)cc1
REMARK SMILES IDX 4 1 3 2 2 3 1 4 35 5 36 6 94 7 37 8 93 9 38 10 39 11 40 12
REMARK SMILES IDX 87 13 41 14 92 15 86 16 88 17 42 18 91 19 85 20 84 21 43 23
REMARK SMILES IDX 73 24 54 25 72 26 55 27 58 28 71 29 89 30 56 31 57 32 70 34
REMARK SMILES IDX 90 35 59 36 44 37 45 38 53 39 46 40 52 41 47 42 48 43 49 44
REMARK SMILES IDX 50 45 51 46 74 47 75 48 83 49 76 50 82 51 77 52 78 53 79 54
REMARK SMILES IDX 80 55 81 56 60 57 61 58 69 59 62 60 68 61 63 62 64 63 65 64
REMARK SMILES IDX 66 65 67 66 5 67 6 68 7 69 8 70 9 71 20 72 21 73 34 74 22 76
REMARK SMILES IDX 24 77 23 78 25 79 26 80 33 81 27 82 32 83 28 84 31 85 29 86
REMARK SMILES IDX 30 87 10 88 11 89 19 90 12 91 13 92 18 93 14 95 16 96 15 97
REMARK SMILES IDX 17 98
REMARK H PARENT 88 22 58 33 20 75 12 94
REMARK Flexibility Score: inf
ROOT
ATOM      1  C   UNL     1       6.096   2.437  -2.620  1.00  0.00     0.275 C 
ENDROOT
BRANCH   1   2
ATOM      2  O   UNL     1       6.398   1.038  -2.990  1.00  0.00    -0.458 OA
BRANCH   2   3
ATOM      3  C   UNL     1       5.970  -0.203  -2.598  1.00  0.00     0.338 C 
ATOM      4  O   UNL     1       6.624  -1.211  -2.840  1.00  0.00    -0.246 OA
BRANCH   3   5
ATOM      5  C   UNL     1       4.657  -0.348  -1.931  1.00  0.00     0.060 A 
ATOM      6  C   UNL     1       4.041   1.073  -0.986  1.00  0.00     0.016 A 
ATOM      7  C   UNL     1       3.561  -1.791  -2.107  1.00  0.00     0.016 A 
ATOM      8  C   UNL     1       2.404   1.167  -0.364  1.00  0.00     0.010 A 
ATOM      9  C   UNL     1       1.796  -1.633  -1.478  1.00  0.00     0.010 A 
ATOM     10  C   UNL     1       1.270  -0.159  -0.527  1.00  0.00    -0.014 A 
BRANCH  10  11
ATOM     11  C   UNL     1       0.162  -0.049   0.498  1.00  0.00     0.031 A 
ATOM     12  C   UNL     1       0.435  -0.294   1.985  1.00  0.00     0.074 A 
ATOM     13  C   UNL     1      -1.038   0.498   0.255  1.00  0.00     0.049 A 
ATOM     14  N   UNL     1      -0.359  -0.798   2.899  1.00  0.00    -0.248 NA
ATOM     15  C   UNL     1       1.772   0.022   2.506  1.00  0.00     0.031 C 
ATOM     16  C   UNL     1      -1.454   1.163  -0.971  1.00  0.00     0.029 A 
ATOM     17  N   UNL     1      -2.123   0.602   1.094  1.00  0.00    -0.354 N 
ATOM     18  C   UNL     1       0.472  -1.132   3.974  1.00  0.00     0.074 A 
ATOM     19  C   UNL     1       1.780  -0.623   3.665  1.00  0.00     0.031 C 
ATOM     20  C   UNL     1      -2.717   1.601  -0.808  1.00  0.00     0.029 A 
ATOM     21  C   UNL     1      -3.220   1.164   0.499  1.00  0.00     0.049 A 
ATOM     22  H   UNL     1      -2.111   0.302   2.031  1.00  0.00     0.167 HD
ATOM     23  C   UNL     1       0.153  -1.872   5.064  1.00  0.00     0.031 A 
ATOM     24  C   UNL     1      -4.493   1.257   0.937  1.00  0.00     0.031 A 
ATOM     25  C   UNL     1      -1.210  -2.009   5.510  1.00  0.00     0.049 A 
ATOM     26  C   UNL     1      -4.880   0.679   2.275  1.00  0.00     0.074 A 
ATOM     27  C   UNL     1      -1.697  -2.616   6.654  1.00  0.00     0.029 A 
ATOM     28  N   UNL     1      -2.290  -1.418   4.878  1.00  0.00    -0.354 N 
ATOM     29  N   UNL     1      -4.142   0.013   3.132  1.00  0.00    -0.248 NA
ATOM     30  C   UNL     1      -6.277   0.858   2.701  1.00  0.00     0.031 C 
ATOM     31  C   UNL     1      -3.077  -2.389   6.712  1.00  0.00     0.029 A 
ATOM     32  C   UNL     1      -3.431  -1.595   5.632  1.00  0.00     0.049 A 
ATOM     33  H   UNL     1      -2.249  -0.941   4.018  1.00  0.00     0.167 HD
ATOM     34  C   UNL     1      -4.983  -0.305   4.196  1.00  0.00     0.074 A 
ATOM     35  C   UNL     1      -6.279   0.262   3.888  1.00  0.00     0.031 C 
ATOM     36  C   UNL     1      -4.708  -1.012   5.322  1.00  0.00     0.031 A 
BRANCH  23  37
ATOM     37  C   UNL     1       1.223  -2.671   5.781  1.00  0.00    -0.014 A 
ATOM     38  C   UNL     1       2.328  -2.132   6.456  1.00  0.00     0.010 A 
ATOM     39  C   UNL     1       1.055  -4.076   5.805  1.00  0.00     0.010 A 
ATOM     40  C   UNL     1       3.262  -2.974   7.083  1.00  0.00     0.020 A 
ATOM     41  C   UNL     1       1.955  -4.918   6.463  1.00  0.00     0.020 A 
ATOM     42  C   UNL     1       3.071  -4.361   7.079  1.00  0.00     0.054 A 
BRANCH  42  43
ATOM     43  S   UNL     1       4.269  -5.431   7.924  1.00  0.00     0.124 S 
ATOM     44  O   UNL     1       5.345  -5.507   6.939  1.00  0.00    -0.237 OA
ATOM     45  O   UNL     1       4.580  -4.677   9.136  1.00  0.00    -0.237 OA
ATOM     46  O   UNL     1       3.531  -6.673   8.140  1.00  0.00    -0.744 OA
ENDBRANCH  42  43
ENDBRANCH  23  37
BRANCH  24  47
ATOM     47  C   UNL     1      -5.501   1.873   0.037  1.00  0.00    -0.014 A 
ATOM     48  C   UNL     1      -5.988   3.167   0.282  1.00  0.00     0.010 A 
ATOM     49  C   UNL     1      -5.889   1.199  -1.136  1.00  0.00     0.010 A 
ATOM     50  C   UNL     1      -6.816   3.793  -0.653  1.00  0.00     0.020 A 
ATOM     51  C   UNL     1      -6.693   1.832  -2.085  1.00  0.00     0.020 A 
ATOM     52  C   UNL     1      -7.144   3.129  -1.841  1.00  0.00     0.054 A 
BRANCH  52  53
ATOM     53  S   UNL     1      -8.077   4.024  -3.115  1.00  0.00     0.124 S 
ATOM     54  O   UNL     1      -9.429   4.015  -2.566  1.00  0.00    -0.237 OA
ATOM     55  O   UNL     1      -7.410   5.324  -3.138  1.00  0.00    -0.237 OA
ATOM     56  O   UNL     1      -7.879   3.212  -4.314  1.00  0.00    -0.744 OA
ENDBRANCH  52  53
ENDBRANCH  24  47
BRANCH  36  57
ATOM     57  C   UNL     1      -5.797  -1.176   6.345  1.00  0.00    -0.014 A 
ATOM     58  C   UNL     1      -6.844  -2.092   6.154  1.00  0.00     0.010 A 
ATOM     59  C   UNL     1      -5.710  -0.473   7.561  1.00  0.00     0.010 A 
ATOM     60  C   UNL     1      -7.804  -2.282   7.153  1.00  0.00     0.020 A 
ATOM     61  C   UNL     1      -6.656  -0.673   8.569  1.00  0.00     0.020 A 
ATOM     62  C   UNL     1      -7.705  -1.569   8.353  1.00  0.00     0.054 A 
BRANCH  62  63
ATOM     63  S   UNL     1      -8.943  -1.861   9.646  1.00  0.00     0.124 S 
ATOM     64  O   UNL     1     -10.122  -1.203   9.092  1.00  0.00    -0.237 OA
ATOM     65  O   UNL     1      -9.007  -3.319   9.707  1.00  0.00    -0.237 OA
ATOM     66  O   UNL     1      -8.370  -1.219  10.827  1.00  0.00    -0.744 OA
ENDBRANCH  62  63
ENDBRANCH  36  57
ENDBRANCH  10  11
ENDBRANCH   3   5
ENDBRANCH   2   3
ENDBRANCH   1   2
BRANCH   1  67
ATOM     67  C   UNL     1       4.789   3.184  -3.089  1.00  0.00     0.274 C 
BRANCH  67  68
ATOM     68  O   UNL     1       3.531   2.597  -2.671  1.00  0.00    -0.457 OA
BRANCH  68  69
ATOM     69  C   UNL     1       3.446   1.346  -3.209  1.00  0.00     0.370 C 
ATOM     70  O   UNL     1       4.074   1.139  -4.242  1.00  0.00    -0.245 OA
BRANCH  69  71
ATOM     71  C   UNL     1       2.611   0.033  -2.290  1.00  0.00     0.328 C 
BRANCH  71  72
ATOM     72  N   UNL     1       2.353  -0.935  -3.850  1.00  0.00    -0.319 N 
ATOM     73  C   UNL     1       1.648  -2.254  -3.985  1.00  0.00     0.263 C 
ATOM     74  C   UNL     1       1.986  -0.196  -5.113  1.00  0.00     0.274 C 
ATOM     75  H   UNL     1       3.335  -1.166  -3.703  1.00  0.00     0.349 HD
ATOM     76  C   UNL     1       2.157  -3.048  -5.198  1.00  0.00     0.062 C 
ATOM     77  C   UNL     1       2.446  -0.919  -6.462  1.00  0.00     0.104 C 
ATOM     78  C   UNL     1       1.842  -2.332  -6.490  1.00  0.00     0.022 C 
BRANCH  77  79
ATOM     79  C   UNL     1       3.957  -0.927  -6.758  1.00  0.00     0.103 A 
ATOM     80  N   UNL     1       4.835  -0.090  -6.258  1.00  0.00    -0.241 NA
ATOM     81  S   UNL     1       4.655  -1.975  -7.961  1.00  0.00    -0.118 S 
ATOM     82  C   UNL     1       6.126  -0.393  -6.640  1.00  0.00     0.082 A 
ATOM     83  C   UNL     1       6.238  -1.404  -7.588  1.00  0.00     0.055 A 
ATOM     84  C   UNL     1       7.299   0.232  -6.169  1.00  0.00     0.030 A 
ATOM     85  C   UNL     1       7.489  -1.807  -8.092  1.00  0.00     0.021 A 
ATOM     86  C   UNL     1       8.550  -0.174  -6.642  1.00  0.00     0.002 A 
ATOM     87  C   UNL     1       8.641  -1.180  -7.597  1.00  0.00     0.002 A 
ENDBRANCH  77  79
ENDBRANCH  71  72
BRANCH  71  88
ATOM     88  C   UNL     1       3.307  -0.835  -0.360  1.00  0.00     0.046 A 
ATOM     89  C   UNL     1       4.549  -0.736   0.453  1.00  0.00     0.094 A 
ATOM     90  C   UNL     1       2.722  -2.146   0.643  1.00  0.00     0.010 A 
ATOM     91  N   UNL     1       4.756  -1.712   1.391  1.00  0.00    -0.361 N 
ATOM     92  C   UNL     1       3.705  -2.544   1.547  1.00  0.00     0.046 A 
ATOM     93  C   UNL     1       1.489  -2.913   0.809  1.00  0.00     0.026 A 
ATOM     94  H   UNL     1       5.592  -1.799   1.903  1.00  0.00     0.166 HD
ATOM     95  C   UNL     1       3.576  -3.600   2.472  1.00  0.00     0.028 A 
ATOM     96  C   UNL     1       1.332  -3.947   1.736  1.00  0.00     0.018 A 
ATOM     97  C   UNL     1       2.379  -4.304   2.550  1.00  0.00     0.018 A 
ATOM     98  Br  UNL     1      -0.346  -4.808   1.899  1.00  0.00    -0.051 Br
ENDBRANCH  71  88
ENDBRANCH  69  71
ENDBRANCH  68  69
ENDBRANCH  67  68
ENDBRANCH   1  67
TORSDOF 17
