REMARK SMILES Cc1cc(C(=O)N2CC[NH2+]C[C@H]2C(=O)OCCOC(=O)c2ccc(-c3c4nc(c(-c5ccc(S(=O)(=O)[O-])cc5)c5ccc([nH]5)c(-c5ccc(S(=O)(=O)[O-])cc5)c5nc(c(-c6ccc(S(=O)(=O)[O-])cc6)c6ccc3[nH]6)C=C5)C=C4)cc2)sc1Br
REMARK SMILES IDX 17 1 16 2 15 3 13 4 14 5 12 6 7 7 8 8 9 9 11 10 10 11 5 14
REMARK SMILES IDX 6 15 4 16 1 17 2 18 3 19 82 20 81 21 83 22 18 23 19 24 20 25
REMARK SMILES IDX 21 26 22 27 80 28 23 29 79 30 24 31 25 32 26 33 73 34 27 35
REMARK SMILES IDX 78 36 72 37 74 38 28 39 77 40 71 41 70 42 29 44 59 45 40 46
REMARK SMILES IDX 58 47 41 48 44 49 57 50 75 51 42 52 43 53 56 55 76 56 45 57
REMARK SMILES IDX 30 58 31 59 39 60 32 61 38 62 33 63 34 64 35 65 36 66 37 67
REMARK SMILES IDX 60 68 61 69 69 70 62 71 68 72 63 73 64 74 65 75 66 76 67 77
REMARK SMILES IDX 46 78 47 79 55 80 48 81 54 82 49 83 50 84 51 85 52 86 53 87
REMARK H PARENT 10 12 10 13 74 43 44 54
REMARK Flexibility Score: inf
ROOT
ATOM      1  C   UNL     1      -2.727   2.026   0.038  1.00  0.00     0.275 C 
ENDROOT
BRANCH   1   2
ATOM      2  C   UNL     1      -2.506   0.593  -0.438  1.00  0.00     0.274 C 
BRANCH   2   3
ATOM      3  O   UNL     1      -1.964   0.563  -1.775  1.00  0.00    -0.460 OA
BRANCH   3   4
ATOM      4  C   UNL     1      -2.847   0.437  -2.789  1.00  0.00     0.334 C 
ATOM      5  O   UNL     1      -4.008   0.063  -2.622  1.00  0.00    -0.250 OA
BRANCH   4   6
ATOM      6  C   UNL     1      -2.297   0.787  -4.199  1.00  0.00     0.251 C 
ATOM      7  N   UNL     1      -0.994   1.427  -4.591  1.00  0.00    -0.314 N 
ATOM      8  C   UNL     1      -0.846   1.515  -6.045  1.00  0.00     0.182 C 
ATOM      9  C   UNL     1      -0.903   0.131  -6.689  1.00  0.00     0.282 C 
ATOM     10  C   UNL     1      -2.367  -0.600  -4.918  1.00  0.00     0.298 C 
ATOM     11  N   UNL     1      -2.153  -0.580  -6.381  1.00  0.00    -0.343 N 
ATOM     12  H   UNL     1      -2.093  -1.538  -6.728  1.00  0.00     0.346 HD
ATOM     13  H   UNL     1      -2.934  -0.102  -6.830  1.00  0.00     0.346 HD
BRANCH   7  14
ATOM     14  C   UNL     1      -0.481   2.566  -3.942  1.00  0.00     0.265 C 
ATOM     15  O   UNL     1      -0.500   3.667  -4.495  1.00  0.00    -0.268 OA
BRANCH  14  16
ATOM     16  C   UNL     1       0.254   2.295  -2.715  1.00  0.00     0.093 A 
ATOM     17  C   UNL     1       1.484  -0.024  -0.036  1.00  0.00     0.046 C 
ATOM     18  C   UNL     1       1.187   1.171  -0.874  1.00  0.00    -0.025 A 
ATOM     19  C   UNL     1       0.690   1.082  -2.214  1.00  0.00     0.030 A 
ATOM     20  C   UNL     1       1.303   2.496  -0.511  1.00  0.00     0.074 A 
ATOM     21  S   UNL     1       0.744   3.579  -1.692  1.00  0.00    -0.123 S 
ATOM     22  Br  UNL     1       1.974   3.088   1.140  1.00  0.00    -0.039 Br
ENDBRANCH  14  16
ENDBRANCH   7  14
ENDBRANCH   4   6
ENDBRANCH   3   4
ENDBRANCH   2   3
ENDBRANCH   1   2
BRANCH   1  23
ATOM     23  O   UNL     1      -3.883   2.626  -0.556  1.00  0.00    -0.458 OA
BRANCH  23  24
ATOM     24  C   UNL     1      -3.635   3.221  -1.742  1.00  0.00     0.338 C 
ATOM     25  O   UNL     1      -2.700   3.001  -2.486  1.00  0.00    -0.246 OA
BRANCH  24  26
ATOM     26  C   UNL     1      -4.487   4.375  -1.968  1.00  0.00     0.060 A 
ATOM     27  C   UNL     1      -4.340   5.029  -3.202  1.00  0.00     0.016 A 
ATOM     28  C   UNL     1      -5.122   4.959  -0.872  1.00  0.00     0.016 A 
ATOM     29  C   UNL     1      -4.719   6.346  -3.296  1.00  0.00     0.010 A 
ATOM     30  C   UNL     1      -5.467   6.281  -0.959  1.00  0.00     0.010 A 
ATOM     31  C   UNL     1      -5.215   6.967  -2.151  1.00  0.00    -0.014 A 
BRANCH  31  32
ATOM     32  C   UNL     1      -5.584   8.359  -2.234  1.00  0.00     0.031 A 
ATOM     33  C   UNL     1      -6.918   8.567  -2.838  1.00  0.00     0.074 A 
ATOM     34  C   UNL     1      -4.868   9.311  -1.613  1.00  0.00     0.049 A 
ATOM     35  N   UNL     1      -7.212   9.137  -3.959  1.00  0.00    -0.248 NA
ATOM     36  C   UNL     1      -8.053   7.883  -2.192  1.00  0.00     0.031 C 
ATOM     37  C   UNL     1      -3.739   9.125  -0.697  1.00  0.00     0.029 A 
ATOM     38  N   UNL     1      -5.111  10.642  -1.545  1.00  0.00    -0.354 N 
ATOM     39  C   UNL     1      -8.599   9.070  -4.044  1.00  0.00     0.074 A 
ATOM     40  C   UNL     1      -9.021   8.088  -3.082  1.00  0.00     0.031 C 
ATOM     41  C   UNL     1      -3.569  10.258   0.021  1.00  0.00     0.029 A 
ATOM     42  C   UNL     1      -4.488  11.270  -0.477  1.00  0.00     0.049 A 
ATOM     43  H   UNL     1      -5.677  11.120  -2.194  1.00  0.00     0.167 HD
ATOM     44  C   UNL     1      -9.329  10.035  -4.667  1.00  0.00     0.031 A 
ATOM     45  C   UNL     1      -4.800  12.493   0.018  1.00  0.00     0.031 A 
ATOM     46  C   UNL     1      -8.506  10.879  -5.492  1.00  0.00     0.049 A 
ATOM     47  C   UNL     1      -5.600  13.200  -1.016  1.00  0.00     0.074 A 
ATOM     48  C   UNL     1      -7.686  10.675  -6.583  1.00  0.00     0.029 A 
ATOM     49  N   UNL     1      -8.155  12.100  -4.965  1.00  0.00    -0.354 N 
ATOM     50  N   UNL     1      -5.128  13.562  -2.177  1.00  0.00    -0.248 NA
ATOM     51  C   UNL     1      -7.052  13.127  -0.938  1.00  0.00     0.031 C 
ATOM     52  C   UNL     1      -6.598  11.577  -6.405  1.00  0.00     0.029 A 
ATOM     53  C   UNL     1      -6.831  12.319  -5.244  1.00  0.00     0.049 A 
ATOM     54  H   UNL     1      -8.751  12.711  -4.473  1.00  0.00     0.167 HD
ATOM     55  C   UNL     1      -6.170  13.357  -3.072  1.00  0.00     0.074 A 
ATOM     56  C   UNL     1      -7.357  13.204  -2.237  1.00  0.00     0.031 C 
ATOM     57  C   UNL     1      -5.925  13.051  -4.380  1.00  0.00     0.031 A 
BRANCH  44  58
ATOM     58  C   UNL     1     -10.691  10.470  -4.179  1.00  0.00    -0.014 A 
ATOM     59  C   UNL     1     -11.400  11.436  -4.919  1.00  0.00     0.010 A 
ATOM     60  C   UNL     1     -11.178  10.174  -2.887  1.00  0.00     0.010 A 
ATOM     61  C   UNL     1     -12.490  12.118  -4.363  1.00  0.00     0.020 A 
ATOM     62  C   UNL     1     -12.293  10.809  -2.343  1.00  0.00     0.020 A 
ATOM     63  C   UNL     1     -12.918  11.808  -3.071  1.00  0.00     0.054 A 
BRANCH  63  64
ATOM     64  S   UNL     1     -14.245  12.772  -2.312  1.00  0.00     0.124 S 
ATOM     65  O   UNL     1     -13.611  14.077  -2.153  1.00  0.00    -0.237 OA
ATOM     66  O   UNL     1     -15.299  12.695  -3.320  1.00  0.00    -0.237 OA
ATOM     67  O   UNL     1     -14.523  12.053  -1.071  1.00  0.00    -0.744 OA
ENDBRANCH  63  64
ENDBRANCH  44  58
BRANCH  45  68
ATOM     68  C   UNL     1      -4.752  12.932   1.435  1.00  0.00    -0.014 A 
ATOM     69  C   UNL     1      -4.847  14.295   1.769  1.00  0.00     0.010 A 
ATOM     70  C   UNL     1      -4.882  11.990   2.477  1.00  0.00     0.010 A 
ATOM     71  C   UNL     1      -5.122  14.697   3.087  1.00  0.00     0.020 A 
ATOM     72  C   UNL     1      -5.145  12.384   3.794  1.00  0.00     0.020 A 
ATOM     73  C   UNL     1      -5.289  13.736   4.088  1.00  0.00     0.054 A 
BRANCH  73  74
ATOM     74  S   UNL     1      -5.821  14.255   5.746  1.00  0.00     0.124 S 
ATOM     75  O   UNL     1      -4.629  14.924   6.260  1.00  0.00    -0.237 OA
ATOM     76  O   UNL     1      -6.958  15.124   5.458  1.00  0.00    -0.237 OA
ATOM     77  O   UNL     1      -6.159  12.996   6.409  1.00  0.00    -0.744 OA
ENDBRANCH  73  74
ENDBRANCH  45  68
BRANCH  57  78
ATOM     78  C   UNL     1      -4.528  13.267  -4.915  1.00  0.00    -0.014 A 
ATOM     79  C   UNL     1      -3.395  12.571  -4.449  1.00  0.00     0.010 A 
ATOM     80  C   UNL     1      -4.390  14.093  -6.044  1.00  0.00     0.010 A 
ATOM     81  C   UNL     1      -2.154  12.716  -5.087  1.00  0.00     0.020 A 
ATOM     82  C   UNL     1      -3.162  14.228  -6.694  1.00  0.00     0.020 A 
ATOM     83  C   UNL     1      -2.046  13.545  -6.208  1.00  0.00     0.054 A 
BRANCH  83  84
ATOM     84  S   UNL     1      -0.454  13.685  -7.068  1.00  0.00     0.124 S 
ATOM     85  O   UNL     1       0.357  14.435  -6.114  1.00  0.00    -0.237 OA
ATOM     86  O   UNL     1      -0.066  12.291  -7.266  1.00  0.00    -0.237 OA
ATOM     87  O   UNL     1      -0.785  14.406  -8.297  1.00  0.00    -0.744 OA
ENDBRANCH  83  84
ENDBRANCH  57  78
ENDBRANCH  31  32
ENDBRANCH  24  26
ENDBRANCH  23  24
ENDBRANCH   1  23
TORSDOF 16
