REMARK SMILES CC(C)OCCS(=O)(=O)N1CCC[C@H](C(=O)OCCOC(=O)c2ccc(-c3c4nc(c(-c5ccc(S(=O)(=O)[O-])cc5)c5ccc([nH]5)c(-c5ccc(S(=O)(=O)[O-])cc5)c5nc(c(-c6ccc(S(=O)(=O)[O-])cc6)c6ccc3[nH]6)C=C5)C=C4)cc2)C1
REMARK SMILES IDX 18 1 17 2 15 3 16 4 14 5 10 6 11 7 83 8 12 9 13 10 7 11 8 12
REMARK SMILES IDX 9 13 6 14 5 15 4 16 2 17 1 18 3 19 19 20 20 21 21 22 22 23
REMARK SMILES IDX 23 24 24 25 82 26 25 27 81 28 26 29 27 30 28 31 75 32 29 33
REMARK SMILES IDX 80 34 74 35 76 36 30 37 79 38 73 39 72 40 31 42 61 43 42 44
REMARK SMILES IDX 60 45 43 46 46 47 59 48 77 49 44 50 45 51 58 53 78 54 47 55
REMARK SMILES IDX 32 56 33 57 41 58 34 59 40 60 35 61 36 62 37 63 38 64 39 65
REMARK SMILES IDX 62 66 63 67 71 68 64 69 70 70 65 71 66 72 67 73 68 74 69 75
REMARK SMILES IDX 48 76 49 77 57 78 50 79 56 80 51 81 52 82 53 83 54 84 55 85
REMARK H PARENT 76 41 46 52
REMARK Flexibility Score: inf
ROOT
ATOM      1  C   UNL     1       5.753  -0.485  -3.522  1.00  0.00     0.274 C 
ENDROOT
BRANCH   1   2
ATOM      2  O   UNL     1       4.377  -0.887  -3.393  1.00  0.00    -0.462 OA
BRANCH   2   3
ATOM      3  C   UNL     1       3.625  -0.169  -2.517  1.00  0.00     0.310 C 
ATOM      4  O   UNL     1       4.034   0.769  -1.845  1.00  0.00    -0.252 OA
BRANCH   3   5
ATOM      5  C   UNL     1       2.227  -0.727  -2.373  1.00  0.00     0.114 C 
ATOM      6  N   UNL     1       1.192  -2.796  -1.458  1.00  0.00    -0.201 NA
ATOM      7  C   UNL     1       0.952  -3.395  -2.793  1.00  0.00     0.102 C 
ATOM      8  C   UNL     1       2.318  -1.848  -1.336  1.00  0.00     0.117 C 
ATOM      9  C   UNL     1       1.646  -2.634  -3.917  1.00  0.00     0.018 C 
ATOM     10  C   UNL     1       1.578  -1.133  -3.701  1.00  0.00     0.018 C 
BRANCH   6  11
ATOM     11  S   UNL     1       0.801  -3.748  -0.108  1.00  0.00     0.216 S 
ATOM     12  O   UNL     1       1.513  -3.241   1.045  1.00  0.00    -0.212 OA
ATOM     13  O   UNL     1       0.938  -5.136  -0.497  1.00  0.00    -0.212 OA
BRANCH  11  14
ATOM     14  C   UNL     1      -0.945  -3.400   0.077  1.00  0.00     0.182 C 
BRANCH  14  15
ATOM     15  C   UNL     1      -1.227  -2.291   1.074  1.00  0.00     0.178 C 
BRANCH  15  16
ATOM     16  O   UNL     1      -2.203  -1.361   0.600  1.00  0.00    -0.378 OA
BRANCH  16  17
ATOM     17  C   UNL     1      -1.746  -0.147  -0.010  1.00  0.00     0.112 C 
ATOM     18  C   UNL     1      -0.621   0.563   0.743  1.00  0.00     0.038 C 
ATOM     19  C   UNL     1      -1.397  -0.370  -1.472  1.00  0.00     0.038 C 
ENDBRANCH  16  17
ENDBRANCH  15  16
ENDBRANCH  14  15
ENDBRANCH  11  14
ENDBRANCH   6  11
ENDBRANCH   3   5
ENDBRANCH   2   3
ENDBRANCH   1   2
BRANCH   1  20
ATOM     20  C   UNL     1       5.965   0.480  -4.690  1.00  0.00     0.275 C 
BRANCH  20  21
ATOM     21  O   UNL     1       5.382   1.770  -4.436  1.00  0.00    -0.458 OA
BRANCH  21  22
ATOM     22  C   UNL     1       4.113   1.927  -4.882  1.00  0.00     0.338 C 
ATOM     23  O   UNL     1       3.446   1.115  -5.500  1.00  0.00    -0.246 OA
BRANCH  22  24
ATOM     24  C   UNL     1       3.575   3.216  -4.422  1.00  0.00     0.060 A 
ATOM     25  C   UNL     1       2.424   3.217  -3.626  1.00  0.00     0.016 A 
ATOM     26  C   UNL     1       4.150   4.414  -4.845  1.00  0.00     0.016 A 
ATOM     27  C   UNL     1       1.835   4.427  -3.257  1.00  0.00     0.010 A 
ATOM     28  C   UNL     1       3.559   5.624  -4.472  1.00  0.00     0.010 A 
ATOM     29  C   UNL     1       2.391   5.639  -3.688  1.00  0.00    -0.014 A 
BRANCH  29  30
ATOM     30  C   UNL     1       1.735   6.931  -3.372  1.00  0.00     0.031 A 
ATOM     31  C   UNL     1       1.045   7.702  -4.463  1.00  0.00     0.074 A 
ATOM     32  C   UNL     1       1.786   7.428  -2.122  1.00  0.00     0.049 A 
ATOM     33  N   UNL     1       0.541   8.909  -4.431  1.00  0.00    -0.248 NA
ATOM     34  C   UNL     1       0.912   7.027  -5.764  1.00  0.00     0.031 C 
ATOM     35  C   UNL     1       2.388   6.757  -0.968  1.00  0.00     0.029 A 
ATOM     36  N   UNL     1       1.337   8.623  -1.618  1.00  0.00    -0.354 N 
ATOM     37  C   UNL     1       0.055   9.150  -5.711  1.00  0.00     0.074 A 
ATOM     38  C   UNL     1       0.339   7.969  -6.499  1.00  0.00     0.031 C 
ATOM     39  C   UNL     1       2.277   7.554   0.107  1.00  0.00     0.029 A 
ATOM     40  C   UNL     1       1.647   8.810  -0.292  1.00  0.00     0.049 A 
ATOM     41  H   UNL     1       0.840   9.282  -2.155  1.00  0.00     0.167 HD
ATOM     42  C   UNL     1      -0.567  10.256  -6.186  1.00  0.00     0.031 A 
ATOM     43  C   UNL     1       1.477   9.885   0.503  1.00  0.00     0.031 A 
ATOM     44  C   UNL     1      -0.844  11.428  -5.397  1.00  0.00     0.049 A 
ATOM     45  C   UNL     1       0.843  11.127  -0.065  1.00  0.00     0.074 A 
ATOM     46  C   UNL     1      -1.482  12.594  -5.782  1.00  0.00     0.029 A 
ATOM     47  N   UNL     1      -0.496  11.586  -4.063  1.00  0.00    -0.354 N 
ATOM     48  N   UNL     1       0.390  11.341  -1.277  1.00  0.00    -0.248 NA
ATOM     49  C   UNL     1       0.698  12.273   0.845  1.00  0.00     0.031 C 
ATOM     50  C   UNL     1      -1.474  13.477  -4.697  1.00  0.00     0.029 A 
ATOM     51  C   UNL     1      -0.885  12.838  -3.617  1.00  0.00     0.049 A 
ATOM     52  H   UNL     1      -0.040  10.908  -3.515  1.00  0.00     0.167 HD
ATOM     53  C   UNL     1      -0.117  12.637  -1.268  1.00  0.00     0.074 A 
ATOM     54  C   UNL     1       0.073  13.151   0.072  1.00  0.00     0.031 C 
ATOM     55  C   UNL     1      -0.689  13.337  -2.279  1.00  0.00     0.031 A 
BRANCH  42  56
ATOM     56  C   UNL     1      -0.958  10.266  -7.641  1.00  0.00    -0.014 A 
ATOM     57  C   UNL     1      -2.017   9.474  -8.120  1.00  0.00     0.010 A 
ATOM     58  C   UNL     1      -0.279  11.113  -8.536  1.00  0.00     0.010 A 
ATOM     59  C   UNL     1      -2.362   9.499  -9.474  1.00  0.00     0.020 A 
ATOM     60  C   UNL     1      -0.638  11.161  -9.886  1.00  0.00     0.020 A 
ATOM     61  C   UNL     1      -1.668  10.340 -10.350  1.00  0.00     0.054 A 
BRANCH  61  62
ATOM     62  S   UNL     1      -2.148  10.364 -12.099  1.00  0.00     0.124 S 
ATOM     63  O   UNL     1      -1.634   9.081 -12.570  1.00  0.00    -0.237 OA
ATOM     64  O   UNL     1      -3.603  10.470 -12.031  1.00  0.00    -0.237 OA
ATOM     65  O   UNL     1      -1.464  11.541 -12.630  1.00  0.00    -0.744 OA
ENDBRANCH  61  62
ENDBRANCH  42  56
BRANCH  43  66
ATOM     66  C   UNL     1       1.945   9.845   1.915  1.00  0.00    -0.014 A 
ATOM     67  C   UNL     1       1.021   9.835   2.975  1.00  0.00     0.010 A 
ATOM     68  C   UNL     1       3.321   9.811   2.208  1.00  0.00     0.010 A 
ATOM     69  C   UNL     1       1.465   9.807   4.300  1.00  0.00     0.020 A 
ATOM     70  C   UNL     1       3.768   9.753   3.530  1.00  0.00     0.020 A 
ATOM     71  C   UNL     1       2.836   9.763   4.570  1.00  0.00     0.054 A 
BRANCH  71  72
ATOM     72  S   UNL     1       3.387   9.672   6.296  1.00  0.00     0.124 S 
ATOM     73  O   UNL     1       3.143  11.033   6.764  1.00  0.00    -0.237 OA
ATOM     74  O   UNL     1       2.511   8.644   6.853  1.00  0.00    -0.237 OA
ATOM     75  O   UNL     1       4.793   9.289   6.186  1.00  0.00    -0.744 OA
ENDBRANCH  71  72
ENDBRANCH  43  66
BRANCH  55  76
ATOM     76  C   UNL     1      -1.187  14.724  -1.966  1.00  0.00    -0.014 A 
ATOM     77  C   UNL     1      -0.297  15.792  -1.760  1.00  0.00     0.010 A 
ATOM     78  C   UNL     1      -2.572  14.968  -1.927  1.00  0.00     0.010 A 
ATOM     79  C   UNL     1      -0.783  17.074  -1.487  1.00  0.00     0.020 A 
ATOM     80  C   UNL     1      -3.062  16.253  -1.681  1.00  0.00     0.020 A 
ATOM     81  C   UNL     1      -2.164  17.296  -1.449  1.00  0.00     0.054 A 
BRANCH  81  82
ATOM     82  S   UNL     1      -2.771  18.976  -1.132  1.00  0.00     0.124 S 
ATOM     83  O   UNL     1      -2.514  19.128   0.297  1.00  0.00    -0.237 OA
ATOM     84  O   UNL     1      -1.934  19.791  -2.010  1.00  0.00    -0.237 OA
ATOM     85  O   UNL     1      -4.181  18.912  -1.509  1.00  0.00    -0.744 OA
ENDBRANCH  81  82
ENDBRANCH  55  76
ENDBRANCH  29  30
ENDBRANCH  22  24
ENDBRANCH  21  22
ENDBRANCH  20  21
ENDBRANCH   1  20
TORSDOF 19
