REMARK SMILES CC[C@@H]1CC(=O)N(Cc2ccc(/C=C/C(=O)OCCOC(=O)c3ccc(-c4c5nc(c(-c6ccc(S(=O)(=O)[O-])cc6)c6ccc([nH]6)c(-c6ccc(S(=O)(=O)[O-])cc6)c6nc(c(-c7ccc(S(=O)(=O)[O-])cc7)c7ccc4[nH]7)C=C6)C=C5)cc3)cc2F)C1
REMARK SMILES IDX 18 1 17 2 15 3 16 4 14 5 13 6 12 7 9 8 10 9 84 10 11 11
REMARK SMILES IDX 83 12 85 13 8 14 7 15 3 16 4 17 86 18 5 19 6 20 2 21 1 22
REMARK SMILES IDX 19 23 20 24 21 25 22 26 23 27 24 28 82 29 25 30 81 31 26 32
REMARK SMILES IDX 27 33 28 34 75 35 29 36 80 37 74 38 76 39 30 40 79 41 73 42
REMARK SMILES IDX 72 43 31 45 61 46 42 47 60 48 43 49 46 50 59 51 77 52 44 53
REMARK SMILES IDX 45 54 58 56 78 57 47 58 32 59 33 60 41 61 34 62 40 63 35 64
REMARK SMILES IDX 36 65 37 66 38 67 39 68 62 69 63 70 71 71 64 72 70 73 65 74
REMARK SMILES IDX 66 75 67 76 68 77 69 78 48 79 49 80 57 81 50 82 56 83 51 84
REMARK SMILES IDX 52 85 53 86 54 87 55 88
REMARK H PARENT 76 44 46 55
REMARK Flexibility Score: inf
ROOT
ATOM      1  C   UNL     1       5.905 -10.696  -4.911  1.00  0.00     0.275 C 
ENDROOT
BRANCH   1   2
ATOM      2  O   UNL     1       5.099  -9.560  -4.550  1.00  0.00    -0.459 OA
BRANCH   2   3
ATOM      3  C   UNL     1       4.301  -9.074  -5.530  1.00  0.00     0.330 C 
ATOM      4  O   UNL     1       4.286  -9.440  -6.696  1.00  0.00    -0.247 OA
BRANCH   3   5
ATOM      5  C   UNL     1       3.373  -8.033  -5.046  1.00  0.00     0.094 C 
ATOM      6  C   UNL     1       3.210  -7.677  -3.762  1.00  0.00     0.016 C 
BRANCH   6   7
ATOM      7  C   UNL     1       2.231  -6.670  -3.324  1.00  0.00    -0.022 A 
ATOM      8  C   UNL     1       0.416  -4.682  -2.445  1.00  0.00     0.007 A 
ATOM      9  C   UNL     1       0.097  -5.505  -3.530  1.00  0.00     0.009 A 
ATOM     10  C   UNL     1       1.624  -4.910  -1.781  1.00  0.00     0.128 A 
ATOM     11  C   UNL     1       0.988  -6.499  -3.952  1.00  0.00     0.008 A 
ATOM     12  C   UNL     1       2.528  -5.880  -2.211  1.00  0.00     0.047 A 
ATOM     13  F   UNL     1       1.951  -4.170  -0.711  1.00  0.00    -0.207 F 
BRANCH   8  14
ATOM     14  C   UNL     1      -0.500  -3.562  -2.027  1.00  0.00     0.158 C 
BRANCH  14  15
ATOM     15  N   UNL     1      -0.070  -2.263  -2.520  1.00  0.00    -0.338 N 
ATOM     16  C   UNL     1       0.999  -0.194  -2.444  1.00  0.00     0.017 C 
ATOM     17  C   UNL     1       0.033  -0.213  -3.639  1.00  0.00     0.105 C 
ATOM     18  C   UNL     1       1.201  -1.679  -2.178  1.00  0.00     0.124 C 
ATOM     19  C   UNL     1      -0.791  -1.459  -3.386  1.00  0.00     0.223 C 
ATOM     20  O   UNL     1      -1.877  -1.701  -3.886  1.00  0.00    -0.275 OA
BRANCH  16  21
ATOM     21  C   UNL     1       0.387   0.586  -1.261  1.00  0.00     0.002 C 
ATOM     22  C   UNL     1       1.077   0.353   0.076  1.00  0.00     0.004 C 
ENDBRANCH  16  21
ENDBRANCH  14  15
ENDBRANCH   8  14
ENDBRANCH   6   7
ENDBRANCH   3   5
ENDBRANCH   2   3
ENDBRANCH   1   2
BRANCH   1  23
ATOM     23  C   UNL     1       5.298 -11.999  -4.381  1.00  0.00     0.275 C 
BRANCH  23  24
ATOM     24  O   UNL     1       4.043 -12.308  -5.016  1.00  0.00    -0.458 OA
BRANCH  24  25
ATOM     25  C   UNL     1       2.947 -11.813  -4.392  1.00  0.00     0.338 C 
ATOM     26  O   UNL     1       2.921 -11.169  -3.356  1.00  0.00    -0.246 OA
BRANCH  25  27
ATOM     27  C   UNL     1       1.747 -12.062  -5.212  1.00  0.00     0.060 A 
ATOM     28  C   UNL     1       0.926 -10.974  -5.522  1.00  0.00     0.016 A 
ATOM     29  C   UNL     1       1.393 -13.353  -5.611  1.00  0.00     0.016 A 
ATOM     30  C   UNL     1      -0.259 -11.174  -6.229  1.00  0.00     0.010 A 
ATOM     31  C   UNL     1       0.203 -13.551  -6.319  1.00  0.00     0.010 A 
ATOM     32  C   UNL     1      -0.636 -12.465  -6.622  1.00  0.00    -0.014 A 
BRANCH  32  33
ATOM     33  C   UNL     1      -1.930 -12.677  -7.317  1.00  0.00     0.031 A 
ATOM     34  C   UNL     1      -3.093 -13.278  -6.579  1.00  0.00     0.074 A 
ATOM     35  C   UNL     1      -2.064 -12.320  -8.608  1.00  0.00     0.049 A 
ATOM     36  N   UNL     1      -4.293 -13.561  -7.019  1.00  0.00    -0.248 NA
ATOM     37  C   UNL     1      -2.876 -13.607  -5.162  1.00  0.00     0.031 C 
ATOM     38  C   UNL     1      -1.017 -11.705  -9.424  1.00  0.00     0.029 A 
ATOM     39  N   UNL     1      -3.135 -12.426  -9.458  1.00  0.00    -0.354 N 
ATOM     40  C   UNL     1      -4.971 -14.116  -5.940  1.00  0.00     0.074 A 
ATOM     41  C   UNL     1      -4.040 -14.149  -4.831  1.00  0.00     0.031 C 
ATOM     42  C   UNL     1      -1.499 -11.486 -10.658  1.00  0.00     0.029 A 
ATOM     43  C   UNL     1      -2.872 -11.980 -10.731  1.00  0.00     0.049 A 
ATOM     44  H   UNL     1      -4.009 -12.787  -9.183  1.00  0.00     0.167 HD
ATOM     45  C   UNL     1      -6.251 -14.556  -5.878  1.00  0.00     0.031 A 
ATOM     46  C   UNL     1      -3.640 -11.988 -11.838  1.00  0.00     0.031 A 
ATOM     47  C   UNL     1      -7.170 -14.534  -6.987  1.00  0.00     0.049 A 
ATOM     48  C   UNL     1      -5.042 -12.526 -11.761  1.00  0.00     0.074 A 
ATOM     49  C   UNL     1      -8.494 -14.935  -7.016  1.00  0.00     0.029 A 
ATOM     50  N   UNL     1      -6.857 -14.100  -8.267  1.00  0.00    -0.354 N 
ATOM     51  N   UNL     1      -5.678 -13.019 -10.725  1.00  0.00    -0.248 NA
ATOM     52  C   UNL     1      -5.831 -12.505 -13.000  1.00  0.00     0.031 C 
ATOM     53  C   UNL     1      -8.966 -14.795  -8.326  1.00  0.00     0.029 A 
ATOM     54  C   UNL     1      -7.953 -14.252  -9.101  1.00  0.00     0.049 A 
ATOM     55  H   UNL     1      -5.984 -13.738  -8.542  1.00  0.00     0.167 HD
ATOM     56  C   UNL     1      -6.948 -13.351 -11.183  1.00  0.00     0.074 A 
ATOM     57  C   UNL     1      -6.994 -12.989 -12.585  1.00  0.00     0.031 C 
ATOM     58  C   UNL     1      -7.983 -13.902 -10.500  1.00  0.00     0.031 A 
BRANCH  45  59
ATOM     59  C   UNL     1      -6.714 -15.147  -4.571  1.00  0.00    -0.014 A 
ATOM     60  C   UNL     1      -6.925 -14.343  -3.436  1.00  0.00     0.010 A 
ATOM     61  C   UNL     1      -6.946 -16.532  -4.480  1.00  0.00     0.010 A 
ATOM     62  C   UNL     1      -7.302 -14.921  -2.220  1.00  0.00     0.020 A 
ATOM     63  C   UNL     1      -7.349 -17.110  -3.273  1.00  0.00     0.020 A 
ATOM     64  C   UNL     1      -7.500 -16.303  -2.144  1.00  0.00     0.054 A 
BRANCH  64  65
ATOM     65  S   UNL     1      -7.969 -17.033  -0.550  1.00  0.00     0.124 S 
ATOM     66  O   UNL     1      -6.707 -16.982   0.185  1.00  0.00    -0.237 OA
ATOM     67  O   UNL     1      -9.009 -16.125  -0.073  1.00  0.00    -0.237 OA
ATOM     68  O   UNL     1      -8.430 -18.373  -0.904  1.00  0.00    -0.744 OA
ENDBRANCH  64  65
ENDBRANCH  45  59
BRANCH  46  69
ATOM     69  C   UNL     1      -3.078 -11.476 -13.117  1.00  0.00    -0.014 A 
ATOM     70  C   UNL     1      -3.500 -10.246 -13.647  1.00  0.00     0.010 A 
ATOM     71  C   UNL     1      -2.071 -12.200 -13.783  1.00  0.00     0.010 A 
ATOM     72  C   UNL     1      -2.921  -9.744 -14.817  1.00  0.00     0.020 A 
ATOM     73  C   UNL     1      -1.472 -11.690 -14.938  1.00  0.00     0.020 A 
ATOM     74  C   UNL     1      -1.904 -10.466 -15.450  1.00  0.00     0.054 A 
BRANCH  74  75
ATOM     75  S   UNL     1      -1.102  -9.751 -16.913  1.00  0.00     0.124 S 
ATOM     76  O   UNL     1      -2.122  -9.937 -17.940  1.00  0.00    -0.237 OA
ATOM     77  O   UNL     1      -0.863  -8.371 -16.500  1.00  0.00    -0.237 OA
ATOM     78  O   UNL     1       0.104 -10.562 -17.072  1.00  0.00    -0.744 OA
ENDBRANCH  74  75
ENDBRANCH  46  69
BRANCH  58  79
ATOM     79  C   UNL     1      -9.266 -14.133 -11.254  1.00  0.00    -0.014 A 
ATOM     80  C   UNL     1      -9.381 -15.170 -12.197  1.00  0.00     0.010 A 
ATOM     81  C   UNL     1     -10.392 -13.337 -10.971  1.00  0.00     0.010 A 
ATOM     82  C   UNL     1     -10.590 -15.389 -12.863  1.00  0.00     0.020 A 
ATOM     83  C   UNL     1     -11.609 -13.569 -11.617  1.00  0.00     0.020 A 
ATOM     84  C   UNL     1     -11.697 -14.586 -12.569  1.00  0.00     0.054 A 
BRANCH  84  85
ATOM     85  S   UNL     1     -13.269 -14.920 -13.412  1.00  0.00     0.124 S 
ATOM     86  O   UNL     1     -13.016 -14.390 -14.749  1.00  0.00    -0.237 OA
ATOM     87  O   UNL     1     -13.379 -16.374 -13.323  1.00  0.00    -0.237 OA
ATOM     88  O   UNL     1     -14.249 -14.178 -12.622  1.00  0.00    -0.744 OA
ENDBRANCH  84  85
ENDBRANCH  58  79
ENDBRANCH  32  33
ENDBRANCH  25  27
ENDBRANCH  24  25
ENDBRANCH  23  24
ENDBRANCH   1  23
TORSDOF 18
