REMARK SMILES C[C@@H](SC1CCOCC1)c1ccc(C(=O)OCCOC(=O)c2ccc(-c3c4nc(c(-c5ccc(S(=O)(=O)[O-])cc5)c5ccc([nH]5)c(-c5ccc(S(=O)(=O)[O-])cc5)c5nc(c(-c6ccc(S(=O)(=O)[O-])cc6)c6ccc3[nH]6)C=C5)C=C4)cc2)o1
REMARK SMILES IDX 17 1 16 2 14 3 15 4 13 5 10 6 11 7 82 8 12 9 2 10 1 11 3 12
REMARK SMILES IDX 4 13 5 14 9 15 6 16 8 17 7 18 18 19 19 20 20 21 21 22 22 23
REMARK SMILES IDX 23 24 81 25 24 26 80 27 25 28 26 29 27 30 74 31 28 32 79 33
REMARK SMILES IDX 73 34 75 35 29 36 78 37 72 38 71 39 30 41 60 42 41 43 59 44
REMARK SMILES IDX 42 45 45 46 58 47 76 48 43 49 44 50 57 52 77 53 46 54 31 55
REMARK SMILES IDX 32 56 40 57 33 58 39 59 34 60 35 61 36 62 37 63 38 64 61 65
REMARK SMILES IDX 62 66 70 67 63 68 69 69 64 70 65 71 66 72 67 73 68 74 47 75
REMARK SMILES IDX 48 76 56 77 49 78 55 79 50 80 51 81 52 82 53 83 54 84
REMARK H PARENT 75 40 45 51
REMARK Flexibility Score: inf
ROOT
ATOM      1  C   UNL     1      -6.374   1.881  -1.719  1.00  0.00     0.275 C 
ENDROOT
BRANCH   1   2
ATOM      2  O   UNL     1      -5.388   0.834  -1.689  1.00  0.00    -0.456 OA
BRANCH   2   3
ATOM      3  C   UNL     1      -4.190   1.123  -2.286  1.00  0.00     0.374 C 
ATOM      4  O   UNL     1      -3.976   2.131  -2.942  1.00  0.00    -0.242 OA
BRANCH   3   5
ATOM      5  C   UNL     1      -3.214   0.113  -1.941  1.00  0.00     0.211 A 
ATOM      6  C   UNL     1      -1.148  -0.630  -1.670  1.00  0.00     0.117 A 
ATOM      7  C   UNL     1      -1.985  -1.584  -1.127  1.00  0.00     0.048 A 
ATOM      8  O   UNL     1      -1.894   0.380  -2.203  1.00  0.00    -0.453 OA
ATOM      9  C   UNL     1      -3.307  -1.108  -1.301  1.00  0.00     0.058 A 
BRANCH   6  10
ATOM     10  C   UNL     1       0.343  -0.459  -1.725  1.00  0.00     0.110 C 
ATOM     11  C   UNL     1       0.873  -0.132  -0.328  1.00  0.00     0.028 C 
BRANCH  10  12
ATOM     12  S   UNL     1       1.090  -1.988  -2.428  1.00  0.00    -0.147 SA
BRANCH  12  13
ATOM     13  C   UNL     1       2.893  -1.649  -2.317  1.00  0.00     0.052 C 
ATOM     14  C   UNL     1       3.332  -0.391  -3.068  1.00  0.00     0.043 C 
ATOM     15  C   UNL     1       3.617  -2.878  -2.878  1.00  0.00     0.043 C 
ATOM     16  C   UNL     1       4.856  -0.299  -3.095  1.00  0.00     0.161 C 
ATOM     17  C   UNL     1       5.120  -2.644  -2.907  1.00  0.00     0.161 C 
ATOM     18  O   UNL     1       5.427  -1.476  -3.663  1.00  0.00    -0.381 OA
ENDBRANCH  12  13
ENDBRANCH  10  12
ENDBRANCH   6  10
ENDBRANCH   3   5
ENDBRANCH   2   3
ENDBRANCH   1   2
BRANCH   1  19
ATOM     19  C   UNL     1      -6.380   2.679  -0.409  1.00  0.00     0.275 C 
BRANCH  19  20
ATOM     20  O   UNL     1      -5.225   3.530  -0.291  1.00  0.00    -0.458 OA
BRANCH  20  21
ATOM     21  C   UNL     1      -4.165   2.983   0.353  1.00  0.00     0.338 C 
ATOM     22  O   UNL     1      -4.111   1.875   0.860  1.00  0.00    -0.246 OA
BRANCH  21  23
ATOM     23  C   UNL     1      -2.997   3.876   0.235  1.00  0.00     0.060 A 
ATOM     24  C   UNL     1      -1.827   3.348  -0.317  1.00  0.00     0.016 A 
ATOM     25  C   UNL     1      -3.026   5.192   0.701  1.00  0.00     0.016 A 
ATOM     26  C   UNL     1      -0.680   4.130  -0.412  1.00  0.00     0.010 A 
ATOM     27  C   UNL     1      -1.870   5.977   0.612  1.00  0.00     0.010 A 
ATOM     28  C   UNL     1      -0.689   5.448   0.062  1.00  0.00    -0.014 A 
BRANCH  28  29
ATOM     29  C   UNL     1       0.560   6.244   0.013  1.00  0.00     0.031 A 
ATOM     30  C   UNL     1       1.378   6.431   1.259  1.00  0.00     0.074 A 
ATOM     31  C   UNL     1       0.981   6.759  -1.157  1.00  0.00     0.049 A 
ATOM     32  N   UNL     1       2.499   7.087   1.418  1.00  0.00    -0.248 NA
ATOM     33  C   UNL     1       0.871   5.793   2.483  1.00  0.00     0.031 C 
ATOM     34  C   UNL     1       0.296   6.606  -2.441  1.00  0.00     0.029 A 
ATOM     35  N   UNL     1       2.091   7.508  -1.454  1.00  0.00    -0.354 N 
ATOM     36  C   UNL     1       2.828   6.952   2.761  1.00  0.00     0.074 A 
ATOM     37  C   UNL     1       1.778   6.166   3.376  1.00  0.00     0.031 C 
ATOM     38  C   UNL     1       1.008   7.235  -3.392  1.00  0.00     0.029 A 
ATOM     39  C   UNL     1       2.176   7.862  -2.779  1.00  0.00     0.049 A 
ATOM     40  H   UNL     1       2.763   7.767  -0.783  1.00  0.00     0.167 HD
ATOM     41  C   UNL     1       3.906   7.438   3.422  1.00  0.00     0.031 A 
ATOM     42  C   UNL     1       3.084   8.619  -3.425  1.00  0.00     0.031 A 
ATOM     43  C   UNL     1       4.941   8.230   2.813  1.00  0.00     0.049 A 
ATOM     44  C   UNL     1       4.239   9.200  -2.657  1.00  0.00     0.074 A 
ATOM     45  C   UNL     1       6.076   8.763   3.400  1.00  0.00     0.029 A 
ATOM     46  N   UNL     1       4.965   8.611   1.480  1.00  0.00    -0.354 N 
ATOM     47  N   UNL     1       4.539   9.056  -1.388  1.00  0.00    -0.248 NA
ATOM     48  C   UNL     1       5.176  10.047  -3.408  1.00  0.00     0.031 C 
ATOM     49  C   UNL     1       6.764   9.502   2.430  1.00  0.00     0.029 A 
ATOM     50  C   UNL     1       6.082   9.391   1.229  1.00  0.00     0.049 A 
ATOM     51  H   UNL     1       4.287   8.363   0.810  1.00  0.00     0.167 HD
ATOM     52  C   UNL     1       5.708   9.783  -1.191  1.00  0.00     0.074 A 
ATOM     53  C   UNL     1       6.068  10.353  -2.474  1.00  0.00     0.031 C 
ATOM     54  C   UNL     1       6.420   9.960  -0.051  1.00  0.00     0.031 A 
BRANCH  41  55
ATOM     55  C   UNL     1       3.988   7.156   4.897  1.00  0.00    -0.014 A 
ATOM     56  C   UNL     1       4.322   5.877   5.376  1.00  0.00     0.010 A 
ATOM     57  C   UNL     1       3.733   8.189   5.817  1.00  0.00     0.010 A 
ATOM     58  C   UNL     1       4.351   5.623   6.750  1.00  0.00     0.020 A 
ATOM     59  C   UNL     1       3.782   7.944   7.192  1.00  0.00     0.020 A 
ATOM     60  C   UNL     1       4.069   6.656   7.649  1.00  0.00     0.054 A 
BRANCH  60  61
ATOM     61  S   UNL     1       4.101   6.301   9.428  1.00  0.00     0.124 S 
ATOM     62  O   UNL     1       2.831   5.604   9.617  1.00  0.00    -0.237 OA
ATOM     63  O   UNL     1       5.297   5.476   9.573  1.00  0.00    -0.237 OA
ATOM     64  O   UNL     1       4.183   7.624  10.043  1.00  0.00    -0.744 OA
ENDBRANCH  60  61
ENDBRANCH  41  55
BRANCH  42  65
ATOM     65  C   UNL     1       2.923   8.880  -4.880  1.00  0.00    -0.014 A 
ATOM     66  C   UNL     1       3.769   8.263  -5.816  1.00  0.00     0.010 A 
ATOM     67  C   UNL     1       1.898   9.730  -5.336  1.00  0.00     0.010 A 
ATOM     68  C   UNL     1       3.595   8.493  -7.184  1.00  0.00     0.020 A 
ATOM     69  C   UNL     1       1.708   9.944  -6.703  1.00  0.00     0.020 A 
ATOM     70  C   UNL     1       2.563   9.330  -7.619  1.00  0.00     0.054 A 
BRANCH  70  71
ATOM     71  S   UNL     1       2.307   9.559  -9.401  1.00  0.00     0.124 S 
ATOM     72  O   UNL     1       3.369  10.501  -9.741  1.00  0.00    -0.237 OA
ATOM     73  O   UNL     1       2.472   8.204  -9.924  1.00  0.00    -0.237 OA
ATOM     74  O   UNL     1       0.948  10.088  -9.484  1.00  0.00    -0.744 OA
ENDBRANCH  70  71
ENDBRANCH  42  65
BRANCH  54  75
ATOM     75  C   UNL     1       7.670  10.791  -0.141  1.00  0.00    -0.014 A 
ATOM     76  C   UNL     1       7.603  12.192  -0.237  1.00  0.00     0.010 A 
ATOM     77  C   UNL     1       8.928  10.166  -0.080  1.00  0.00     0.010 A 
ATOM     78  C   UNL     1       8.774  12.953  -0.297  1.00  0.00     0.020 A 
ATOM     79  C   UNL     1      10.101  10.925  -0.118  1.00  0.00     0.020 A 
ATOM     80  C   UNL     1      10.016  12.313  -0.239  1.00  0.00     0.054 A 
BRANCH  80  81
ATOM     81  S   UNL     1      11.524  13.322  -0.273  1.00  0.00     0.124 S 
ATOM     82  O   UNL     1      11.636  13.654  -1.690  1.00  0.00    -0.237 OA
ATOM     83  O   UNL     1      11.188  14.437   0.610  1.00  0.00    -0.237 OA
ATOM     84  O   UNL     1      12.553  12.419   0.240  1.00  0.00    -0.744 OA
ENDBRANCH  80  81
ENDBRANCH  54  75
ENDBRANCH  28  29
ENDBRANCH  21  23
ENDBRANCH  20  21
ENDBRANCH  19  20
ENDBRANCH   1  19
TORSDOF 17
