REMARK SMILES O=C(OCCOC(=O)c1cc2ncoc2cn1)c1ccc(-c2c3nc(c(-c4ccc(S(=O)(=O)[O-])cc4)c4ccc([nH]4)c(-c4ccc(S(=O)(=O)[O-])cc4)c4nc(c(-c5ccc(S(=O)(=O)[O-])cc5)c5ccc2[nH]5)C=C4)C=C3)cc1
REMARK SMILES IDX 3 1 2 2 1 3 18 4 19 5 77 6 20 7 76 8 21 9 22 10 23 11 70 12
REMARK SMILES IDX 24 13 75 14 69 15 71 16 25 17 74 18 68 19 67 20 26 22 56 23
REMARK SMILES IDX 37 24 55 25 38 26 41 27 54 28 72 29 39 30 40 31 53 33 73 34
REMARK SMILES IDX 42 35 27 36 28 37 36 38 29 39 35 40 30 41 31 42 32 43 33 44
REMARK SMILES IDX 34 45 57 46 58 47 66 48 59 49 65 50 60 51 61 52 62 53 63 54
REMARK SMILES IDX 64 55 43 56 44 57 52 58 45 59 51 60 46 61 47 62 48 63 49 64
REMARK SMILES IDX 50 65 4 66 5 67 6 68 7 69 8 70 9 71 10 72 17 73 11 74 16 75
REMARK SMILES IDX 12 76 15 77 13 78 14 79
REMARK H PARENT 71 21 41 32
REMARK Flexibility Score: inf
ROOT
ATOM      1  O   UNL     1       2.978   0.738   0.877  1.00  0.00    -0.458 OA
ENDROOT
BRANCH   1   2
ATOM      2  C   UNL     1       3.724   1.177  -0.177  1.00  0.00     0.338 C 
ATOM      3  O   UNL     1       3.491   2.225  -0.764  1.00  0.00    -0.246 OA
BRANCH   2   4
ATOM      4  C   UNL     1       4.683   0.210  -0.727  1.00  0.00     0.060 A 
ATOM      5  C   UNL     1       4.290  -0.433  -1.895  1.00  0.00     0.016 A 
ATOM      6  C   UNL     1       5.787  -0.225   0.012  1.00  0.00     0.016 A 
ATOM      7  C   UNL     1       4.823  -1.679  -2.156  1.00  0.00     0.010 A 
ATOM      8  C   UNL     1       6.329  -1.474  -0.262  1.00  0.00     0.010 A 
ATOM      9  C   UNL     1       5.780  -2.239  -1.292  1.00  0.00    -0.014 A 
BRANCH   9  10
ATOM     10  C   UNL     1       6.293  -3.557  -1.671  1.00  0.00     0.031 A 
ATOM     11  C   UNL     1       6.851  -3.567  -3.048  1.00  0.00     0.074 A 
ATOM     12  C   UNL     1       6.371  -4.646  -0.883  1.00  0.00     0.049 A 
ATOM     13  N   UNL     1       6.518  -4.308  -4.054  1.00  0.00    -0.248 NA
ATOM     14  C   UNL     1       7.793  -2.478  -3.369  1.00  0.00     0.031 C 
ATOM     15  C   UNL     1       6.120  -4.726   0.556  1.00  0.00     0.029 A 
ATOM     16  N   UNL     1       6.818  -5.902  -1.195  1.00  0.00    -0.354 N 
ATOM     17  C   UNL     1       7.332  -3.881  -5.097  1.00  0.00     0.074 A 
ATOM     18  C   UNL     1       7.945  -2.647  -4.677  1.00  0.00     0.031 C 
ATOM     19  C   UNL     1       6.649  -5.876   1.031  1.00  0.00     0.029 A 
ATOM     20  C   UNL     1       7.167  -6.656  -0.082  1.00  0.00     0.049 A 
ATOM     21  H   UNL     1       6.885  -6.238  -2.118  1.00  0.00     0.167 HD
ATOM     22  C   UNL     1       7.658  -4.672  -6.150  1.00  0.00     0.031 A 
ATOM     23  C   UNL     1       7.924  -7.781  -0.068  1.00  0.00     0.031 A 
ATOM     24  C   UNL     1       6.760  -5.773  -6.323  1.00  0.00     0.049 A 
ATOM     25  C   UNL     1       7.930  -8.364  -1.430  1.00  0.00     0.074 A 
ATOM     26  C   UNL     1       5.438  -5.900  -6.690  1.00  0.00     0.029 A 
ATOM     27  N   UNL     1       7.143  -6.967  -5.767  1.00  0.00    -0.354 N 
ATOM     28  N   UNL     1       6.897  -8.918  -1.998  1.00  0.00    -0.248 NA
ATOM     29  C   UNL     1       9.057  -8.094  -2.314  1.00  0.00     0.031 C 
ATOM     30  C   UNL     1       4.971  -7.083  -6.055  1.00  0.00     0.029 A 
ATOM     31  C   UNL     1       6.029  -7.643  -5.334  1.00  0.00     0.049 A 
ATOM     32  H   UNL     1       8.070  -7.288  -5.690  1.00  0.00     0.167 HD
ATOM     33  C   UNL     1       7.082  -8.703  -3.352  1.00  0.00     0.074 A 
ATOM     34  C   UNL     1       8.484  -8.345  -3.493  1.00  0.00     0.031 C 
ATOM     35  C   UNL     1       6.021  -8.545  -4.193  1.00  0.00     0.031 A 
BRANCH  22  36
ATOM     36  C   UNL     1       9.022  -4.602  -6.782  1.00  0.00    -0.014 A 
ATOM     37  C   UNL     1      10.135  -4.072  -6.091  1.00  0.00     0.010 A 
ATOM     38  C   UNL     1       9.280  -5.261  -7.996  1.00  0.00     0.010 A 
ATOM     39  C   UNL     1      11.424  -4.107  -6.611  1.00  0.00     0.020 A 
ATOM     40  C   UNL     1      10.586  -5.353  -8.505  1.00  0.00     0.020 A 
ATOM     41  C   UNL     1      11.644  -4.754  -7.817  1.00  0.00     0.054 A 
BRANCH  41  42
ATOM     42  S   UNL     1      13.350  -4.865  -8.404  1.00  0.00     0.124 S 
ATOM     43  O   UNL     1      13.607  -3.493  -8.834  1.00  0.00    -0.237 OA
ATOM     44  O   UNL     1      14.068  -5.293  -7.205  1.00  0.00    -0.237 OA
ATOM     45  O   UNL     1      13.279  -5.857  -9.473  1.00  0.00    -0.744 OA
ENDBRANCH  41  42
ENDBRANCH  22  36
BRANCH  23  46
ATOM     46  C   UNL     1       8.923  -8.189   0.955  1.00  0.00    -0.014 A 
ATOM     47  C   UNL     1       9.526  -7.222   1.784  1.00  0.00     0.010 A 
ATOM     48  C   UNL     1       9.511  -9.468   0.902  1.00  0.00     0.010 A 
ATOM     49  C   UNL     1      10.720  -7.487   2.460  1.00  0.00     0.020 A 
ATOM     50  C   UNL     1      10.717  -9.738   1.568  1.00  0.00     0.020 A 
ATOM     51  C   UNL     1      11.333  -8.729   2.309  1.00  0.00     0.054 A 
BRANCH  51  52
ATOM     52  S   UNL     1      12.995  -8.947   3.004  1.00  0.00     0.124 S 
ATOM     53  O   UNL     1      13.784  -8.023   2.193  1.00  0.00    -0.237 OA
ATOM     54  O   UNL     1      12.807  -8.553   4.398  1.00  0.00    -0.237 OA
ATOM     55  O   UNL     1      13.277 -10.364   2.791  1.00  0.00    -0.744 OA
ENDBRANCH  51  52
ENDBRANCH  23  46
BRANCH  35  56
ATOM     56  C   UNL     1       4.679  -9.112  -3.787  1.00  0.00    -0.014 A 
ATOM     57  C   UNL     1       4.023  -9.941  -4.718  1.00  0.00     0.010 A 
ATOM     58  C   UNL     1       3.991  -8.747  -2.615  1.00  0.00     0.010 A 
ATOM     59  C   UNL     1       2.707 -10.358  -4.510  1.00  0.00     0.020 A 
ATOM     60  C   UNL     1       2.679  -9.187  -2.386  1.00  0.00     0.020 A 
ATOM     61  C   UNL     1       2.037  -9.966  -3.351  1.00  0.00     0.054 A 
BRANCH  61  62
ATOM     62  S   UNL     1       0.309 -10.477  -3.146  1.00  0.00     0.124 S 
ATOM     63  O   UNL     1      -0.383  -9.610  -4.097  1.00  0.00    -0.237 OA
ATOM     64  O   UNL     1       0.344 -11.893  -3.509  1.00  0.00    -0.237 OA
ATOM     65  O   UNL     1       0.025 -10.210  -1.738  1.00  0.00    -0.744 OA
ENDBRANCH  61  62
ENDBRANCH  35  56
ENDBRANCH   9  10
ENDBRANCH   2   4
ENDBRANCH   1   2
BRANCH   1  66
ATOM     66  C   UNL     1       3.318  -0.366   1.756  1.00  0.00     0.275 C 
BRANCH  66  67
ATOM     67  C   UNL     1       2.907  -1.782   1.315  1.00  0.00     0.275 C 
BRANCH  67  68
ATOM     68  O   UNL     1       2.559  -1.888  -0.064  1.00  0.00    -0.457 OA
BRANCH  68  69
ATOM     69  C   UNL     1       1.235  -1.936  -0.357  1.00  0.00     0.357 C 
ATOM     70  O   UNL     1       0.314  -1.913   0.430  1.00  0.00    -0.244 OA
BRANCH  69  71
ATOM     71  C   UNL     1       1.090  -1.766  -1.828  1.00  0.00     0.150 A 
ATOM     72  C   UNL     1       0.457  -0.603  -2.252  1.00  0.00     0.068 A 
ATOM     73  N   UNL     1       1.683  -2.684  -2.647  1.00  0.00    -0.245 NA
ATOM     74  C   UNL     1       0.476  -0.389  -3.628  1.00  0.00     0.113 A 
ATOM     75  C   UNL     1       1.655  -2.489  -3.994  1.00  0.00     0.161 A 
ATOM     76  N   UNL     1       0.006   0.662  -4.376  1.00  0.00    -0.216 NA
ATOM     77  C   UNL     1       1.069  -1.328  -4.458  1.00  0.00     0.172 A 
ATOM     78  C   UNL     1       0.329   0.325  -5.606  1.00  0.00     0.309 A 
ATOM     79  O   UNL     1       0.971  -0.870  -5.742  1.00  0.00    -0.442 OA
ENDBRANCH  69  71
ENDBRANCH  68  69
ENDBRANCH  67  68
ENDBRANCH  66  67
ENDBRANCH   1  66
TORSDOF 14
