REMARK SMILES Cc1c(Cl)cc2c(c1C)O[C@H](C(F)(F)F)C(C(=O)OCCOC(=O)c1ccc(-c3c4nc(c(-c5ccc(S(=O)(=O)[O-])cc5)c5ccc([nH]5)c(-c5ccc(S(=O)(=O)[O-])cc5)c5nc(c(-c6ccc(S(=O)(=O)[O-])cc6)c6ccc3[nH]6)C=C5)C=C4)cc1)=C2
REMARK SMILES IDX 21 1 20 2 19 3 17 4 18 5 16 6 1 7 2 8 3 9 8 10 4 11 5 12
REMARK SMILES IDX 7 13 9 14 6 15 10 16 85 17 11 18 12 19 13 20 14 21 15 22
REMARK SMILES IDX 22 23 23 24 24 25 25 26 26 27 84 28 27 29 83 30 28 31 29 32
REMARK SMILES IDX 30 33 77 34 31 35 82 36 76 37 78 38 32 39 81 40 75 41 74 42
REMARK SMILES IDX 33 44 63 45 44 46 62 47 45 48 48 49 61 50 79 51 46 52 47 53
REMARK SMILES IDX 60 55 80 56 49 57 34 58 35 59 43 60 36 61 42 62 37 63 38 64
REMARK SMILES IDX 39 65 40 66 41 67 64 68 65 69 73 70 66 71 72 72 67 73 68 74
REMARK SMILES IDX 69 75 70 76 71 77 50 78 51 79 59 80 52 81 58 82 53 83 54 84
REMARK SMILES IDX 55 85 56 86 57 87
REMARK H PARENT 78 43 48 54
REMARK Flexibility Score: inf
ROOT
ATOM      1  C   UNL     1      -0.892   4.081   9.680  1.00  0.00     0.275 C 
ENDROOT
BRANCH   1   2
ATOM      2  C   UNL     1      -2.016   3.238   9.077  1.00  0.00     0.275 C 
BRANCH   2   3
ATOM      3  O   UNL     1      -1.558   2.469   7.942  1.00  0.00    -0.459 OA
BRANCH   3   4
ATOM      4  C   UNL     1      -1.921   2.951   6.731  1.00  0.00     0.338 C 
ATOM      5  O   UNL     1      -2.604   3.943   6.519  1.00  0.00    -0.246 OA
BRANCH   4   6
ATOM      6  C   UNL     1      -1.360   2.122   5.647  1.00  0.00     0.087 C 
ATOM      7  C   UNL     1       0.928  -0.200  -0.028  1.00  0.00     0.046 C 
ATOM      8  C   UNL     1       0.492   0.513   1.227  1.00  0.00    -0.026 A 
ATOM      9  C   UNL     1       0.715   1.905   1.314  1.00  0.00     0.045 A 
ATOM     10  C   UNL     1      -0.101  -0.150   2.335  1.00  0.00    -0.004 A 
ATOM     11  Cl  UNL     1       1.480   2.796   0.041  1.00  0.00    -0.084 Cl
ATOM     12  C   UNL     1       0.323   2.629   2.436  1.00  0.00     0.032 A 
ATOM     13  C   UNL     1      -0.486   0.602   3.471  1.00  0.00     0.131 A 
ATOM     14  C   UNL     1      -0.359  -1.635   2.377  1.00  0.00     0.049 C 
ATOM     15  C   UNL     1      -0.292   1.980   3.504  1.00  0.00     0.019 A 
ATOM     16  O   UNL     1      -1.035  -0.085   4.526  1.00  0.00    -0.475 OA
ATOM     17  C   UNL     1      -0.754   2.752   4.637  1.00  0.00     0.027 C 
ATOM     18  C   UNL     1      -1.615   0.646   5.645  1.00  0.00     0.316 C 
BRANCH  18  19
ATOM     19  C   UNL     1      -3.122   0.348   5.695  1.00  0.00     0.430 C 
ATOM     20  F   UNL     1      -3.363  -0.985   5.672  1.00  0.00    -0.167 F 
ATOM     21  F   UNL     1      -3.687   0.819   6.834  1.00  0.00    -0.167 F 
ATOM     22  F   UNL     1      -3.790   0.898   4.655  1.00  0.00    -0.167 F 
ENDBRANCH  18  19
ENDBRANCH   4   6
ENDBRANCH   3   4
ENDBRANCH   2   3
ENDBRANCH   1   2
BRANCH   1  23
ATOM     23  O   UNL     1      -0.473   5.103   8.757  1.00  0.00    -0.458 OA
BRANCH  23  24
ATOM     24  C   UNL     1       0.702   4.853   8.136  1.00  0.00     0.338 C 
ATOM     25  O   UNL     1       1.434   3.892   8.306  1.00  0.00    -0.246 OA
BRANCH  24  26
ATOM     26  C   UNL     1       0.977   5.862   7.103  1.00  0.00     0.060 A 
ATOM     27  C   UNL     1       0.192   5.857   5.959  1.00  0.00     0.016 A 
ATOM     28  C   UNL     1       2.157   6.600   7.134  1.00  0.00     0.016 A 
ATOM     29  C   UNL     1       0.688   6.398   4.777  1.00  0.00     0.010 A 
ATOM     30  C   UNL     1       2.565   7.290   5.987  1.00  0.00     0.010 A 
ATOM     31  C   UNL     1       1.880   7.134   4.766  1.00  0.00    -0.014 A 
BRANCH  31  32
ATOM     32  C   UNL     1       2.444   7.684   3.495  1.00  0.00     0.031 A 
ATOM     33  C   UNL     1       3.889   7.419   3.130  1.00  0.00     0.074 A 
ATOM     34  C   UNL     1       1.682   8.408   2.646  1.00  0.00     0.049 A 
ATOM     35  N   UNL     1       4.645   8.019   2.246  1.00  0.00    -0.248 NA
ATOM     36  C   UNL     1       4.579   6.348   3.872  1.00  0.00     0.031 C 
ATOM     37  C   UNL     1       0.249   8.677   2.793  1.00  0.00     0.029 A 
ATOM     38  N   UNL     1       2.013   9.053   1.477  1.00  0.00    -0.354 N 
ATOM     39  C   UNL     1       5.911   7.452   2.375  1.00  0.00     0.074 A 
ATOM     40  C   UNL     1       5.822   6.462   3.426  1.00  0.00     0.031 C 
ATOM     41  C   UNL     1      -0.183   9.379   1.737  1.00  0.00     0.029 A 
ATOM     42  C   UNL     1       0.960   9.733   0.908  1.00  0.00     0.049 A 
ATOM     43  H   UNL     1       2.915   9.030   1.085  1.00  0.00     0.167 HD
ATOM     44  C   UNL     1       7.042   7.734   1.683  1.00  0.00     0.031 A 
ATOM     45  C   UNL     1       0.917  10.604  -0.118  1.00  0.00     0.031 A 
ATOM     46  C   UNL     1       7.107   8.685   0.602  1.00  0.00     0.049 A 
ATOM     47  C   UNL     1       2.196  10.973  -0.811  1.00  0.00     0.074 A 
ATOM     48  C   UNL     1       8.204   9.052  -0.159  1.00  0.00     0.029 A 
ATOM     49  N   UNL     1       6.025   9.401   0.111  1.00  0.00    -0.354 N 
ATOM     50  N   UNL     1       3.407  10.514  -0.605  1.00  0.00    -0.248 NA
ATOM     51  C   UNL     1       2.105  11.997  -1.859  1.00  0.00     0.031 C 
ATOM     52  C   UNL     1       7.796  10.030  -1.073  1.00  0.00     0.029 A 
ATOM     53  C   UNL     1       6.433  10.225  -0.926  1.00  0.00     0.049 A 
ATOM     54  H   UNL     1       5.103   9.334   0.449  1.00  0.00     0.167 HD
ATOM     55  C   UNL     1       4.223  11.188  -1.506  1.00  0.00     0.074 A 
ATOM     56  C   UNL     1       3.361  12.061  -2.278  1.00  0.00     0.031 C 
ATOM     57  C   UNL     1       5.566  11.101  -1.672  1.00  0.00     0.031 A 
BRANCH  44  58
ATOM     58  C   UNL     1       8.319   7.044   2.097  1.00  0.00    -0.014 A 
ATOM     59  C   UNL     1       8.538   5.677   1.849  1.00  0.00     0.010 A 
ATOM     60  C   UNL     1       9.348   7.800   2.693  1.00  0.00     0.010 A 
ATOM     61  C   UNL     1       9.747   5.075   2.215  1.00  0.00     0.020 A 
ATOM     62  C   UNL     1      10.569   7.208   3.033  1.00  0.00     0.020 A 
ATOM     63  C   UNL     1      10.756   5.845   2.803  1.00  0.00     0.054 A 
BRANCH  63  64
ATOM     64  S   UNL     1      12.325   5.042   3.234  1.00  0.00     0.124 S 
ATOM     65  O   UNL     1      11.927   4.169   4.335  1.00  0.00    -0.237 OA
ATOM     66  O   UNL     1      12.687   4.363   1.992  1.00  0.00    -0.237 OA
ATOM     67  O   UNL     1      13.195   6.155   3.609  1.00  0.00    -0.744 OA
ENDBRANCH  63  64
ENDBRANCH  44  58
BRANCH  45  68
ATOM     68  C   UNL     1      -0.376  11.243  -0.496  1.00  0.00    -0.014 A 
ATOM     69  C   UNL     1      -0.980  10.955  -1.731  1.00  0.00     0.010 A 
ATOM     70  C   UNL     1      -1.025  12.123   0.393  1.00  0.00     0.010 A 
ATOM     71  C   UNL     1      -2.206  11.534  -2.071  1.00  0.00     0.020 A 
ATOM     72  C   UNL     1      -2.268  12.674   0.072  1.00  0.00     0.020 A 
ATOM     73  C   UNL     1      -2.847  12.382  -1.163  1.00  0.00     0.054 A 
BRANCH  73  74
ATOM     74  S   UNL     1      -4.470  13.063  -1.600  1.00  0.00     0.124 S 
ATOM     75  O   UNL     1      -4.129  14.003  -2.663  1.00  0.00    -0.237 OA
ATOM     76  O   UNL     1      -5.207  11.873  -2.018  1.00  0.00    -0.237 OA
ATOM     77  O   UNL     1      -4.936  13.669  -0.354  1.00  0.00    -0.744 OA
ENDBRANCH  73  74
ENDBRANCH  45  68
BRANCH  57  78
ATOM     78  C   UNL     1       6.177  11.963  -2.745  1.00  0.00    -0.014 A 
ATOM     79  C   UNL     1       6.256  13.359  -2.597  1.00  0.00     0.010 A 
ATOM     80  C   UNL     1       6.692  11.366  -3.910  1.00  0.00     0.010 A 
ATOM     81  C   UNL     1       6.791  14.148  -3.618  1.00  0.00     0.020 A 
ATOM     82  C   UNL     1       7.259  12.149  -4.918  1.00  0.00     0.020 A 
ATOM     83  C   UNL     1       7.285  13.537  -4.774  1.00  0.00     0.054 A 
BRANCH  83  84
ATOM     84  S   UNL     1       7.978  14.586  -6.081  1.00  0.00     0.124 S 
ATOM     85  O   UNL     1       6.784  15.238  -6.612  1.00  0.00    -0.237 OA
ATOM     86  O   UNL     1       8.893  15.453  -5.343  1.00  0.00    -0.237 OA
ATOM     87  O   UNL     1       8.622  13.635  -6.985  1.00  0.00    -0.744 OA
ENDBRANCH  83  84
ENDBRANCH  57  78
ENDBRANCH  31  32
ENDBRANCH  24  26
ENDBRANCH  23  24
ENDBRANCH   1  23
TORSDOF 15
