REMARK SMILES O=C(OCCOC(=O)c1cc(-c2ccc(C(F)(F)F)cc2)cc([N+](=O)[O-])c1)c1ccc(-c2c3nc(c(-c4ccc(S(=O)(=O)[O-])cc4)c4ccc([nH]4)c(-c4ccc(S(=O)(=O)[O-])cc4)c4nc(c(-c5ccc(S(=O)(=O)[O-])cc5)c5ccc2[nH]5)C=C4)C=C3)cc1
REMARK SMILES IDX 4 1 3 2 2 3 1 4 28 5 29 6 87 7 30 8 86 9 31 10 32 11 33 12
REMARK SMILES IDX 80 13 34 14 85 15 79 16 81 17 35 18 84 19 78 20 77 21 36 23
REMARK SMILES IDX 66 24 47 25 65 26 48 27 51 28 64 29 82 30 49 31 50 32 63 34
REMARK SMILES IDX 83 35 52 36 37 37 38 38 46 39 39 40 45 41 40 42 41 43 42 44
REMARK SMILES IDX 43 45 44 46 67 47 68 48 76 49 69 50 75 51 70 52 71 53 72 54
REMARK SMILES IDX 73 55 74 56 53 57 54 58 62 59 55 60 61 61 56 62 57 63 58 64
REMARK SMILES IDX 59 65 60 66 5 67 6 68 7 69 8 70 9 71 10 72 27 73 11 74 23 75
REMARK SMILES IDX 22 76 12 77 13 78 21 79 14 80 20 81 15 82 16 83 17 84 18 85
REMARK SMILES IDX 19 86 24 87 25 88 26 89
REMARK H PARENT 81 22 51 33
REMARK Flexibility Score: inf
ROOT
ATOM      1  C   UNL     1       4.165   1.057  -1.129  1.00  0.00     0.275 C 
ENDROOT
BRANCH   1   2
ATOM      2  O   UNL     1       3.041   0.158  -1.082  1.00  0.00    -0.458 OA
BRANCH   2   3
ATOM      3  C   UNL     1       2.806  -0.922  -0.301  1.00  0.00     0.338 C 
ATOM      4  O   UNL     1       1.809  -1.606  -0.534  1.00  0.00    -0.246 OA
BRANCH   3   5
ATOM      5  C   UNL     1       3.613  -1.274   0.912  1.00  0.00     0.060 A 
ATOM      6  C   UNL     1       4.929  -0.885   1.163  1.00  0.00     0.016 A 
ATOM      7  C   UNL     1       2.965  -2.053   1.893  1.00  0.00     0.016 A 
ATOM      8  C   UNL     1       5.553  -1.186   2.371  1.00  0.00     0.010 A 
ATOM      9  C   UNL     1       3.581  -2.351   3.113  1.00  0.00     0.010 A 
ATOM     10  C   UNL     1       4.885  -1.912   3.355  1.00  0.00    -0.014 A 
BRANCH  10  11
ATOM     11  C   UNL     1       5.637  -2.311   4.561  1.00  0.00     0.031 A 
ATOM     12  C   UNL     1       6.169  -3.709   4.635  1.00  0.00     0.074 A 
ATOM     13  C   UNL     1       5.955  -1.400   5.499  1.00  0.00     0.049 A 
ATOM     14  N   UNL     1       6.952  -4.237   5.535  1.00  0.00    -0.248 NA
ATOM     15  C   UNL     1       5.822  -4.612   3.524  1.00  0.00     0.031 C 
ATOM     16  C   UNL     1       5.614   0.020   5.440  1.00  0.00     0.029 A 
ATOM     17  N   UNL     1       6.643  -1.521   6.678  1.00  0.00    -0.354 N 
ATOM     18  C   UNL     1       7.245  -5.509   5.067  1.00  0.00     0.074 A 
ATOM     19  C   UNL     1       6.491  -5.707   3.850  1.00  0.00     0.031 C 
ATOM     20  C   UNL     1       6.029   0.625   6.565  1.00  0.00     0.029 A 
ATOM     21  C   UNL     1       6.671  -0.362   7.419  1.00  0.00     0.049 A 
ATOM     22  H   UNL     1       7.075  -2.357   6.967  1.00  0.00     0.167 HD
ATOM     23  C   UNL     1       8.108  -6.412   5.585  1.00  0.00     0.031 A 
ATOM     24  C   UNL     1       7.160  -0.124   8.651  1.00  0.00     0.031 A 
ATOM     25  C   UNL     1       8.811  -6.216   6.822  1.00  0.00     0.049 A 
ATOM     26  C   UNL     1       7.944  -1.222   9.312  1.00  0.00     0.074 A 
ATOM     27  C   UNL     1       9.665  -7.084   7.475  1.00  0.00     0.029 A 
ATOM     28  N   UNL     1       8.727  -5.070   7.602  1.00  0.00    -0.354 N 
ATOM     29  N   UNL     1       8.226  -2.418   8.849  1.00  0.00    -0.248 NA
ATOM     30  C   UNL     1       8.527  -0.927  10.626  1.00  0.00     0.031 C 
ATOM     31  C   UNL     1      10.051  -6.485   8.679  1.00  0.00     0.029 A 
ATOM     32  C   UNL     1       9.492  -5.218   8.745  1.00  0.00     0.049 A 
ATOM     33  H   UNL     1       8.200  -4.269   7.375  1.00  0.00     0.167 HD
ATOM     34  C   UNL     1       9.065  -2.999   9.791  1.00  0.00     0.074 A 
ATOM     35  C   UNL     1       9.245  -2.019  10.845  1.00  0.00     0.031 C 
ATOM     36  C   UNL     1       9.647  -4.224   9.778  1.00  0.00     0.031 A 
BRANCH  23  37
ATOM     37  C   UNL     1       8.305  -7.685   4.812  1.00  0.00    -0.014 A 
ATOM     38  C   UNL     1       9.001  -7.683   3.588  1.00  0.00     0.010 A 
ATOM     39  C   UNL     1       7.784  -8.893   5.303  1.00  0.00     0.010 A 
ATOM     40  C   UNL     1       9.143  -8.862   2.853  1.00  0.00     0.020 A 
ATOM     41  C   UNL     1       7.946 -10.080   4.583  1.00  0.00     0.020 A 
ATOM     42  C   UNL     1       8.612 -10.053   3.355  1.00  0.00     0.054 A 
BRANCH  42  43
ATOM     43  S   UNL     1       8.827 -11.572   2.389  1.00  0.00     0.124 S 
ATOM     44  O   UNL     1       7.940 -11.335   1.253  1.00  0.00    -0.237 OA
ATOM     45  O   UNL     1      10.256 -11.556   2.084  1.00  0.00    -0.237 OA
ATOM     46  O   UNL     1       8.399 -12.629   3.303  1.00  0.00    -0.744 OA
ENDBRANCH  42  43
ENDBRANCH  23  37
BRANCH  24  47
ATOM     47  C   UNL     1       6.917   1.183   9.327  1.00  0.00    -0.014 A 
ATOM     48  C   UNL     1       7.965   2.074   9.612  1.00  0.00     0.010 A 
ATOM     49  C   UNL     1       5.609   1.528   9.724  1.00  0.00     0.010 A 
ATOM     50  C   UNL     1       7.720   3.258  10.320  1.00  0.00     0.020 A 
ATOM     51  C   UNL     1       5.356   2.722  10.408  1.00  0.00     0.020 A 
ATOM     52  C   UNL     1       6.417   3.571  10.720  1.00  0.00     0.054 A 
BRANCH  52  53
ATOM     53  S   UNL     1       6.131   5.104  11.649  1.00  0.00     0.124 S 
ATOM     54  O   UNL     1       6.785   4.816  12.922  1.00  0.00    -0.237 OA
ATOM     55  O   UNL     1       6.789   6.106  10.814  1.00  0.00    -0.237 OA
ATOM     56  O   UNL     1       4.675   5.209  11.707  1.00  0.00    -0.744 OA
ENDBRANCH  52  53
ENDBRANCH  24  47
BRANCH  36  57
ATOM     57  C   UNL     1      10.567  -4.550  10.922  1.00  0.00    -0.014 A 
ATOM     58  C   UNL     1      10.071  -4.769  12.219  1.00  0.00     0.010 A 
ATOM     59  C   UNL     1      11.947  -4.673  10.681  1.00  0.00     0.010 A 
ATOM     60  C   UNL     1      10.947  -5.064  13.264  1.00  0.00     0.020 A 
ATOM     61  C   UNL     1      12.822  -5.004  11.716  1.00  0.00     0.020 A 
ATOM     62  C   UNL     1      12.317  -5.179  13.006  1.00  0.00     0.054 A 
BRANCH  62  63
ATOM     63  S   UNL     1      13.428  -5.597  14.375  1.00  0.00     0.124 S 
ATOM     64  O   UNL     1      13.462  -4.347  15.130  1.00  0.00    -0.237 OA
ATOM     65  O   UNL     1      12.733  -6.706  15.024  1.00  0.00    -0.237 OA
ATOM     66  O   UNL     1      14.678  -5.957  13.709  1.00  0.00    -0.744 OA
ENDBRANCH  62  63
ENDBRANCH  36  57
ENDBRANCH  10  11
ENDBRANCH   3   5
ENDBRANCH   2   3
ENDBRANCH   1   2
BRANCH   1  67
ATOM     67  C   UNL     1       4.123   2.206  -0.114  1.00  0.00     0.275 C 
BRANCH  67  68
ATOM     68  O   UNL     1       3.696   1.814   1.201  1.00  0.00    -0.458 OA
BRANCH  68  69
ATOM     69  C   UNL     1       2.364   1.925   1.425  1.00  0.00     0.338 C 
ATOM     70  O   UNL     1       1.524   2.349   0.643  1.00  0.00    -0.246 OA
BRANCH  69  71
ATOM     71  C   UNL     1       2.015   1.331   2.730  1.00  0.00     0.067 A 
ATOM     72  C   UNL     1       0.928   0.446   2.780  1.00  0.00     0.025 A 
ATOM     73  C   UNL     1       2.678   1.699   3.902  1.00  0.00     0.101 A 
ATOM     74  C   UNL     1       0.512  -0.117   3.997  1.00  0.00    -0.011 A 
ATOM     75  C   UNL     1       2.254   1.144   5.118  1.00  0.00     0.270 A 
ATOM     76  C   UNL     1       1.211   0.212   5.165  1.00  0.00     0.094 A 
BRANCH  74  77
ATOM     77  C   UNL     1      -0.744  -0.862   4.085  1.00  0.00    -0.018 A 
ATOM     78  C   UNL     1      -0.908  -2.155   3.575  1.00  0.00     0.009 A 
ATOM     79  C   UNL     1      -1.847  -0.229   4.679  1.00  0.00     0.009 A 
ATOM     80  C   UNL     1      -2.158  -2.785   3.636  1.00  0.00     0.014 A 
ATOM     81  C   UNL     1      -3.091  -0.850   4.739  1.00  0.00     0.014 A 
ATOM     82  C   UNL     1      -3.265  -2.131   4.204  1.00  0.00     0.056 A 
BRANCH  82  83
ATOM     83  C   UNL     1      -4.623  -2.784   4.217  1.00  0.00     0.416 C 
ATOM     84  F   UNL     1      -5.076  -3.067   2.963  1.00  0.00    -0.166 F 
ATOM     85  F   UNL     1      -4.639  -3.963   4.897  1.00  0.00    -0.166 F 
ATOM     86  F   UNL     1      -5.591  -2.012   4.790  1.00  0.00    -0.166 F 
ENDBRANCH  82  83
ENDBRANCH  74  77
BRANCH  75  87
ATOM     87  N   UNL     1       2.822   1.627   6.381  1.00  0.00     0.062 N 
ATOM     88  O   UNL     1       2.611   0.957   7.401  1.00  0.00    -0.258 OA
ATOM     89  O   UNL     1       3.447   2.695   6.341  1.00  0.00    -0.258 OA
ENDBRANCH  75  87
ENDBRANCH  69  71
ENDBRANCH  68  69
ENDBRANCH  67  68
ENDBRANCH   1  67
TORSDOF 17
