REMARK SMILES C[C@H](CNC(=O)Cc1ccc(F)c(F)c1)C(=O)OCCOC(=O)c1ccc(-c2c3nc(c(-c4ccc(S(=O)(=O)[O-])cc4)c4ccc([nH]4)c(-c4ccc(S(=O)(=O)[O-])cc4)c4nc(c(-c5ccc(S(=O)(=O)[O-])cc5)c5ccc2[nH]5)C=C4)C=C3)cc1
REMARK SMILES IDX 19 1 18 2 16 3 17 4 2 5 1 6 3 7 4 8 5 9 6 11 7 12 8 13 9 14
REMARK SMILES IDX 15 15 10 16 13 17 11 18 14 19 12 20 20 21 21 22 22 23 23 24
REMARK SMILES IDX 24 25 25 26 83 27 26 28 82 29 27 30 28 31 29 32 76 33 30 34
REMARK SMILES IDX 81 35 75 36 77 37 31 38 80 39 74 40 73 41 32 43 62 44 43 45
REMARK SMILES IDX 61 46 44 47 47 48 60 49 78 50 45 51 46 52 59 54 79 55 48 56
REMARK SMILES IDX 33 57 34 58 42 59 35 60 41 61 36 62 37 63 38 64 39 65 40 66
REMARK SMILES IDX 63 67 64 68 72 69 65 70 71 71 66 72 67 73 68 74 69 75 70 76
REMARK SMILES IDX 49 77 50 78 58 79 51 80 57 81 52 82 53 83 54 84 55 85 56 86
REMARK H PARENT 4 10 77 42 47 53
REMARK Flexibility Score: inf
ROOT
ATOM      1  C   UNL     1      -3.386  -0.616  -0.933  1.00  0.00     0.274 C 
ENDROOT
BRANCH   1   2
ATOM      2  O   UNL     1      -1.959  -0.804  -0.850  1.00  0.00    -0.462 OA
BRANCH   2   3
ATOM      3  C   UNL     1      -1.236  -0.248  -1.857  1.00  0.00     0.310 C 
ATOM      4  O   UNL     1      -1.716   0.341  -2.818  1.00  0.00    -0.252 OA
BRANCH   3   5
ATOM      5  C   UNL     1       0.253  -0.477  -1.717  1.00  0.00     0.115 C 
ATOM      6  C   UNL     1       0.638  -1.708  -2.525  1.00  0.00     0.022 C 
BRANCH   5   7
ATOM      7  C   UNL     1       0.761  -0.462  -0.270  1.00  0.00     0.130 C 
BRANCH   7   8
ATOM      8  N   UNL     1       0.542  -1.702   0.455  1.00  0.00    -0.355 N 
ATOM      9  C   UNL     1       1.446  -2.534   1.048  1.00  0.00     0.224 C 
ATOM     10  H   UNL     1      -0.398  -1.984   0.529  1.00  0.00     0.163 HD
ATOM     11  O   UNL     1       1.036  -3.551   1.610  1.00  0.00    -0.275 OA
BRANCH   9  12
ATOM     12  C   UNL     1       2.929  -2.194   1.016  1.00  0.00     0.135 C 
BRANCH  12  13
ATOM     13  C   UNL     1       3.566  -2.365  -0.344  1.00  0.00    -0.036 A 
ATOM     14  C   UNL     1       4.252  -1.295  -0.947  1.00  0.00     0.007 A 
ATOM     15  C   UNL     1       3.468  -3.584  -1.033  1.00  0.00     0.046 A 
ATOM     16  C   UNL     1       4.774  -1.421  -2.236  1.00  0.00     0.043 A 
ATOM     17  C   UNL     1       3.998  -3.703  -2.316  1.00  0.00     0.159 A 
ATOM     18  C   UNL     1       4.637  -2.625  -2.917  1.00  0.00     0.158 A 
ATOM     19  F   UNL     1       3.864  -4.861  -2.976  1.00  0.00    -0.204 F 
ATOM     20  F   UNL     1       5.115  -2.734  -4.164  1.00  0.00    -0.204 F 
ENDBRANCH  12  13
ENDBRANCH   9  12
ENDBRANCH   7   8
ENDBRANCH   5   7
ENDBRANCH   3   5
ENDBRANCH   2   3
ENDBRANCH   1   2
BRANCH   1  21
ATOM     21  C   UNL     1      -3.854   0.588  -0.112  1.00  0.00     0.275 C 
BRANCH  21  22
ATOM     22  O   UNL     1      -3.418   1.835  -0.683  1.00  0.00    -0.458 OA
BRANCH  22  23
ATOM     23  C   UNL     1      -2.243   2.306  -0.206  1.00  0.00     0.338 C 
ATOM     24  O   UNL     1      -1.549   1.807   0.663  1.00  0.00    -0.246 OA
BRANCH  23  25
ATOM     25  C   UNL     1      -1.822   3.483  -0.979  1.00  0.00     0.060 A 
ATOM     26  C   UNL     1      -0.621   3.420  -1.693  1.00  0.00     0.016 A 
ATOM     27  C   UNL     1      -2.558   4.665  -0.924  1.00  0.00     0.016 A 
ATOM     28  C   UNL     1      -0.143   4.547  -2.358  1.00  0.00     0.010 A 
ATOM     29  C   UNL     1      -2.075   5.795  -1.585  1.00  0.00     0.010 A 
ATOM     30  C   UNL     1      -0.861   5.745  -2.293  1.00  0.00    -0.014 A 
BRANCH  30  31
ATOM     31  C   UNL     1      -0.324   6.983  -2.900  1.00  0.00     0.031 A 
ATOM     32  C   UNL     1       0.248   8.045  -2.009  1.00  0.00     0.074 A 
ATOM     33  C   UNL     1      -0.395   7.172  -4.229  1.00  0.00     0.049 A 
ATOM     34  N   UNL     1       0.577   9.277  -2.297  1.00  0.00    -0.248 NA
ATOM     35  C   UNL     1       0.473   7.669  -0.604  1.00  0.00     0.031 C 
ATOM     36  C   UNL     1      -0.873   6.186  -5.199  1.00  0.00     0.029 A 
ATOM     37  N   UNL     1      -0.090   8.273  -4.987  1.00  0.00    -0.354 N 
ATOM     38  C   UNL     1       1.009   9.838  -1.102  1.00  0.00     0.074 A 
ATOM     39  C   UNL     1       0.905   8.810  -0.088  1.00  0.00     0.031 C 
ATOM     40  C   UNL     1      -0.852   6.737  -6.424  1.00  0.00     0.029 A 
ATOM     41  C   UNL     1      -0.414   8.127  -6.314  1.00  0.00     0.049 A 
ATOM     42  H   UNL     1       0.322   9.087  -4.617  1.00  0.00     0.167 HD
ATOM     43  C   UNL     1       1.439  11.102  -0.872  1.00  0.00     0.031 A 
ATOM     44  C   UNL     1      -0.407   9.026  -7.317  1.00  0.00     0.031 A 
ATOM     45  C   UNL     1       1.527  12.116  -1.887  1.00  0.00     0.049 A 
ATOM     46  C   UNL     1       0.017  10.440  -7.032  1.00  0.00     0.074 A 
ATOM     47  C   UNL     1       1.942  13.430  -1.761  1.00  0.00     0.029 A 
ATOM     48  N   UNL     1       1.190  11.928  -3.220  1.00  0.00    -0.354 N 
ATOM     49  N   UNL     1       0.398  10.970  -5.894  1.00  0.00    -0.248 NA
ATOM     50  C   UNL     1       0.009  11.378  -8.163  1.00  0.00     0.031 C 
ATOM     51  C   UNL     1       1.821  14.047  -3.012  1.00  0.00     0.029 A 
ATOM     52  C   UNL     1       1.376  13.104  -3.926  1.00  0.00     0.049 A 
ATOM     53  H   UNL     1       0.867  11.082  -3.607  1.00  0.00     0.167 HD
ATOM     54  C   UNL     1       0.697  12.298  -6.175  1.00  0.00     0.074 A 
ATOM     55  C   UNL     1       0.456  12.489  -7.592  1.00  0.00     0.031 C 
ATOM     56  C   UNL     1       1.135  13.270  -5.337  1.00  0.00     0.031 A 
BRANCH  43  57
ATOM     57  C   UNL     1       1.781  11.461   0.548  1.00  0.00    -0.014 A 
ATOM     58  C   UNL     1       2.950  10.979   1.164  1.00  0.00     0.010 A 
ATOM     59  C   UNL     1       0.909  12.286   1.281  1.00  0.00     0.010 A 
ATOM     60  C   UNL     1       3.212  11.270   2.506  1.00  0.00     0.020 A 
ATOM     61  C   UNL     1       1.180  12.599   2.616  1.00  0.00     0.020 A 
ATOM     62  C   UNL     1       2.317  12.067   3.227  1.00  0.00     0.054 A 
BRANCH  62  63
ATOM     63  S   UNL     1       2.663  12.413   4.973  1.00  0.00     0.124 S 
ATOM     64  O   UNL     1       2.267  11.159   5.610  1.00  0.00    -0.237 OA
ATOM     65  O   UNL     1       4.098  12.689   4.971  1.00  0.00    -0.237 OA
ATOM     66  O   UNL     1       1.812  13.561   5.274  1.00  0.00    -0.744 OA
ENDBRANCH  62  63
ENDBRANCH  43  57
BRANCH  44  67
ATOM     67  C   UNL     1      -0.855   8.610  -8.672  1.00  0.00    -0.014 A 
ATOM     68  C   UNL     1       0.079   8.420  -9.704  1.00  0.00     0.010 A 
ATOM     69  C   UNL     1      -2.215   8.346  -8.919  1.00  0.00     0.010 A 
ATOM     70  C   UNL     1      -0.339   7.968 -10.959  1.00  0.00     0.020 A 
ATOM     71  C   UNL     1      -2.633   7.872 -10.165  1.00  0.00     0.020 A 
ATOM     72  C   UNL     1      -1.692   7.689 -11.180  1.00  0.00     0.054 A 
BRANCH  72  73
ATOM     73  S   UNL     1      -2.199   7.014 -12.786  1.00  0.00     0.124 S 
ATOM     74  O   UNL     1      -2.165   8.199 -13.637  1.00  0.00    -0.237 OA
ATOM     75  O   UNL     1      -1.166   6.015 -13.051  1.00  0.00    -0.237 OA
ATOM     76  O   UNL     1      -3.528   6.468 -12.523  1.00  0.00    -0.744 OA
ENDBRANCH  72  73
ENDBRANCH  44  67
BRANCH  56  77
ATOM     77  C   UNL     1       1.429  14.619  -5.933  1.00  0.00    -0.014 A 
ATOM     78  C   UNL     1       0.395  15.513  -6.256  1.00  0.00     0.010 A 
ATOM     79  C   UNL     1       2.767  15.024  -6.093  1.00  0.00     0.010 A 
ATOM     80  C   UNL     1       0.694  16.789  -6.744  1.00  0.00     0.020 A 
ATOM     81  C   UNL     1       3.070  16.305  -6.561  1.00  0.00     0.020 A 
ATOM     82  C   UNL     1       2.030  17.177  -6.891  1.00  0.00     0.054 A 
BRANCH  82  83
ATOM     83  S   UNL     1       2.397  18.860  -7.459  1.00  0.00     0.124 S 
ATOM     84  O   UNL     1       2.135  18.761  -8.892  1.00  0.00    -0.237 OA
ATOM     85  O   UNL     1       1.448  19.671  -6.701  1.00  0.00    -0.237 OA
ATOM     86  O   UNL     1       3.799  19.050  -7.093  1.00  0.00    -0.744 OA
ENDBRANCH  82  83
ENDBRANCH  56  77
ENDBRANCH  30  31
ENDBRANCH  23  25
ENDBRANCH  22  23
ENDBRANCH  21  22
ENDBRANCH   1  21
TORSDOF 18
