REMARK SMILES O=C(OCCOC(=O)[C@@H]1C=C[C@@H](NC(=O)[C@@H]2CCS(=O)(=O)C2)C1)c1ccc(-c2c3nc(c(-c4ccc(S(=O)(=O)[O-])cc4)c4ccc([nH]4)c(-c4ccc(S(=O)(=O)[O-])cc4)c4nc(c(-c5ccc(S(=O)(=O)[O-])cc5)c5ccc2[nH]5)C=C4)C=C3)cc1
REMARK SMILES IDX 4 1 3 2 2 3 1 4 24 5 25 6 83 7 26 8 82 9 27 10 28 11 29 12
REMARK SMILES IDX 76 13 30 14 81 15 75 16 77 17 31 18 80 19 74 20 73 21 32 23
REMARK SMILES IDX 62 24 43 25 61 26 44 27 47 28 60 29 78 30 45 31 46 32 59 34
REMARK SMILES IDX 79 35 48 36 33 37 34 38 42 39 35 40 41 41 36 42 37 43 38 44
REMARK SMILES IDX 39 45 40 46 63 47 64 48 72 49 65 50 71 51 66 52 67 53 68 54
REMARK SMILES IDX 69 55 70 56 49 57 50 58 58 59 51 60 57 61 52 62 53 63 54 64
REMARK SMILES IDX 55 65 56 66 5 67 6 68 7 69 8 70 9 71 10 72 23 73 11 74 12 75
REMARK SMILES IDX 13 76 14 77 15 79 16 80 17 81 22 82 18 83 19 84 20 85 21 86
REMARK H PARENT 77 22 47 33 13 78
REMARK Flexibility Score: inf
ROOT
ATOM      1  C   UNL     1       2.460   1.659  -6.356  1.00  0.00     0.275 C 
ENDROOT
BRANCH   1   2
ATOM      2  O   UNL     1       3.442   2.635  -6.031  1.00  0.00    -0.458 OA
BRANCH   2   3
ATOM      3  C   UNL     1       3.279   3.677  -5.194  1.00  0.00     0.338 C 
ATOM      4  O   UNL     1       4.279   4.339  -4.913  1.00  0.00    -0.246 OA
BRANCH   3   5
ATOM      5  C   UNL     1       1.980   4.038  -4.511  1.00  0.00     0.060 A 
ATOM      6  C   UNL     1       0.736   3.381  -4.511  1.00  0.00     0.016 A 
ATOM      7  C   UNL     1       2.092   5.125  -3.661  1.00  0.00     0.016 A 
ATOM      8  C   UNL     1      -0.282   3.675  -3.576  1.00  0.00     0.010 A 
ATOM      9  C   UNL     1       1.097   5.382  -2.724  1.00  0.00     0.010 A 
ATOM     10  C   UNL     1      -0.082   4.643  -2.609  1.00  0.00    -0.014 A 
BRANCH  10  11
ATOM     11  C   UNL     1      -1.007   4.978  -1.480  1.00  0.00     0.031 A 
ATOM     12  C   UNL     1      -1.302   6.443  -1.230  1.00  0.00     0.074 A 
ATOM     13  C   UNL     1      -1.408   4.056  -0.576  1.00  0.00     0.049 A 
ATOM     14  N   UNL     1      -1.648   7.053  -0.129  1.00  0.00    -0.248 NA
ATOM     15  C   UNL     1      -1.030   7.353  -2.355  1.00  0.00     0.031 C 
ATOM     16  C   UNL     1      -1.196   2.608  -0.655  1.00  0.00     0.029 A 
ATOM     17  N   UNL     1      -2.069   4.216   0.620  1.00  0.00    -0.354 N 
ATOM     18  C   UNL     1      -1.472   8.416  -0.384  1.00  0.00     0.074 A 
ATOM     19  C   UNL     1      -0.957   8.517  -1.730  1.00  0.00     0.031 C 
ATOM     20  C   UNL     1      -1.739   2.014   0.425  1.00  0.00     0.029 A 
ATOM     21  C   UNL     1      -2.312   3.036   1.291  1.00  0.00     0.049 A 
ATOM     22  H   UNL     1      -2.343   5.095   0.967  1.00  0.00     0.167 HD
ATOM     23  C   UNL     1      -1.717   9.469   0.437  1.00  0.00     0.031 A 
ATOM     24  C   UNL     1      -2.947   2.810   2.460  1.00  0.00     0.031 A 
ATOM     25  C   UNL     1      -2.420   9.314   1.686  1.00  0.00     0.049 A 
ATOM     26  C   UNL     1      -3.504   3.990   3.213  1.00  0.00     0.074 A 
ATOM     27  C   UNL     1      -2.890  10.292   2.545  1.00  0.00     0.029 A 
ATOM     28  N   UNL     1      -2.811   8.094   2.219  1.00  0.00    -0.354 N 
ATOM     29  N   UNL     1      -3.303   5.268   2.995  1.00  0.00    -0.248 NA
ATOM     30  C   UNL     1      -4.413   3.704   4.331  1.00  0.00     0.031 C 
ATOM     31  C   UNL     1      -3.556   9.662   3.600  1.00  0.00     0.029 A 
ATOM     32  C   UNL     1      -3.568   8.298   3.355  1.00  0.00     0.049 A 
ATOM     33  H   UNL     1      -2.582   7.213   1.843  1.00  0.00     0.167 HD
ATOM     34  C   UNL     1      -4.105   5.939   3.910  1.00  0.00     0.074 A 
ATOM     35  C   UNL     1      -4.792   4.926   4.686  1.00  0.00     0.031 C 
ATOM     36  C   UNL     1      -4.270   7.272   4.083  1.00  0.00     0.031 A 
BRANCH  23  37
ATOM     37  C   UNL     1      -1.209  10.847   0.046  1.00  0.00    -0.014 A 
ATOM     38  C   UNL     1      -1.511  11.470  -1.179  1.00  0.00     0.010 A 
ATOM     39  C   UNL     1      -0.355  11.531   0.937  1.00  0.00     0.010 A 
ATOM     40  C   UNL     1      -0.858  12.648  -1.566  1.00  0.00     0.020 A 
ATOM     41  C   UNL     1       0.249  12.744   0.585  1.00  0.00     0.020 A 
ATOM     42  C   UNL     1       0.037  13.265  -0.689  1.00  0.00     0.054 A 
BRANCH  42  43
ATOM     43  S   UNL     1       0.918  14.754  -1.234  1.00  0.00     0.124 S 
ATOM     44  O   UNL     1       1.960  14.202  -2.097  1.00  0.00    -0.237 OA
ATOM     45  O   UNL     1      -0.123  15.511  -1.927  1.00  0.00    -0.237 OA
ATOM     46  O   UNL     1       1.392  15.358   0.009  1.00  0.00    -0.744 OA
ENDBRANCH  42  43
ENDBRANCH  23  37
BRANCH  24  47
ATOM     47  C   UNL     1      -3.231   1.418   2.912  1.00  0.00    -0.014 A 
ATOM     48  C   UNL     1      -4.522   0.885   2.729  1.00  0.00     0.010 A 
ATOM     49  C   UNL     1      -2.244   0.615   3.510  1.00  0.00     0.010 A 
ATOM     50  C   UNL     1      -4.829  -0.410   3.152  1.00  0.00     0.020 A 
ATOM     51  C   UNL     1      -2.543  -0.695   3.915  1.00  0.00     0.020 A 
ATOM     52  C   UNL     1      -3.835  -1.196   3.739  1.00  0.00     0.054 A 
BRANCH  52  53
ATOM     53  S   UNL     1      -4.253  -2.896   4.223  1.00  0.00     0.124 S 
ATOM     54  O   UNL     1      -5.169  -2.681   5.338  1.00  0.00    -0.237 OA
ATOM     55  O   UNL     1      -4.855  -3.426   3.002  1.00  0.00    -0.237 OA
ATOM     56  O   UNL     1      -2.961  -3.479   4.575  1.00  0.00    -0.744 OA
ENDBRANCH  52  53
ENDBRANCH  24  47
BRANCH  36  57
ATOM     57  C   UNL     1      -5.307   7.739   5.066  1.00  0.00    -0.014 A 
ATOM     58  C   UNL     1      -5.111   7.653   6.454  1.00  0.00     0.010 A 
ATOM     59  C   UNL     1      -6.455   8.387   4.570  1.00  0.00     0.010 A 
ATOM     60  C   UNL     1      -6.055   8.198   7.329  1.00  0.00     0.020 A 
ATOM     61  C   UNL     1      -7.385   8.955   5.440  1.00  0.00     0.020 A 
ATOM     62  C   UNL     1      -7.181   8.851   6.816  1.00  0.00     0.054 A 
BRANCH  62  63
ATOM     63  S   UNL     1      -8.348   9.619   7.972  1.00  0.00     0.124 S 
ATOM     64  O   UNL     1      -8.995   8.455   8.570  1.00  0.00    -0.237 OA
ATOM     65  O   UNL     1      -7.468  10.375   8.859  1.00  0.00    -0.237 OA
ATOM     66  O   UNL     1      -9.205  10.433   7.112  1.00  0.00    -0.744 OA
ENDBRANCH  62  63
ENDBRANCH  36  57
ENDBRANCH  10  11
ENDBRANCH   3   5
ENDBRANCH   2   3
ENDBRANCH   1   2
BRANCH   1  67
ATOM     67  C   UNL     1       2.268   0.592  -5.259  1.00  0.00     0.274 C 
BRANCH  67  68
ATOM     68  O   UNL     1       2.292   1.066  -3.881  1.00  0.00    -0.462 OA
BRANCH  68  69
ATOM     69  C   UNL     1       3.497   0.997  -3.246  1.00  0.00     0.312 C 
ATOM     70  O   UNL     1       4.525   0.635  -3.813  1.00  0.00    -0.252 OA
BRANCH  69  71
ATOM     71  C   UNL     1       3.507   1.367  -1.743  1.00  0.00     0.124 C 
ATOM     72  C   UNL     1       2.272   1.486  -0.902  1.00  0.00    -0.014 C 
ATOM     73  C   UNL     1       4.250   2.688  -1.430  1.00  0.00     0.048 C 
ATOM     74  C   UNL     1       2.217   2.650  -0.234  1.00  0.00    -0.006 C 
ATOM     75  C   UNL     1       3.263   3.608  -0.685  1.00  0.00     0.106 C 
BRANCH  75  76
ATOM     76  N   UNL     1       3.834   4.374   0.411  1.00  0.00    -0.350 N 
ATOM     77  C   UNL     1       4.115   5.717   0.524  1.00  0.00     0.224 C 
ATOM     78  H   UNL     1       4.058   3.842   1.208  1.00  0.00     0.164 HD
ATOM     79  O   UNL     1       4.763   6.104   1.497  1.00  0.00    -0.275 OA
BRANCH  77  80
ATOM     80  C   UNL     1       3.602   6.721  -0.505  1.00  0.00     0.094 C 
ATOM     81  C   UNL     1       4.574   7.859  -0.857  1.00  0.00     0.030 C 
ATOM     82  C   UNL     1       2.307   7.384  -0.029  1.00  0.00     0.150 C 
ATOM     83  C   UNL     1       4.420   8.983   0.157  1.00  0.00     0.138 C 
ATOM     84  S   UNL     1       2.707   8.991   0.603  1.00  0.00     0.151 S 
ATOM     85  O   UNL     1       2.584   8.987   2.048  1.00  0.00    -0.229 OA
ATOM     86  O   UNL     1       2.044   9.952  -0.244  1.00  0.00    -0.229 OA
ENDBRANCH  77  80
ENDBRANCH  75  76
ENDBRANCH  69  71
ENDBRANCH  68  69
ENDBRANCH  67  68
ENDBRANCH   1  67
TORSDOF 16
