REMARK SMILES Cc1ccc(Nc2c(Cl)cc(Cl)cc2Cl)c(CC(=O)OCCOC(=O)c2ccc(-c3c4nc(c(-c5ccc(S(=O)(=O)[O-])cc5)c5ccc([nH]5)c(-c5ccc(S(=O)(=O)[O-])cc5)c5nc(c(-c6ccc(S(=O)(=O)[O-])cc6)c6ccc3[nH]6)C=C5)C=C4)cc2)c1
REMARK SMILES IDX 21 1 20 2 18 3 19 4 17 5 16 6 1 7 2 8 3 9 86 10 4 11 5 12
REMARK SMILES IDX 6 13 7 15 8 16 14 17 9 18 10 19 13 20 15 21 11 22 12 23
REMARK SMILES IDX 22 24 23 25 24 26 25 27 26 28 27 29 85 30 28 31 84 32 29 33
REMARK SMILES IDX 30 34 31 35 78 36 32 37 83 38 77 39 79 40 33 41 82 42 76 43
REMARK SMILES IDX 75 44 34 46 64 47 45 48 63 49 46 50 49 51 62 52 80 53 47 54
REMARK SMILES IDX 48 55 61 57 81 58 50 59 35 60 36 61 44 62 37 63 43 64 38 65
REMARK SMILES IDX 39 66 40 67 41 68 42 69 65 70 66 71 74 72 67 73 73 74 68 75
REMARK SMILES IDX 69 76 70 77 71 78 72 79 51 80 52 81 60 82 53 83 59 84 54 85
REMARK SMILES IDX 55 86 56 87 57 88 58 89
REMARK H PARENT 6 14 79 45 49 56
REMARK Flexibility Score: inf
ROOT
ATOM      1  C   UNL     1      -2.675   1.188  -4.037  1.00  0.00     0.274 C 
ENDROOT
BRANCH   1   2
ATOM      2  O   UNL     1      -1.767   1.698  -3.061  1.00  0.00    -0.462 OA
BRANCH   2   3
ATOM      3  C   UNL     1      -1.028   0.756  -2.437  1.00  0.00     0.310 C 
ATOM      4  O   UNL     1      -0.653  -0.279  -2.976  1.00  0.00    -0.252 OA
BRANCH   3   5
ATOM      5  C   UNL     1      -0.772   1.195  -1.007  1.00  0.00     0.160 C 
BRANCH   5   6
ATOM      6  C   UNL     1      -0.180   0.064  -0.212  1.00  0.00    -0.013 A 
ATOM      7  C   UNL     1       3.413  -0.918   0.396  1.00  0.00     0.044 C 
ATOM      8  C   UNL     1       1.920  -0.987   0.368  1.00  0.00    -0.051 A 
ATOM      9  C   UNL     1       1.233  -2.189   0.548  1.00  0.00     0.005 A 
ATOM     10  C   UNL     1       1.202   0.142   0.004  1.00  0.00     0.009 A 
ATOM     11  C   UNL     1      -0.162  -2.247   0.424  1.00  0.00     0.026 A 
ATOM     12  C   UNL     1      -0.905  -1.117   0.084  1.00  0.00     0.042 A 
BRANCH  12  13
ATOM     13  N   UNL     1      -2.294  -1.195  -0.131  1.00  0.00    -0.353 N 
ATOM     14  H   UNL     1      -2.691  -0.369  -0.492  1.00  0.00     0.167 HD
BRANCH  13  15
ATOM     15  C   UNL     1      -3.232  -2.243   0.075  1.00  0.00     0.076 A 
ATOM     16  C   UNL     1      -3.678  -2.597   1.363  1.00  0.00     0.067 A 
ATOM     17  C   UNL     1      -3.953  -2.772  -1.019  1.00  0.00     0.067 A 
ATOM     18  Cl  UNL     1      -2.910  -1.996   2.794  1.00  0.00    -0.082 Cl
ATOM     19  C   UNL     1      -4.766  -3.462   1.544  1.00  0.00     0.043 A 
ATOM     20  C   UNL     1      -5.084  -3.576  -0.841  1.00  0.00     0.043 A 
ATOM     21  Cl  UNL     1      -3.393  -2.586  -2.643  1.00  0.00    -0.082 Cl
ATOM     22  C   UNL     1      -5.474  -3.928   0.442  1.00  0.00     0.044 A 
ATOM     23  Cl  UNL     1      -6.812  -4.988   0.666  1.00  0.00    -0.084 Cl
ENDBRANCH  13  15
ENDBRANCH  12  13
ENDBRANCH   5   6
ENDBRANCH   3   5
ENDBRANCH   2   3
ENDBRANCH   1   2
BRANCH   1  24
ATOM     24  C   UNL     1      -3.983   0.659  -3.398  1.00  0.00     0.275 C 
BRANCH  24  25
ATOM     25  O   UNL     1      -4.018   0.516  -1.931  1.00  0.00    -0.458 OA
BRANCH  25  26
ATOM     26  C   UNL     1      -4.210   1.379  -0.879  1.00  0.00     0.338 C 
ATOM     27  O   UNL     1      -4.192   0.943   0.271  1.00  0.00    -0.246 OA
BRANCH  26  28
ATOM     28  C   UNL     1      -3.972   2.823  -1.077  1.00  0.00     0.060 A 
ATOM     29  C   UNL     1      -3.411   3.657  -0.088  1.00  0.00     0.016 A 
ATOM     30  C   UNL     1      -4.016   3.271  -2.361  1.00  0.00     0.016 A 
ATOM     31  C   UNL     1      -2.814   4.863  -0.477  1.00  0.00     0.010 A 
ATOM     32  C   UNL     1      -3.024   4.106  -2.756  1.00  0.00     0.010 A 
ATOM     33  C   UNL     1      -2.602   5.050  -1.842  1.00  0.00    -0.014 A 
BRANCH  33  34
ATOM     34  C   UNL     1      -2.288   6.275  -2.557  1.00  0.00     0.031 A 
ATOM     35  C   UNL     1      -0.932   6.804  -2.529  1.00  0.00     0.074 A 
ATOM     36  C   UNL     1      -3.299   6.728  -3.344  1.00  0.00     0.049 A 
ATOM     37  N   UNL     1      -0.606   7.965  -2.080  1.00  0.00    -0.248 NA
ATOM     38  C   UNL     1       0.201   6.008  -3.008  1.00  0.00     0.031 C 
ATOM     39  C   UNL     1      -3.376   7.783  -4.330  1.00  0.00     0.029 A 
ATOM     40  N   UNL     1      -4.606   6.251  -3.339  1.00  0.00    -0.354 N 
ATOM     41  C   UNL     1       0.637   8.204  -2.624  1.00  0.00     0.074 A 
ATOM     42  C   UNL     1       1.193   6.907  -2.954  1.00  0.00     0.031 C 
ATOM     43  C   UNL     1      -4.683   8.062  -4.554  1.00  0.00     0.029 A 
ATOM     44  C   UNL     1      -5.519   7.206  -3.708  1.00  0.00     0.049 A 
ATOM     45  H   UNL     1      -4.848   5.328  -3.098  1.00  0.00     0.167 HD
ATOM     46  C   UNL     1       0.921   9.411  -3.193  1.00  0.00     0.031 A 
ATOM     47  C   UNL     1      -6.391   7.571  -2.721  1.00  0.00     0.031 A 
ATOM     48  C   UNL     1      -0.305  10.199  -3.364  1.00  0.00     0.049 A 
ATOM     49  C   UNL     1      -5.874   8.815  -2.035  1.00  0.00     0.074 A 
ATOM     50  C   UNL     1      -1.072  10.473  -4.486  1.00  0.00     0.029 A 
ATOM     51  N   UNL     1      -1.110  10.499  -2.267  1.00  0.00    -0.354 N 
ATOM     52  N   UNL     1      -4.658   9.267  -2.185  1.00  0.00    -0.248 NA
ATOM     53  C   UNL     1      -6.691   9.693  -1.209  1.00  0.00     0.031 C 
ATOM     54  C   UNL     1      -2.367  10.867  -4.054  1.00  0.00     0.029 A 
ATOM     55  C   UNL     1      -2.392  10.834  -2.672  1.00  0.00     0.049 A 
ATOM     56  H   UNL     1      -0.808  10.476  -1.331  1.00  0.00     0.167 HD
ATOM     57  C   UNL     1      -4.533  10.486  -1.591  1.00  0.00     0.074 A 
ATOM     58  C   UNL     1      -5.834  10.707  -0.979  1.00  0.00     0.031 C 
ATOM     59  C   UNL     1      -3.392  11.231  -1.684  1.00  0.00     0.031 A 
BRANCH  46  60
ATOM     60  C   UNL     1       2.210   9.664  -3.942  1.00  0.00    -0.014 A 
ATOM     61  C   UNL     1       2.247  10.546  -5.038  1.00  0.00     0.010 A 
ATOM     62  C   UNL     1       3.441   9.088  -3.554  1.00  0.00     0.010 A 
ATOM     63  C   UNL     1       3.427  10.799  -5.749  1.00  0.00     0.020 A 
ATOM     64  C   UNL     1       4.628   9.318  -4.271  1.00  0.00     0.020 A 
ATOM     65  C   UNL     1       4.613  10.179  -5.365  1.00  0.00     0.054 A 
BRANCH  65  66
ATOM     66  S   UNL     1       6.128  10.547  -6.292  1.00  0.00     0.124 S 
ATOM     67  O   UNL     1       5.750  10.209  -7.662  1.00  0.00    -0.237 OA
ATOM     68  O   UNL     1       6.318  11.970  -6.025  1.00  0.00    -0.237 OA
ATOM     69  O   UNL     1       7.125   9.662  -5.692  1.00  0.00    -0.744 OA
ENDBRANCH  65  66
ENDBRANCH  46  60
BRANCH  47  70
ATOM     70  C   UNL     1      -7.112   6.390  -2.107  1.00  0.00    -0.014 A 
ATOM     71  C   UNL     1      -8.059   5.748  -2.940  1.00  0.00     0.010 A 
ATOM     72  C   UNL     1      -6.650   5.668  -0.985  1.00  0.00     0.010 A 
ATOM     73  C   UNL     1      -8.405   4.401  -2.767  1.00  0.00     0.020 A 
ATOM     74  C   UNL     1      -7.019   4.314  -0.790  1.00  0.00     0.020 A 
ATOM     75  C   UNL     1      -7.838   3.674  -1.725  1.00  0.00     0.054 A 
BRANCH  75  76
ATOM     76  S   UNL     1      -7.996   1.857  -1.788  1.00  0.00     0.124 S 
ATOM     77  O   UNL     1      -9.431   1.653  -1.623  1.00  0.00    -0.237 OA
ATOM     78  O   UNL     1      -7.459   1.562  -3.117  1.00  0.00    -0.237 OA
ATOM     79  O   UNL     1      -7.161   1.402  -0.685  1.00  0.00    -0.744 OA
ENDBRANCH  75  76
ENDBRANCH  47  70
BRANCH  59  80
ATOM     80  C   UNL     1      -3.125  12.500  -0.925  1.00  0.00    -0.014 A 
ATOM     81  C   UNL     1      -3.730  12.820   0.295  1.00  0.00     0.010 A 
ATOM     82  C   UNL     1      -2.104  13.363  -1.394  1.00  0.00     0.010 A 
ATOM     83  C   UNL     1      -3.382  13.986   0.982  1.00  0.00     0.020 A 
ATOM     84  C   UNL     1      -1.704  14.492  -0.686  1.00  0.00     0.020 A 
ATOM     85  C   UNL     1      -2.372  14.814   0.486  1.00  0.00     0.054 A 
BRANCH  85  86
ATOM     86  S   UNL     1      -1.892  16.286   1.413  1.00  0.00     0.124 S 
ATOM     87  O   UNL     1      -2.863  17.266   0.934  1.00  0.00    -0.237 OA
ATOM     88  O   UNL     1      -2.058  15.864   2.802  1.00  0.00    -0.237 OA
ATOM     89  O   UNL     1      -0.510  16.516   1.000  1.00  0.00    -0.744 OA
ENDBRANCH  85  86
ENDBRANCH  59  80
ENDBRANCH  33  34
ENDBRANCH  26  28
ENDBRANCH  25  26
ENDBRANCH  24  25
ENDBRANCH   1  24
TORSDOF 17
