REMARK SMILES O=C(CC1CC[NH+](C[C@H]2COc3ccccc3O2)CC1)OCCOC(=O)c1ccc(-c2c3nc(c(-c4ccc(S(=O)(=O)[O-])cc4)c4ccc([nH]4)c(-c4ccc(S(=O)(=O)[O-])cc4)c4nc(c(-c5ccc(S(=O)(=O)[O-])cc5)c5ccc2[nH]5)C=C4)C=C3)cc1
REMARK SMILES IDX 22 1 21 2 2 3 1 4 3 5 4 6 5 7 20 8 6 9 19 10 7 11 8 13 9 14
REMARK SMILES IDX 10 15 18 16 11 17 17 18 12 19 16 20 13 21 15 22 14 23 23 24
REMARK SMILES IDX 24 25 25 26 26 27 27 28 28 29 86 30 29 31 85 32 30 33 31 34
REMARK SMILES IDX 32 35 79 36 33 37 84 38 78 39 80 40 34 41 83 42 77 43 76 44
REMARK SMILES IDX 35 46 65 47 46 48 64 49 47 50 50 51 63 52 81 53 48 54 49 55
REMARK SMILES IDX 62 57 82 58 51 59 36 60 37 61 45 62 38 63 44 64 39 65 40 66
REMARK SMILES IDX 41 67 42 68 43 69 66 70 67 71 75 72 68 73 74 74 69 75 70 76
REMARK SMILES IDX 71 77 72 78 73 79 52 80 53 81 61 82 54 83 60 84 55 85 56 86
REMARK SMILES IDX 57 87 58 88 59 89
REMARK H PARENT 7 12 80 45 50 56
REMARK Flexibility Score: inf
ROOT
ATOM      1  C   UNL     1       7.471  -0.351  -1.044  1.00  0.00     0.274 C 
ENDROOT
BRANCH   1   2
ATOM      2  O   UNL     1       8.817  -0.217  -0.583  1.00  0.00    -0.462 OA
BRANCH   2   3
ATOM      3  C   UNL     1       9.786  -0.120  -1.537  1.00  0.00     0.306 C 
ATOM      4  O   UNL     1      10.822  -0.772  -1.455  1.00  0.00    -0.252 OA
BRANCH   3   5
ATOM      5  C   UNL     1       9.564   0.924  -2.620  1.00  0.00     0.126 C 
BRANCH   5   6
ATOM      6  C   UNL     1       9.305   0.480  -4.079  1.00  0.00     0.011 C 
ATOM      7  C   UNL     1       8.373   1.458  -4.815  1.00  0.00     0.066 C 
ATOM      8  C   UNL     1       8.857  -0.963  -4.344  1.00  0.00     0.066 C 
ATOM      9  C   UNL     1       6.858   1.200  -4.666  1.00  0.00     0.262 C 
ATOM     10  C   UNL     1       7.354  -1.188  -4.609  1.00  0.00     0.262 C 
ATOM     11  N   UNL     1       6.469  -0.115  -4.151  1.00  0.00    -0.332 N 
ATOM     12  H   UNL     1       6.596  -0.040  -3.141  1.00  0.00     0.348 HD
BRANCH  11  13
ATOM     13  C   UNL     1       5.021  -0.449  -4.324  1.00  0.00     0.311 C 
BRANCH  13  14
ATOM     14  C   UNL     1       4.196  -0.227  -3.030  1.00  0.00     0.265 C 
ATOM     15  C   UNL     1       3.775   1.228  -2.813  1.00  0.00     0.281 C 
ATOM     16  O   UNL     1       2.980  -1.014  -2.961  1.00  0.00    -0.477 OA
ATOM     17  O   UNL     1       3.407   1.416  -1.436  1.00  0.00    -0.486 OA
ATOM     18  C   UNL     1       2.375  -0.774  -1.734  1.00  0.00     0.162 A 
ATOM     19  C   UNL     1       2.641   0.377  -0.974  1.00  0.00     0.161 A 
ATOM     20  C   UNL     1       1.494  -1.731  -1.236  1.00  0.00     0.050 A 
ATOM     21  C   UNL     1       2.133   0.512   0.317  1.00  0.00     0.050 A 
ATOM     22  C   UNL     1       0.944  -1.571   0.043  1.00  0.00     0.004 A 
ATOM     23  C   UNL     1       1.284  -0.467   0.829  1.00  0.00     0.004 A 
ENDBRANCH  13  14
ENDBRANCH  11  13
ENDBRANCH   5   6
ENDBRANCH   3   5
ENDBRANCH   2   3
ENDBRANCH   1   2
BRANCH   1  24
ATOM     24  C   UNL     1       6.548   0.804  -0.679  1.00  0.00     0.275 C 
BRANCH  24  25
ATOM     25  O   UNL     1       7.201   2.058  -0.690  1.00  0.00    -0.458 OA
BRANCH  25  26
ATOM     26  C   UNL     1       7.617   2.425   0.531  1.00  0.00     0.338 C 
ATOM     27  O   UNL     1       7.306   1.945   1.613  1.00  0.00    -0.246 OA
BRANCH  26  28
ATOM     28  C   UNL     1       8.732   3.331   0.311  1.00  0.00     0.060 A 
ATOM     29  C   UNL     1       9.934   2.967   0.912  1.00  0.00     0.016 A 
ATOM     30  C   UNL     1       8.606   4.482  -0.477  1.00  0.00     0.016 A 
ATOM     31  C   UNL     1      11.002   3.832   0.828  1.00  0.00     0.010 A 
ATOM     32  C   UNL     1       9.692   5.342  -0.578  1.00  0.00     0.010 A 
ATOM     33  C   UNL     1      10.861   5.045   0.136  1.00  0.00    -0.014 A 
BRANCH  33  34
ATOM     34  C   UNL     1      11.898   6.060   0.374  1.00  0.00     0.031 A 
ATOM     35  C   UNL     1      11.625   7.117   1.405  1.00  0.00     0.074 A 
ATOM     36  C   UNL     1      13.106   5.895  -0.185  1.00  0.00     0.049 A 
ATOM     37  N   UNL     1      12.455   7.962   1.953  1.00  0.00    -0.248 NA
ATOM     38  C   UNL     1      10.241   7.226   1.901  1.00  0.00     0.031 C 
ATOM     39  C   UNL     1      13.448   4.859  -1.162  1.00  0.00     0.029 A 
ATOM     40  N   UNL     1      14.279   6.562   0.029  1.00  0.00    -0.354 N 
ATOM     41  C   UNL     1      11.701   8.682   2.872  1.00  0.00     0.074 A 
ATOM     42  C   UNL     1      10.337   8.220   2.769  1.00  0.00     0.031 C 
ATOM     43  C   UNL     1      14.758   4.941  -1.440  1.00  0.00     0.029 A 
ATOM     44  C   UNL     1      15.335   6.043  -0.677  1.00  0.00     0.049 A 
ATOM     45  H   UNL     1      14.358   7.337   0.630  1.00  0.00     0.167 HD
ATOM     46  C   UNL     1      12.121   9.628   3.742  1.00  0.00     0.031 A 
ATOM     47  C   UNL     1      16.626   6.419  -0.691  1.00  0.00     0.031 A 
ATOM     48  C   UNL     1      13.482  10.086   3.806  1.00  0.00     0.049 A 
ATOM     49  C   UNL     1      17.053   7.521   0.239  1.00  0.00     0.074 A 
ATOM     50  C   UNL     1      14.028  11.060   4.620  1.00  0.00     0.029 A 
ATOM     51  N   UNL     1      14.513   9.595   3.016  1.00  0.00    -0.354 N 
ATOM     52  N   UNL     1      16.333   8.188   1.113  1.00  0.00    -0.248 NA
ATOM     53  C   UNL     1      18.468   7.905   0.199  1.00  0.00     0.031 C 
ATOM     54  C   UNL     1      15.379  11.198   4.281  1.00  0.00     0.029 A 
ATOM     55  C   UNL     1      15.690  10.263   3.305  1.00  0.00     0.049 A 
ATOM     56  H   UNL     1      14.421   8.877   2.349  1.00  0.00     0.167 HD
ATOM     57  C   UNL     1      17.212   9.065   1.738  1.00  0.00     0.074 A 
ATOM     58  C   UNL     1      18.521   8.813   1.164  1.00  0.00     0.031 C 
ATOM     59  C   UNL     1      16.968   9.998   2.692  1.00  0.00     0.031 A 
BRANCH  46  60
ATOM     60  C   UNL     1      11.093  10.239   4.657  1.00  0.00    -0.014 A 
ATOM     61  C   UNL     1      10.520   9.499   5.709  1.00  0.00     0.010 A 
ATOM     62  C   UNL     1      10.709  11.580   4.479  1.00  0.00     0.010 A 
ATOM     63  C   UNL     1       9.564  10.080   6.547  1.00  0.00     0.020 A 
ATOM     64  C   UNL     1       9.773  12.173   5.332  1.00  0.00     0.020 A 
ATOM     65  C   UNL     1       9.198  11.415   6.354  1.00  0.00     0.054 A 
BRANCH  65  66
ATOM     66  S   UNL     1       7.983  12.155   7.480  1.00  0.00     0.124 S 
ATOM     67  O   UNL     1       6.750  11.479   7.082  1.00  0.00    -0.237 OA
ATOM     68  O   UNL     1       8.503  11.791   8.795  1.00  0.00    -0.237 OA
ATOM     69  O   UNL     1       8.039  13.581   7.163  1.00  0.00    -0.744 OA
ENDBRANCH  65  66
ENDBRANCH  46  60
BRANCH  47  70
ATOM     70  C   UNL     1      17.577   5.766  -1.630  1.00  0.00    -0.014 A 
ATOM     71  C   UNL     1      18.645   4.978  -1.170  1.00  0.00     0.010 A 
ATOM     72  C   UNL     1      17.401   5.931  -3.017  1.00  0.00     0.010 A 
ATOM     73  C   UNL     1      19.536   4.394  -2.078  1.00  0.00     0.020 A 
ATOM     74  C   UNL     1      18.266   5.323  -3.928  1.00  0.00     0.020 A 
ATOM     75  C   UNL     1      19.340   4.572  -3.451  1.00  0.00     0.054 A 
BRANCH  75  76
ATOM     76  S   UNL     1      20.488   3.785  -4.615  1.00  0.00     0.124 S 
ATOM     77  O   UNL     1      21.688   4.601  -4.454  1.00  0.00    -0.237 OA
ATOM     78  O   UNL     1      20.575   2.421  -4.100  1.00  0.00    -0.237 OA
ATOM     79  O   UNL     1      19.811   3.915  -5.904  1.00  0.00    -0.744 OA
ENDBRANCH  75  76
ENDBRANCH  47  70
BRANCH  59  80
ATOM     80  C   UNL     1      18.149  10.799   3.169  1.00  0.00    -0.014 A 
ATOM     81  C   UNL     1      18.774  11.741   2.332  1.00  0.00     0.010 A 
ATOM     82  C   UNL     1      18.630  10.615   4.478  1.00  0.00     0.010 A 
ATOM     83  C   UNL     1      19.899  12.438   2.774  1.00  0.00     0.020 A 
ATOM     84  C   UNL     1      19.733  11.338   4.936  1.00  0.00     0.020 A 
ATOM     85  C   UNL     1      20.376  12.226   4.071  1.00  0.00     0.054 A 
BRANCH  85  86
ATOM     86  S   UNL     1      21.840  13.141   4.620  1.00  0.00     0.124 S 
ATOM     87  O   UNL     1      22.910  12.464   3.893  1.00  0.00    -0.237 OA
ATOM     88  O   UNL     1      21.548  14.505   4.184  1.00  0.00    -0.237 OA
ATOM     89  O   UNL     1      21.849  12.945   6.068  1.00  0.00    -0.744 OA
ENDBRANCH  85  86
ENDBRANCH  59  80
ENDBRANCH  33  34
ENDBRANCH  26  28
ENDBRANCH  25  26
ENDBRANCH  24  25
ENDBRANCH   1  24
TORSDOF 17
