REMARK SMILES CCn1ncc(NC(=O)[C@@H]2CCCC[C@@H]2C(=O)OCCOC(=O)c2ccc(-c3c4nc(c(-c5ccc(S(=O)(=O)[O-])cc5)c5ccc([nH]5)c(-c5ccc(S(=O)(=O)[O-])cc5)c5nc(c(-c6ccc(S(=O)(=O)[O-])cc6)c6ccc3[nH]6)C=C5)C=C4)cc2)c1C(=O)Nc1cnn(C)c1C
REMARK SMILES IDX 19 1 18 2 16 3 17 4 15 5 10 6 11 7 12 8 14 9 13 10 8 11 7 12
REMARK SMILES IDX 9 14 6 15 3 16 4 17 84 18 5 19 2 20 1 21 85 22 86 23 87 24
REMARK SMILES IDX 88 26 89 27 93 28 90 29 91 30 94 31 92 32 20 33 21 34 22 35
REMARK SMILES IDX 23 36 24 37 25 38 83 39 26 40 82 41 27 42 28 43 29 44 76 45
REMARK SMILES IDX 30 46 81 47 75 48 77 49 31 50 80 51 74 52 73 53 32 55 62 56
REMARK SMILES IDX 43 57 61 58 44 59 47 60 60 61 78 62 45 63 46 64 59 66 79 67
REMARK SMILES IDX 48 68 33 69 34 70 42 71 35 72 41 73 36 74 37 75 38 76 39 77
REMARK SMILES IDX 40 78 63 79 64 80 72 81 65 82 71 83 66 84 67 85 68 86 69 87
REMARK SMILES IDX 70 88 49 89 50 90 58 91 51 92 57 93 52 94 53 95 54 96 55 97
REMARK SMILES IDX 56 98
REMARK H PARENT 7 13 87 25 77 54 47 65
REMARK Flexibility Score: inf
ROOT
ATOM      1  C   UNL     1       3.081  -2.697   9.774  1.00  0.00     0.274 C 
ENDROOT
BRANCH   1   2
ATOM      2  O   UNL     1       2.869  -2.620   8.351  1.00  0.00    -0.462 OA
BRANCH   2   3
ATOM      3  C   UNL     1       3.910  -2.918   7.532  1.00  0.00     0.309 C 
ATOM      4  O   UNL     1       4.997  -3.338   7.918  1.00  0.00    -0.252 OA
BRANCH   3   5
ATOM      5  C   UNL     1       3.615  -2.671   6.052  1.00  0.00     0.111 C 
ATOM      6  C   UNL     1       2.418  -1.802   5.703  1.00  0.00     0.093 C 
ATOM      7  C   UNL     1       1.077  -2.447   6.032  1.00  0.00     0.014 C 
ATOM      8  C   UNL     1       0.906  -3.793   5.329  1.00  0.00     0.001 C 
ATOM      9  C   UNL     1       3.542  -3.929   5.185  1.00  0.00     0.016 C 
ATOM     10  C   UNL     1       2.172  -4.617   5.072  1.00  0.00     0.001 C 
BRANCH   6  11
ATOM     11  C   UNL     1       2.607  -0.387   6.184  1.00  0.00     0.228 C 
ATOM     12  N   UNL     1       2.181   0.671   5.451  1.00  0.00    -0.322 N 
ATOM     13  H   UNL     1       2.356   1.531   5.896  1.00  0.00     0.170 HD
ATOM     14  O   UNL     1       3.110  -0.125   7.280  1.00  0.00    -0.274 OA
BRANCH  12  15
ATOM     15  C   UNL     1       1.558   0.827   4.226  1.00  0.00     0.092 A 
ATOM     16  N   UNL     1       0.517   0.797   2.299  1.00  0.00    -0.258 N 
ATOM     17  N   UNL     1       0.199   1.999   2.814  1.00  0.00    -0.178 NA
ATOM     18  C   UNL     1       1.459   0.092   3.040  1.00  0.00     0.150 A 
ATOM     19  C   UNL     1       0.841   2.020   3.970  1.00  0.00     0.162 A 
BRANCH  16  20
ATOM     20  C   UNL     1      -0.135   0.463   1.048  1.00  0.00     0.142 C 
ATOM     21  C   UNL     1       0.610   0.988  -0.163  1.00  0.00     0.029 C 
ENDBRANCH  16  20
BRANCH  18  22
ATOM     22  C   UNL     1       2.267  -0.998   2.495  1.00  0.00     0.276 C 
ATOM     23  O   UNL     1       3.494  -0.932   2.409  1.00  0.00    -0.267 OA
ATOM     24  N   UNL     1       1.595  -2.159   2.175  1.00  0.00    -0.318 N 
ATOM     25  H   UNL     1       1.310  -2.748   2.911  1.00  0.00     0.170 HD
BRANCH  24  26
ATOM     26  C   UNL     1       1.298  -2.542   0.884  1.00  0.00     0.082 A 
ATOM     27  C   UNL     1       1.820  -2.081  -0.338  1.00  0.00     0.161 A 
ATOM     28  C   UNL     1       0.269  -3.398   0.538  1.00  0.00     0.059 A 
ATOM     29  N   UNL     1       1.057  -2.440  -1.372  1.00  0.00    -0.179 NA
ATOM     30  N   UNL     1       0.079  -3.177  -0.809  1.00  0.00    -0.271 N 
ATOM     31  C   UNL     1      -0.635  -4.257   1.348  1.00  0.00     0.068 C 
ATOM     32  C   UNL     1      -1.141  -3.386  -1.560  1.00  0.00     0.174 C 
ENDBRANCH  24  26
ENDBRANCH  18  22
ENDBRANCH  12  15
ENDBRANCH   6  11
ENDBRANCH   3   5
ENDBRANCH   2   3
ENDBRANCH   1   2
BRANCH   1  33
ATOM     33  C   UNL     1       2.669  -4.044  10.361  1.00  0.00     0.275 C 
BRANCH  33  34
ATOM     34  O   UNL     1       3.539  -5.088   9.928  1.00  0.00    -0.458 OA
BRANCH  34  35
ATOM     35  C   UNL     1       3.163  -5.616   8.743  1.00  0.00     0.338 C 
ATOM     36  O   UNL     1       2.240  -5.249   8.036  1.00  0.00    -0.246 OA
BRANCH  35  37
ATOM     37  C   UNL     1       3.931  -6.819   8.448  1.00  0.00     0.060 A 
ATOM     38  C   UNL     1       4.112  -7.171   7.105  1.00  0.00     0.016 A 
ATOM     39  C   UNL     1       4.149  -7.720   9.487  1.00  0.00     0.016 A 
ATOM     40  C   UNL     1       4.345  -8.483   6.773  1.00  0.00     0.010 A 
ATOM     41  C   UNL     1       4.376  -9.034   9.159  1.00  0.00     0.010 A 
ATOM     42  C   UNL     1       4.389  -9.407   7.807  1.00  0.00    -0.014 A 
BRANCH  42  43
ATOM     43  C   UNL     1       4.487 -10.813   7.467  1.00  0.00     0.031 A 
ATOM     44  C   UNL     1       5.846 -11.263   7.069  1.00  0.00     0.074 A 
ATOM     45  C   UNL     1       3.440 -11.609   7.766  1.00  0.00     0.049 A 
ATOM     46  N   UNL     1       6.188 -12.100   6.145  1.00  0.00    -0.248 NA
ATOM     47  C   UNL     1       6.990 -10.620   7.748  1.00  0.00     0.031 C 
ATOM     48  C   UNL     1       2.186 -11.190   8.412  1.00  0.00     0.029 A 
ATOM     49  N   UNL     1       3.357 -12.968   7.777  1.00  0.00    -0.354 N 
ATOM     50  C   UNL     1       7.569 -12.239   6.266  1.00  0.00     0.074 A 
ATOM     51  C   UNL     1       8.024 -11.199   7.149  1.00  0.00     0.031 C 
ATOM     52  C   UNL     1       1.631 -12.259   9.015  1.00  0.00     0.029 A 
ATOM     53  C   UNL     1       2.437 -13.431   8.716  1.00  0.00     0.049 A 
ATOM     54  H   UNL     1       3.885 -13.555   7.190  1.00  0.00     0.167 HD
ATOM     55  C   UNL     1       8.229 -13.354   5.859  1.00  0.00     0.031 A 
ATOM     56  C   UNL     1       2.433 -14.643   9.323  1.00  0.00     0.031 A 
ATOM     57  C   UNL     1       7.495 -14.105   4.883  1.00  0.00     0.049 A 
ATOM     58  C   UNL     1       3.320 -15.541   8.546  1.00  0.00     0.074 A 
ATOM     59  C   UNL     1       7.001 -13.824   3.626  1.00  0.00     0.029 A 
ATOM     60  N   UNL     1       6.859 -15.249   5.302  1.00  0.00    -0.354 N 
ATOM     61  N   UNL     1       3.066 -15.943   7.333  1.00  0.00    -0.248 NA
ATOM     62  C   UNL     1       4.707 -15.684   8.966  1.00  0.00     0.031 C 
ATOM     63  C   UNL     1       5.783 -14.553   3.531  1.00  0.00     0.029 A 
ATOM     64  C   UNL     1       5.615 -15.263   4.722  1.00  0.00     0.049 A 
ATOM     65  H   UNL     1       7.227 -15.933   5.906  1.00  0.00     0.167 HD
ATOM     66  C   UNL     1       4.302 -15.994   6.705  1.00  0.00     0.074 A 
ATOM     67  C   UNL     1       5.278 -15.953   7.789  1.00  0.00     0.031 C 
ATOM     68  C   UNL     1       4.420 -15.775   5.362  1.00  0.00     0.031 A 
BRANCH  55  69
ATOM     69  C   UNL     1       9.357 -13.939   6.669  1.00  0.00    -0.014 A 
ATOM     70  C   UNL     1      10.119 -14.994   6.139  1.00  0.00     0.010 A 
ATOM     71  C   UNL     1       9.506 -13.665   8.049  1.00  0.00     0.010 A 
ATOM     72  C   UNL     1      10.943 -15.772   6.964  1.00  0.00     0.020 A 
ATOM     73  C   UNL     1      10.359 -14.400   8.868  1.00  0.00     0.020 A 
ATOM     74  C   UNL     1      11.040 -15.479   8.327  1.00  0.00     0.054 A 
BRANCH  74  75
ATOM     75  S   UNL     1      11.990 -16.571   9.411  1.00  0.00     0.124 S 
ATOM     76  O   UNL     1      11.154 -17.767   9.432  1.00  0.00    -0.237 OA
ATOM     77  O   UNL     1      13.258 -16.694   8.698  1.00  0.00    -0.237 OA
ATOM     78  O   UNL     1      12.057 -15.829  10.668  1.00  0.00    -0.744 OA
ENDBRANCH  74  75
ENDBRANCH  55  69
BRANCH  56  79
ATOM     79  C   UNL     1       1.975 -14.951  10.702  1.00  0.00    -0.014 A 
ATOM     80  C   UNL     1       1.752 -16.277  11.109  1.00  0.00     0.010 A 
ATOM     81  C   UNL     1       1.966 -13.952  11.701  1.00  0.00     0.010 A 
ATOM     82  C   UNL     1       1.564 -16.595  12.466  1.00  0.00     0.020 A 
ATOM     83  C   UNL     1       1.760 -14.257  13.050  1.00  0.00     0.020 A 
ATOM     84  C   UNL     1       1.580 -15.582  13.429  1.00  0.00     0.054 A 
BRANCH  84  85
ATOM     85  S   UNL     1       1.482 -16.016  15.190  1.00  0.00     0.124 S 
ATOM     86  O   UNL     1       0.098 -16.459  15.323  1.00  0.00    -0.237 OA
ATOM     87  O   UNL     1       2.496 -17.059  15.316  1.00  0.00    -0.237 OA
ATOM     88  O   UNL     1       1.800 -14.762  15.872  1.00  0.00    -0.744 OA
ENDBRANCH  84  85
ENDBRANCH  56  79
BRANCH  68  89
ATOM     89  C   UNL     1       3.160 -15.771   4.524  1.00  0.00    -0.014 A 
ATOM     90  C   UNL     1       2.104 -14.860   4.728  1.00  0.00     0.010 A 
ATOM     91  C   UNL     1       3.113 -16.604   3.392  1.00  0.00     0.010 A 
ATOM     92  C   UNL     1       1.020 -14.803   3.842  1.00  0.00     0.020 A 
ATOM     93  C   UNL     1       2.044 -16.538   2.493  1.00  0.00     0.020 A 
ATOM     94  C   UNL     1       0.998 -15.643   2.727  1.00  0.00     0.054 A 
BRANCH  94  95
ATOM     95  S   UNL     1      -0.374 -15.512   1.547  1.00  0.00     0.124 S 
ATOM     96  O   UNL     1      -1.489 -16.092   2.292  1.00  0.00    -0.237 OA
ATOM     97  O   UNL     1      -0.462 -14.074   1.305  1.00  0.00    -0.237 OA
ATOM     98  O   UNL     1       0.077 -16.297   0.399  1.00  0.00    -0.744 OA
ENDBRANCH  94  95
ENDBRANCH  68  89
ENDBRANCH  42  43
ENDBRANCH  35  37
ENDBRANCH  34  35
ENDBRANCH  33  34
ENDBRANCH   1  33
TORSDOF 19
