REMARK SMILES CC(C)[N@@H+](C)Cc1cc2c(cc1Cl)C=C(C(=O)OCCOC(=O)c1ccc(-c3c4nc(c(-c5ccc(S(=O)(=O)[O-])cc5)c5ccc([nH]5)c(-c5ccc(S(=O)(=O)[O-])cc5)c5nc(c(-c6ccc(S(=O)(=O)[O-])cc6)c6ccc3[nH]6)C=C5)C=C4)cc1)[C@@H](C(F)(F)F)O2
REMARK SMILES IDX 19 1 18 2 16 3 17 4 15 5 7 6 8 7 12 8 9 9 11 10 13 11 10 12
REMARK SMILES IDX 89 13 14 14 84 15 6 16 4 17 5 18 2 20 1 21 3 22 85 23 86 24
REMARK SMILES IDX 87 25 88 26 20 27 21 28 22 29 23 30 24 31 25 32 83 33 26 34
REMARK SMILES IDX 82 35 27 36 28 37 29 38 76 39 30 40 81 41 75 42 77 43 31 44
REMARK SMILES IDX 80 45 74 46 73 47 32 49 62 50 43 51 61 52 44 53 47 54 60 55
REMARK SMILES IDX 78 56 45 57 46 58 59 60 79 61 48 62 33 63 34 64 42 65 35 66
REMARK SMILES IDX 41 67 36 68 37 69 38 70 39 71 40 72 63 73 64 74 72 75 65 76
REMARK SMILES IDX 71 77 66 78 67 79 68 80 69 81 70 82 49 83 50 84 58 85 51 86
REMARK SMILES IDX 57 87 52 88 53 89 54 90 55 91 56 92
REMARK H PARENT 4 19 77 48 47 59
REMARK Flexibility Score: inf
ROOT
ATOM      1  C   UNL     1       2.093  -8.219   6.845  1.00  0.00     0.275 C 
ENDROOT
BRANCH   1   2
ATOM      2  O   UNL     1       1.655  -6.983   6.239  1.00  0.00    -0.459 OA
BRANCH   2   3
ATOM      3  C   UNL     1       1.744  -6.930   4.890  1.00  0.00     0.338 C 
ATOM      4  O   UNL     1       2.191  -7.795   4.153  1.00  0.00    -0.246 OA
BRANCH   3   5
ATOM      5  C   UNL     1       1.144  -5.681   4.389  1.00  0.00     0.087 C 
ATOM      6  C   UNL     1      -1.238  -2.376   1.450  1.00  0.00     0.029 A 
ATOM      7  C   UNL     1      -0.288  -2.260   2.492  1.00  0.00     0.058 A 
ATOM      8  C   UNL     1      -1.875  -3.612   1.271  1.00  0.00     0.050 A 
ATOM      9  C   UNL     1       0.143  -3.378   3.205  1.00  0.00     0.128 A 
ATOM     10  C   UNL     1      -1.428  -4.734   1.963  1.00  0.00     0.033 A 
ATOM     11  Cl  UNL     1      -3.243  -3.831   0.241  1.00  0.00    -0.084 Cl
ATOM     12  C   UNL     1      -0.386  -4.618   2.886  1.00  0.00     0.019 A 
ATOM     13  O   UNL     1       1.108  -3.189   4.154  1.00  0.00    -0.475 OA
ATOM     14  C   UNL     1       0.188  -5.806   3.467  1.00  0.00     0.027 C 
ATOM     15  C   UNL     1       1.670  -4.351   4.843  1.00  0.00     0.316 C 
BRANCH   6  16
ATOM     16  C   UNL     1      -1.488  -1.184   0.552  1.00  0.00     0.300 C 
BRANCH  16  17
ATOM     17  N   UNL     1      -0.784  -1.147  -0.741  1.00  0.00    -0.332 N 
ATOM     18  C   UNL     1      -1.336  -2.041  -1.755  1.00  0.00     0.333 C 
ATOM     19  H   UNL     1      -1.017  -0.185  -0.988  1.00  0.00     0.348 HD
BRANCH  17  20
ATOM     20  C   UNL     1       0.684  -1.077  -0.789  1.00  0.00     0.177 C 
ATOM     21  C   UNL     1       1.227   0.137  -0.031  1.00  0.00     0.075 C 
ATOM     22  C   UNL     1       1.458  -2.345  -0.405  1.00  0.00     0.075 C 
ENDBRANCH  17  20
ENDBRANCH  16  17
ENDBRANCH   6  16
BRANCH  15  23
ATOM     23  C   UNL     1       3.201  -4.273   4.720  1.00  0.00     0.430 C 
ATOM     24  F   UNL     1       3.666  -3.075   5.151  1.00  0.00    -0.167 F 
ATOM     25  F   UNL     1       3.816  -5.214   5.476  1.00  0.00    -0.167 F 
ATOM     26  F   UNL     1       3.622  -4.436   3.446  1.00  0.00    -0.167 F 
ENDBRANCH  15  23
ENDBRANCH   3   5
ENDBRANCH   2   3
ENDBRANCH   1   2
BRANCH   1  27
ATOM     27  C   UNL     1       0.903  -9.049   7.327  1.00  0.00     0.275 C 
BRANCH  27  28
ATOM     28  O   UNL     1       0.170  -9.577   6.208  1.00  0.00    -0.458 OA
BRANCH  28  29
ATOM     29  C   UNL     1      -1.000  -8.957   5.935  1.00  0.00     0.338 C 
ATOM     30  O   UNL     1      -1.508  -8.031   6.543  1.00  0.00    -0.246 OA
BRANCH  29  31
ATOM     31  C   UNL     1      -1.562  -9.499   4.689  1.00  0.00     0.060 A 
ATOM     32  C   UNL     1      -2.735 -10.243   4.678  1.00  0.00     0.016 A 
ATOM     33  C   UNL     1      -0.975  -9.112   3.492  1.00  0.00     0.016 A 
ATOM     34  C   UNL     1      -3.301 -10.602   3.446  1.00  0.00     0.010 A 
ATOM     35  C   UNL     1      -1.642  -9.301   2.288  1.00  0.00     0.010 A 
ATOM     36  C   UNL     1      -2.788 -10.098   2.232  1.00  0.00    -0.014 A 
BRANCH  36  37
ATOM     37  C   UNL     1      -3.398 -10.426   0.906  1.00  0.00     0.031 A 
ATOM     38  C   UNL     1      -2.541 -10.980  -0.216  1.00  0.00     0.074 A 
ATOM     39  C   UNL     1      -4.709 -10.195   0.682  1.00  0.00     0.049 A 
ATOM     40  N   UNL     1      -2.881 -11.270  -1.447  1.00  0.00    -0.248 NA
ATOM     41  C   UNL     1      -1.108 -11.198   0.060  1.00  0.00     0.031 C 
ATOM     42  C   UNL     1      -5.640  -9.599   1.644  1.00  0.00     0.029 A 
ATOM     43  N   UNL     1      -5.496 -10.448  -0.417  1.00  0.00    -0.354 N 
ATOM     44  C   UNL     1      -1.708 -11.662  -2.086  1.00  0.00     0.074 A 
ATOM     45  C   UNL     1      -0.633 -11.494  -1.140  1.00  0.00     0.031 C 
ATOM     46  C   UNL     1      -6.878  -9.613   1.129  1.00  0.00     0.029 A 
ATOM     47  C   UNL     1      -6.829 -10.156  -0.226  1.00  0.00     0.049 A 
ATOM     48  H   UNL     1      -5.140 -10.805  -1.263  1.00  0.00     0.167 HD
ATOM     49  C   UNL     1      -1.540 -12.170  -3.329  1.00  0.00     0.031 A 
ATOM     50  C   UNL     1      -7.897 -10.314  -1.035  1.00  0.00     0.031 A 
ATOM     51  C   UNL     1      -2.623 -12.419  -4.240  1.00  0.00     0.049 A 
ATOM     52  C   UNL     1      -7.699 -10.914  -2.401  1.00  0.00     0.074 A 
ATOM     53  C   UNL     1      -2.568 -13.011  -5.489  1.00  0.00     0.029 A 
ATOM     54  N   UNL     1      -3.954 -12.118  -3.994  1.00  0.00    -0.354 N 
ATOM     55  N   UNL     1      -6.588 -11.335  -2.956  1.00  0.00    -0.248 NA
ATOM     56  C   UNL     1      -8.891 -11.069  -3.247  1.00  0.00     0.031 C 
ATOM     57  C   UNL     1      -3.856 -13.015  -6.023  1.00  0.00     0.029 A 
ATOM     58  C   UNL     1      -4.726 -12.495  -5.077  1.00  0.00     0.049 A 
ATOM     59  H   UNL     1      -4.297 -11.700  -3.171  1.00  0.00     0.167 HD
ATOM     60  C   UNL     1      -6.949 -11.822  -4.207  1.00  0.00     0.074 A 
ATOM     61  C   UNL     1      -8.383 -11.660  -4.323  1.00  0.00     0.031 C 
ATOM     62  C   UNL     1      -6.158 -12.348  -5.173  1.00  0.00     0.031 A 
BRANCH  49  63
ATOM     63  C   UNL     1      -0.150 -12.561  -3.770  1.00  0.00    -0.014 A 
ATOM     64  C   UNL     1       0.448 -11.919  -4.870  1.00  0.00     0.010 A 
ATOM     65  C   UNL     1       0.515 -13.649  -3.175  1.00  0.00     0.010 A 
ATOM     66  C   UNL     1       1.664 -12.376  -5.388  1.00  0.00     0.020 A 
ATOM     67  C   UNL     1       1.749 -14.086  -3.665  1.00  0.00     0.020 A 
ATOM     68  C   UNL     1       2.302 -13.464  -4.786  1.00  0.00     0.054 A 
BRANCH  68  69
ATOM     69  S   UNL     1       3.860 -14.070  -5.490  1.00  0.00     0.124 S 
ATOM     70  O   UNL     1       3.407 -14.758  -6.694  1.00  0.00    -0.237 OA
ATOM     71  O   UNL     1       4.612 -12.837  -5.711  1.00  0.00    -0.237 OA
ATOM     72  O   UNL     1       4.396 -14.935  -4.440  1.00  0.00    -0.744 OA
ENDBRANCH  68  69
ENDBRANCH  49  63
BRANCH  50  73
ATOM     73  C   UNL     1      -9.254  -9.959  -0.527  1.00  0.00    -0.014 A 
ATOM     74  C   UNL     1      -9.594  -8.621  -0.251  1.00  0.00     0.010 A 
ATOM     75  C   UNL     1     -10.181 -10.972  -0.220  1.00  0.00     0.010 A 
ATOM     76  C   UNL     1     -10.800  -8.309   0.383  1.00  0.00     0.020 A 
ATOM     77  C   UNL     1     -11.404 -10.661   0.385  1.00  0.00     0.020 A 
ATOM     78  C   UNL     1     -11.690  -9.335   0.713  1.00  0.00     0.054 A 
BRANCH  78  79
ATOM     79  S   UNL     1     -13.215  -8.914   1.603  1.00  0.00     0.124 S 
ATOM     80  O   UNL     1     -12.711  -8.642   2.947  1.00  0.00    -0.237 OA
ATOM     81  O   UNL     1     -13.705  -7.752   0.867  1.00  0.00    -0.237 OA
ATOM     82  O   UNL     1     -14.031 -10.119   1.474  1.00  0.00    -0.744 OA
ENDBRANCH  78  79
ENDBRANCH  50  73
BRANCH  62  83
ATOM     83  C   UNL     1      -6.791 -12.808  -6.459  1.00  0.00    -0.014 A 
ATOM     84  C   UNL     1      -6.773 -14.177  -6.790  1.00  0.00     0.010 A 
ATOM     85  C   UNL     1      -7.212 -11.874  -7.420  1.00  0.00     0.010 A 
ATOM     86  C   UNL     1      -7.101 -14.598  -8.080  1.00  0.00     0.020 A 
ATOM     87  C   UNL     1      -7.571 -12.295  -8.704  1.00  0.00     0.020 A 
ATOM     88  C   UNL     1      -7.479 -13.650  -9.035  1.00  0.00     0.054 A 
BRANCH  88  89
ATOM     89  S   UNL     1      -7.808 -14.205 -10.730  1.00  0.00     0.124 S 
ATOM     90  O   UNL     1      -6.465 -14.493 -11.225  1.00  0.00    -0.237 OA
ATOM     91  O   UNL     1      -8.667 -15.368 -10.524  1.00  0.00    -0.237 OA
ATOM     92  O   UNL     1      -8.466 -13.055 -11.346  1.00  0.00    -0.744 OA
ENDBRANCH  88  89
ENDBRANCH  62  83
ENDBRANCH  36  37
ENDBRANCH  29  31
ENDBRANCH  28  29
ENDBRANCH  27  28
ENDBRANCH   1  27
TORSDOF 18
