REMARK SMILES CN1C(=O)C[C@@H](C(=O)OCCOC(=O)c2ccc(-c3c4nc(c(-c5ccc(S(=O)(=O)[O-])cc5)c5ccc([nH]5)c(-c5ccc(S(=O)(=O)[O-])cc5)c5nc(c(-c6ccc(S(=O)(=O)[O-])cc6)c6ccc3[nH]6)C=C5)C=C4)cc2)C12CCN(c1ccc(Cl)cn1)CC2
REMARK SMILES IDX 11 1 10 2 9 3 7 4 8 5 6 6 1 7 2 8 3 9 75 10 4 11 5 12 76 13
REMARK SMILES IDX 87 14 77 15 86 16 78 17 79 18 80 19 85 20 81 21 84 22 82 23
REMARK SMILES IDX 83 24 12 25 13 26 14 27 15 28 16 29 74 30 17 31 73 32 18 33
REMARK SMILES IDX 19 34 20 35 67 36 21 37 72 38 66 39 68 40 22 41 71 42 65 43
REMARK SMILES IDX 64 44 23 46 53 47 34 48 52 49 35 50 38 51 51 52 69 53 36 54
REMARK SMILES IDX 37 55 50 57 70 58 39 59 24 60 25 61 33 62 26 63 32 64 27 65
REMARK SMILES IDX 28 66 29 67 30 68 31 69 54 70 55 71 63 72 56 73 62 74 57 75
REMARK SMILES IDX 58 76 59 77 60 78 61 79 40 80 41 81 49 82 42 83 48 84 43 85
REMARK SMILES IDX 44 86 45 87 46 88 47 89
REMARK H PARENT 68 45 38 56
REMARK Flexibility Score: inf
ROOT
ATOM      1  C   UNL     1      -4.379  -0.981   3.702  1.00  0.00     0.275 C 
ENDROOT
BRANCH   1   2
ATOM      2  C   UNL     1      -2.903  -0.746   4.027  1.00  0.00     0.274 C 
BRANCH   2   3
ATOM      3  O   UNL     1      -2.050  -0.998   2.889  1.00  0.00    -0.462 OA
BRANCH   3   4
ATOM      4  C   UNL     1      -1.581  -2.261   2.803  1.00  0.00     0.311 C 
ATOM      5  O   UNL     1      -1.821  -3.133   3.636  1.00  0.00    -0.252 OA
BRANCH   4   6
ATOM      6  C   UNL     1      -0.672  -2.566   1.626  1.00  0.00     0.134 C 
ATOM      7  C   UNL     1       1.248   0.356   0.285  1.00  0.00     0.147 C 
ATOM      8  N   UNL     1       0.757  -0.856   0.913  1.00  0.00    -0.339 N 
ATOM      9  C   UNL     1       1.433  -1.485   1.942  1.00  0.00     0.223 C 
ATOM     10  C   UNL     1      -0.412  -1.614   0.426  1.00  0.00     0.060 C 
ATOM     11  O   UNL     1       2.453  -1.099   2.491  1.00  0.00    -0.275 OA
ATOM     12  C   UNL     1       0.723  -2.771   2.251  1.00  0.00     0.118 C 
ATOM     13  C   UNL     1      -1.554  -0.668  -0.009  1.00  0.00     0.051 C 
ATOM     14  C   UNL     1       0.045  -2.484  -0.806  1.00  0.00     0.051 C 
ATOM     15  C   UNL     1      -2.642  -1.358  -0.814  1.00  0.00     0.120 C 
ATOM     16  C   UNL     1      -1.105  -3.066  -1.645  1.00  0.00     0.120 C 
ATOM     17  N   UNL     1      -2.008  -1.976  -1.969  1.00  0.00    -0.356 N 
BRANCH  17  18
ATOM     18  C   UNL     1      -2.814  -2.089  -3.095  1.00  0.00     0.128 A 
ATOM     19  C   UNL     1      -3.226  -0.919  -3.745  1.00  0.00     0.048 A 
ATOM     20  N   UNL     1      -3.195  -3.304  -3.537  1.00  0.00    -0.238 NA
ATOM     21  C   UNL     1      -4.087  -0.985  -4.838  1.00  0.00     0.026 A 
ATOM     22  C   UNL     1      -4.038  -3.346  -4.606  1.00  0.00     0.134 A 
ATOM     23  C   UNL     1      -4.518  -2.228  -5.267  1.00  0.00     0.059 A 
ATOM     24  Cl  UNL     1      -5.624  -2.363  -6.567  1.00  0.00    -0.083 Cl
ENDBRANCH  17  18
ENDBRANCH   4   6
ENDBRANCH   3   4
ENDBRANCH   2   3
ENDBRANCH   1   2
BRANCH   1  25
ATOM     25  O   UNL     1      -4.589  -2.299   3.159  1.00  0.00    -0.458 OA
BRANCH  25  26
ATOM     26  C   UNL     1      -4.953  -2.329   1.857  1.00  0.00     0.338 C 
ATOM     27  O   UNL     1      -5.149  -1.365   1.134  1.00  0.00    -0.246 OA
BRANCH  26  28
ATOM     28  C   UNL     1      -5.082  -3.714   1.367  1.00  0.00     0.060 A 
ATOM     29  C   UNL     1      -4.007  -4.606   1.401  1.00  0.00     0.016 A 
ATOM     30  C   UNL     1      -6.266  -4.072   0.723  1.00  0.00     0.016 A 
ATOM     31  C   UNL     1      -4.095  -5.836   0.743  1.00  0.00     0.010 A 
ATOM     32  C   UNL     1      -6.378  -5.332   0.133  1.00  0.00     0.010 A 
ATOM     33  C   UNL     1      -5.290  -6.220   0.118  1.00  0.00    -0.014 A 
BRANCH  33  34
ATOM     34  C   UNL     1      -5.451  -7.548  -0.532  1.00  0.00     0.031 A 
ATOM     35  C   UNL     1      -5.784  -7.638  -1.997  1.00  0.00     0.074 A 
ATOM     36  C   UNL     1      -5.400  -8.671   0.213  1.00  0.00     0.049 A 
ATOM     37  N   UNL     1      -6.244  -8.656  -2.679  1.00  0.00    -0.248 NA
ATOM     38  C   UNL     1      -5.588  -6.417  -2.796  1.00  0.00     0.031 C 
ATOM     39  C   UNL     1      -5.051  -8.735   1.633  1.00  0.00     0.029 A 
ATOM     40  N   UNL     1      -5.685  -9.973  -0.118  1.00  0.00    -0.354 N 
ATOM     41  C   UNL     1      -6.423  -8.194  -3.978  1.00  0.00     0.074 A 
ATOM     42  C   UNL     1      -6.037  -6.799  -3.985  1.00  0.00     0.031 C 
ATOM     43  C   UNL     1      -5.163 -10.003   2.057  1.00  0.00     0.029 A 
ATOM     44  C   UNL     1      -5.664 -10.826   0.961  1.00  0.00     0.049 A 
ATOM     45  H   UNL     1      -5.885 -10.268  -1.036  1.00  0.00     0.167 HD
ATOM     46  C   UNL     1      -6.869  -8.870  -5.064  1.00  0.00     0.031 A 
ATOM     47  C   UNL     1      -6.063 -12.107   1.080  1.00  0.00     0.031 A 
ATOM     48  C   UNL     1      -7.256 -10.257  -5.050  1.00  0.00     0.049 A 
ATOM     49  C   UNL     1      -6.632 -12.817  -0.116  1.00  0.00     0.074 A 
ATOM     50  C   UNL     1      -7.734 -11.028  -6.095  1.00  0.00     0.029 A 
ATOM     51  N   UNL     1      -7.201 -11.082  -3.937  1.00  0.00    -0.354 N 
ATOM     52  N   UNL     1      -6.823 -12.359  -1.330  1.00  0.00    -0.248 NA
ATOM     53  C   UNL     1      -7.041 -14.216   0.074  1.00  0.00     0.031 C 
ATOM     54  C   UNL     1      -8.007 -12.309  -5.605  1.00  0.00     0.029 A 
ATOM     55  C   UNL     1      -7.646 -12.350  -4.268  1.00  0.00     0.049 A 
ATOM     56  H   UNL     1      -6.893 -10.806  -3.044  1.00  0.00     0.167 HD
ATOM     57  C   UNL     1      -7.343 -13.425  -2.056  1.00  0.00     0.074 A 
ATOM     58  C   UNL     1      -7.433 -14.549  -1.149  1.00  0.00     0.031 C 
ATOM     59  C   UNL     1      -7.708 -13.467  -3.360  1.00  0.00     0.031 A 
BRANCH  46  60
ATOM     60  C   UNL     1      -6.991  -8.117  -6.364  1.00  0.00    -0.014 A 
ATOM     61  C   UNL     1      -5.852  -7.774  -7.113  1.00  0.00     0.010 A 
ATOM     62  C   UNL     1      -8.265  -7.819  -6.880  1.00  0.00     0.010 A 
ATOM     63  C   UNL     1      -5.985  -7.127  -8.346  1.00  0.00     0.020 A 
ATOM     64  C   UNL     1      -8.404  -7.193  -8.123  1.00  0.00     0.020 A 
ATOM     65  C   UNL     1      -7.261  -6.841  -8.844  1.00  0.00     0.054 A 
BRANCH  65  66
ATOM     66  S   UNL     1      -7.405  -6.050 -10.470  1.00  0.00     0.124 S 
ATOM     67  O   UNL     1      -6.975  -4.684 -10.181  1.00  0.00    -0.237 OA
ATOM     68  O   UNL     1      -6.489  -6.835 -11.292  1.00  0.00    -0.237 OA
ATOM     69  O   UNL     1      -8.820  -6.199 -10.805  1.00  0.00    -0.744 OA
ENDBRANCH  65  66
ENDBRANCH  46  60
BRANCH  47  70
ATOM     70  C   UNL     1      -5.991 -12.782   2.404  1.00  0.00    -0.014 A 
ATOM     71  C   UNL     1      -5.064 -13.813   2.633  1.00  0.00     0.010 A 
ATOM     72  C   UNL     1      -6.851 -12.388   3.447  1.00  0.00     0.010 A 
ATOM     73  C   UNL     1      -5.014 -14.454   3.874  1.00  0.00     0.020 A 
ATOM     74  C   UNL     1      -6.782 -13.006   4.698  1.00  0.00     0.020 A 
ATOM     75  C   UNL     1      -5.874 -14.047   4.898  1.00  0.00     0.054 A 
BRANCH  75  76
ATOM     76  S   UNL     1      -5.768 -14.866   6.513  1.00  0.00     0.124 S 
ATOM     77  O   UNL     1      -6.453 -16.129   6.256  1.00  0.00    -0.237 OA
ATOM     78  O   UNL     1      -4.325 -14.960   6.728  1.00  0.00    -0.237 OA
ATOM     79  O   UNL     1      -6.463 -13.945   7.409  1.00  0.00    -0.744 OA
ENDBRANCH  75  76
ENDBRANCH  47  70
BRANCH  59  80
ATOM     80  C   UNL     1      -8.174 -14.786  -3.912  1.00  0.00    -0.014 A 
ATOM     81  C   UNL     1      -9.453 -15.290  -3.624  1.00  0.00     0.010 A 
ATOM     82  C   UNL     1      -7.338 -15.493  -4.796  1.00  0.00     0.010 A 
ATOM     83  C   UNL     1      -9.883 -16.489  -4.200  1.00  0.00     0.020 A 
ATOM     84  C   UNL     1      -7.772 -16.680  -5.390  1.00  0.00     0.020 A 
ATOM     85  C   UNL     1      -9.040 -17.175  -5.081  1.00  0.00     0.054 A 
BRANCH  85  86
ATOM     86  S   UNL     1      -9.646 -18.693  -5.869  1.00  0.00     0.124 S 
ATOM     87  O   UNL     1      -9.564 -19.657  -4.776  1.00  0.00    -0.237 OA
ATOM     88  O   UNL     1     -10.998 -18.324  -6.282  1.00  0.00    -0.237 OA
ATOM     89  O   UNL     1      -8.706 -18.913  -6.966  1.00  0.00    -0.744 OA
ENDBRANCH  85  86
ENDBRANCH  59  80
ENDBRANCH  33  34
ENDBRANCH  26  28
ENDBRANCH  25  26
ENDBRANCH   1  25
TORSDOF 15
