REMARK SMILES Cc1ccc2c(c1)C=C(C(=O)OCCOC(=O)c1ccc(-c3c4nc(c(-c5ccc(S(=O)(=O)[O-])cc5)c5ccc([nH]5)c(-c5ccc(S(=O)(=O)[O-])cc5)c5nc(c(-c6ccc(S(=O)(=O)[O-])cc6)c6ccc3[nH]6)C=C5)C=C4)cc1)[C@@H](C(F)(F)F)O2
REMARK SMILES IDX 14 1 13 2 12 3 10 4 11 5 9 6 1 7 2 8 3 9 7 10 4 11 6 12 5 13
REMARK SMILES IDX 8 14 83 15 78 16 79 17 80 18 81 19 82 20 15 21 16 22 17 23
REMARK SMILES IDX 18 24 19 25 77 26 20 27 76 28 21 29 22 30 23 31 70 32 24 33
REMARK SMILES IDX 75 34 69 35 71 36 25 37 74 38 68 39 67 40 26 42 56 43 37 44
REMARK SMILES IDX 55 45 38 46 41 47 54 48 72 49 39 50 40 51 53 53 73 54 42 55
REMARK SMILES IDX 27 56 28 57 36 58 29 59 35 60 30 61 31 62 32 63 33 64 34 65
REMARK SMILES IDX 57 66 58 67 66 68 59 69 65 70 60 71 61 72 62 73 63 74 64 75
REMARK SMILES IDX 43 76 44 77 52 78 45 79 51 80 46 81 47 82 48 83 49 84 50 85
REMARK H PARENT 71 41 41 52
REMARK Flexibility Score: inf
ROOT
ATOM      1  C   UNL     1       3.235   9.592   0.252  1.00  0.00     0.275 C 
ENDROOT
BRANCH   1   2
ATOM      2  C   UNL     1       1.710   9.540   0.338  1.00  0.00     0.275 C 
BRANCH   2   3
ATOM      3  O   UNL     1       1.260   8.309   0.945  1.00  0.00    -0.459 OA
BRANCH   3   4
ATOM      4  C   UNL     1       0.766   7.387   0.087  1.00  0.00     0.338 C 
ATOM      5  O   UNL     1       0.644   7.510  -1.122  1.00  0.00    -0.246 OA
BRANCH   4   6
ATOM      6  C   UNL     1       0.390   6.157   0.805  1.00  0.00     0.087 C 
ATOM      7  C   UNL     1       0.754   0.037   0.321  1.00  0.00     0.044 C 
ATOM      8  C   UNL     1       0.321   1.339   0.928  1.00  0.00    -0.050 A 
ATOM      9  C   UNL     1      -0.611   1.390   1.969  1.00  0.00     0.007 A 
ATOM     10  C   UNL     1       0.824   2.539   0.415  1.00  0.00     0.015 A 
ATOM     11  C   UNL     1      -1.020   2.620   2.499  1.00  0.00     0.047 A 
ATOM     12  C   UNL     1       0.399   3.768   0.933  1.00  0.00     0.017 A 
ATOM     13  C   UNL     1      -0.520   3.812   1.978  1.00  0.00     0.128 A 
ATOM     14  C   UNL     1       0.880   5.001   0.350  1.00  0.00     0.027 C 
ATOM     15  O   UNL     1      -0.968   4.974   2.543  1.00  0.00    -0.475 OA
ATOM     16  C   UNL     1      -0.624   6.241   1.909  1.00  0.00     0.316 C 
BRANCH  16  17
ATOM     17  C   UNL     1      -1.917   6.926   1.438  1.00  0.00     0.430 C 
ATOM     18  F   UNL     1      -2.832   6.988   2.438  1.00  0.00    -0.167 F 
ATOM     19  F   UNL     1      -1.691   8.205   1.052  1.00  0.00    -0.167 F 
ATOM     20  F   UNL     1      -2.495   6.283   0.400  1.00  0.00    -0.167 F 
ENDBRANCH  16  17
ENDBRANCH   4   6
ENDBRANCH   3   4
ENDBRANCH   2   3
ENDBRANCH   1   2
BRANCH   1  21
ATOM     21  O   UNL     1       3.713   8.629  -0.703  1.00  0.00    -0.458 OA
BRANCH  21  22
ATOM     22  C   UNL     1       4.293   7.527  -0.177  1.00  0.00     0.338 C 
ATOM     23  O   UNL     1       4.494   7.282   1.000  1.00  0.00    -0.246 OA
BRANCH  22  24
ATOM     24  C   UNL     1       4.607   6.583  -1.259  1.00  0.00     0.060 A 
ATOM     25  C   UNL     1       5.925   6.257  -1.565  1.00  0.00     0.016 A 
ATOM     26  C   UNL     1       3.560   5.914  -1.883  1.00  0.00     0.016 A 
ATOM     27  C   UNL     1       6.177   5.260  -2.515  1.00  0.00     0.010 A 
ATOM     28  C   UNL     1       3.813   4.824  -2.706  1.00  0.00     0.010 A 
ATOM     29  C   UNL     1       5.125   4.502  -3.067  1.00  0.00    -0.014 A 
BRANCH  29  30
ATOM     30  C   UNL     1       5.367   3.392  -4.034  1.00  0.00     0.031 A 
ATOM     31  C   UNL     1       4.690   3.401  -5.387  1.00  0.00     0.074 A 
ATOM     32  C   UNL     1       6.154   2.352  -3.685  1.00  0.00     0.049 A 
ATOM     33  N   UNL     1       4.723   2.491  -6.328  1.00  0.00    -0.248 NA
ATOM     34  C   UNL     1       3.838   4.558  -5.715  1.00  0.00     0.031 C 
ATOM     35  C   UNL     1       6.821   2.193  -2.390  1.00  0.00     0.029 A 
ATOM     36  N   UNL     1       6.541   1.237  -4.390  1.00  0.00    -0.354 N 
ATOM     37  C   UNL     1       3.882   2.956  -7.335  1.00  0.00     0.074 A 
ATOM     38  C   UNL     1       3.297   4.189  -6.867  1.00  0.00     0.031 C 
ATOM     39  C   UNL     1       7.591   1.096  -2.421  1.00  0.00     0.029 A 
ATOM     40  C   UNL     1       7.430   0.433  -3.712  1.00  0.00     0.049 A 
ATOM     41  H   UNL     1       6.213   1.033  -5.295  1.00  0.00     0.167 HD
ATOM     42  C   UNL     1       3.654   2.430  -8.560  1.00  0.00     0.031 A 
ATOM     43  C   UNL     1       8.055  -0.703  -4.084  1.00  0.00     0.031 A 
ATOM     44  C   UNL     1       4.296   1.241  -9.051  1.00  0.00     0.049 A 
ATOM     45  C   UNL     1       7.800  -1.262  -5.456  1.00  0.00     0.074 A 
ATOM     46  C   UNL     1       4.183   0.666 -10.304  1.00  0.00     0.029 A 
ATOM     47  N   UNL     1       5.188   0.465  -8.328  1.00  0.00    -0.354 N 
ATOM     48  N   UNL     1       7.035  -0.779  -6.406  1.00  0.00    -0.248 NA
ATOM     49  C   UNL     1       8.486  -2.512  -5.813  1.00  0.00     0.031 C 
ATOM     50  C   UNL     1       4.967  -0.487 -10.323  1.00  0.00     0.029 A 
ATOM     51  C   UNL     1       5.621  -0.594  -9.105  1.00  0.00     0.049 A 
ATOM     52  H   UNL     1       5.470   0.640  -7.402  1.00  0.00     0.167 HD
ATOM     53  C   UNL     1       7.164  -1.654  -7.478  1.00  0.00     0.074 A 
ATOM     54  C   UNL     1       8.090  -2.689  -7.068  1.00  0.00     0.031 C 
ATOM     55  C   UNL     1       6.561  -1.604  -8.690  1.00  0.00     0.031 A 
BRANCH  42  56
ATOM     56  C   UNL     1       2.723   3.157  -9.499  1.00  0.00    -0.014 A 
ATOM     57  C   UNL     1       1.530   2.544  -9.925  1.00  0.00     0.010 A 
ATOM     58  C   UNL     1       3.101   4.385 -10.072  1.00  0.00     0.010 A 
ATOM     59  C   UNL     1       0.754   3.124 -10.934  1.00  0.00     0.020 A 
ATOM     60  C   UNL     1       2.311   4.984 -11.056  1.00  0.00     0.020 A 
ATOM     61  C   UNL     1       1.158   4.335 -11.502  1.00  0.00     0.054 A 
BRANCH  61  62
ATOM     62  S   UNL     1       0.171   5.048 -12.846  1.00  0.00     0.124 S 
ATOM     63  O   UNL     1       0.511   4.184 -13.971  1.00  0.00    -0.237 OA
ATOM     64  O   UNL     1      -1.195   4.921 -12.342  1.00  0.00    -0.237 OA
ATOM     65  O   UNL     1       0.663   6.421 -12.940  1.00  0.00    -0.744 OA
ENDBRANCH  61  62
ENDBRANCH  42  56
BRANCH  43  66
ATOM     66  C   UNL     1       9.030  -1.341  -3.154  1.00  0.00    -0.014 A 
ATOM     67  C   UNL     1       8.602  -1.923  -1.946  1.00  0.00     0.010 A 
ATOM     68  C   UNL     1      10.408  -1.293  -3.435  1.00  0.00     0.010 A 
ATOM     69  C   UNL     1       9.533  -2.394  -1.014  1.00  0.00     0.020 A 
ATOM     70  C   UNL     1      11.341  -1.792  -2.519  1.00  0.00     0.020 A 
ATOM     71  C   UNL     1      10.898  -2.312  -1.302  1.00  0.00     0.054 A 
BRANCH  71  72
ATOM     72  S   UNL     1      12.089  -2.884  -0.058  1.00  0.00     0.124 S 
ATOM     73  O   UNL     1      12.065  -1.787   0.906  1.00  0.00    -0.237 OA
ATOM     74  O   UNL     1      11.496  -4.138   0.400  1.00  0.00    -0.237 OA
ATOM     75  O   UNL     1      13.331  -3.026  -0.814  1.00  0.00    -0.744 OA
ENDBRANCH  71  72
ENDBRANCH  43  66
BRANCH  55  76
ATOM     76  C   UNL     1       6.865  -2.682  -9.695  1.00  0.00    -0.014 A 
ATOM     77  C   UNL     1       7.567  -2.354 -10.871  1.00  0.00     0.010 A 
ATOM     78  C   UNL     1       6.276  -3.951  -9.575  1.00  0.00     0.010 A 
ATOM     79  C   UNL     1       7.617  -3.254 -11.938  1.00  0.00     0.020 A 
ATOM     80  C   UNL     1       6.348  -4.864 -10.630  1.00  0.00     0.020 A 
ATOM     81  C   UNL     1       6.986  -4.495 -11.817  1.00  0.00     0.054 A 
BRANCH  81  82
ATOM     82  S   UNL     1       6.971  -5.607 -13.249  1.00  0.00     0.124 S 
ATOM     83  O   UNL     1       6.000  -4.963 -14.129  1.00  0.00    -0.237 OA
ATOM     84  O   UNL     1       8.359  -5.564 -13.703  1.00  0.00    -0.237 OA
ATOM     85  O   UNL     1       6.549  -6.888 -12.685  1.00  0.00    -0.744 OA
ENDBRANCH  81  82
ENDBRANCH  55  76
ENDBRANCH  29  30
ENDBRANCH  22  24
ENDBRANCH  21  22
ENDBRANCH   1  21
TORSDOF 15
