REMARK SMILES O=C(OCCOC(=O)C1CC[NH+]([C@H]2CC(=O)N(c3ccc4c(c3)OCCO4)C2=O)CC1)c1ccc(-c2c3nc(c(-c4ccc(S(=O)(=O)[O-])cc4)c4ccc([nH]4)c(-c4ccc(S(=O)(=O)[O-])cc4)c4nc(c(-c5ccc(S(=O)(=O)[O-])cc5)c5ccc2[nH]5)C=C4)C=C3)cc1
REMARK SMILES IDX 4 1 3 2 2 3 1 4 32 5 33 6 91 7 34 8 90 9 35 10 36 11 37 12
REMARK SMILES IDX 84 13 38 14 89 15 83 16 85 17 39 18 88 19 82 20 81 21 40 23
REMARK SMILES IDX 70 24 51 25 69 26 52 27 55 28 68 29 86 30 53 31 54 32 67 34
REMARK SMILES IDX 87 35 56 36 41 37 42 38 50 39 43 40 49 41 44 42 45 43 46 44
REMARK SMILES IDX 47 45 48 46 71 47 72 48 80 49 73 50 79 51 74 52 75 53 76 54
REMARK SMILES IDX 77 55 78 56 57 57 58 58 66 59 59 60 65 61 60 62 61 63 62 64
REMARK SMILES IDX 63 65 64 66 5 67 6 68 7 69 8 70 9 71 10 72 31 73 11 74 30 75
REMARK SMILES IDX 12 76 13 78 14 79 28 80 15 81 17 82 29 83 16 84 18 85 19 86
REMARK SMILES IDX 23 87 20 88 22 89 21 90 24 91 27 92 25 93 26 94
REMARK H PARENT 85 22 55 33 12 77
REMARK Flexibility Score: inf
ROOT
ATOM      1  C   UNL     1       2.784 -10.135  -3.279  1.00  0.00     0.275 C 
ENDROOT
BRANCH   1   2
ATOM      2  O   UNL     1       1.935  -9.811  -2.178  1.00  0.00    -0.458 OA
BRANCH   2   3
ATOM      3  C   UNL     1       2.162  -8.925  -1.187  1.00  0.00     0.338 C 
ATOM      4  O   UNL     1       1.194  -8.562  -0.519  1.00  0.00    -0.246 OA
BRANCH   3   5
ATOM      5  C   UNL     1       3.501  -8.305  -0.880  1.00  0.00     0.060 A 
ATOM      6  C   UNL     1       4.720  -8.480  -1.542  1.00  0.00     0.016 A 
ATOM      7  C   UNL     1       3.464  -7.323   0.113  1.00  0.00     0.016 A 
ATOM      8  C   UNL     1       5.802  -7.614  -1.328  1.00  0.00     0.010 A 
ATOM      9  C   UNL     1       4.487  -6.380   0.222  1.00  0.00     0.010 A 
ATOM     10  C   UNL     1       5.675  -6.503  -0.496  1.00  0.00    -0.014 A 
BRANCH  10  11
ATOM     11  C   UNL     1       6.791  -5.530  -0.344  1.00  0.00     0.031 A 
ATOM     12  C   UNL     1       7.314  -5.233   1.040  1.00  0.00     0.074 A 
ATOM     13  C   UNL     1       7.349  -4.930  -1.422  1.00  0.00     0.049 A 
ATOM     14  N   UNL     1       8.383  -4.563   1.383  1.00  0.00    -0.248 NA
ATOM     15  C   UNL     1       6.530  -5.717   2.193  1.00  0.00     0.031 C 
ATOM     16  C   UNL     1       6.870  -5.021  -2.808  1.00  0.00     0.029 A 
ATOM     17  N   UNL     1       8.468  -4.136  -1.530  1.00  0.00    -0.354 N 
ATOM     18  C   UNL     1       8.402  -4.594   2.771  1.00  0.00     0.074 A 
ATOM     19  C   UNL     1       7.159  -5.166   3.213  1.00  0.00     0.031 C 
ATOM     20  C   UNL     1       7.709  -4.355  -3.622  1.00  0.00     0.029 A 
ATOM     21  C   UNL     1       8.798  -3.802  -2.828  1.00  0.00     0.049 A 
ATOM     22  H   UNL     1       8.987  -3.833  -0.750  1.00  0.00     0.167 HD
ATOM     23  C   UNL     1       9.413  -4.300   3.616  1.00  0.00     0.031 A 
ATOM     24  C   UNL     1       9.882  -3.170  -3.324  1.00  0.00     0.031 A 
ATOM     25  C   UNL     1      10.661  -3.757   3.184  1.00  0.00     0.049 A 
ATOM     26  C   UNL     1      10.987  -2.802  -2.363  1.00  0.00     0.074 A 
ATOM     27  C   UNL     1      11.771  -3.437   3.938  1.00  0.00     0.029 A 
ATOM     28  N   UNL     1      10.956  -3.454   1.865  1.00  0.00    -0.354 N 
ATOM     29  N   UNL     1      11.050  -2.996  -1.065  1.00  0.00    -0.248 NA
ATOM     30  C   UNL     1      12.187  -2.176  -2.936  1.00  0.00     0.031 C 
ATOM     31  C   UNL     1      12.724  -2.886   3.076  1.00  0.00     0.029 A 
ATOM     32  C   UNL     1      12.226  -2.925   1.781  1.00  0.00     0.049 A 
ATOM     33  H   UNL     1      10.350  -3.596   1.102  1.00  0.00     0.167 HD
ATOM     34  C   UNL     1      12.309  -2.550  -0.676  1.00  0.00     0.074 A 
ATOM     35  C   UNL     1      12.982  -2.104  -1.879  1.00  0.00     0.031 C 
ATOM     36  C   UNL     1      12.864  -2.506   0.561  1.00  0.00     0.031 A 
BRANCH  23  37
ATOM     37  C   UNL     1       9.199  -4.646   5.063  1.00  0.00    -0.014 A 
ATOM     38  C   UNL     1       9.115  -5.996   5.461  1.00  0.00     0.010 A 
ATOM     39  C   UNL     1       9.034  -3.635   6.021  1.00  0.00     0.010 A 
ATOM     40  C   UNL     1       8.822  -6.329   6.782  1.00  0.00     0.020 A 
ATOM     41  C   UNL     1       8.772  -3.965   7.354  1.00  0.00     0.020 A 
ATOM     42  C   UNL     1       8.653  -5.309   7.722  1.00  0.00     0.054 A 
BRANCH  42  43
ATOM     43  S   UNL     1       8.305  -5.773   9.439  1.00  0.00     0.124 S 
ATOM     44  O   UNL     1       6.936  -6.276   9.344  1.00  0.00    -0.237 OA
ATOM     45  O   UNL     1       9.326  -6.781   9.708  1.00  0.00    -0.237 OA
ATOM     46  O   UNL     1       8.459  -4.520  10.174  1.00  0.00    -0.744 OA
ENDBRANCH  42  43
ENDBRANCH  23  37
BRANCH  24  47
ATOM     47  C   UNL     1      10.028  -2.895  -4.788  1.00  0.00    -0.014 A 
ATOM     48  C   UNL     1      11.031  -3.525  -5.551  1.00  0.00     0.010 A 
ATOM     49  C   UNL     1       9.205  -1.944  -5.418  1.00  0.00     0.010 A 
ATOM     50  C   UNL     1      11.247  -3.168  -6.889  1.00  0.00     0.020 A 
ATOM     51  C   UNL     1       9.396  -1.605  -6.765  1.00  0.00     0.020 A 
ATOM     52  C   UNL     1      10.432  -2.203  -7.485  1.00  0.00     0.054 A 
BRANCH  52  53
ATOM     53  S   UNL     1      10.739  -1.744  -9.216  1.00  0.00     0.124 S 
ATOM     54  O   UNL     1      11.993  -1.005  -9.118  1.00  0.00    -0.237 OA
ATOM     55  O   UNL     1      10.819  -3.044  -9.877  1.00  0.00    -0.237 OA
ATOM     56  O   UNL     1       9.568  -0.945  -9.570  1.00  0.00    -0.744 OA
ENDBRANCH  52  53
ENDBRANCH  24  47
BRANCH  36  57
ATOM     57  C   UNL     1      14.270  -1.991   0.670  1.00  0.00    -0.014 A 
ATOM     58  C   UNL     1      14.563  -0.632   0.467  1.00  0.00     0.010 A 
ATOM     59  C   UNL     1      15.298  -2.871   1.057  1.00  0.00     0.010 A 
ATOM     60  C   UNL     1      15.871  -0.168   0.610  1.00  0.00     0.020 A 
ATOM     61  C   UNL     1      16.599  -2.403   1.238  1.00  0.00     0.020 A 
ATOM     62  C   UNL     1      16.880  -1.057   0.996  1.00  0.00     0.054 A 
BRANCH  62  63
ATOM     63  S   UNL     1      18.561  -0.419   1.216  1.00  0.00     0.124 S 
ATOM     64  O   UNL     1      18.985  -0.205  -0.164  1.00  0.00    -0.237 OA
ATOM     65  O   UNL     1      18.343   0.792   2.003  1.00  0.00    -0.237 OA
ATOM     66  O   UNL     1      19.250  -1.498   1.921  1.00  0.00    -0.744 OA
ENDBRANCH  62  63
ENDBRANCH  36  57
ENDBRANCH  10  11
ENDBRANCH   3   5
ENDBRANCH   2   3
ENDBRANCH   1   2
BRANCH   1  67
ATOM     67  C   UNL     1       2.902  -9.035  -4.344  1.00  0.00     0.274 C 
BRANCH  67  68
ATOM     68  O   UNL     1       3.013  -7.675  -3.858  1.00  0.00    -0.462 OA
BRANCH  68  69
ATOM     69  C   UNL     1       1.865  -6.932  -3.907  1.00  0.00     0.309 C 
ATOM     70  O   UNL     1       0.770  -7.410  -4.182  1.00  0.00    -0.252 OA
BRANCH  69  71
ATOM     71  C   UNL     1       2.118  -5.418  -3.800  1.00  0.00     0.110 C 
ATOM     72  C   UNL     1       3.035  -4.922  -2.685  1.00  0.00     0.077 C 
ATOM     73  C   UNL     1       0.796  -4.641  -3.745  1.00  0.00     0.077 C 
ATOM     74  C   UNL     1       2.363  -4.651  -1.334  1.00  0.00     0.263 C 
ATOM     75  C   UNL     1       0.165  -4.701  -2.355  1.00  0.00     0.263 C 
ATOM     76  N   UNL     1       1.018  -4.122  -1.331  1.00  0.00    -0.324 N 
ATOM     77  H   UNL     1       0.493  -4.493  -0.540  1.00  0.00     0.348 HD
BRANCH  76  78
ATOM     78  C   UNL     1       0.862  -2.758  -0.819  1.00  0.00     0.284 C 
ATOM     79  C   UNL     1       1.349  -1.669  -1.750  1.00  0.00     0.176 C 
ATOM     80  C   UNL     1      -0.603  -2.392  -0.624  1.00  0.00     0.292 C 
ATOM     81  C   UNL     1       0.111  -1.339  -2.519  1.00  0.00     0.240 C 
ATOM     82  N   UNL     1      -0.978  -1.703  -1.762  1.00  0.00    -0.245 N 
ATOM     83  O   UNL     1      -1.298  -2.752   0.312  1.00  0.00    -0.267 OA
ATOM     84  O   UNL     1       0.131  -0.757  -3.600  1.00  0.00    -0.274 OA
BRANCH  82  85
ATOM     85  C   UNL     1      -2.317  -1.514  -2.155  1.00  0.00     0.056 A 
ATOM     86  C   UNL     1      -3.308  -1.167  -1.228  1.00  0.00     0.031 A 
ATOM     87  C   UNL     1      -2.675  -1.709  -3.496  1.00  0.00     0.077 A 
ATOM     88  C   UNL     1      -4.624  -0.955  -1.648  1.00  0.00     0.052 A 
ATOM     89  C   UNL     1      -3.994  -1.541  -3.903  1.00  0.00     0.163 A 
ATOM     90  C   UNL     1      -4.968  -1.151  -2.983  1.00  0.00     0.161 A 
ATOM     91  O   UNL     1      -4.258  -1.797  -5.223  1.00  0.00    -0.486 OA
ATOM     92  O   UNL     1      -6.278  -0.934  -3.324  1.00  0.00    -0.486 OA
ATOM     93  C   UNL     1      -5.499  -1.215  -5.621  1.00  0.00     0.271 C 
ATOM     94  C   UNL     1      -6.588  -1.505  -4.600  1.00  0.00     0.271 C 
ENDBRANCH  82  85
ENDBRANCH  76  78
ENDBRANCH  69  71
ENDBRANCH  68  69
ENDBRANCH  67  68
ENDBRANCH   1  67
TORSDOF 16
