REMARK SMILES CS(=O)(=O)c1ccc(-n2nc(C(F)(F)F)cc2-c2ccc(CC(=O)OCCOC(=O)c3ccc(-c4c5nc(c(-c6ccc(S(=O)(=O)[O-])cc6)c6ccc([nH]6)c(-c6ccc(S(=O)(=O)[O-])cc6)c6nc(c(-c7ccc(S(=O)(=O)[O-])cc7)c7ccc4[nH]7)C=C6)C=C5)cc3)cc2)cc1
REMARK SMILES IDX 26 1 25 2 23 3 24 4 22 5 21 6 18 7 19 8 92 9 20 10 91 11
REMARK SMILES IDX 17 12 9 13 10 14 11 15 16 16 8 17 5 18 6 19 94 20 7 21 93 22
REMARK SMILES IDX 2 23 1 24 3 25 4 26 12 27 13 28 14 29 15 30 27 31 28 32
REMARK SMILES IDX 29 33 30 34 31 35 32 36 90 37 33 38 89 39 34 40 35 41 36 42
REMARK SMILES IDX 83 43 37 44 88 45 82 46 84 47 38 48 87 49 81 50 80 51 39 53
REMARK SMILES IDX 69 54 50 55 68 56 51 57 54 58 67 59 85 60 52 61 53 62 66 64
REMARK SMILES IDX 86 65 55 66 40 67 41 68 49 69 42 70 48 71 43 72 44 73 45 74
REMARK SMILES IDX 46 75 47 76 70 77 71 78 79 79 72 80 78 81 73 82 74 83 75 84
REMARK SMILES IDX 76 85 77 86 56 87 57 88 65 89 58 90 64 91 59 92 60 93 61 94
REMARK SMILES IDX 62 95 63 96
REMARK H PARENT 84 52 54 63
REMARK Flexibility Score: inf
ROOT
ATOM      1  C   UNL     1       6.317   0.178   2.371  1.00  0.00     0.274 C 
ENDROOT
BRANCH   1   2
ATOM      2  O   UNL     1       6.371   1.526   2.886  1.00  0.00    -0.462 OA
BRANCH   2   3
ATOM      3  C   UNL     1       7.554   2.179   2.713  1.00  0.00     0.310 C 
ATOM      4  O   UNL     1       8.555   1.661   2.222  1.00  0.00    -0.252 OA
BRANCH   3   5
ATOM      5  C   UNL     1       7.590   3.579   3.290  1.00  0.00     0.158 C 
BRANCH   5   6
ATOM      6  C   UNL     1       6.334   4.416   3.238  1.00  0.00    -0.037 A 
ATOM      7  C   UNL     1       3.988   5.982   3.082  1.00  0.00     0.000 A 
ATOM      8  C   UNL     1       4.844   5.887   1.986  1.00  0.00     0.010 A 
ATOM      9  C   UNL     1       4.333   5.330   4.272  1.00  0.00     0.010 A 
ATOM     10  C   UNL     1       6.015   5.135   2.081  1.00  0.00     0.005 A 
ATOM     11  C   UNL     1       5.485   4.534   4.342  1.00  0.00     0.005 A 
BRANCH   7  12
ATOM     12  C   UNL     1       2.759   6.763   2.979  1.00  0.00     0.075 A 
ATOM     13  N   UNL     1       1.686   6.488   2.132  1.00  0.00    -0.233 N 
ATOM     14  N   UNL     1       0.796   7.516   2.107  1.00  0.00    -0.163 NA
ATOM     15  C   UNL     1       1.239   8.400   3.017  1.00  0.00     0.167 A 
ATOM     16  C   UNL     1       2.471   7.977   3.568  1.00  0.00     0.064 A 
BRANCH  13  17
ATOM     17  C   UNL     1       1.389   5.292   1.419  1.00  0.00     0.065 A 
ATOM     18  C   UNL     1       0.746   2.946   0.037  1.00  0.00     0.067 A 
ATOM     19  C   UNL     1       1.456   2.870   1.235  1.00  0.00     0.022 A 
ATOM     20  C   UNL     1       0.351   4.188  -0.474  1.00  0.00     0.022 A 
ATOM     21  C   UNL     1       1.784   4.044   1.919  1.00  0.00     0.030 A 
ATOM     22  C   UNL     1       0.653   5.359   0.228  1.00  0.00     0.030 A 
BRANCH  18  23
ATOM     23  S   UNL     1       0.292   1.492  -0.875  1.00  0.00     0.175 S 
ATOM     24  C   UNL     1       0.968   0.100  -0.017  1.00  0.00     0.163 C 
ATOM     25  O   UNL     1       0.969   1.567  -2.154  1.00  0.00    -0.224 OA
ATOM     26  O   UNL     1      -1.153   1.380  -0.781  1.00  0.00    -0.224 OA
ENDBRANCH  18  23
ENDBRANCH  13  17
BRANCH  15  27
ATOM     27  C   UNL     1       0.484   9.649   3.384  1.00  0.00     0.435 C 
ATOM     28  F   UNL     1       0.076  10.379   2.317  1.00  0.00    -0.164 F 
ATOM     29  F   UNL     1      -0.625   9.368   4.126  1.00  0.00    -0.164 F 
ATOM     30  F   UNL     1       1.242  10.481   4.156  1.00  0.00    -0.164 F 
ENDBRANCH  15  27
ENDBRANCH   7  12
ENDBRANCH   5   6
ENDBRANCH   3   5
ENDBRANCH   2   3
ENDBRANCH   1   2
BRANCH   1  31
ATOM     31  C   UNL     1       5.808   0.083   0.932  1.00  0.00     0.275 C 
BRANCH  31  32
ATOM     32  O   UNL     1       6.664   0.735  -0.006  1.00  0.00    -0.458 OA
BRANCH  32  33
ATOM     33  C   UNL     1       6.351   2.039  -0.171  1.00  0.00     0.338 C 
ATOM     34  O   UNL     1       5.592   2.696   0.522  1.00  0.00    -0.246 OA
BRANCH  33  35
ATOM     35  C   UNL     1       6.872   2.558  -1.431  1.00  0.00     0.060 A 
ATOM     36  C   UNL     1       7.032   3.944  -1.540  1.00  0.00     0.016 A 
ATOM     37  C   UNL     1       6.814   1.729  -2.552  1.00  0.00     0.016 A 
ATOM     38  C   UNL     1       6.946   4.534  -2.780  1.00  0.00     0.010 A 
ATOM     39  C   UNL     1       6.724   2.318  -3.792  1.00  0.00     0.010 A 
ATOM     40  C   UNL     1       6.712   3.714  -3.880  1.00  0.00    -0.014 A 
BRANCH  40  41
ATOM     41  C   UNL     1       6.474   4.347  -5.160  1.00  0.00     0.031 A 
ATOM     42  C   UNL     1       7.690   4.849  -5.836  1.00  0.00     0.074 A 
ATOM     43  C   UNL     1       5.261   4.293  -5.738  1.00  0.00     0.049 A 
ATOM     44  N   UNL     1       7.937   6.044  -6.257  1.00  0.00    -0.248 NA
ATOM     45  C   UNL     1       8.827   3.919  -5.950  1.00  0.00     0.031 C 
ATOM     46  C   UNL     1       4.080   3.569  -5.258  1.00  0.00     0.029 A 
ATOM     47  N   UNL     1       4.885   4.728  -6.970  1.00  0.00    -0.354 N 
ATOM     48  C   UNL     1       9.190   5.976  -6.856  1.00  0.00     0.074 A 
ATOM     49  C   UNL     1       9.757   4.705  -6.485  1.00  0.00     0.031 C 
ATOM     50  C   UNL     1       3.233   3.387  -6.294  1.00  0.00     0.029 A 
ATOM     51  C   UNL     1       3.769   4.065  -7.464  1.00  0.00     0.049 A 
ATOM     52  H   UNL     1       5.355   5.440  -7.462  1.00  0.00     0.167 HD
ATOM     53  C   UNL     1       9.593   6.860  -7.808  1.00  0.00     0.031 A 
ATOM     54  C   UNL     1       3.390   3.980  -8.764  1.00  0.00     0.031 A 
ATOM     55  C   UNL     1       8.756   8.025  -7.865  1.00  0.00     0.049 A 
ATOM     56  C   UNL     1       4.089   5.060  -9.508  1.00  0.00     0.074 A 
ATOM     57  C   UNL     1       8.426   9.024  -6.972  1.00  0.00     0.029 A 
ATOM     58  N   UNL     1       7.816   8.079  -8.869  1.00  0.00    -0.354 N 
ATOM     59  N   UNL     1       3.836   6.327  -9.343  1.00  0.00    -0.248 NA
ATOM     60  C   UNL     1       5.375   4.768 -10.129  1.00  0.00     0.031 C 
ATOM     61  C   UNL     1       7.063   9.330  -7.244  1.00  0.00     0.029 A 
ATOM     62  C   UNL     1       6.647   8.532  -8.312  1.00  0.00     0.049 A 
ATOM     63  H   UNL     1       7.957   7.838  -9.813  1.00  0.00     0.167 HD
ATOM     64  C   UNL     1       5.071   6.956  -9.423  1.00  0.00     0.074 A 
ATOM     65  C   UNL     1       5.956   5.969 -10.034  1.00  0.00     0.031 C 
ATOM     66  C   UNL     1       5.325   8.102  -8.723  1.00  0.00     0.031 A 
BRANCH  53  67
ATOM     67  C   UNL     1      10.525   6.481  -8.926  1.00  0.00    -0.014 A 
ATOM     68  C   UNL     1      11.043   7.487  -9.763  1.00  0.00     0.010 A 
ATOM     69  C   UNL     1      10.694   5.143  -9.343  1.00  0.00     0.010 A 
ATOM     70  C   UNL     1      11.652   7.166 -10.984  1.00  0.00     0.020 A 
ATOM     71  C   UNL     1      11.343   4.811 -10.531  1.00  0.00     0.020 A 
ATOM     72  C   UNL     1      11.783   5.829 -11.364  1.00  0.00     0.054 A 
BRANCH  72  73
ATOM     73  S   UNL     1      12.452   5.426 -12.995  1.00  0.00     0.124 S 
ATOM     74  O   UNL     1      11.388   5.897 -13.877  1.00  0.00    -0.237 OA
ATOM     75  O   UNL     1      13.690   6.199 -13.024  1.00  0.00    -0.237 OA
ATOM     76  O   UNL     1      12.628   3.977 -12.943  1.00  0.00    -0.744 OA
ENDBRANCH  72  73
ENDBRANCH  53  67
BRANCH  54  77
ATOM     77  C   UNL     1       2.696   2.847  -9.426  1.00  0.00    -0.014 A 
ATOM     78  C   UNL     1       2.157   2.979 -10.718  1.00  0.00     0.010 A 
ATOM     79  C   UNL     1       2.762   1.547  -8.879  1.00  0.00     0.010 A 
ATOM     80  C   UNL     1       1.748   1.851 -11.450  1.00  0.00     0.020 A 
ATOM     81  C   UNL     1       2.340   0.421  -9.593  1.00  0.00     0.020 A 
ATOM     82  C   UNL     1       1.858   0.576 -10.887  1.00  0.00     0.054 A 
BRANCH  82  83
ATOM     83  S   UNL     1       1.493  -0.889 -11.897  1.00  0.00     0.124 S 
ATOM     84  O   UNL     1       0.040  -0.829 -12.023  1.00  0.00    -0.237 OA
ATOM     85  O   UNL     1       2.246  -0.626 -13.120  1.00  0.00    -0.237 OA
ATOM     86  O   UNL     1       2.001  -1.999 -11.091  1.00  0.00    -0.744 OA
ENDBRANCH  82  83
ENDBRANCH  54  77
BRANCH  66  87
ATOM     87  C   UNL     1       4.158   8.819  -8.080  1.00  0.00    -0.014 A 
ATOM     88  C   UNL     1       3.319   8.214  -7.122  1.00  0.00     0.010 A 
ATOM     89  C   UNL     1       3.999  10.192  -8.333  1.00  0.00     0.010 A 
ATOM     90  C   UNL     1       2.326   8.953  -6.465  1.00  0.00     0.020 A 
ATOM     91  C   UNL     1       3.026  10.941  -7.664  1.00  0.00     0.020 A 
ATOM     92  C   UNL     1       2.187  10.314  -6.741  1.00  0.00     0.054 A 
BRANCH  92  93
ATOM     93  S   UNL     1       0.940  11.277  -5.841  1.00  0.00     0.124 S 
ATOM     94  O   UNL     1      -0.310  10.798  -6.423  1.00  0.00    -0.237 OA
ATOM     95  O   UNL     1       1.176  10.896  -4.450  1.00  0.00    -0.237 OA
ATOM     96  O   UNL     1       1.278  12.665  -6.158  1.00  0.00    -0.744 OA
ENDBRANCH  92  93
ENDBRANCH  66  87
ENDBRANCH  40  41
ENDBRANCH  33  35
ENDBRANCH  32  33
ENDBRANCH  31  32
ENDBRANCH   1  31
TORSDOF 19
