REMARK SMILES CC[C@H]1CCC/C(=C(\C)C(=O)OCCOC(=O)c2ccc(-c3c4nc(c(-c5ccc(S(=O)(=O)[O-])cc5)c5ccc([nH]5)c(-c5ccc(S(=O)(=O)[O-])cc5)c5nc(c(-c6ccc(S(=O)(=O)[O-])cc6)c6ccc3[nH]6)C=C5)C=C4)cc2)C1
REMARK SMILES IDX 14 1 13 2 12 3 10 4 11 5 8 6 3 7 4 8 78 9 5 10 7 11 6 12
REMARK SMILES IDX 9 13 2 14 1 15 15 16 16 17 17 18 18 19 19 20 77 21 20 22
REMARK SMILES IDX 76 23 21 24 22 25 23 26 70 27 24 28 75 29 69 30 71 31 25 32
REMARK SMILES IDX 74 33 68 34 67 35 26 37 56 38 37 39 55 40 38 41 41 42 54 43
REMARK SMILES IDX 72 44 39 45 40 46 53 48 73 49 42 50 27 51 28 52 36 53 29 54
REMARK SMILES IDX 35 55 30 56 31 57 32 58 33 59 34 60 57 61 58 62 66 63 59 64
REMARK SMILES IDX 65 65 60 66 61 67 62 68 63 69 64 70 43 71 44 72 52 73 45 74
REMARK SMILES IDX 51 75 46 76 47 77 48 78 49 79 50 80
REMARK H PARENT 71 36 41 47
REMARK Flexibility Score: inf
ROOT
ATOM      1  C   UNL     1       1.493   3.288  -6.457  1.00  0.00     0.275 C 
ENDROOT
BRANCH   1   2
ATOM      2  C   UNL     1       1.472   3.846  -5.034  1.00  0.00     0.275 C 
BRANCH   2   3
ATOM      3  O   UNL     1       2.433   3.129  -4.232  1.00  0.00    -0.459 OA
BRANCH   3   4
ATOM      4  C   UNL     1       2.065   2.879  -2.950  1.00  0.00     0.333 C 
ATOM      5  O   UNL     1       1.027   3.224  -2.408  1.00  0.00    -0.247 OA
BRANCH   4   6
ATOM      6  C   UNL     1       3.159   2.131  -2.264  1.00  0.00     0.033 C 
ATOM      7  C   UNL     1       1.105  -0.615  -0.867  1.00  0.00    -0.007 C 
ATOM      8  C   UNL     1       2.180  -1.548  -0.290  1.00  0.00     0.004 C 
ATOM      9  C   UNL     1       1.681   0.080  -2.110  1.00  0.00     0.035 C 
ATOM     10  C   UNL     1       3.446  -0.762   0.049  1.00  0.00     0.005 C 
ATOM     11  C   UNL     1       2.958   0.856  -1.846  1.00  0.00    -0.060 C 
ATOM     12  C   UNL     1       4.006   0.001  -1.157  1.00  0.00     0.031 C 
ATOM     13  C   UNL     1       4.407   2.950  -2.118  1.00  0.00     0.052 C 
BRANCH   7  14
ATOM     14  C   UNL     1      -0.171  -1.414  -1.198  1.00  0.00     0.000 C 
ATOM     15  C   UNL     1      -1.388  -0.534  -1.453  1.00  0.00     0.004 C 
ENDBRANCH   7  14
ENDBRANCH   4   6
ENDBRANCH   3   4
ENDBRANCH   2   3
ENDBRANCH   1   2
BRANCH   1  16
ATOM     16  O   UNL     1       1.012   1.935  -6.403  1.00  0.00    -0.458 OA
BRANCH  16  17
ATOM     17  C   UNL     1       1.606   1.044  -7.235  1.00  0.00     0.338 C 
ATOM     18  O   UNL     1       2.389   1.289  -8.134  1.00  0.00    -0.246 OA
BRANCH  17  19
ATOM     19  C   UNL     1       1.172  -0.321  -6.851  1.00  0.00     0.060 A 
ATOM     20  C   UNL     1       1.051  -0.636  -5.501  1.00  0.00     0.016 A 
ATOM     21  C   UNL     1       0.976  -1.318  -7.806  1.00  0.00     0.016 A 
ATOM     22  C   UNL     1       0.795  -1.947  -5.104  1.00  0.00     0.010 A 
ATOM     23  C   UNL     1       0.634  -2.622  -7.401  1.00  0.00     0.010 A 
ATOM     24  C   UNL     1       0.563  -2.961  -6.038  1.00  0.00    -0.014 A 
BRANCH  24  25
ATOM     25  C   UNL     1       0.369  -4.368  -5.562  1.00  0.00     0.031 A 
ATOM     26  C   UNL     1       1.344  -5.438  -5.985  1.00  0.00     0.074 A 
ATOM     27  C   UNL     1      -0.590  -4.690  -4.666  1.00  0.00     0.049 A 
ATOM     28  N   UNL     1       1.270  -6.735  -5.824  1.00  0.00    -0.248 NA
ATOM     29  C   UNL     1       2.562  -4.990  -6.679  1.00  0.00     0.031 C 
ATOM     30  C   UNL     1      -1.537  -3.753  -4.057  1.00  0.00     0.029 A 
ATOM     31  N   UNL     1      -0.898  -5.892  -4.068  1.00  0.00    -0.354 N 
ATOM     32  C   UNL     1       2.380  -7.262  -6.475  1.00  0.00     0.074 A 
ATOM     33  C   UNL     1       3.132  -6.142  -7.000  1.00  0.00     0.031 C 
ATOM     34  C   UNL     1      -2.245  -4.391  -3.110  1.00  0.00     0.029 A 
ATOM     35  C   UNL     1      -1.899  -5.809  -3.126  1.00  0.00     0.049 A 
ATOM     36  H   UNL     1      -0.442  -6.735  -4.294  1.00  0.00     0.167 HD
ATOM     37  C   UNL     1       2.723  -8.561  -6.646  1.00  0.00     0.031 A 
ATOM     38  C   UNL     1      -2.504  -6.765  -2.389  1.00  0.00     0.031 A 
ATOM     39  C   UNL     1       1.998  -9.670  -6.085  1.00  0.00     0.049 A 
ATOM     40  C   UNL     1      -2.133  -8.208  -2.622  1.00  0.00     0.074 A 
ATOM     41  C   UNL     1       2.211 -11.025  -6.272  1.00  0.00     0.029 A 
ATOM     42  N   UNL     1       0.939  -9.551  -5.200  1.00  0.00    -0.354 N 
ATOM     43  N   UNL     1      -1.184  -8.704  -3.379  1.00  0.00    -0.248 NA
ATOM     44  C   UNL     1      -2.950  -9.223  -1.939  1.00  0.00     0.031 C 
ATOM     45  C   UNL     1       1.254 -11.725  -5.528  1.00  0.00     0.029 A 
ATOM     46  C   UNL     1       0.483 -10.806  -4.835  1.00  0.00     0.049 A 
ATOM     47  H   UNL     1       0.565  -8.699  -4.878  1.00  0.00     0.167 HD
ATOM     48  C   UNL     1      -1.300 -10.087  -3.274  1.00  0.00     0.074 A 
ATOM     49  C   UNL     1      -2.379 -10.349  -2.345  1.00  0.00     0.031 C 
ATOM     50  C   UNL     1      -0.592 -11.053  -3.909  1.00  0.00     0.031 A 
BRANCH  37  51
ATOM     51  C   UNL     1       3.876  -8.850  -7.569  1.00  0.00    -0.014 A 
ATOM     52  C   UNL     1       5.212  -8.635  -7.191  1.00  0.00     0.010 A 
ATOM     53  C   UNL     1       3.599  -9.353  -8.855  1.00  0.00     0.010 A 
ATOM     54  C   UNL     1       6.247  -8.873  -8.101  1.00  0.00     0.020 A 
ATOM     55  C   UNL     1       4.631  -9.616  -9.757  1.00  0.00     0.020 A 
ATOM     56  C   UNL     1       5.949  -9.353  -9.381  1.00  0.00     0.054 A 
BRANCH  56  57
ATOM     57  S   UNL     1       7.307  -9.646 -10.548  1.00  0.00     0.124 S 
ATOM     58  O   UNL     1       7.666  -8.284 -10.937  1.00  0.00    -0.237 OA
ATOM     59  O   UNL     1       8.292 -10.345  -9.728  1.00  0.00    -0.237 OA
ATOM     60  O   UNL     1       6.692 -10.452 -11.601  1.00  0.00    -0.744 OA
ENDBRANCH  56  57
ENDBRANCH  37  51
BRANCH  38  61
ATOM     61  C   UNL     1      -3.591  -6.418  -1.424  1.00  0.00    -0.014 A 
ATOM     62  C   UNL     1      -3.442  -6.669  -0.048  1.00  0.00     0.010 A 
ATOM     63  C   UNL     1      -4.804  -5.869  -1.883  1.00  0.00     0.010 A 
ATOM     64  C   UNL     1      -4.487  -6.396   0.844  1.00  0.00     0.020 A 
ATOM     65  C   UNL     1      -5.835  -5.560  -0.992  1.00  0.00     0.020 A 
ATOM     66  C   UNL     1      -5.677  -5.843   0.365  1.00  0.00     0.054 A 
BRANCH  66  67
ATOM     67  S   UNL     1      -7.011  -5.458   1.535  1.00  0.00     0.124 S 
ATOM     68  O   UNL     1      -7.602  -6.773   1.763  1.00  0.00    -0.237 OA
ATOM     69  O   UNL     1      -6.288  -4.883   2.667  1.00  0.00    -0.237 OA
ATOM     70  O   UNL     1      -7.847  -4.513   0.797  1.00  0.00    -0.744 OA
ENDBRANCH  66  67
ENDBRANCH  38  61
BRANCH  50  71
ATOM     71  C   UNL     1      -0.949 -12.485  -3.614  1.00  0.00    -0.014 A 
ATOM     72  C   UNL     1      -2.121 -13.061  -4.134  1.00  0.00     0.010 A 
ATOM     73  C   UNL     1      -0.068 -13.282  -2.860  1.00  0.00     0.010 A 
ATOM     74  C   UNL     1      -2.420 -14.403  -3.885  1.00  0.00     0.020 A 
ATOM     75  C   UNL     1      -0.352 -14.630  -2.628  1.00  0.00     0.020 A 
ATOM     76  C   UNL     1      -1.532 -15.180  -3.134  1.00  0.00     0.054 A 
BRANCH  76  77
ATOM     77  S   UNL     1      -1.914 -16.934  -2.868  1.00  0.00     0.124 S 
ATOM     78  O   UNL     1      -2.976 -16.866  -1.867  1.00  0.00    -0.237 OA
ATOM     79  O   UNL     1      -2.330 -17.378  -4.196  1.00  0.00    -0.237 OA
ATOM     80  O   UNL     1      -0.650 -17.496  -2.398  1.00  0.00    -0.744 OA
ENDBRANCH  76  77
ENDBRANCH  50  71
ENDBRANCH  24  25
ENDBRANCH  17  19
ENDBRANCH  16  17
ENDBRANCH   1  16
TORSDOF 15
