REMARK SMILES CC(C)C[N@@H+](C1CC1)[C@@H](C)c1ccc(C(=O)OCCOC(=O)c2ccc(-c3c4nc(c(-c5ccc(S(=O)(=O)[O-])cc5)c5ccc([nH]5)c(-c5ccc(S(=O)(=O)[O-])cc5)c5nc(c(-c6ccc(S(=O)(=O)[O-])cc6)c6ccc3[nH]6)C=C5)C=C4)cc2)o1
REMARK SMILES IDX 18 1 17 2 15 3 16 4 14 5 11 6 12 7 83 8 13 9 9 10 10 11 5 12
REMARK SMILES IDX 4 14 2 15 1 16 3 17 6 18 7 19 8 20 19 21 20 22 21 23 22 24
REMARK SMILES IDX 23 25 24 26 82 27 25 28 81 29 26 30 27 31 28 32 75 33 29 34
REMARK SMILES IDX 80 35 74 36 76 37 30 38 79 39 73 40 72 41 31 43 61 44 42 45
REMARK SMILES IDX 60 46 43 47 46 48 59 49 77 50 44 51 45 52 58 54 78 55 47 56
REMARK SMILES IDX 32 57 33 58 41 59 34 60 40 61 35 62 36 63 37 64 38 65 39 66
REMARK SMILES IDX 62 67 63 68 71 69 64 70 70 71 65 72 66 73 67 74 68 75 69 76
REMARK SMILES IDX 48 77 49 78 57 79 50 80 56 81 51 82 52 83 53 84 54 85 55 86
REMARK H PARENT 5 13 76 42 46 53
REMARK Flexibility Score: inf
ROOT
ATOM      1  C   UNL     1       5.816  -2.064  -1.929  1.00  0.00     0.275 C 
ENDROOT
BRANCH   1   2
ATOM      2  O   UNL     1       4.777  -1.065  -1.943  1.00  0.00    -0.456 OA
BRANCH   2   3
ATOM      3  C   UNL     1       3.574  -1.455  -2.469  1.00  0.00     0.374 C 
ATOM      4  O   UNL     1       3.364  -2.555  -2.957  1.00  0.00    -0.242 OA
BRANCH   3   5
ATOM      5  C   UNL     1       2.605  -0.392  -2.314  1.00  0.00     0.212 A 
ATOM      6  C   UNL     1       0.583   0.424  -1.897  1.00  0.00     0.162 A 
ATOM      7  C   UNL     1       1.438   1.504  -2.026  1.00  0.00     0.053 A 
ATOM      8  O   UNL     1       1.279  -0.722  -2.171  1.00  0.00    -0.448 OA
ATOM      9  C   UNL     1       2.735   0.982  -2.245  1.00  0.00     0.059 A 
BRANCH   6  10
ATOM     10  C   UNL     1      -0.899   0.301  -1.594  1.00  0.00     0.248 C 
ATOM     11  C   UNL     1      -1.490   1.641  -1.123  1.00  0.00     0.084 C 
BRANCH  10  12
ATOM     12  N   UNL     1      -1.285  -0.833  -0.714  1.00  0.00    -0.324 N 
ATOM     13  H   UNL     1      -0.681  -1.557  -1.105  1.00  0.00     0.348 HD
BRANCH  12  14
ATOM     14  C   UNL     1      -0.938  -0.733   0.728  1.00  0.00     0.265 C 
BRANCH  14  15
ATOM     15  C   UNL     1       0.543  -0.747   1.169  1.00  0.00     0.038 C 
ATOM     16  C   UNL     1       1.112   0.642   1.449  1.00  0.00     0.013 C 
ATOM     17  C   UNL     1       0.702  -1.589   2.447  1.00  0.00     0.013 C 
ENDBRANCH  14  15
ENDBRANCH  12  14
BRANCH  12  18
ATOM     18  C   UNL     1      -2.732  -1.244  -0.830  1.00  0.00     0.185 C 
ATOM     19  C   UNL     1      -3.712  -0.768  -1.872  1.00  0.00     0.071 C 
ATOM     20  C   UNL     1      -3.140  -2.149  -1.964  1.00  0.00     0.071 C 
ENDBRANCH  12  18
ENDBRANCH  10  12
ENDBRANCH   6  10
ENDBRANCH   3   5
ENDBRANCH   2   3
ENDBRANCH   1   2
BRANCH   1  21
ATOM     21  C   UNL     1       5.871  -2.837  -0.606  1.00  0.00     0.275 C 
BRANCH  21  22
ATOM     22  O   UNL     1       4.767  -3.751  -0.479  1.00  0.00    -0.458 OA
BRANCH  22  23
ATOM     23  C   UNL     1       3.734  -3.297   0.270  1.00  0.00     0.338 C 
ATOM     24  O   UNL     1       3.688  -2.244   0.882  1.00  0.00    -0.246 OA
BRANCH  23  25
ATOM     25  C   UNL     1       2.586  -4.208   0.141  1.00  0.00     0.060 A 
ATOM     26  C   UNL     1       1.471  -3.745  -0.555  1.00  0.00     0.016 A 
ATOM     27  C   UNL     1       2.551  -5.452   0.770  1.00  0.00     0.016 A 
ATOM     28  C   UNL     1       0.298  -4.484  -0.592  1.00  0.00     0.010 A 
ATOM     29  C   UNL     1       1.381  -6.221   0.700  1.00  0.00     0.010 A 
ATOM     30  C   UNL     1       0.242  -5.732   0.033  1.00  0.00    -0.014 A 
BRANCH  30  31
ATOM     31  C   UNL     1      -1.029  -6.493  -0.006  1.00  0.00     0.031 A 
ATOM     32  C   UNL     1      -1.860  -6.637   1.236  1.00  0.00     0.074 A 
ATOM     33  C   UNL     1      -1.461  -7.002  -1.175  1.00  0.00     0.049 A 
ATOM     34  N   UNL     1      -2.978  -7.294   1.407  1.00  0.00    -0.248 NA
ATOM     35  C   UNL     1      -1.371  -5.952   2.443  1.00  0.00     0.031 C 
ATOM     36  C   UNL     1      -0.772  -6.869  -2.461  1.00  0.00     0.029 A 
ATOM     37  N   UNL     1      -2.590  -7.721  -1.475  1.00  0.00    -0.354 N 
ATOM     38  C   UNL     1      -3.313  -7.128   2.746  1.00  0.00     0.074 A 
ATOM     39  C   UNL     1      -2.273  -6.316   3.343  1.00  0.00     0.031 C 
ATOM     40  C   UNL     1      -1.502  -7.468  -3.414  1.00  0.00     0.029 A 
ATOM     41  C   UNL     1      -2.681  -8.072  -2.801  1.00  0.00     0.049 A 
ATOM     42  H   UNL     1      -3.270  -7.962  -0.806  1.00  0.00     0.167 HD
ATOM     43  C   UNL     1      -4.388  -7.610   3.414  1.00  0.00     0.031 A 
ATOM     44  C   UNL     1      -3.598  -8.817  -3.447  1.00  0.00     0.031 A 
ATOM     45  C   UNL     1      -5.421  -8.411   2.810  1.00  0.00     0.049 A 
ATOM     46  C   UNL     1      -4.750  -9.389  -2.673  1.00  0.00     0.074 A 
ATOM     47  C   UNL     1      -6.553  -8.945   3.401  1.00  0.00     0.029 A 
ATOM     48  N   UNL     1      -5.449  -8.793   1.477  1.00  0.00    -0.354 N 
ATOM     49  N   UNL     1      -5.042  -9.242  -1.402  1.00  0.00    -0.248 NA
ATOM     50  C   UNL     1      -5.694 -10.233  -3.417  1.00  0.00     0.031 C 
ATOM     51  C   UNL     1      -7.242  -9.686   2.434  1.00  0.00     0.029 A 
ATOM     52  C   UNL     1      -6.566  -9.573   1.230  1.00  0.00     0.049 A 
ATOM     53  H   UNL     1      -4.773  -8.545   0.805  1.00  0.00     0.167 HD
ATOM     54  C   UNL     1      -6.210  -9.965  -1.196  1.00  0.00     0.074 A 
ATOM     55  C   UNL     1      -6.580 -10.536  -2.476  1.00  0.00     0.031 C 
ATOM     56  C   UNL     1      -6.912 -10.142  -0.049  1.00  0.00     0.031 A 
BRANCH  43  57
ATOM     57  C   UNL     1      -4.468  -7.321   4.888  1.00  0.00    -0.014 A 
ATOM     58  C   UNL     1      -4.790  -6.042   5.370  1.00  0.00     0.010 A 
ATOM     59  C   UNL     1      -4.224  -8.360   5.809  1.00  0.00     0.010 A 
ATOM     60  C   UNL     1      -4.820  -5.790   6.745  1.00  0.00     0.020 A 
ATOM     61  C   UNL     1      -4.276  -8.117   7.184  1.00  0.00     0.020 A 
ATOM     62  C   UNL     1      -4.553  -6.827   7.643  1.00  0.00     0.054 A 
BRANCH  62  63
ATOM     63  S   UNL     1      -4.591  -6.477   9.423  1.00  0.00     0.124 S 
ATOM     64  O   UNL     1      -3.323  -5.779   9.619  1.00  0.00    -0.237 OA
ATOM     65  O   UNL     1      -5.789  -5.654   9.565  1.00  0.00    -0.237 OA
ATOM     66  O   UNL     1      -4.674  -7.801  10.035  1.00  0.00    -0.744 OA
ENDBRANCH  62  63
ENDBRANCH  43  57
BRANCH  44  67
ATOM     67  C   UNL     1      -3.438  -9.081  -4.902  1.00  0.00    -0.014 A 
ATOM     68  C   UNL     1      -4.287  -8.468  -5.839  1.00  0.00     0.010 A 
ATOM     69  C   UNL     1      -2.404  -9.920  -5.359  1.00  0.00     0.010 A 
ATOM     70  C   UNL     1      -4.106  -8.692  -7.208  1.00  0.00     0.020 A 
ATOM     71  C   UNL     1      -2.206 -10.127  -6.726  1.00  0.00     0.020 A 
ATOM     72  C   UNL     1      -3.064  -9.517  -7.643  1.00  0.00     0.054 A 
BRANCH  72  73
ATOM     73  S   UNL     1      -2.801  -9.737  -9.425  1.00  0.00     0.124 S 
ATOM     74  O   UNL     1      -3.862 -10.676  -9.774  1.00  0.00    -0.237 OA
ATOM     75  O   UNL     1      -2.963  -8.379  -9.941  1.00  0.00    -0.237 OA
ATOM     76  O   UNL     1      -1.442 -10.266  -9.506  1.00  0.00    -0.744 OA
ENDBRANCH  72  73
ENDBRANCH  44  67
BRANCH  56  77
ATOM     77  C   UNL     1      -8.163 -10.972  -0.133  1.00  0.00    -0.014 A 
ATOM     78  C   UNL     1      -8.097 -12.372  -0.241  1.00  0.00     0.010 A 
ATOM     79  C   UNL     1      -9.420 -10.346  -0.058  1.00  0.00     0.010 A 
ATOM     80  C   UNL     1      -9.269 -13.131  -0.301  1.00  0.00     0.020 A 
ATOM     81  C   UNL     1     -10.593 -11.103  -0.096  1.00  0.00     0.020 A 
ATOM     82  C   UNL     1     -10.510 -12.490  -0.231  1.00  0.00     0.054 A 
BRANCH  82  83
ATOM     83  S   UNL     1     -12.019 -13.497  -0.270  1.00  0.00     0.124 S 
ATOM     84  O   UNL     1     -12.127 -13.828  -1.688  1.00  0.00    -0.237 OA
ATOM     85  O   UNL     1     -11.687 -14.612   0.613  1.00  0.00    -0.237 OA
ATOM     86  O   UNL     1     -13.049 -12.594   0.239  1.00  0.00    -0.744 OA
ENDBRANCH  82  83
ENDBRANCH  56  77
ENDBRANCH  30  31
ENDBRANCH  23  25
ENDBRANCH  22  23
ENDBRANCH  21  22
ENDBRANCH   1  21
TORSDOF 19
