REMARK SMILES N#C/C(=C/c1cc(Br)ccc1OCC(=O)OCCOC(=O)c1ccc(-c2c3nc(c(-c4ccc(S(=O)(=O)[O-])cc4)c4ccc([nH]4)c(-c4ccc(S(=O)(=O)[O-])cc4)c4nc(c(-c5ccc(S(=O)(=O)[O-])cc5)c5ccc2[nH]5)C=C4)C=C3)cc1)c1ccc(F)cc1
REMARK SMILES IDX 17 1 16 2 14 3 15 4 13 5 12 6 11 7 5 8 6 9 7 10 10 11 8 12
REMARK SMILES IDX 9 13 4 14 3 15 2 16 1 17 82 18 83 19 88 20 84 21 87 22 85 23
REMARK SMILES IDX 86 24 18 25 19 26 20 27 21 28 22 29 23 30 81 31 24 32 80 33
REMARK SMILES IDX 25 34 26 35 27 36 74 37 28 38 79 39 73 40 75 41 29 42 78 43
REMARK SMILES IDX 72 44 71 45 30 47 60 48 41 49 59 50 42 51 45 52 58 53 76 54
REMARK SMILES IDX 43 55 44 56 57 58 77 59 46 60 31 61 32 62 40 63 33 64 39 65
REMARK SMILES IDX 34 66 35 67 36 68 37 69 38 70 61 71 62 72 70 73 63 74 69 75
REMARK SMILES IDX 64 76 65 77 66 78 67 79 68 80 47 81 48 82 56 83 49 84 55 85
REMARK SMILES IDX 50 86 51 87 52 88 53 89 54 90
REMARK H PARENT 75 46 45 57
REMARK Flexibility Score: inf
ROOT
ATOM      1  C   UNL     1       3.631  -2.196   4.993  1.00  0.00     0.274 C 
ENDROOT
BRANCH   1   2
ATOM      2  O   UNL     1       4.525  -2.589   3.934  1.00  0.00    -0.460 OA
BRANCH   2   3
ATOM      3  C   UNL     1       3.978  -3.479   3.072  1.00  0.00     0.344 C 
ATOM      4  O   UNL     1       2.855  -3.955   3.195  1.00  0.00    -0.248 OA
BRANCH   3   5
ATOM      5  C   UNL     1       4.873  -3.816   1.885  1.00  0.00     0.352 C 
BRANCH   5   6
ATOM      6  O   UNL     1       6.207  -3.403   1.776  1.00  0.00    -0.481 OA
BRANCH   6   7
ATOM      7  C   UNL     1       6.618  -2.127   1.536  1.00  0.00     0.127 A 
ATOM      8  C   UNL     1       5.906  -0.931   1.308  1.00  0.00     0.019 A 
ATOM      9  C   UNL     1       6.673   0.261   1.331  1.00  0.00     0.027 A 
ATOM     10  C   UNL     1       8.071   0.262   1.340  1.00  0.00     0.018 A 
ATOM     11  C   UNL     1       8.036  -2.104   1.553  1.00  0.00     0.048 A 
ATOM     12  Br  UNL     1       9.017   1.891   1.198  1.00  0.00    -0.051 Br
ATOM     13  C   UNL     1       8.765  -0.928   1.418  1.00  0.00     0.019 A 
BRANCH   8  14
ATOM     14  C   UNL     1       4.434  -0.784   1.025  1.00  0.00     0.032 C 
ATOM     15  C   UNL     1       3.802   0.001   0.098  1.00  0.00     0.060 C 
BRANCH  15  16
ATOM     16  C   UNL     1       2.282   0.001   0.098  1.00  0.00     0.100 C 
ATOM     17  N   UNL     1       1.021   0.001   0.098  1.00  0.00    -0.192 NA
ENDBRANCH  15  16
BRANCH  15  18
ATOM     18  C   UNL     1       4.612   0.841  -0.808  1.00  0.00    -0.008 A 
ATOM     19  C   UNL     1       5.586   0.233  -1.634  1.00  0.00     0.012 A 
ATOM     20  C   UNL     1       4.580   2.241  -0.715  1.00  0.00     0.012 A 
ATOM     21  C   UNL     1       6.535   1.003  -2.307  1.00  0.00     0.040 A 
ATOM     22  C   UNL     1       5.535   3.008  -1.394  1.00  0.00     0.040 A 
ATOM     23  C   UNL     1       6.508   2.383  -2.168  1.00  0.00     0.123 A 
ATOM     24  F   UNL     1       7.441   3.121  -2.781  1.00  0.00    -0.207 F 
ENDBRANCH  15  18
ENDBRANCH   8  14
ENDBRANCH   6   7
ENDBRANCH   5   6
ENDBRANCH   3   5
ENDBRANCH   2   3
ENDBRANCH   1   2
BRANCH   1  25
ATOM     25  C   UNL     1       2.693  -1.001   4.578  1.00  0.00     0.275 C 
BRANCH  25  26
ATOM     26  O   UNL     1       1.507  -1.270   3.616  1.00  0.00    -0.458 OA
BRANCH  26  27
ATOM     27  C   UNL     1       0.994  -0.191   2.845  1.00  0.00     0.338 C 
ATOM     28  O   UNL     1       1.656   0.855   2.885  1.00  0.00    -0.246 OA
BRANCH  27  29
ATOM     29  C   UNL     1      -0.411  -0.250   1.760  1.00  0.00     0.060 A 
ATOM     30  C   UNL     1      -0.548  -1.389   0.782  1.00  0.00     0.016 A 
ATOM     31  C   UNL     1      -0.638   1.139   1.061  1.00  0.00     0.016 A 
ATOM     32  C   UNL     1      -0.531  -1.104  -0.832  1.00  0.00     0.010 A 
ATOM     33  C   UNL     1      -0.578   1.437  -0.542  1.00  0.00     0.010 A 
ATOM     34  C   UNL     1      -0.351   0.360  -1.521  1.00  0.00    -0.014 A 
BRANCH  34  35
ATOM     35  C   UNL     1       0.481   0.526  -3.047  1.00  0.00     0.031 A 
ATOM     36  C   UNL     1       1.626   1.537  -3.848  1.00  0.00     0.074 A 
ATOM     37  C   UNL     1      -0.436   0.098  -3.945  1.00  0.00     0.049 A 
ATOM     38  N   UNL     1       1.476   2.420  -4.854  1.00  0.00    -0.248 NA
ATOM     39  C   UNL     1       3.091   1.279  -3.706  1.00  0.00     0.031 C 
ATOM     40  C   UNL     1      -1.510  -0.785  -3.501  1.00  0.00     0.029 A 
ATOM     41  N   UNL     1      -1.067   0.998  -4.782  1.00  0.00    -0.354 N 
ATOM     42  C   UNL     1       2.771   2.869  -5.336  1.00  0.00     0.074 A 
ATOM     43  C   UNL     1       3.720   2.140  -4.530  1.00  0.00     0.031 C 
ATOM     44  C   UNL     1      -2.634  -0.058  -3.533  1.00  0.00     0.029 A 
ATOM     45  C   UNL     1      -2.393   1.061  -4.418  1.00  0.00     0.049 A 
ATOM     46  H   UNL     1      -0.643   1.505  -5.511  1.00  0.00     0.167 HD
ATOM     47  C   UNL     1       3.123   3.714  -6.387  1.00  0.00     0.031 A 
ATOM     48  C   UNL     1      -3.391   1.893  -4.780  1.00  0.00     0.031 A 
ATOM     49  C   UNL     1       2.120   4.180  -7.340  1.00  0.00     0.049 A 
ATOM     50  C   UNL     1      -3.101   2.715  -5.961  1.00  0.00     0.074 A 
ATOM     51  C   UNL     1       2.268   4.870  -8.541  1.00  0.00     0.029 A 
ATOM     52  N   UNL     1       0.767   3.930  -7.204  1.00  0.00    -0.354 N 
ATOM     53  N   UNL     1      -1.944   3.162  -6.380  1.00  0.00    -0.248 NA
ATOM     54  C   UNL     1      -4.241   2.982  -6.829  1.00  0.00     0.031 C 
ATOM     55  C   UNL     1       0.997   5.057  -9.105  1.00  0.00     0.029 A 
ATOM     56  C   UNL     1       0.070   4.446  -8.280  1.00  0.00     0.049 A 
ATOM     57  H   UNL     1       0.357   3.452  -6.446  1.00  0.00     0.167 HD
ATOM     58  C   UNL     1      -2.209   3.730  -7.608  1.00  0.00     0.074 A 
ATOM     59  C   UNL     1      -3.631   3.565  -7.853  1.00  0.00     0.031 C 
ATOM     60  C   UNL     1      -1.347   4.322  -8.467  1.00  0.00     0.031 A 
BRANCH  47  61
ATOM     61  C   UNL     1       4.583   4.229  -6.730  1.00  0.00    -0.014 A 
ATOM     62  C   UNL     1       5.610   3.416  -7.253  1.00  0.00     0.010 A 
ATOM     63  C   UNL     1       4.836   5.634  -6.788  1.00  0.00     0.010 A 
ATOM     64  C   UNL     1       6.830   3.962  -7.750  1.00  0.00     0.020 A 
ATOM     65  C   UNL     1       6.037   6.189  -7.304  1.00  0.00     0.020 A 
ATOM     66  C   UNL     1       7.043   5.345  -7.765  1.00  0.00     0.054 A 
BRANCH  66  67
ATOM     67  S   UNL     1       8.604   6.022  -8.447  1.00  0.00     0.124 S 
ATOM     68  O   UNL     1       9.560   5.729  -7.383  1.00  0.00    -0.237 OA
ATOM     69  O   UNL     1       8.788   5.255  -9.677  1.00  0.00    -0.237 OA
ATOM     70  O   UNL     1       8.318   7.442  -8.646  1.00  0.00    -0.744 OA
ENDBRANCH  66  67
ENDBRANCH  47  61
BRANCH  48  71
ATOM     71  C   UNL     1      -4.723   1.558  -4.241  1.00  0.00    -0.014 A 
ATOM     72  C   UNL     1      -5.411   0.462  -4.803  1.00  0.00     0.010 A 
ATOM     73  C   UNL     1      -5.096   2.043  -2.975  1.00  0.00     0.010 A 
ATOM     74  C   UNL     1      -6.452  -0.144  -4.106  1.00  0.00     0.020 A 
ATOM     75  C   UNL     1      -6.147   1.439  -2.280  1.00  0.00     0.020 A 
ATOM     76  C   UNL     1      -6.820   0.356  -2.854  1.00  0.00     0.054 A 
BRANCH  76  77
ATOM     77  S   UNL     1      -8.161  -0.476  -1.965  1.00  0.00     0.124 S 
ATOM     78  O   UNL     1      -9.324  -0.095  -2.762  1.00  0.00    -0.237 OA
ATOM     79  O   UNL     1      -7.773  -1.882  -2.046  1.00  0.00    -0.237 OA
ATOM     80  O   UNL     1      -8.101   0.105  -0.626  1.00  0.00    -0.744 OA
ENDBRANCH  76  77
ENDBRANCH  48  71
BRANCH  60  81
ATOM     81  C   UNL     1      -1.966   4.881  -9.702  1.00  0.00    -0.014 A 
ATOM     82  C   UNL     1      -2.764   6.034  -9.614  1.00  0.00     0.010 A 
ATOM     83  C   UNL     1      -1.792   4.235 -10.936  1.00  0.00     0.010 A 
ATOM     84  C   UNL     1      -3.422   6.512 -10.741  1.00  0.00     0.020 A 
ATOM     85  C   UNL     1      -2.427   4.730 -12.073  1.00  0.00     0.020 A 
ATOM     86  C   UNL     1      -3.249   5.856 -11.963  1.00  0.00     0.054 A 
BRANCH  86  87
ATOM     87  S   UNL     1      -4.094   6.522 -13.418  1.00  0.00     0.124 S 
ATOM     88  O   UNL     1      -5.478   6.126 -13.171  1.00  0.00    -0.237 OA
ATOM     89  O   UNL     1      -3.822   7.954 -13.316  1.00  0.00    -0.237 OA
ATOM     90  O   UNL     1      -3.441   5.846 -14.536  1.00  0.00    -0.744 OA
ENDBRANCH  86  87
ENDBRANCH  60  81
ENDBRANCH  34  35
ENDBRANCH  27  29
ENDBRANCH  26  27
ENDBRANCH  25  26
ENDBRANCH   1  25
TORSDOF 19
