REMARK SMILES C[N@H+](CC(=O)OCCOC(=O)c1ccc(-c2c3nc(c(-c4ccc(S(=O)(=O)[O-])cc4)c4ccc([nH]4)c(-c4ccc(S(=O)(=O)[O-])cc4)c4nc(c(-c5ccc(S(=O)(=O)[O-])cc5)c5ccc2[nH]5)C=C4)C=C3)cc1)[C@@H]1CCC[C@@H]1O
REMARK SMILES IDX 7 1 6 2 4 3 5 4 3 5 2 6 1 7 72 9 73 10 76 11 74 12 75 13
REMARK SMILES IDX 77 14 8 16 9 17 10 18 11 19 12 20 13 21 71 22 14 23 70 24
REMARK SMILES IDX 15 25 16 26 17 27 64 28 18 29 69 30 63 31 65 32 19 33 68 34
REMARK SMILES IDX 62 35 61 36 20 38 50 39 31 40 49 41 32 42 35 43 48 44 66 45
REMARK SMILES IDX 33 46 34 47 47 49 67 50 36 51 21 52 22 53 30 54 23 55 29 56
REMARK SMILES IDX 24 57 25 58 26 59 27 60 28 61 51 62 52 63 60 64 53 65 59 66
REMARK SMILES IDX 54 67 55 68 56 69 57 70 58 71 37 72 38 73 46 74 39 75 45 76
REMARK SMILES IDX 40 77 41 78 42 79 43 80 44 81
REMARK H PARENT 2 8 77 15 65 37 35 48
REMARK Flexibility Score: inf
ROOT
ATOM      1  C   UNL     1       6.516   2.465   2.035  1.00  0.00     0.274 C 
ENDROOT
BRANCH   1   2
ATOM      2  O   UNL     1       5.187   2.029   1.691  1.00  0.00    -0.458 OA
BRANCH   2   3
ATOM      3  C   UNL     1       4.900   0.722   1.939  1.00  0.00     0.361 C 
ATOM      4  O   UNL     1       5.732  -0.088   2.338  1.00  0.00    -0.245 OA
BRANCH   3   5
ATOM      5  C   UNL     1       3.467   0.318   1.567  1.00  0.00     0.386 C 
BRANCH   5   6
ATOM      6  N   UNL     1       2.381   1.119   2.191  1.00  0.00    -0.324 N 
ATOM      7  C   UNL     1       2.379   2.494   1.656  1.00  0.00     0.333 C 
ATOM      8  H   UNL     1       2.585   1.114   3.190  1.00  0.00     0.348 HD
BRANCH   6   9
ATOM      9  C   UNL     1       1.016   0.539   2.014  1.00  0.00     0.213 C 
ATOM     10  C   UNL     1       0.100   1.096   3.135  1.00  0.00     0.068 C 
ATOM     11  C   UNL     1       0.731  -0.978   2.220  1.00  0.00     0.172 C 
ATOM     12  C   UNL     1       0.158   0.087   4.290  1.00  0.00     0.009 C 
ATOM     13  C   UNL     1       0.805  -1.171   3.723  1.00  0.00     0.038 C 
BRANCH  11  14
ATOM     14  O   UNL     1       1.565  -1.874   1.515  1.00  0.00    -0.387 OA
ATOM     15  H   UNL     1       2.483  -1.755   1.803  1.00  0.00     0.211 HD
ENDBRANCH  11  14
ENDBRANCH   6   9
ENDBRANCH   5   6
ENDBRANCH   3   5
ENDBRANCH   2   3
ENDBRANCH   1   2
BRANCH   1  16
ATOM     16  C   UNL     1       6.574   3.075   3.438  1.00  0.00     0.275 C 
BRANCH  16  17
ATOM     17  O   UNL     1       6.349   2.079   4.451  1.00  0.00    -0.458 OA
BRANCH  17  18
ATOM     18  C   UNL     1       5.132   2.121   5.043  1.00  0.00     0.338 C 
ATOM     19  O   UNL     1       4.254   2.947   4.865  1.00  0.00    -0.246 OA
BRANCH  18  20
ATOM     20  C   UNL     1       4.963   0.939   5.903  1.00  0.00     0.060 A 
ATOM     21  C   UNL     1       4.088  -0.058   5.475  1.00  0.00     0.016 A 
ATOM     22  C   UNL     1       5.567   0.856   7.159  1.00  0.00     0.016 A 
ATOM     23  C   UNL     1       3.785  -1.130   6.313  1.00  0.00     0.010 A 
ATOM     24  C   UNL     1       5.269  -0.229   7.997  1.00  0.00     0.010 A 
ATOM     25  C   UNL     1       4.354  -1.216   7.591  1.00  0.00    -0.014 A 
BRANCH  25  26
ATOM     26  C   UNL     1       3.919  -2.307   8.504  1.00  0.00     0.031 A 
ATOM     27  C   UNL     1       3.009  -2.002   9.666  1.00  0.00     0.074 A 
ATOM     28  C   UNL     1       4.276  -3.582   8.256  1.00  0.00     0.049 A 
ATOM     29  N   UNL     1       2.492  -2.821  10.548  1.00  0.00    -0.248 NA
ATOM     30  C   UNL     1       2.631  -0.594   9.861  1.00  0.00     0.031 C 
ATOM     31  C   UNL     1       5.123  -4.021   7.146  1.00  0.00     0.029 A 
ATOM     32  N   UNL     1       3.952  -4.745   8.910  1.00  0.00    -0.354 N 
ATOM     33  C   UNL     1       1.744  -2.029  11.411  1.00  0.00     0.074 A 
ATOM     34  C   UNL     1       1.891  -0.661  10.959  1.00  0.00     0.031 C 
ATOM     35  C   UNL     1       5.231  -5.359   7.182  1.00  0.00     0.029 A 
ATOM     36  C   UNL     1       4.488  -5.870   8.331  1.00  0.00     0.049 A 
ATOM     37  H   UNL     1       3.389  -4.770   9.717  1.00  0.00     0.167 HD
ATOM     38  C   UNL     1       0.996  -2.402  12.478  1.00  0.00     0.031 A 
ATOM     39  C   UNL     1       4.395  -7.168   8.682  1.00  0.00     0.031 A 
ATOM     40  C   UNL     1       0.837  -3.760  12.929  1.00  0.00     0.049 A 
ATOM     41  C   UNL     1       3.572  -7.556   9.880  1.00  0.00     0.074 A 
ATOM     42  C   UNL     1       0.097  -4.231  14.001  1.00  0.00     0.029 A 
ATOM     43  N   UNL     1       1.419  -4.866  12.331  1.00  0.00    -0.354 N 
ATOM     44  N   UNL     1       2.877  -6.790  10.686  1.00  0.00    -0.248 NA
ATOM     45  C   UNL     1       3.514  -8.987  10.208  1.00  0.00     0.031 C 
ATOM     46  C   UNL     1       0.259  -5.620  14.070  1.00  0.00     0.029 A 
ATOM     47  C   UNL     1       1.065  -6.018  13.016  1.00  0.00     0.049 A 
ATOM     48  H   UNL     1       2.000  -4.838  11.536  1.00  0.00     0.167 HD
ATOM     49  C   UNL     1       2.285  -7.648  11.606  1.00  0.00     0.074 A 
ATOM     50  C   UNL     1       2.689  -8.992  11.247  1.00  0.00     0.031 C 
ATOM     51  C   UNL     1       1.478  -7.349  12.655  1.00  0.00     0.031 A 
BRANCH  38  52
ATOM     52  C   UNL     1       0.313  -1.309  13.256  1.00  0.00    -0.014 A 
ATOM     53  C   UNL     1      -0.827  -0.659  12.750  1.00  0.00     0.010 A 
ATOM     54  C   UNL     1       0.802  -0.948  14.524  1.00  0.00     0.010 A 
ATOM     55  C   UNL     1      -1.441   0.362  13.482  1.00  0.00     0.020 A 
ATOM     56  C   UNL     1       0.178   0.057  15.268  1.00  0.00     0.020 A 
ATOM     57  C   UNL     1      -0.929   0.719  14.734  1.00  0.00     0.054 A 
BRANCH  57  58
ATOM     58  S   UNL     1      -1.747   2.040  15.671  1.00  0.00     0.124 S 
ATOM     59  O   UNL     1      -1.266   3.237  14.986  1.00  0.00    -0.237 OA
ATOM     60  O   UNL     1      -3.165   1.738  15.486  1.00  0.00    -0.237 OA
ATOM     61  O   UNL     1      -1.249   1.858  17.032  1.00  0.00    -0.744 OA
ENDBRANCH  57  58
ENDBRANCH  38  52
BRANCH  39  62
ATOM     62  C   UNL     1       5.103  -8.202   7.882  1.00  0.00    -0.014 A 
ATOM     63  C   UNL     1       4.387  -9.080   7.051  1.00  0.00     0.010 A 
ATOM     64  C   UNL     1       6.505  -8.304   7.942  1.00  0.00     0.010 A 
ATOM     65  C   UNL     1       5.059 -10.050   6.301  1.00  0.00     0.020 A 
ATOM     66  C   UNL     1       7.181  -9.257   7.176  1.00  0.00     0.020 A 
ATOM     67  C   UNL     1       6.453 -10.132   6.368  1.00  0.00     0.054 A 
BRANCH  67  68
ATOM     68  S   UNL     1       7.315 -11.355   5.341  1.00  0.00     0.124 S 
ATOM     69  O   UNL     1       7.132 -12.581   6.111  1.00  0.00    -0.237 OA
ATOM     70  O   UNL     1       6.585 -11.286   4.078  1.00  0.00    -0.237 OA
ATOM     71  O   UNL     1       8.684 -10.847   5.287  1.00  0.00    -0.744 OA
ENDBRANCH  67  68
ENDBRANCH  39  62
BRANCH  51  72
ATOM     72  C   UNL     1       0.959  -8.502  13.471  1.00  0.00    -0.014 A 
ATOM     73  C   UNL     1       1.796  -9.198  14.361  1.00  0.00     0.010 A 
ATOM     74  C   UNL     1      -0.390  -8.883  13.357  1.00  0.00     0.010 A 
ATOM     75  C   UNL     1       1.304 -10.285  15.090  1.00  0.00     0.020 A 
ATOM     76  C   UNL     1      -0.891  -9.955  14.100  1.00  0.00     0.020 A 
ATOM     77  C   UNL     1      -0.035 -10.663  14.947  1.00  0.00     0.054 A 
BRANCH  77  78
ATOM     78  S   UNL     1      -0.660 -12.070  15.908  1.00  0.00     0.124 S 
ATOM     79  O   UNL     1      -0.173 -13.207  15.132  1.00  0.00    -0.237 OA
ATOM     80  O   UNL     1      -0.027 -11.881  17.211  1.00  0.00    -0.237 OA
ATOM     81  O   UNL     1      -2.108 -11.879  15.894  1.00  0.00    -0.744 OA
ENDBRANCH  77  78
ENDBRANCH  51  72
ENDBRANCH  25  26
ENDBRANCH  18  20
ENDBRANCH  17  18
ENDBRANCH  16  17
ENDBRANCH   1  16
TORSDOF 17
