REMARK SMILES COc1ccc(OCc2cccs2)c(C(=O)OCCOC(=O)c2ccc(-c3c4nc(c(-c5ccc(S(=O)(=O)[O-])cc5)c5ccc([nH]5)c(-c5ccc(S(=O)(=O)[O-])cc5)c5nc(c(-c6ccc(S(=O)(=O)[O-])cc6)c6ccc3[nH]6)C=C5)C=C4)cc2)c1
REMARK SMILES IDX 18 1 17 2 15 3 16 4 14 5 3 6 4 7 83 8 5 9 6 10 2 11 1 12
REMARK SMILES IDX 7 13 8 14 9 15 10 16 13 17 11 18 12 19 19 20 20 21 21 22
REMARK SMILES IDX 22 23 23 24 24 25 82 26 25 27 81 28 26 29 27 30 28 31 75 32
REMARK SMILES IDX 29 33 80 34 74 35 76 36 30 37 79 38 73 39 72 40 31 42 61 43
REMARK SMILES IDX 42 44 60 45 43 46 46 47 59 48 77 49 44 50 45 51 58 53 78 54
REMARK SMILES IDX 47 55 32 56 33 57 41 58 34 59 40 60 35 61 36 62 37 63 38 64
REMARK SMILES IDX 39 65 62 66 63 67 71 68 64 69 70 70 65 71 66 72 67 73 68 74
REMARK SMILES IDX 69 75 48 76 49 77 57 78 50 79 56 80 51 81 52 82 53 83 54 84
REMARK SMILES IDX 55 85
REMARK H PARENT 76 41 46 52
REMARK Flexibility Score: inf
ROOT
ATOM      1  C   UNL     1       6.372   2.360   2.596  1.00  0.00     0.275 C 
ENDROOT
BRANCH   1   2
ATOM      2  O   UNL     1       4.966   2.203   2.321  1.00  0.00    -0.458 OA
BRANCH   2   3
ATOM      3  C   UNL     1       4.154   2.624   3.336  1.00  0.00     0.342 C 
ATOM      4  O   UNL     1       4.602   3.099   4.357  1.00  0.00    -0.246 OA
BRANCH   3   5
ATOM      5  C   UNL     1       2.700   2.547   2.974  1.00  0.00     0.105 A 
ATOM      6  C   UNL     1       1.071   1.978   1.222  1.00  0.00     0.119 A 
ATOM      7  C   UNL     1       0.078   2.644   1.914  1.00  0.00     0.050 A 
ATOM      8  C   UNL     1       2.374   1.957   1.725  1.00  0.00     0.066 A 
ATOM      9  C   UNL     1       0.367   3.172   3.167  1.00  0.00     0.051 A 
ATOM     10  C   UNL     1       1.654   3.092   3.744  1.00  0.00     0.134 A 
BRANCH   6  11
ATOM     11  O   UNL     1       0.722   1.433   0.017  1.00  0.00    -0.497 OA
ATOM     12  C   UNL     1       1.081   0.057  -0.085  1.00  0.00     0.278 C 
ENDBRANCH   6  11
BRANCH  10  13
ATOM     13  O   UNL     1       1.571   3.577   5.012  1.00  0.00    -0.487 OA
BRANCH  13  14
ATOM     14  C   UNL     1       2.582   3.656   6.008  1.00  0.00     0.276 C 
BRANCH  14  15
ATOM     15  C   UNL     1       3.093   2.329   6.494  1.00  0.00     0.042 A 
ATOM     16  C   UNL     1       4.269   2.138   7.202  1.00  0.00     0.019 A 
ATOM     17  S   UNL     1       2.292   0.841   6.228  1.00  0.00    -0.145 S 
ATOM     18  C   UNL     1       4.573   0.764   7.400  1.00  0.00     0.012 A 
ATOM     19  C   UNL     1       3.594  -0.052   6.883  1.00  0.00     0.065 A 
ENDBRANCH  14  15
ENDBRANCH  13  14
ENDBRANCH  10  13
ENDBRANCH   3   5
ENDBRANCH   2   3
ENDBRANCH   1   2
BRANCH   1  20
ATOM     20  C   UNL     1       6.917   3.765   2.275  1.00  0.00     0.275 C 
BRANCH  20  21
ATOM     21  O   UNL     1       6.273   4.829   3.006  1.00  0.00    -0.458 OA
BRANCH  21  22
ATOM     22  C   UNL     1       5.208   5.394   2.379  1.00  0.00     0.338 C 
ATOM     23  O   UNL     1       4.833   5.140   1.243  1.00  0.00    -0.246 OA
BRANCH  22  24
ATOM     24  C   UNL     1       4.427   6.261   3.300  1.00  0.00     0.060 A 
ATOM     25  C   UNL     1       3.032   6.226   3.185  1.00  0.00     0.016 A 
ATOM     26  C   UNL     1       5.016   7.107   4.245  1.00  0.00     0.016 A 
ATOM     27  C   UNL     1       2.225   6.995   4.028  1.00  0.00     0.010 A 
ATOM     28  C   UNL     1       4.204   7.912   5.067  1.00  0.00     0.010 A 
ATOM     29  C   UNL     1       2.803   7.859   4.966  1.00  0.00    -0.014 A 
BRANCH  29  30
ATOM     30  C   UNL     1       1.917   8.755   5.759  1.00  0.00     0.031 A 
ATOM     31  C   UNL     1       1.492  10.075   5.179  1.00  0.00     0.074 A 
ATOM     32  C   UNL     1       1.429   8.372   6.955  1.00  0.00     0.049 A 
ATOM     33  N   UNL     1       0.649  10.955   5.656  1.00  0.00    -0.248 NA
ATOM     34  C   UNL     1       2.093  10.450   3.890  1.00  0.00     0.031 C 
ATOM     35  C   UNL     1       1.730   7.106   7.616  1.00  0.00     0.029 A 
ATOM     36  N   UNL     1       0.561   8.999   7.817  1.00  0.00    -0.354 N 
ATOM     37  C   UNL     1       0.612  11.987   4.727  1.00  0.00     0.074 A 
ATOM     38  C   UNL     1       1.533  11.632   3.667  1.00  0.00     0.031 C 
ATOM     39  C   UNL     1       1.035   7.032   8.765  1.00  0.00     0.029 A 
ATOM     40  C   UNL     1       0.272   8.266   8.946  1.00  0.00     0.049 A 
ATOM     41  H   UNL     1       0.181   9.890   7.643  1.00  0.00     0.167 HD
ATOM     42  C   UNL     1      -0.116  13.129   4.755  1.00  0.00     0.031 A 
ATOM     43  C   UNL     1      -0.506   8.558  10.009  1.00  0.00     0.031 A 
ATOM     44  C   UNL     1      -1.002  13.508   5.826  1.00  0.00     0.049 A 
ATOM     45  C   UNL     1      -1.233   9.880  10.053  1.00  0.00     0.074 A 
ATOM     46  C   UNL     1      -1.787  14.644   5.929  1.00  0.00     0.029 A 
ATOM     47  N   UNL     1      -1.206  12.778   6.987  1.00  0.00    -0.354 N 
ATOM     48  N   UNL     1      -1.296  10.822   9.142  1.00  0.00    -0.248 NA
ATOM     49  C   UNL     1      -1.997  10.177  11.275  1.00  0.00     0.031 C 
ATOM     50  C   UNL     1      -2.407  14.638   7.183  1.00  0.00     0.029 A 
ATOM     51  C   UNL     1      -2.070  13.461   7.830  1.00  0.00     0.049 A 
ATOM     52  H   UNL     1      -0.798  11.905   7.184  1.00  0.00     0.167 HD
ATOM     53  C   UNL     1      -2.127  11.806   9.669  1.00  0.00     0.074 A 
ATOM     54  C   UNL     1      -2.563  11.336  10.966  1.00  0.00     0.031 C 
ATOM     55  C   UNL     1      -2.496  12.994   9.126  1.00  0.00     0.031 A 
BRANCH  42  56
ATOM     56  C   UNL     1       0.055  14.088   3.607  1.00  0.00    -0.014 A 
ATOM     57  C   UNL     1      -0.462  13.803   2.330  1.00  0.00     0.010 A 
ATOM     58  C   UNL     1       0.703  15.319   3.825  1.00  0.00     0.010 A 
ATOM     59  C   UNL     1      -0.306  14.719   1.285  1.00  0.00     0.020 A 
ATOM     60  C   UNL     1       0.836  16.247   2.790  1.00  0.00     0.020 A 
ATOM     61  C   UNL     1       0.342  15.935   1.522  1.00  0.00     0.054 A 
BRANCH  61  62
ATOM     62  S   UNL     1       0.502  17.116   0.156  1.00  0.00     0.124 S 
ATOM     63  O   UNL     1       1.484  16.455  -0.701  1.00  0.00    -0.237 OA
ATOM     64  O   UNL     1      -0.856  17.176  -0.376  1.00  0.00    -0.237 OA
ATOM     65  O   UNL     1       0.968  18.339   0.805  1.00  0.00    -0.744 OA
ENDBRANCH  61  62
ENDBRANCH  42  56
BRANCH  43  66
ATOM     66  C   UNL     1      -0.625   7.604  11.152  1.00  0.00    -0.014 A 
ATOM     67  C   UNL     1      -1.859   7.005  11.468  1.00  0.00     0.010 A 
ATOM     68  C   UNL     1       0.488   7.334  11.969  1.00  0.00     0.010 A 
ATOM     69  C   UNL     1      -1.984   6.185  12.594  1.00  0.00     0.020 A 
ATOM     70  C   UNL     1       0.376   6.487  13.075  1.00  0.00     0.020 A 
ATOM     71  C   UNL     1      -0.865   5.932  13.392  1.00  0.00     0.054 A 
BRANCH  71  72
ATOM     72  S   UNL     1      -1.043   4.849  14.838  1.00  0.00     0.124 S 
ATOM     73  O   UNL     1      -1.800   5.692  15.758  1.00  0.00    -0.237 OA
ATOM     74  O   UNL     1      -1.764   3.704  14.288  1.00  0.00    -0.237 OA
ATOM     75  O   UNL     1       0.338   4.575  15.232  1.00  0.00    -0.744 OA
ENDBRANCH  71  72
ENDBRANCH  43  66
BRANCH  55  76
ATOM     76  C   UNL     1      -3.446  13.859   9.919  1.00  0.00    -0.014 A 
ATOM     77  C   UNL     1      -3.047  14.485  11.115  1.00  0.00     0.010 A 
ATOM     78  C   UNL     1      -4.753  14.074   9.443  1.00  0.00     0.010 A 
ATOM     79  C   UNL     1      -3.951  15.265  11.843  1.00  0.00     0.020 A 
ATOM     80  C   UNL     1      -5.649  14.881  10.150  1.00  0.00     0.020 A 
ATOM     81  C   UNL     1      -5.248  15.456  11.357  1.00  0.00     0.054 A 
BRANCH  81  82
ATOM     82  S   UNL     1      -6.397  16.487  12.311  1.00  0.00     0.124 S 
ATOM     83  O   UNL     1      -6.708  15.625  13.448  1.00  0.00    -0.237 OA
ATOM     84  O   UNL     1      -5.590  17.666  12.618  1.00  0.00    -0.237 OA
ATOM     85  O   UNL     1      -7.503  16.721  11.386  1.00  0.00    -0.744 OA
ENDBRANCH  81  82
ENDBRANCH  55  76
ENDBRANCH  29  30
ENDBRANCH  22  24
ENDBRANCH  21  22
ENDBRANCH  20  21
ENDBRANCH   1  20
TORSDOF 18
