REMARK SMILES O=C(OCCOC(=O)[C@@H]1CC=CC[C@H]1C(=O)N1CC[NH+](Cc2ccc3c(c2)OCO3)CC1)c1ccc(-c2c3nc(c(-c4ccc(S(=O)(=O)[O-])cc4)c4ccc([nH]4)c(-c4ccc(S(=O)(=O)[O-])cc4)c4nc(c(-c5ccc(S(=O)(=O)[O-])cc5)c5ccc2[nH]5)C=C4)C=C3)cc1
REMARK SMILES IDX 4 1 3 2 2 3 1 4 33 5 34 6 92 7 35 8 91 9 36 10 37 11 38 12
REMARK SMILES IDX 85 13 39 14 90 15 84 16 86 17 40 18 89 19 83 20 82 21 41 23
REMARK SMILES IDX 71 24 52 25 70 26 53 27 56 28 69 29 87 30 54 31 55 32 68 34
REMARK SMILES IDX 88 35 57 36 42 37 43 38 51 39 44 40 50 41 45 42 46 43 47 44
REMARK SMILES IDX 48 45 49 46 72 47 73 48 81 49 74 50 80 51 75 52 76 53 77 54
REMARK SMILES IDX 78 55 79 56 58 57 59 58 67 59 60 60 66 61 61 62 62 63 63 64
REMARK SMILES IDX 64 65 65 66 5 67 6 68 7 69 8 70 9 71 10 72 14 73 11 74 13 75
REMARK SMILES IDX 12 76 15 77 16 78 17 79 18 80 32 81 19 82 31 83 20 84 21 86
REMARK SMILES IDX 22 87 23 88 27 89 24 90 26 91 25 92 28 93 30 94 29 95
REMARK H PARENT 86 22 56 33 20 85
REMARK Flexibility Score: inf
ROOT
ATOM      1  C   UNL     1       3.634  -7.047   1.409  1.00  0.00     0.275 C 
ENDROOT
BRANCH   1   2
ATOM      2  O   UNL     1       4.058  -7.418   0.082  1.00  0.00    -0.458 OA
BRANCH   2   3
ATOM      3  C   UNL     1       3.834  -6.667  -1.020  1.00  0.00     0.338 C 
ATOM      4  O   UNL     1       4.752  -6.441  -1.807  1.00  0.00    -0.246 OA
BRANCH   3   5
ATOM      5  C   UNL     1       2.449  -6.181  -1.289  1.00  0.00     0.060 A 
ATOM      6  C   UNL     1       1.306  -6.634  -0.624  1.00  0.00     0.016 A 
ATOM      7  C   UNL     1       2.297  -5.186  -2.255  1.00  0.00     0.016 A 
ATOM      8  C   UNL     1       0.071  -5.995  -0.800  1.00  0.00     0.010 A 
ATOM      9  C   UNL     1       1.080  -4.517  -2.402  1.00  0.00     0.010 A 
ATOM     10  C   UNL     1      -0.048  -4.904  -1.664  1.00  0.00    -0.014 A 
BRANCH  10  11
ATOM     11  C   UNL     1      -1.357  -4.242  -1.911  1.00  0.00     0.031 A 
ATOM     12  C   UNL     1      -1.949  -4.332  -3.291  1.00  0.00     0.074 A 
ATOM     13  C   UNL     1      -1.994  -3.541  -0.948  1.00  0.00     0.049 A 
ATOM     14  N   UNL     1      -3.074  -3.837  -3.735  1.00  0.00    -0.248 NA
ATOM     15  C   UNL     1      -1.186  -5.085  -4.303  1.00  0.00     0.031 C 
ATOM     16  C   UNL     1      -1.556  -3.399   0.440  1.00  0.00     0.029 A 
ATOM     17  N   UNL     1      -3.137  -2.777  -0.996  1.00  0.00    -0.354 N 
ATOM     18  C   UNL     1      -3.167  -4.261  -5.054  1.00  0.00     0.074 A 
ATOM     19  C   UNL     1      -1.930  -4.926  -5.384  1.00  0.00     0.031 C 
ATOM     20  C   UNL     1      -2.344  -2.514   1.077  1.00  0.00     0.029 A 
ATOM     21  C   UNL     1      -3.386  -2.072   0.162  1.00  0.00     0.049 A 
ATOM     22  H   UNL     1      -3.724  -2.738  -1.786  1.00  0.00     0.167 HD
ATOM     23  C   UNL     1      -4.230  -4.196  -5.887  1.00  0.00     0.031 A 
ATOM     24  C   UNL     1      -4.359  -1.188   0.461  1.00  0.00     0.031 A 
ATOM     25  C   UNL     1      -5.473  -3.577  -5.535  1.00  0.00     0.049 A 
ATOM     26  C   UNL     1      -5.490  -1.033  -0.519  1.00  0.00     0.074 A 
ATOM     27  C   UNL     1      -6.653  -3.541  -6.252  1.00  0.00     0.029 A 
ATOM     28  N   UNL     1      -5.691  -2.884  -4.354  1.00  0.00    -0.354 N 
ATOM     29  N   UNL     1      -5.624  -1.576  -1.706  1.00  0.00    -0.248 NA
ATOM     30  C   UNL     1      -6.641  -0.229  -0.087  1.00  0.00     0.031 C 
ATOM     31  C   UNL     1      -7.580  -2.796  -5.516  1.00  0.00     0.029 A 
ATOM     32  C   UNL     1      -6.984  -2.398  -4.328  1.00  0.00     0.049 A 
ATOM     33  H   UNL     1      -5.025  -2.757  -3.641  1.00  0.00     0.167 HD
ATOM     34  C   UNL     1      -6.908  -1.252  -2.124  1.00  0.00     0.074 A 
ATOM     35  C   UNL     1      -7.498  -0.442  -1.077  1.00  0.00     0.031 C 
ATOM     36  C   UNL     1      -7.552  -1.619  -3.258  1.00  0.00     0.031 A 
BRANCH  23  37
ATOM     37  C   UNL     1      -4.094  -4.890  -7.212  1.00  0.00    -0.014 A 
ATOM     38  C   UNL     1      -4.046  -6.297  -7.269  1.00  0.00     0.010 A 
ATOM     39  C   UNL     1      -3.994  -4.150  -8.400  1.00  0.00     0.010 A 
ATOM     40  C   UNL     1      -3.848  -6.951  -8.485  1.00  0.00     0.020 A 
ATOM     41  C   UNL     1      -3.821  -4.803  -9.625  1.00  0.00     0.020 A 
ATOM     42  C   UNL     1      -3.730  -6.198  -9.656  1.00  0.00     0.054 A 
BRANCH  42  43
ATOM     43  S   UNL     1      -3.483  -7.074 -11.224  1.00  0.00     0.124 S 
ATOM     44  O   UNL     1      -2.084  -7.483 -11.123  1.00  0.00    -0.237 OA
ATOM     45  O   UNL     1      -4.460  -8.158 -11.144  1.00  0.00    -0.237 OA
ATOM     46  O   UNL     1      -3.764  -6.059 -12.235  1.00  0.00    -0.744 OA
ENDBRANCH  42  43
ENDBRANCH  23  37
BRANCH  24  47
ATOM     47  C   UNL     1      -4.372  -0.456   1.760  1.00  0.00    -0.014 A 
ATOM     48  C   UNL     1      -5.264  -0.818   2.784  1.00  0.00     0.010 A 
ATOM     49  C   UNL     1      -3.524   0.650   1.959  1.00  0.00     0.010 A 
ATOM     50  C   UNL     1      -5.344  -0.063   3.961  1.00  0.00     0.020 A 
ATOM     51  C   UNL     1      -3.588   1.398   3.142  1.00  0.00     0.020 A 
ATOM     52  C   UNL     1      -4.512   1.047   4.128  1.00  0.00     0.054 A 
BRANCH  52  53
ATOM     53  S   UNL     1      -4.647   2.017   5.658  1.00  0.00     0.124 S 
ATOM     54  O   UNL     1      -5.931   2.687   5.482  1.00  0.00    -0.237 OA
ATOM     55  O   UNL     1      -4.609   0.983   6.689  1.00  0.00    -0.237 OA
ATOM     56  O   UNL     1      -3.475   2.889   5.616  1.00  0.00    -0.744 OA
ENDBRANCH  52  53
ENDBRANCH  24  47
BRANCH  36  57
ATOM     57  C   UNL     1      -8.986  -1.205  -3.401  1.00  0.00    -0.014 A 
ATOM     58  C   UNL     1      -9.330   0.121  -3.709  1.00  0.00     0.010 A 
ATOM     59  C   UNL     1      -9.995  -2.182  -3.307  1.00  0.00     0.010 A 
ATOM     60  C   UNL     1     -10.667   0.468  -3.908  1.00  0.00     0.020 A 
ATOM     61  C   UNL     1     -11.329  -1.843  -3.533  1.00  0.00     0.020 A 
ATOM     62  C   UNL     1     -11.657  -0.517  -3.824  1.00  0.00     0.054 A 
BRANCH  62  63
ATOM     63  S   UNL     1     -13.376  -0.057  -4.169  1.00  0.00     0.124 S 
ATOM     64  O   UNL     1     -13.762   0.618  -2.933  1.00  0.00    -0.237 OA
ATOM     65  O   UNL     1     -13.249   0.804  -5.343  1.00  0.00    -0.237 OA
ATOM     66  O   UNL     1     -14.034  -1.338  -4.412  1.00  0.00    -0.744 OA
ENDBRANCH  62  63
ENDBRANCH  36  57
ENDBRANCH  10  11
ENDBRANCH   3   5
ENDBRANCH   2   3
ENDBRANCH   1   2
BRANCH   1  67
ATOM     67  C   UNL     1       3.971  -5.627   1.868  1.00  0.00     0.274 C 
BRANCH  67  68
ATOM     68  O   UNL     1       3.347  -4.577   1.106  1.00  0.00    -0.462 OA
BRANCH  68  69
ATOM     69  C   UNL     1       3.752  -3.337   1.513  1.00  0.00     0.310 C 
ATOM     70  O   UNL     1       4.560  -3.153   2.420  1.00  0.00    -0.252 OA
BRANCH  69  71
ATOM     71  C   UNL     1       3.071  -2.176   0.810  1.00  0.00     0.115 C 
ATOM     72  C   UNL     1       1.614  -2.095   1.271  1.00  0.00     0.043 C 
ATOM     73  C   UNL     1       3.169  -2.176  -0.714  1.00  0.00     0.097 C 
ATOM     74  C   UNL     1       0.838  -1.044   0.532  1.00  0.00    -0.030 C 
ATOM     75  C   UNL     1       2.488  -0.938  -1.333  1.00  0.00     0.041 C 
ATOM     76  C   UNL     1       1.234  -0.520  -0.635  1.00  0.00    -0.030 C 
BRANCH  73  77
ATOM     77  C   UNL     1       4.474  -2.333  -1.493  1.00  0.00     0.227 C 
ATOM     78  O   UNL     1       4.428  -2.945  -2.568  1.00  0.00    -0.275 OA
ATOM     79  N   UNL     1       5.603  -1.602  -1.178  1.00  0.00    -0.331 N 
ATOM     80  C   UNL     1       6.608  -1.503  -2.238  1.00  0.00     0.181 C 
ATOM     81  C   UNL     1       6.117  -1.450   0.174  1.00  0.00     0.181 C 
ATOM     82  C   UNL     1       7.656  -0.399  -2.013  1.00  0.00     0.284 C 
ATOM     83  C   UNL     1       7.121  -0.305   0.335  1.00  0.00     0.284 C 
ATOM     84  N   UNL     1       8.197  -0.266  -0.655  1.00  0.00    -0.328 N 
ATOM     85  H   UNL     1       8.614   0.664  -0.614  1.00  0.00     0.348 HD
BRANCH  84  86
ATOM     86  C   UNL     1       9.376  -1.074  -0.333  1.00  0.00     0.299 C 
BRANCH  86  87
ATOM     87  C   UNL     1       9.212  -2.575  -0.252  1.00  0.00     0.010 A 
ATOM     88  C   UNL     1       9.304  -3.365  -1.422  1.00  0.00     0.013 A 
ATOM     89  C   UNL     1       8.935  -3.202   0.977  1.00  0.00     0.060 A 
ATOM     90  C   UNL     1       9.047  -4.739  -1.391  1.00  0.00     0.051 A 
ATOM     91  C   UNL     1       8.684  -4.559   0.976  1.00  0.00     0.166 A 
ATOM     92  C   UNL     1       8.732  -5.304  -0.177  1.00  0.00     0.165 A 
ATOM     93  O   UNL     1       8.340  -5.307   2.060  1.00  0.00    -0.454 OA
ATOM     94  O   UNL     1       8.435  -6.613   0.035  1.00  0.00    -0.454 OA
ATOM     95  C   UNL     1       8.112  -6.590   1.437  1.00  0.00     0.468 C 
ENDBRANCH  86  87
ENDBRANCH  84  86
ENDBRANCH  73  77
ENDBRANCH  69  71
ENDBRANCH  68  69
ENDBRANCH  67  68
ENDBRANCH   1  67
TORSDOF 17
