REMARK SMILES COCC[NH2+]CC(=O)N1C[C@H](OC)C[C@@H]1C(=O)OCCOC(=O)c1ccc(-c2c3nc(c(-c4ccc(S(=O)(=O)[O-])cc4)c4ccc([nH]4)c(-c4ccc(S(=O)(=O)[O-])cc4)c4nc(c(-c5ccc(S(=O)(=O)[O-])cc5)c5ccc2[nH]5)C=C4)C=C3)cc1
REMARK SMILES IDX 18 1 16 2 17 3 15 4 9 5 10 6 11 7 14 8 7 9 8 10 6 11 5 12
REMARK SMILES IDX 4 15 3 16 2 17 1 18 12 19 13 20 19 21 20 22 21 23 22 24
REMARK SMILES IDX 23 25 24 26 25 27 83 28 26 29 82 30 27 31 28 32 29 33 76 34
REMARK SMILES IDX 30 35 81 36 75 37 77 38 31 39 80 40 74 41 73 42 32 44 62 45
REMARK SMILES IDX 43 46 61 47 44 48 47 49 60 50 78 51 45 52 46 53 59 55 79 56
REMARK SMILES IDX 48 57 33 58 34 59 42 60 35 61 41 62 36 63 37 64 38 65 39 66
REMARK SMILES IDX 40 67 63 68 64 69 72 70 65 71 71 72 66 73 67 74 68 75 69 76
REMARK SMILES IDX 70 77 49 78 50 79 58 80 51 81 57 82 52 83 53 84 54 85 55 86
REMARK SMILES IDX 56 87
REMARK H PARENT 5 13 5 14 77 43 47 54
REMARK Flexibility Score: inf
ROOT
ATOM      1  O   UNL     1      -2.119   6.838   1.790  1.00  0.00    -0.461 OA
ENDROOT
BRANCH   1   2
ATOM      2  C   UNL     1      -2.106   5.520   2.102  1.00  0.00     0.329 C 
ATOM      3  O   UNL     1      -1.813   5.074   3.205  1.00  0.00    -0.250 OA
BRANCH   2   4
ATOM      4  C   UNL     1      -2.443   4.628   0.901  1.00  0.00     0.198 C 
ATOM      5  N   UNL     1      -1.293   3.839   0.480  1.00  0.00    -0.321 N 
ATOM      6  C   UNL     1      -1.427   3.578  -0.942  1.00  0.00     0.152 C 
ATOM      7  C   UNL     1      -2.088   4.824  -1.507  1.00  0.00     0.140 C 
ATOM      8  C   UNL     1      -2.968   5.328  -0.367  1.00  0.00     0.071 C 
BRANCH   5   9
ATOM      9  C   UNL     1      -0.865   2.807   1.307  1.00  0.00     0.278 C 
ATOM     10  O   UNL     1      -1.547   1.816   1.549  1.00  0.00    -0.268 OA
BRANCH   9  11
ATOM     11  C   UNL     1       0.583   2.981   1.788  1.00  0.00     0.362 C 
BRANCH  11  12
ATOM     12  N   UNL     1       1.488   1.961   1.209  1.00  0.00    -0.337 N 
ATOM     13  H   UNL     1       2.438   2.134   1.538  1.00  0.00     0.346 HD
ATOM     14  H   UNL     1       1.167   1.039   1.505  1.00  0.00     0.346 HD
BRANCH  12  15
ATOM     15  C   UNL     1       1.474   2.009  -0.261  1.00  0.00     0.289 C 
BRANCH  15  16
ATOM     16  C   UNL     1       2.486   1.081  -0.944  1.00  0.00     0.221 C 
BRANCH  16  17
ATOM     17  O   UNL     1       1.921  -0.171  -1.345  1.00  0.00    -0.379 OA
ATOM     18  C   UNL     1       1.528  -0.994  -0.257  1.00  0.00     0.195 C 
ENDBRANCH  16  17
ENDBRANCH  15  16
ENDBRANCH  12  15
ENDBRANCH  11  12
ENDBRANCH   9  11
ENDBRANCH   5   9
BRANCH   7  19
ATOM     19  O   UNL     1      -1.142   5.777  -2.007  1.00  0.00    -0.380 OA
ATOM     20  C   UNL     1      -0.269   6.390  -1.071  1.00  0.00     0.195 C 
ENDBRANCH   7  19
ENDBRANCH   2   4
ENDBRANCH   1   2
BRANCH   1  21
ATOM     21  C   UNL     1      -2.059   7.776   2.878  1.00  0.00     0.274 C 
BRANCH  21  22
ATOM     22  C   UNL     1      -3.339   8.611   2.872  1.00  0.00     0.275 C 
BRANCH  22  23
ATOM     23  O   UNL     1      -4.484   7.793   3.191  1.00  0.00    -0.458 OA
BRANCH  23  24
ATOM     24  C   UNL     1      -5.141   7.275   2.129  1.00  0.00     0.338 C 
ATOM     25  O   UNL     1      -4.891   7.448   0.945  1.00  0.00    -0.246 OA
BRANCH  24  26
ATOM     26  C   UNL     1      -6.163   6.328   2.586  1.00  0.00     0.060 A 
ATOM     27  C   UNL     1      -5.987   4.971   2.306  1.00  0.00     0.016 A 
ATOM     28  C   UNL     1      -7.333   6.781   3.193  1.00  0.00     0.016 A 
ATOM     29  C   UNL     1      -6.982   4.053   2.623  1.00  0.00     0.010 A 
ATOM     30  C   UNL     1      -8.332   5.858   3.517  1.00  0.00     0.010 A 
ATOM     31  C   UNL     1      -8.167   4.492   3.222  1.00  0.00    -0.014 A 
BRANCH  31  32
ATOM     32  C   UNL     1      -9.260   3.529   3.488  1.00  0.00     0.031 A 
ATOM     33  C   UNL     1     -10.494   3.555   2.632  1.00  0.00     0.074 A 
ATOM     34  C   UNL     1      -9.134   2.628   4.480  1.00  0.00     0.049 A 
ATOM     35  N   UNL     1     -11.613   2.896   2.779  1.00  0.00    -0.248 NA
ATOM     36  C   UNL     1     -10.464   4.441   1.456  1.00  0.00     0.031 C 
ATOM     37  C   UNL     1      -7.952   2.460   5.328  1.00  0.00     0.029 A 
ATOM     38  N   UNL     1     -10.014   1.683   4.942  1.00  0.00    -0.354 N 
ATOM     39  C   UNL     1     -12.431   3.302   1.731  1.00  0.00     0.074 A 
ATOM     40  C   UNL     1     -11.683   4.272   0.960  1.00  0.00     0.031 C 
ATOM     41  C   UNL     1      -8.183   1.472   6.209  1.00  0.00     0.029 A 
ATOM     42  C   UNL     1      -9.543   0.977   6.023  1.00  0.00     0.049 A 
ATOM     43  H   UNL     1     -10.899   1.526   4.539  1.00  0.00     0.167 HD
ATOM     44  C   UNL     1     -13.692   2.903   1.442  1.00  0.00     0.031 A 
ATOM     45  C   UNL     1     -10.154   0.060   6.798  1.00  0.00     0.031 A 
ATOM     46  C   UNL     1     -14.426   1.936   2.214  1.00  0.00     0.049 A 
ATOM     47  C   UNL     1     -11.581  -0.312   6.500  1.00  0.00     0.074 A 
ATOM     48  C   UNL     1     -15.719   1.483   2.024  1.00  0.00     0.029 A 
ATOM     49  N   UNL     1     -13.925   1.266   3.321  1.00  0.00    -0.354 N 
ATOM     50  N   UNL     1     -12.359   0.118   5.535  1.00  0.00    -0.248 NA
ATOM     51  C   UNL     1     -12.213  -1.287   7.398  1.00  0.00     0.031 C 
ATOM     52  C   UNL     1     -16.012   0.562   3.037  1.00  0.00     0.029 A 
ATOM     53  C   UNL     1     -14.886   0.409   3.828  1.00  0.00     0.049 A 
ATOM     54  H   UNL     1     -13.020   1.383   3.690  1.00  0.00     0.167 HD
ATOM     55  C   UNL     1     -13.566  -0.553   5.697  1.00  0.00     0.074 A 
ATOM     56  C   UNL     1     -13.410  -1.425   6.844  1.00  0.00     0.031 C 
ATOM     57  C   UNL     1     -14.703  -0.456   4.965  1.00  0.00     0.031 A 
BRANCH  44  58
ATOM     58  C   UNL     1     -14.370   3.539   0.260  1.00  0.00    -0.014 A 
ATOM     59  C   UNL     1     -14.021   3.186  -1.056  1.00  0.00     0.010 A 
ATOM     60  C   UNL     1     -15.400   4.474   0.469  1.00  0.00     0.010 A 
ATOM     61  C   UNL     1     -14.672   3.779  -2.142  1.00  0.00     0.020 A 
ATOM     62  C   UNL     1     -16.067   5.053  -0.614  1.00  0.00     0.020 A 
ATOM     63  C   UNL     1     -15.688   4.712  -1.914  1.00  0.00     0.054 A 
BRANCH  63  64
ATOM     64  S   UNL     1     -16.535   5.447  -3.340  1.00  0.00     0.124 S 
ATOM     65  O   UNL     1     -15.531   6.389  -3.832  1.00  0.00    -0.237 OA
ATOM     66  O   UNL     1     -16.785   4.292  -4.198  1.00  0.00    -0.237 OA
ATOM     67  O   UNL     1     -17.728   6.057  -2.759  1.00  0.00    -0.744 OA
ENDBRANCH  63  64
ENDBRANCH  44  58
BRANCH  45  68
ATOM     68  C   UNL     1      -9.439  -0.535   7.960  1.00  0.00    -0.014 A 
ATOM     69  C   UNL     1      -9.063  -1.889   7.954  1.00  0.00     0.010 A 
ATOM     70  C   UNL     1      -9.143   0.252   9.088  1.00  0.00     0.010 A 
ATOM     71  C   UNL     1      -8.429  -2.453   9.065  1.00  0.00     0.020 A 
ATOM     72  C   UNL     1      -8.486  -0.300  10.190  1.00  0.00     0.020 A 
ATOM     73  C   UNL     1      -8.148  -1.655  10.178  1.00  0.00     0.054 A 
BRANCH  73  74
ATOM     74  S   UNL     1      -7.301  -2.395  11.602  1.00  0.00     0.124 S 
ATOM     75  O   UNL     1      -8.387  -3.115  12.259  1.00  0.00    -0.237 OA
ATOM     76  O   UNL     1      -6.280  -3.227  10.970  1.00  0.00    -0.237 OA
ATOM     77  O   UNL     1      -6.786  -1.236  12.330  1.00  0.00    -0.744 OA
ENDBRANCH  73  74
ENDBRANCH  45  68
BRANCH  57  78
ATOM     78  C   UNL     1     -15.849  -1.346   5.356  1.00  0.00    -0.014 A 
ATOM     79  C   UNL     1     -16.632  -1.068   6.490  1.00  0.00     0.010 A 
ATOM     80  C   UNL     1     -16.175  -2.449   4.546  1.00  0.00     0.010 A 
ATOM     81  C   UNL     1     -17.706  -1.898   6.823  1.00  0.00     0.020 A 
ATOM     82  C   UNL     1     -17.261  -3.267   4.864  1.00  0.00     0.020 A 
ATOM     83  C   UNL     1     -18.012  -2.994   6.010  1.00  0.00     0.054 A 
BRANCH  83  84
ATOM     84  S   UNL     1     -19.437  -4.032   6.437  1.00  0.00     0.124 S 
ATOM     85  O   UNL     1     -18.908  -4.834   7.536  1.00  0.00    -0.237 OA
ATOM     86  O   UNL     1     -20.453  -3.049   6.808  1.00  0.00    -0.237 OA
ATOM     87  O   UNL     1     -19.711  -4.766   5.204  1.00  0.00    -0.744 OA
ENDBRANCH  83  84
ENDBRANCH  57  78
ENDBRANCH  31  32
ENDBRANCH  24  26
ENDBRANCH  23  24
ENDBRANCH  22  23
ENDBRANCH  21  22
ENDBRANCH   1  21
TORSDOF 21
