REMARK SMILES CN1C(=O)/C(=C\c2ccc(-c3ccccc3C(=O)OCCOC(=O)c3ccc(-c4c5nc(c(-c6ccc(S(=O)(=O)[O-])cc6)c6ccc([nH]6)c(-c6ccc(S(=O)(=O)[O-])cc6)c6nc(c(-c7ccc(S(=O)(=O)[O-])cc7)c7ccc4[nH]7)C=C6)C=C5)cc3)o2)C(=O)[NH+]=C1S
REMARK SMILES IDX 20 1 19 2 17 3 18 4 16 5 11 6 12 7 13 8 15 9 14 10 10 11
REMARK SMILES IDX 7 12 8 13 85 14 9 15 6 16 1 17 2 18 3 19 89 20 4 21 5 22
REMARK SMILES IDX 88 23 86 24 87 26 90 27 21 29 22 30 23 31 24 32 25 33 26 34
REMARK SMILES IDX 84 35 27 36 83 37 28 38 29 39 30 40 77 41 31 42 82 43 76 44
REMARK SMILES IDX 78 45 32 46 81 47 75 48 74 49 33 51 63 52 44 53 62 54 45 55
REMARK SMILES IDX 48 56 61 57 79 58 46 59 47 60 60 62 80 63 49 64 34 65 35 66
REMARK SMILES IDX 43 67 36 68 42 69 37 70 38 71 39 72 40 73 41 74 64 75 65 76
REMARK SMILES IDX 73 77 66 78 72 79 67 80 68 81 69 82 70 83 71 84 50 85 51 86
REMARK SMILES IDX 59 87 52 88 58 89 53 90 54 91 55 92 56 93 57 94
REMARK H PARENT 88 25 90 28 78 50 48 61
REMARK Flexibility Score: inf
ROOT
ATOM      1  C   UNL     1       6.578  -5.328   3.688  1.00  0.00     0.275 C 
ENDROOT
BRANCH   1   2
ATOM      2  O   UNL     1       6.762  -5.202   2.263  1.00  0.00    -0.458 OA
BRANCH   2   3
ATOM      3  C   UNL     1       7.790  -4.433   1.826  1.00  0.00     0.338 C 
ATOM      4  O   UNL     1       8.672  -3.951   2.518  1.00  0.00    -0.246 OA
BRANCH   3   5
ATOM      5  C   UNL     1       7.752  -4.273   0.347  1.00  0.00     0.071 A 
ATOM      6  C   UNL     1       6.574  -3.957  -0.350  1.00  0.00     0.032 A 
ATOM      7  C   UNL     1       6.633  -3.814  -1.749  1.00  0.00     0.013 A 
ATOM      8  C   UNL     1       7.833  -3.993  -2.442  1.00  0.00     0.001 A 
ATOM      9  C   UNL     1       8.962  -4.405  -0.356  1.00  0.00     0.016 A 
ATOM     10  C   UNL     1       8.997  -4.295  -1.746  1.00  0.00     0.001 A 
BRANCH   6  11
ATOM     11  C   UNL     1       5.314  -3.731   0.334  1.00  0.00     0.135 A 
ATOM     12  C   UNL     1       3.146  -4.052   0.582  1.00  0.00     0.128 A 
ATOM     13  C   UNL     1       3.594  -3.353   1.695  1.00  0.00     0.051 A 
ATOM     14  O   UNL     1       4.222  -4.325  -0.218  1.00  0.00    -0.457 OA
ATOM     15  C   UNL     1       4.958  -3.070   1.489  1.00  0.00     0.051 A 
BRANCH  12  16
ATOM     16  C   UNL     1       1.815  -4.376   0.227  1.00  0.00     0.071 C 
ATOM     17  C   UNL     1       0.642   0.316   0.013  1.00  0.00     0.301 C 
ATOM     18  N   UNL     1       0.282  -1.094  -0.116  1.00  0.00    -0.189 N 
ATOM     19  C   UNL     1       1.319  -1.985  -0.259  1.00  0.00     0.349 C 
ATOM     20  C   UNL     1      -1.008  -1.543  -0.238  1.00  0.00     0.318 C 
ATOM     21  O   UNL     1       2.459  -1.622  -0.535  1.00  0.00    -0.240 OA
ATOM     22  C   UNL     1       0.940  -3.410  -0.112  1.00  0.00     0.157 C 
ATOM     23  N   UNL     1      -1.374  -2.768  -0.347  1.00  0.00    -0.200 N 
ATOM     24  C   UNL     1      -0.474  -3.795  -0.290  1.00  0.00     0.347 C 
ATOM     25  H   UNL     1      -2.329  -2.973  -0.474  1.00  0.00     0.316 HD
ATOM     26  O   UNL     1      -0.820  -4.965  -0.334  1.00  0.00    -0.241 OA
BRANCH  20  27
ATOM     27  S   UNL     1      -2.296  -0.362  -0.277  1.00  0.00    -0.055 SA
ATOM     28  H   UNL     1      -1.770   0.886  -0.153  1.00  0.00     0.116 HD
ENDBRANCH  20  27
ENDBRANCH  12  16
ENDBRANCH   6  11
ENDBRANCH   3   5
ENDBRANCH   2   3
ENDBRANCH   1   2
BRANCH   1  29
ATOM     29  C   UNL     1       6.596  -6.796   4.106  1.00  0.00     0.275 C 
BRANCH  29  30
ATOM     30  O   UNL     1       7.907  -7.342   3.893  1.00  0.00    -0.458 OA
BRANCH  30  31
ATOM     31  C   UNL     1       8.057  -7.947   2.694  1.00  0.00     0.338 C 
ATOM     32  O   UNL     1       7.195  -8.194   1.868  1.00  0.00    -0.246 OA
BRANCH  31  33
ATOM     33  C   UNL     1       9.481  -8.150   2.422  1.00  0.00     0.060 A 
ATOM     34  C   UNL     1      10.133  -7.159   1.701  1.00  0.00     0.016 A 
ATOM     35  C   UNL     1      10.108  -9.362   2.686  1.00  0.00     0.016 A 
ATOM     36  C   UNL     1      11.367  -7.412   1.122  1.00  0.00     0.010 A 
ATOM     37  C   UNL     1      11.401  -9.575   2.195  1.00  0.00     0.010 A 
ATOM     38  C   UNL     1      12.024  -8.625   1.362  1.00  0.00    -0.014 A 
BRANCH  38  39
ATOM     39  C   UNL     1      13.329  -8.902   0.696  1.00  0.00     0.031 A 
ATOM     40  C   UNL     1      13.490 -10.114  -0.187  1.00  0.00     0.074 A 
ATOM     41  C   UNL     1      14.361  -8.047   0.853  1.00  0.00     0.049 A 
ATOM     42  N   UNL     1      14.572 -10.582  -0.758  1.00  0.00    -0.248 NA
ATOM     43  C   UNL     1      12.285 -10.919  -0.448  1.00  0.00     0.031 C 
ATOM     44  C   UNL     1      14.330  -6.814   1.647  1.00  0.00     0.029 A 
ATOM     45  N   UNL     1      15.635  -8.073   0.341  1.00  0.00    -0.354 N 
ATOM     46  C   UNL     1      14.192 -11.763  -1.389  1.00  0.00     0.074 A 
ATOM     47  C   UNL     1      12.783 -11.949  -1.118  1.00  0.00     0.031 C 
ATOM     48  C   UNL     1      15.503  -6.179   1.524  1.00  0.00     0.029 A 
ATOM     49  C   UNL     1      16.407  -7.004   0.733  1.00  0.00     0.049 A 
ATOM     50  H   UNL     1      15.964  -8.788  -0.249  1.00  0.00     0.167 HD
ATOM     51  C   UNL     1      14.947 -12.613  -2.125  1.00  0.00     0.031 A 
ATOM     52  C   UNL     1      17.709  -6.730   0.521  1.00  0.00     0.031 A 
ATOM     53  C   UNL     1      16.342 -12.399  -2.418  1.00  0.00     0.049 A 
ATOM     54  C   UNL     1      18.533  -7.701  -0.273  1.00  0.00     0.074 A 
ATOM     55  C   UNL     1      17.192 -13.186  -3.176  1.00  0.00     0.029 A 
ATOM     56  N   UNL     1      17.090 -11.318  -1.976  1.00  0.00    -0.354 N 
ATOM     57  N   UNL     1      18.163  -8.827  -0.836  1.00  0.00    -0.248 NA
ATOM     58  C   UNL     1      19.951  -7.368  -0.458  1.00  0.00     0.031 C 
ATOM     59  C   UNL     1      18.468 -12.614  -3.139  1.00  0.00     0.029 A 
ATOM     60  C   UNL     1      18.396 -11.428  -2.425  1.00  0.00     0.049 A 
ATOM     61  H   UNL     1      16.744 -10.580  -1.423  1.00  0.00     0.167 HD
ATOM     62  C   UNL     1      19.297  -9.325  -1.466  1.00  0.00     0.074 A 
ATOM     63  C   UNL     1      20.359  -8.367  -1.228  1.00  0.00     0.031 C 
ATOM     64  C   UNL     1      19.444 -10.469  -2.179  1.00  0.00     0.031 A 
BRANCH  51  65
ATOM     65  C   UNL     1      14.298 -13.882  -2.624  1.00  0.00    -0.014 A 
ATOM     66  C   UNL     1      13.300 -13.867  -3.615  1.00  0.00     0.010 A 
ATOM     67  C   UNL     1      14.725 -15.121  -2.110  1.00  0.00     0.010 A 
ATOM     68  C   UNL     1      12.710 -15.061  -4.046  1.00  0.00     0.020 A 
ATOM     69  C   UNL     1      14.163 -16.318  -2.562  1.00  0.00     0.020 A 
ATOM     70  C   UNL     1      13.145 -16.279  -3.514  1.00  0.00     0.054 A 
BRANCH  70  71
ATOM     71  S   UNL     1      12.375 -17.813  -4.103  1.00  0.00     0.124 S 
ATOM     72  O   UNL     1      11.043 -17.730  -3.507  1.00  0.00    -0.237 OA
ATOM     73  O   UNL     1      12.423 -17.658  -5.554  1.00  0.00    -0.237 OA
ATOM     74  O   UNL     1      13.233 -18.864  -3.562  1.00  0.00    -0.744 OA
ENDBRANCH  70  71
ENDBRANCH  51  65
BRANCH  52  75
ATOM     75  C   UNL     1      18.310  -5.500   1.108  1.00  0.00    -0.014 A 
ATOM     76  C   UNL     1      18.745  -4.446   0.285  1.00  0.00     0.010 A 
ATOM     77  C   UNL     1      18.419  -5.363   2.505  1.00  0.00     0.010 A 
ATOM     78  C   UNL     1      19.283  -3.284   0.848  1.00  0.00     0.020 A 
ATOM     79  C   UNL     1      18.922  -4.190   3.072  1.00  0.00     0.020 A 
ATOM     80  C   UNL     1      19.361  -3.161   2.239  1.00  0.00     0.054 A 
BRANCH  80  81
ATOM     81  S   UNL     1      20.004  -1.620   2.947  1.00  0.00     0.124 S 
ATOM     82  O   UNL     1      21.427  -1.712   2.637  1.00  0.00    -0.237 OA
ATOM     83  O   UNL     1      19.259  -0.601   2.211  1.00  0.00    -0.237 OA
ATOM     84  O   UNL     1      19.663  -1.726   4.365  1.00  0.00    -0.744 OA
ENDBRANCH  80  81
ENDBRANCH  52  75
BRANCH  64  85
ATOM     85  C   UNL     1      20.791 -10.721  -2.805  1.00  0.00    -0.014 A 
ATOM     86  C   UNL     1      21.920 -11.035  -2.027  1.00  0.00     0.010 A 
ATOM     87  C   UNL     1      20.916 -10.670  -4.205  1.00  0.00     0.010 A 
ATOM     88  C   UNL     1      23.159 -11.246  -2.638  1.00  0.00     0.020 A 
ATOM     89  C   UNL     1      22.145 -10.915  -4.821  1.00  0.00     0.020 A 
ATOM     90  C   UNL     1      23.264 -11.183  -4.031  1.00  0.00     0.054 A 
BRANCH  90  91
ATOM     91  S   UNL     1      24.878 -11.484  -4.801  1.00  0.00     0.124 S 
ATOM     92  O   UNL     1      25.610 -10.269  -4.455  1.00  0.00    -0.237 OA
ATOM     93  O   UNL     1      25.329 -12.702  -4.132  1.00  0.00    -0.237 OA
ATOM     94  O   UNL     1      24.563 -11.638  -6.219  1.00  0.00    -0.744 OA
ENDBRANCH  90  91
ENDBRANCH  64  85
ENDBRANCH  38  39
ENDBRANCH  31  33
ENDBRANCH  30  31
ENDBRANCH  29  30
ENDBRANCH   1  29
TORSDOF 17
