REMARK SMILES O=C(C[C@@H](NC(=O)c1cc(-c2ccc(F)cc2)on1)c1cccc(Br)c1)OCCOC(=O)c1ccc(-c2c3nc(c(-c4ccc(S(=O)(=O)[O-])cc4)c4ccc([nH]4)c(-c4ccc(S(=O)(=O)[O-])cc4)c4nc(c(-c5ccc(S(=O)(=O)[O-])cc5)c5ccc2[nH]5)C=C4)C=C3)cc1
REMARK SMILES IDX 28 1 27 2 2 3 1 4 3 5 4 6 5 7 6 8 7 10 8 11 9 12 19 13 10 14
REMARK SMILES IDX 18 15 11 16 12 17 17 18 13 19 16 20 14 21 15 22 20 23 21 24
REMARK SMILES IDX 26 25 22 26 24 27 23 28 25 29 29 30 30 31 31 32 32 33 33 34
REMARK SMILES IDX 34 35 92 36 35 37 91 38 36 39 37 40 38 41 85 42 39 43 90 44
REMARK SMILES IDX 84 45 86 46 40 47 89 48 83 49 82 50 41 52 71 53 52 54 70 55
REMARK SMILES IDX 53 56 56 57 69 58 87 59 54 60 55 61 68 63 88 64 57 65 42 66
REMARK SMILES IDX 43 67 51 68 44 69 50 70 45 71 46 72 47 73 48 74 49 75 72 76
REMARK SMILES IDX 73 77 81 78 74 79 80 80 75 81 76 82 77 83 78 84 79 85 58 86
REMARK SMILES IDX 59 87 67 88 60 89 66 90 61 91 62 92 63 93 64 94 65 95
REMARK H PARENT 5 9 86 51 56 62
REMARK Flexibility Score: inf
ROOT
ATOM      1  C   UNL     1       4.346   0.339   1.444  1.00  0.00     0.274 C 
ENDROOT
BRANCH   1   2
ATOM      2  O   UNL     1       3.126   0.864   0.878  1.00  0.00    -0.462 OA
BRANCH   2   3
ATOM      3  C   UNL     1       2.864   0.824  -0.450  1.00  0.00     0.308 C 
ATOM      4  O   UNL     1       2.171   1.688  -0.981  1.00  0.00    -0.252 OA
BRANCH   3   5
ATOM      5  C   UNL     1       3.371  -0.357  -1.230  1.00  0.00     0.152 C 
BRANCH   5   6
ATOM      6  C   UNL     1       4.213   0.030  -2.448  1.00  0.00     0.124 C 
BRANCH   6   7
ATOM      7  N   UNL     1       5.462   0.714  -2.060  1.00  0.00    -0.343 N 
ATOM      8  C   UNL     1       6.710   0.261  -1.688  1.00  0.00     0.273 C 
ATOM      9  H   UNL     1       5.389   1.695  -2.068  1.00  0.00     0.164 HD
ATOM     10  O   UNL     1       7.335   0.941  -0.872  1.00  0.00    -0.267 OA
BRANCH   8  11
ATOM     11  C   UNL     1       7.288  -0.915  -2.322  1.00  0.00     0.171 A 
ATOM     12  C   UNL     1       7.578  -1.086  -3.699  1.00  0.00     0.088 A 
ATOM     13  N   UNL     1       7.652  -2.000  -1.620  1.00  0.00    -0.074 NA
ATOM     14  C   UNL     1       7.946  -2.406  -3.822  1.00  0.00     0.167 A 
ATOM     15  O   UNL     1       8.038  -2.943  -2.568  1.00  0.00    -0.355 OA
BRANCH  14  16
ATOM     16  C   UNL     1       8.065  -3.315  -4.963  1.00  0.00     0.020 A 
ATOM     17  C   UNL     1       7.967  -2.812  -6.274  1.00  0.00     0.015 A 
ATOM     18  C   UNL     1       8.071  -4.709  -4.787  1.00  0.00     0.015 A 
ATOM     19  C   UNL     1       7.790  -3.673  -7.363  1.00  0.00     0.040 A 
ATOM     20  C   UNL     1       7.873  -5.569  -5.873  1.00  0.00     0.040 A 
ATOM     21  C   UNL     1       7.721  -5.042  -7.148  1.00  0.00     0.123 A 
ATOM     22  F   UNL     1       7.481  -5.864  -8.176  1.00  0.00    -0.207 F 
ENDBRANCH  14  16
ENDBRANCH   8  11
ENDBRANCH   6   7
BRANCH   6  23
ATOM     23  C   UNL     1       4.365  -1.156  -3.386  1.00  0.00    -0.024 A 
ATOM     24  C   UNL     1       4.313  -0.955  -4.774  1.00  0.00     0.006 A 
ATOM     25  C   UNL     1       4.552  -2.470  -2.909  1.00  0.00     0.021 A 
ATOM     26  C   UNL     1       4.450  -2.029  -5.656  1.00  0.00     0.002 A 
ATOM     27  C   UNL     1       4.713  -3.534  -3.795  1.00  0.00     0.018 A 
ATOM     28  C   UNL     1       4.656  -3.317  -5.166  1.00  0.00     0.016 A 
ATOM     29  Br  UNL     1       5.082  -5.268  -3.137  1.00  0.00    -0.051 Br
ENDBRANCH   6  23
ENDBRANCH   5   6
ENDBRANCH   3   5
ENDBRANCH   2   3
ENDBRANCH   1   2
BRANCH   1  30
ATOM     30  C   UNL     1       4.121  -0.917   2.290  1.00  0.00     0.275 C 
BRANCH  30  31
ATOM     31  O   UNL     1       3.708  -2.046   1.496  1.00  0.00    -0.458 OA
BRANCH  31  32
ATOM     32  C   UNL     1       2.366  -2.231   1.369  1.00  0.00     0.338 C 
ATOM     33  O   UNL     1       1.494  -1.562   1.881  1.00  0.00    -0.246 OA
BRANCH  32  34
ATOM     34  C   UNL     1       2.112  -3.279   0.346  1.00  0.00     0.060 A 
ATOM     35  C   UNL     1       1.041  -3.108  -0.544  1.00  0.00     0.016 A 
ATOM     36  C   UNL     1       2.922  -4.408   0.242  1.00  0.00     0.016 A 
ATOM     37  C   UNL     1       0.785  -4.056  -1.548  1.00  0.00     0.010 A 
ATOM     38  C   UNL     1       2.652  -5.358  -0.748  1.00  0.00     0.010 A 
ATOM     39  C   UNL     1       1.584  -5.198  -1.657  1.00  0.00    -0.014 A 
BRANCH  39  40
ATOM     40  C   UNL     1       1.270  -6.315  -2.600  1.00  0.00     0.031 A 
ATOM     41  C   UNL     1       0.856  -7.640  -2.017  1.00  0.00     0.074 A 
ATOM     42  C   UNL     1       1.416  -6.217  -3.937  1.00  0.00     0.049 A 
ATOM     43  N   UNL     1       0.729  -8.804  -2.600  1.00  0.00    -0.248 NA
ATOM     44  C   UNL     1       0.556  -7.646  -0.577  1.00  0.00     0.031 C 
ATOM     45  C   UNL     1       1.740  -5.001  -4.676  1.00  0.00     0.029 A 
ATOM     46  N   UNL     1       1.363  -7.190  -4.913  1.00  0.00    -0.354 N 
ATOM     47  C   UNL     1       0.351  -9.684  -1.594  1.00  0.00     0.074 A 
ATOM     48  C   UNL     1       0.332  -8.931  -0.358  1.00  0.00     0.031 C 
ATOM     49  C   UNL     1       1.938  -5.311  -5.970  1.00  0.00     0.029 A 
ATOM     50  C   UNL     1       1.763  -6.749  -6.155  1.00  0.00     0.049 A 
ATOM     51  H   UNL     1       1.067  -8.112  -4.739  1.00  0.00     0.167 HD
ATOM     52  C   UNL     1       0.020 -10.994  -1.685  1.00  0.00     0.031 A 
ATOM     53  C   UNL     1       1.994  -7.419  -7.304  1.00  0.00     0.031 A 
ATOM     54  C   UNL     1       0.031 -11.752  -2.905  1.00  0.00     0.049 A 
ATOM     55  C   UNL     1       1.728  -8.900  -7.375  1.00  0.00     0.074 A 
ATOM     56  C   UNL     1      -0.339 -13.070  -3.099  1.00  0.00     0.029 A 
ATOM     57  N   UNL     1       0.443 -11.264  -4.135  1.00  0.00    -0.354 N 
ATOM     58  N   UNL     1       1.325  -9.710  -6.426  1.00  0.00    -0.248 NA
ATOM     59  C   UNL     1       1.913  -9.553  -8.681  1.00  0.00     0.031 C 
ATOM     60  C   UNL     1      -0.101 -13.397  -4.438  1.00  0.00     0.029 A 
ATOM     61  C   UNL     1       0.359 -12.263  -5.090  1.00  0.00     0.049 A 
ATOM     62  H   UNL     1       0.749 -10.344  -4.305  1.00  0.00     0.167 HD
ATOM     63  C   UNL     1       1.151 -10.951  -7.032  1.00  0.00     0.074 A 
ATOM     64  C   UNL     1       1.515 -10.793  -8.425  1.00  0.00     0.031 C 
ATOM     65  C   UNL     1       0.704 -12.106  -6.481  1.00  0.00     0.031 A 
BRANCH  52  66
ATOM     66  C   UNL     1      -0.358 -11.683  -0.403  1.00  0.00    -0.014 A 
ATOM     67  C   UNL     1      -1.545 -11.352   0.277  1.00  0.00     0.010 A 
ATOM     68  C   UNL     1       0.505 -12.646   0.149  1.00  0.00     0.010 A 
ATOM     69  C   UNL     1      -1.820 -11.910   1.527  1.00  0.00     0.020 A 
ATOM     70  C   UNL     1       0.215 -13.232   1.383  1.00  0.00     0.020 A 
ATOM     71  C   UNL     1      -0.929 -12.835   2.079  1.00  0.00     0.054 A 
BRANCH  71  72
ATOM     72  S   UNL     1      -1.284 -13.510   3.723  1.00  0.00     0.124 S 
ATOM     73  O   UNL     1      -0.929 -12.387   4.588  1.00  0.00    -0.237 OA
ATOM     74  O   UNL     1      -2.710 -13.815   3.645  1.00  0.00    -0.237 OA
ATOM     75  O   UNL     1      -0.404 -14.672   3.817  1.00  0.00    -0.744 OA
ENDBRANCH  71  72
ENDBRANCH  52  66
BRANCH  53  76
ATOM     76  C   UNL     1       2.502  -6.688  -8.499  1.00  0.00    -0.014 A 
ATOM     77  C   UNL     1       1.645  -6.383  -9.571  1.00  0.00     0.010 A 
ATOM     78  C   UNL     1       3.849  -6.284  -8.565  1.00  0.00     0.010 A 
ATOM     79  C   UNL     1       2.122  -5.683 -10.684  1.00  0.00     0.020 A 
ATOM     80  C   UNL     1       4.325  -5.569  -9.669  1.00  0.00     0.020 A 
ATOM     81  C   UNL     1       3.458  -5.272 -10.723  1.00  0.00     0.054 A 
BRANCH  81  82
ATOM     82  S   UNL     1       4.030  -4.278 -12.130  1.00  0.00     0.124 S 
ATOM     83  O   UNL     1       4.117  -5.272 -13.195  1.00  0.00    -0.237 OA
ATOM     84  O   UNL     1       2.962  -3.290 -12.271  1.00  0.00    -0.237 OA
ATOM     85  O   UNL     1       5.306  -3.735 -11.669  1.00  0.00    -0.744 OA
ENDBRANCH  81  82
ENDBRANCH  53  76
BRANCH  65  86
ATOM     86  C   UNL     1       0.498 -13.295  -7.383  1.00  0.00    -0.014 A 
ATOM     87  C   UNL     1       1.577 -14.052  -7.869  1.00  0.00     0.010 A 
ATOM     88  C   UNL     1      -0.816 -13.726  -7.653  1.00  0.00     0.010 A 
ATOM     89  C   UNL     1       1.346 -15.215  -8.611  1.00  0.00     0.020 A 
ATOM     90  C   UNL     1      -1.051 -14.899  -8.373  1.00  0.00     0.020 A 
ATOM     91  C   UNL     1       0.033 -15.636  -8.852  1.00  0.00     0.054 A 
BRANCH  91  92
ATOM     92  S   UNL     1      -0.240 -17.195  -9.739  1.00  0.00     0.124 S 
ATOM     93  O   UNL     1       0.105 -16.831 -11.111  1.00  0.00    -0.237 OA
ATOM     94  O   UNL     1       0.689 -18.108  -9.078  1.00  0.00    -0.237 OA
ATOM     95  O   UNL     1      -1.655 -17.482  -9.509  1.00  0.00    -0.744 OA
ENDBRANCH  91  92
ENDBRANCH  65  86
ENDBRANCH  39  40
ENDBRANCH  32  34
ENDBRANCH  31  32
ENDBRANCH  30  31
ENDBRANCH   1  30
TORSDOF 19
