REMARK SMILES Cc1cccc(CC(=O)N2CCCC[C@@H]2C(=O)OCCOC(=O)c2ccc(-c3c4nc(c(-c5ccc(S(=O)(=O)[O-])cc5)c5ccc([nH]5)c(-c5ccc(S(=O)(=O)[O-])cc5)c5nc(c(-c6ccc(S(=O)(=O)[O-])cc6)c6ccc3[nH]6)C=C5)C=C4)cc2)c1
REMARK SMILES IDX 19 1 18 2 16 3 17 4 15 5 10 6 11 7 12 8 14 9 13 10 8 11 9 12
REMARK SMILES IDX 7 13 6 14 1 15 2 16 3 17 84 18 4 19 5 20 20 21 21 22 22 23
REMARK SMILES IDX 23 24 24 25 25 26 83 27 26 28 82 29 27 30 28 31 29 32 76 33
REMARK SMILES IDX 30 34 81 35 75 36 77 37 31 38 80 39 74 40 73 41 32 43 62 44
REMARK SMILES IDX 43 45 61 46 44 47 47 48 60 49 78 50 45 51 46 52 59 54 79 55
REMARK SMILES IDX 48 56 33 57 34 58 42 59 35 60 41 61 36 62 37 63 38 64 39 65
REMARK SMILES IDX 40 66 63 67 64 68 72 69 65 70 71 71 66 72 67 73 68 74 69 75
REMARK SMILES IDX 70 76 49 77 50 78 58 79 51 80 57 81 52 82 53 83 54 84 55 85
REMARK SMILES IDX 56 86
REMARK H PARENT 77 42 47 53
REMARK Flexibility Score: inf
ROOT
ATOM      1  C   UNL     1      -0.439  -2.272  -1.367  1.00  0.00     0.274 C 
ENDROOT
BRANCH   1   2
ATOM      2  O   UNL     1       0.208  -0.962  -1.485  1.00  0.00    -0.461 OA
BRANCH   2   3
ATOM      3  C   UNL     1       0.017   0.417  -1.860  1.00  0.00     0.328 C 
ATOM      4  O   UNL     1       0.984   0.927  -1.221  1.00  0.00    -0.250 OA
BRANCH   3   5
ATOM      5  C   UNL     1      -1.606   1.344  -2.985  1.00  0.00     0.195 C 
ATOM      6  N   UNL     1      -3.117   2.011  -2.264  1.00  0.00    -0.329 N 
ATOM      7  C   UNL     1      -3.599   3.158  -3.094  1.00  0.00     0.120 C 
ATOM      8  C   UNL     1      -3.863   2.920  -4.583  1.00  0.00     0.022 C 
ATOM      9  C   UNL     1      -2.429   0.891  -4.473  1.00  0.00     0.037 C 
ATOM     10  C   UNL     1      -2.787   2.125  -5.295  1.00  0.00     0.005 C 
BRANCH   6  11
ATOM     11  C   UNL     1      -4.002   1.491  -1.150  1.00  0.00     0.227 C 
ATOM     12  O   UNL     1      -5.223   1.691  -1.335  1.00  0.00    -0.275 OA
BRANCH  11  13
ATOM     13  C   UNL     1      -3.609   0.806   0.516  1.00  0.00     0.135 C 
BRANCH  13  14
ATOM     14  C   UNL     1      -2.499  -0.273   1.201  1.00  0.00    -0.038 A 
ATOM     15  C   UNL     1       1.361  -1.125   1.293  1.00  0.00     0.044 C 
ATOM     16  C   UNL     1      -0.118  -1.167   1.662  1.00  0.00    -0.051 A 
ATOM     17  C   UNL     1      -0.645  -2.194   2.398  1.00  0.00     0.003 A 
ATOM     18  C   UNL     1      -1.066  -0.255   1.133  1.00  0.00     0.007 A 
ATOM     19  C   UNL     1      -2.038  -2.254   2.576  1.00  0.00     0.001 A 
ATOM     20  C   UNL     1      -2.948  -1.315   2.003  1.00  0.00     0.004 A 
ENDBRANCH  13  14
ENDBRANCH  11  13
ENDBRANCH   6  11
ENDBRANCH   3   5
ENDBRANCH   2   3
ENDBRANCH   1   2
BRANCH   1  21
ATOM     21  C   UNL     1       0.017  -3.139  -2.521  1.00  0.00     0.275 C 
BRANCH  21  22
ATOM     22  O   UNL     1       0.189  -2.598  -3.890  1.00  0.00    -0.458 OA
BRANCH  22  23
ATOM     23  C   UNL     1       0.435  -1.366  -4.445  1.00  0.00     0.338 C 
ATOM     24  O   UNL     1       1.005  -1.250  -5.520  1.00  0.00    -0.246 OA
BRANCH  23  25
ATOM     25  C   UNL     1      -0.228  -0.184  -3.835  1.00  0.00     0.060 A 
ATOM     26  C   UNL     1       0.496   1.431  -3.617  1.00  0.00     0.016 A 
ATOM     27  C   UNL     1      -1.557  -0.677  -2.826  1.00  0.00     0.016 A 
ATOM     28  C   UNL     1       0.027   2.530  -2.243  1.00  0.00     0.010 A 
ATOM     29  C   UNL     1      -1.904   0.288  -1.364  1.00  0.00     0.010 A 
ATOM     30  C   UNL     1      -1.149   1.961  -1.015  1.00  0.00    -0.014 A 
BRANCH  30  31
ATOM     31  C   UNL     1      -1.413   2.832   0.314  1.00  0.00     0.031 A 
ATOM     32  C   UNL     1      -2.703   3.627   0.622  1.00  0.00     0.074 A 
ATOM     33  C   UNL     1      -0.638   2.605   1.418  1.00  0.00     0.049 A 
ATOM     34  N   UNL     1      -3.297   3.642   1.776  1.00  0.00    -0.248 NA
ATOM     35  C   UNL     1      -3.542   4.350  -0.328  1.00  0.00     0.031 C 
ATOM     36  C   UNL     1      -1.012   2.545   2.850  1.00  0.00     0.029 A 
ATOM     37  N   UNL     1       0.715   2.312   1.483  1.00  0.00    -0.354 N 
ATOM     38  C   UNL     1      -4.634   4.008   1.639  1.00  0.00     0.074 A 
ATOM     39  C   UNL     1      -4.759   4.369   0.258  1.00  0.00     0.031 C 
ATOM     40  C   UNL     1       0.089   2.513   3.624  1.00  0.00     0.029 A 
ATOM     41  C   UNL     1       1.214   2.706   2.734  1.00  0.00     0.049 A 
ATOM     42  H   UNL     1       1.243   1.895   0.765  1.00  0.00     0.167 HD
ATOM     43  C   UNL     1      -5.435   3.964   2.751  1.00  0.00     0.031 A 
ATOM     44  C   UNL     1       2.058   3.778   2.740  1.00  0.00     0.031 A 
ATOM     45  C   UNL     1      -4.552   4.182   3.893  1.00  0.00     0.049 A 
ATOM     46  C   UNL     1       1.298   4.970   3.307  1.00  0.00     0.074 A 
ATOM     47  C   UNL     1      -4.018   3.422   4.912  1.00  0.00     0.029 A 
ATOM     48  N   UNL     1      -3.821   5.361   3.848  1.00  0.00    -0.354 N 
ATOM     49  N   UNL     1      -0.009   5.099   3.273  1.00  0.00    -0.248 NA
ATOM     50  C   UNL     1       1.931   5.988   4.139  1.00  0.00     0.031 C 
ATOM     51  C   UNL     1      -2.809   4.086   5.317  1.00  0.00     0.029 A 
ATOM     52  C   UNL     1      -2.660   5.256   4.577  1.00  0.00     0.049 A 
ATOM     53  H   UNL     1      -4.098   6.168   3.357  1.00  0.00     0.167 HD
ATOM     54  C   UNL     1      -0.397   6.067   4.154  1.00  0.00     0.074 A 
ATOM     55  C   UNL     1       0.857   6.621   4.641  1.00  0.00     0.031 C 
ATOM     56  C   UNL     1      -1.687   6.345   4.515  1.00  0.00     0.031 A 
BRANCH  43  57
ATOM     57  C   UNL     1      -6.950   3.857   2.939  1.00  0.00    -0.014 A 
ATOM     58  C   UNL     1      -7.471   3.975   4.257  1.00  0.00     0.010 A 
ATOM     59  C   UNL     1      -7.892   3.482   1.956  1.00  0.00     0.010 A 
ATOM     60  C   UNL     1      -8.821   3.742   4.586  1.00  0.00     0.020 A 
ATOM     61  C   UNL     1      -9.266   3.257   2.275  1.00  0.00     0.020 A 
ATOM     62  C   UNL     1      -9.720   3.381   3.592  1.00  0.00     0.054 A 
BRANCH  62  63
ATOM     63  S   UNL     1     -11.454   3.064   4.074  1.00  0.00     0.124 S 
ATOM     64  O   UNL     1     -11.330   1.934   4.992  1.00  0.00    -0.237 OA
ATOM     65  O   UNL     1     -11.853   4.326   4.692  1.00  0.00    -0.237 OA
ATOM     66  O   UNL     1     -12.122   2.759   2.810  1.00  0.00    -0.744 OA
ENDBRANCH  62  63
ENDBRANCH  43  57
BRANCH  44  67
ATOM     67  C   UNL     1       2.997   3.663   1.558  1.00  0.00    -0.014 A 
ATOM     68  C   UNL     1       3.893   2.553   1.579  1.00  0.00     0.010 A 
ATOM     69  C   UNL     1       2.656   4.190   0.299  1.00  0.00     0.010 A 
ATOM     70  C   UNL     1       4.284   1.894   0.400  1.00  0.00     0.020 A 
ATOM     71  C   UNL     1       3.086   3.550  -0.887  1.00  0.00     0.020 A 
ATOM     72  C   UNL     1       3.846   2.375  -0.831  1.00  0.00     0.054 A 
BRANCH  72  73
ATOM     73  S   UNL     1       4.225   1.415  -2.340  1.00  0.00     0.124 S 
ATOM     74  O   UNL     1       5.686   1.444  -2.360  1.00  0.00    -0.237 OA
ATOM     75  O   UNL     1       3.648   0.097  -2.085  1.00  0.00    -0.237 OA
ATOM     76  O   UNL     1       3.588   2.182  -3.410  1.00  0.00    -0.744 OA
ENDBRANCH  72  73
ENDBRANCH  44  67
BRANCH  56  77
ATOM     77  C   UNL     1      -2.116   7.761   4.838  1.00  0.00    -0.014 A 
ATOM     78  C   UNL     1      -1.259   8.859   4.667  1.00  0.00     0.010 A 
ATOM     79  C   UNL     1      -3.456   8.058   5.187  1.00  0.00     0.010 A 
ATOM     80  C   UNL     1      -1.652  10.155   4.985  1.00  0.00     0.020 A 
ATOM     81  C   UNL     1      -3.892   9.367   5.411  1.00  0.00     0.020 A 
ATOM     82  C   UNL     1      -2.966  10.399   5.367  1.00  0.00     0.054 A 
BRANCH  82  83
ATOM     83  S   UNL     1      -3.423  12.087   5.800  1.00  0.00     0.124 S 
ATOM     84  O   UNL     1      -2.784  12.238   7.105  1.00  0.00    -0.237 OA
ATOM     85  O   UNL     1      -2.825  12.865   4.717  1.00  0.00    -0.237 OA
ATOM     86  O   UNL     1      -4.882  12.060   5.812  1.00  0.00    -0.744 OA
ENDBRANCH  82  83
ENDBRANCH  56  77
ENDBRANCH  30  31
ENDBRANCH  23  25
ENDBRANCH  22  23
ENDBRANCH  21  22
ENDBRANCH   1  21
TORSDOF 17
