REMARK SMILES O=C(OCCOC(=O)C1([NH+]2CCOCC2)CCC1)c1ccc(-c2c3nc(c(-c4ccc(S(=O)(=O)[O-])cc4)c4ccc([nH]4)c(-c4ccc(S(=O)(=O)[O-])cc4)c4nc(c(-c5ccc(S(=O)(=O)[O-])cc5)c5ccc2[nH]5)C=C4)C=C3)cc1
REMARK SMILES IDX 4 1 3 2 2 3 1 4 19 5 20 6 78 7 21 8 77 9 22 10 23 11 24 12
REMARK SMILES IDX 71 13 25 14 76 15 70 16 72 17 26 18 75 19 69 20 68 21 27 23
REMARK SMILES IDX 57 24 38 25 56 26 39 27 42 28 55 29 73 30 40 31 41 32 54 34
REMARK SMILES IDX 74 35 43 36 28 37 29 38 37 39 30 40 36 41 31 42 32 43 33 44
REMARK SMILES IDX 34 45 35 46 58 47 59 48 67 49 60 50 66 51 61 52 62 53 63 54
REMARK SMILES IDX 64 55 65 56 44 57 45 58 53 59 46 60 52 61 47 62 48 63 49 64
REMARK SMILES IDX 50 65 51 66 5 67 6 68 7 69 8 70 9 71 16 72 18 73 17 74 10 75
REMARK SMILES IDX 11 76 15 77 12 79 14 80 13 81
REMARK H PARENT 72 22 42 33 10 78
REMARK Flexibility Score: inf
ROOT
ATOM      1  C   UNL     1       4.324   1.060  -1.384  1.00  0.00     0.275 C 
ENDROOT
BRANCH   1   2
ATOM      2  O   UNL     1       3.365   0.001  -1.483  1.00  0.00    -0.458 OA
BRANCH   2   3
ATOM      3  C   UNL     1       3.368  -1.213  -0.887  1.00  0.00     0.338 C 
ATOM      4  O   UNL     1       2.546  -2.048  -1.263  1.00  0.00    -0.246 OA
BRANCH   3   5
ATOM      5  C   UNL     1       4.210  -1.551   0.309  1.00  0.00     0.060 A 
ATOM      6  C   UNL     1       5.423  -0.966   0.686  1.00  0.00     0.016 A 
ATOM      7  C   UNL     1       3.682  -2.539   1.153  1.00  0.00     0.016 A 
ATOM      8  C   UNL     1       6.029  -1.262   1.916  1.00  0.00     0.010 A 
ATOM      9  C   UNL     1       4.257  -2.805   2.396  1.00  0.00     0.010 A 
ATOM     10  C   UNL     1       5.434  -2.158   2.800  1.00  0.00    -0.014 A 
BRANCH  10  11
ATOM     11  C   UNL     1       6.099  -2.540   4.072  1.00  0.00     0.031 A 
ATOM     12  C   UNL     1       6.568  -3.963   4.204  1.00  0.00     0.074 A 
ATOM     13  C   UNL     1       6.284  -1.664   5.085  1.00  0.00     0.049 A 
ATOM     14  N   UNL     1       7.199  -4.532   5.194  1.00  0.00    -0.248 NA
ATOM     15  C   UNL     1       6.297  -4.864   3.066  1.00  0.00     0.031 C 
ATOM     16  C   UNL     1       5.915  -0.248   5.075  1.00  0.00     0.029 A 
ATOM     17  N   UNL     1       6.821  -1.836   6.338  1.00  0.00    -0.354 N 
ATOM     18  C   UNL     1       7.444  -5.830   4.768  1.00  0.00     0.074 A 
ATOM     19  C   UNL     1       6.755  -6.017   3.516  1.00  0.00     0.031 C 
ATOM     20  C   UNL     1       6.154   0.297   6.280  1.00  0.00     0.029 A 
ATOM     21  C   UNL     1       6.759  -0.712   7.136  1.00  0.00     0.049 A 
ATOM     22  H   UNL     1       7.215  -2.686   6.640  1.00  0.00     0.167 HD
ATOM     23  C   UNL     1       8.265  -6.755   5.310  1.00  0.00     0.031 A 
ATOM     24  C   UNL     1       7.181  -0.505   8.400  1.00  0.00     0.031 A 
ATOM     25  C   UNL     1       8.956  -6.565   6.548  1.00  0.00     0.049 A 
ATOM     26  C   UNL     1       7.986  -1.598   9.054  1.00  0.00     0.074 A 
ATOM     27  C   UNL     1       9.816  -7.426   7.199  1.00  0.00     0.029 A 
ATOM     28  N   UNL     1       8.857  -5.419   7.325  1.00  0.00    -0.354 N 
ATOM     29  N   UNL     1       8.294  -2.784   8.582  1.00  0.00    -0.248 NA
ATOM     30  C   UNL     1       8.567  -1.301  10.369  1.00  0.00     0.031 C 
ATOM     31  C   UNL     1      10.204  -6.816   8.397  1.00  0.00     0.029 A 
ATOM     32  C   UNL     1       9.628  -5.556   8.462  1.00  0.00     0.049 A 
ATOM     33  H   UNL     1       8.317  -4.628   7.099  1.00  0.00     0.167 HD
ATOM     34  C   UNL     1       9.157  -3.349   9.512  1.00  0.00     0.074 A 
ATOM     35  C   UNL     1       9.321  -2.373  10.572  1.00  0.00     0.031 C 
ATOM     36  C   UNL     1       9.773  -4.556   9.489  1.00  0.00     0.031 A 
BRANCH  23  37
ATOM     37  C   UNL     1       8.476  -8.007   4.508  1.00  0.00    -0.014 A 
ATOM     38  C   UNL     1       9.179  -7.951   3.286  1.00  0.00     0.010 A 
ATOM     39  C   UNL     1       7.925  -9.226   4.929  1.00  0.00     0.010 A 
ATOM     40  C   UNL     1       9.274  -9.079   2.472  1.00  0.00     0.020 A 
ATOM     41  C   UNL     1       8.047 -10.367   4.130  1.00  0.00     0.020 A 
ATOM     42  C   UNL     1       8.703 -10.280   2.898  1.00  0.00     0.054 A 
BRANCH  42  43
ATOM     43  S   UNL     1       8.843 -11.731   1.821  1.00  0.00     0.124 S 
ATOM     44  O   UNL     1       7.925 -11.390   0.736  1.00  0.00    -0.237 OA
ATOM     45  O   UNL     1      10.261 -11.727   1.466  1.00  0.00    -0.237 OA
ATOM     46  O   UNL     1       8.419 -12.837   2.672  1.00  0.00    -0.744 OA
ENDBRANCH  42  43
ENDBRANCH  23  37
BRANCH  24  47
ATOM     47  C   UNL     1       6.937   0.793   9.099  1.00  0.00    -0.014 A 
ATOM     48  C   UNL     1       7.993   1.680   9.378  1.00  0.00     0.010 A 
ATOM     49  C   UNL     1       5.642   1.129   9.538  1.00  0.00     0.010 A 
ATOM     50  C   UNL     1       7.772   2.844  10.125  1.00  0.00     0.020 A 
ATOM     51  C   UNL     1       5.412   2.305  10.265  1.00  0.00     0.020 A 
ATOM     52  C   UNL     1       6.483   3.146  10.571  1.00  0.00     0.054 A 
BRANCH  52  53
ATOM     53  S   UNL     1       6.228   4.655  11.550  1.00  0.00     0.124 S 
ATOM     54  O   UNL     1       6.905   4.326  12.800  1.00  0.00    -0.237 OA
ATOM     55  O   UNL     1       6.877   5.673  10.728  1.00  0.00    -0.237 OA
ATOM     56  O   UNL     1       4.774   4.767  11.636  1.00  0.00    -0.744 OA
ENDBRANCH  52  53
ENDBRANCH  24  47
BRANCH  36  57
ATOM     57  C   UNL     1      10.712  -4.869  10.619  1.00  0.00    -0.014 A 
ATOM     58  C   UNL     1      10.230  -5.129  11.913  1.00  0.00     0.010 A 
ATOM     59  C   UNL     1      12.091  -4.969  10.360  1.00  0.00     0.010 A 
ATOM     60  C   UNL     1      11.118  -5.453  12.939  1.00  0.00     0.020 A 
ATOM     61  C   UNL     1      12.978  -5.328  11.375  1.00  0.00     0.020 A 
ATOM     62  C   UNL     1      12.486  -5.553  12.662  1.00  0.00     0.054 A 
BRANCH  62  63
ATOM     63  S   UNL     1      13.610  -6.028  14.000  1.00  0.00     0.124 S 
ATOM     64  O   UNL     1      13.663  -4.807  14.799  1.00  0.00    -0.237 OA
ATOM     65  O   UNL     1      12.914  -7.154  14.617  1.00  0.00    -0.237 OA
ATOM     66  O   UNL     1      14.848  -6.374  13.305  1.00  0.00    -0.744 OA
ENDBRANCH  62  63
ENDBRANCH  36  57
ENDBRANCH  10  11
ENDBRANCH   3   5
ENDBRANCH   2   3
ENDBRANCH   1   2
BRANCH   1  67
ATOM     67  C   UNL     1       4.099   2.034  -0.223  1.00  0.00     0.274 C 
BRANCH  67  68
ATOM     68  O   UNL     1       3.591   1.442   0.985  1.00  0.00    -0.457 OA
BRANCH  68  69
ATOM     69  C   UNL     1       2.223   1.484   1.167  1.00  0.00     0.368 C 
ATOM     70  O   UNL     1       1.478   1.917   0.287  1.00  0.00    -0.245 OA
BRANCH  69  71
ATOM     71  C   UNL     1       1.775   0.958   2.647  1.00  0.00     0.196 C 
ATOM     72  C   UNL     1       1.375  -0.550   2.683  1.00  0.00     0.081 C 
ATOM     73  C   UNL     1       2.894   0.606   3.656  1.00  0.00     0.081 C 
ATOM     74  C   UNL     1       2.189  -0.716   3.985  1.00  0.00     0.014 C 
BRANCH  71  75
ATOM     75  N   UNL     1       0.702   1.801   3.251  1.00  0.00    -0.317 N 
ATOM     76  C   UNL     1       1.085   3.212   3.433  1.00  0.00     0.292 C 
ATOM     77  C   UNL     1      -0.089   1.324   4.396  1.00  0.00     0.292 C 
ATOM     78  H   UNL     1       0.029   1.697   2.492  1.00  0.00     0.349 HD
ATOM     79  C   UNL     1       1.544   3.592   4.853  1.00  0.00     0.221 C 
ATOM     80  C   UNL     1       0.451   1.730   5.774  1.00  0.00     0.221 C 
ATOM     81  O   UNL     1       0.616   3.148   5.847  1.00  0.00    -0.370 OA
ENDBRANCH  71  75
ENDBRANCH  69  71
ENDBRANCH  68  69
ENDBRANCH  67  68
ENDBRANCH   1  67
TORSDOF 15
