REMARK SMILES CC(C)(C)OC(=O)[C@@H](C(=O)OCCOC(=O)c1ccc(-c2c3nc(c(-c4ccc(S(=O)(=O)[O-])cc4)c4ccc([nH]4)c(-c4ccc(S(=O)(=O)[O-])cc4)c4nc(c(-c5ccc(S(=O)(=O)[O-])cc5)c5ccc2[nH]5)C=C4)C=C3)cc1)[C@@H]([NH3+])Cc1cccc(F)c1
REMARK SMILES IDX 12 1 11 2 9 3 10 4 8 5 6 6 7 7 5 8 2 9 1 10 3 11 4 12 77 13
REMARK SMILES IDX 78 14 79 18 80 19 81 20 86 21 82 22 84 23 83 24 85 25 13 26
REMARK SMILES IDX 14 27 15 28 16 29 17 30 18 31 76 32 19 33 75 34 20 35 21 36
REMARK SMILES IDX 22 37 69 38 23 39 74 40 68 41 70 42 24 43 73 44 67 45 66 46
REMARK SMILES IDX 25 48 55 49 36 50 54 51 37 52 40 53 53 54 71 55 38 56 39 57
REMARK SMILES IDX 52 59 72 60 41 61 26 62 27 63 35 64 28 65 34 66 29 67 30 68
REMARK SMILES IDX 31 69 32 70 33 71 56 72 57 73 65 74 58 75 64 76 59 77 60 78
REMARK SMILES IDX 61 79 62 80 63 81 42 82 43 83 51 84 44 85 50 86 45 87 46 88
REMARK SMILES IDX 47 89 48 90 49 91
REMARK H PARENT 78 15 78 16 78 17 70 47 40 58
REMARK Flexibility Score: inf
ROOT
ATOM      1  C   UNL     1      -1.001  -0.546  -5.508  1.00  0.00     0.274 C 
ENDROOT
BRANCH   1   2
ATOM      2  O   UNL     1      -0.731  -1.655  -4.615  1.00  0.00    -0.461 OA
BRANCH   2   3
ATOM      3  C   UNL     1       0.575  -2.016  -4.593  1.00  0.00     0.326 C 
ATOM      4  O   UNL     1       1.441  -1.320  -5.072  1.00  0.00    -0.251 OA
BRANCH   3   5
ATOM      5  C   UNL     1       0.882  -3.330  -3.940  1.00  0.00     0.266 C 
BRANCH   5   6
ATOM      6  C   UNL     1       0.504  -3.230  -2.471  1.00  0.00     0.327 C 
ATOM      7  O   UNL     1      -0.143  -4.095  -1.893  1.00  0.00    -0.251 OA
BRANCH   6   8
ATOM      8  O   UNL     1       0.951  -2.076  -1.889  1.00  0.00    -0.459 OA
BRANCH   8   9
ATOM      9  C   UNL     1       0.537  -1.705  -0.536  1.00  0.00     0.104 C 
ATOM     10  C   UNL     1       1.200  -0.356  -0.208  1.00  0.00     0.056 C 
ATOM     11  C   UNL     1       1.032  -2.713   0.506  1.00  0.00     0.056 C 
ATOM     12  C   UNL     1      -0.984  -1.506  -0.476  1.00  0.00     0.056 C 
ENDBRANCH   8   9
ENDBRANCH   6   8
ENDBRANCH   5   6
BRANCH   5  13
ATOM     13  C   UNL     1       2.386  -3.715  -4.164  1.00  0.00     0.211 C 
BRANCH  13  14
ATOM     14  N   UNL     1       2.751  -4.930  -3.392  1.00  0.00    -0.354 N 
ATOM     15  H   UNL     1       2.243  -5.734  -3.763  1.00  0.00     0.344 HD
ATOM     16  H   UNL     1       2.505  -4.796  -2.412  1.00  0.00     0.344 HD
ATOM     17  H   UNL     1       3.754  -5.095  -3.472  1.00  0.00     0.344 HD
ENDBRANCH  13  14
BRANCH  13  18
ATOM     18  C   UNL     1       2.861  -4.002  -5.647  1.00  0.00     0.102 C 
BRANCH  18  19
ATOM     19  C   UNL     1       2.638  -2.982  -6.746  1.00  0.00    -0.039 A 
ATOM     20  C   UNL     1       3.433  -1.827  -6.831  1.00  0.00     0.004 A 
ATOM     21  C   UNL     1       1.575  -3.109  -7.647  1.00  0.00     0.043 A 
ATOM     22  C   UNL     1       3.130  -0.784  -7.717  1.00  0.00     0.003 A 
ATOM     23  C   UNL     1       1.280  -2.069  -8.532  1.00  0.00     0.123 A 
ATOM     24  C   UNL     1       2.033  -0.901  -8.562  1.00  0.00     0.039 A 
ATOM     25  F   UNL     1       0.210  -2.177  -9.332  1.00  0.00    -0.207 F 
ENDBRANCH  18  19
ENDBRANCH  13  18
ENDBRANCH   5  13
ENDBRANCH   3   5
ENDBRANCH   2   3
ENDBRANCH   1   2
BRANCH   1  26
ATOM     26  C   UNL     1      -0.528   0.861  -5.055  1.00  0.00     0.275 C 
BRANCH  26  27
ATOM     27  O   UNL     1       0.903   1.090  -5.164  1.00  0.00    -0.458 OA
BRANCH  27  28
ATOM     28  C   UNL     1       1.587   1.169  -3.988  1.00  0.00     0.338 C 
ATOM     29  O   UNL     1       1.075   1.272  -2.885  1.00  0.00    -0.246 OA
BRANCH  28  30
ATOM     30  C   UNL     1       3.050   0.929  -4.154  1.00  0.00     0.060 A 
ATOM     31  C   UNL     1       3.600  -0.223  -3.572  1.00  0.00     0.016 A 
ATOM     32  C   UNL     1       3.898   1.819  -4.807  1.00  0.00     0.016 A 
ATOM     33  C   UNL     1       4.951  -0.556  -3.740  1.00  0.00     0.010 A 
ATOM     34  C   UNL     1       5.273   1.521  -4.919  1.00  0.00     0.010 A 
ATOM     35  C   UNL     1       5.808   0.316  -4.418  1.00  0.00    -0.014 A 
BRANCH  35  36
ATOM     36  C   UNL     1       7.276   0.050  -4.438  1.00  0.00     0.031 A 
ATOM     37  C   UNL     1       8.105   0.556  -3.289  1.00  0.00     0.074 A 
ATOM     38  C   UNL     1       7.883  -0.649  -5.420  1.00  0.00     0.049 A 
ATOM     39  N   UNL     1       9.403   0.540  -3.132  1.00  0.00    -0.248 NA
ATOM     40  C   UNL     1       7.366   1.158  -2.168  1.00  0.00     0.031 C 
ATOM     41  C   UNL     1       7.211  -1.289  -6.545  1.00  0.00     0.029 A 
ATOM     42  N   UNL     1       9.214  -0.938  -5.632  1.00  0.00    -0.354 N 
ATOM     43  C   UNL     1       9.640   1.143  -1.904  1.00  0.00     0.074 A 
ATOM     44  C   UNL     1       8.351   1.520  -1.362  1.00  0.00     0.031 C 
ATOM     45  C   UNL     1       8.121  -1.891  -7.330  1.00  0.00     0.029 A 
ATOM     46  C   UNL     1       9.456  -1.619  -6.807  1.00  0.00     0.049 A 
ATOM     47  H   UNL     1       9.926  -0.682  -5.003  1.00  0.00     0.167 HD
ATOM     48  C   UNL     1      10.822   1.374  -1.285  1.00  0.00     0.031 A 
ATOM     49  C   UNL     1      10.613  -1.947  -7.422  1.00  0.00     0.031 A 
ATOM     50  C   UNL     1      12.107   1.039  -1.839  1.00  0.00     0.049 A 
ATOM     51  C   UNL     1      11.921  -1.563  -6.779  1.00  0.00     0.074 A 
ATOM     52  C   UNL     1      13.360   1.269  -1.300  1.00  0.00     0.029 A 
ATOM     53  N   UNL     1      12.306   0.415  -3.061  1.00  0.00    -0.354 N 
ATOM     54  N   UNL     1      12.129  -0.967  -5.629  1.00  0.00    -0.248 NA
ATOM     55  C   UNL     1      13.151  -1.893  -7.516  1.00  0.00     0.031 C 
ATOM     56  C   UNL     1      14.319   0.842  -2.224  1.00  0.00     0.029 A 
ATOM     57  C   UNL     1      13.662   0.276  -3.305  1.00  0.00     0.049 A 
ATOM     58  H   UNL     1      11.589   0.115  -3.666  1.00  0.00     0.167 HD
ATOM     59  C   UNL     1      13.511  -0.880  -5.491  1.00  0.00     0.074 A 
ATOM     60  C   UNL     1      14.089  -1.496  -6.667  1.00  0.00     0.031 C 
ATOM     61  C   UNL     1      14.233  -0.342  -4.477  1.00  0.00     0.031 A 
BRANCH  48  62
ATOM     62  C   UNL     1      10.771   2.090   0.038  1.00  0.00    -0.014 A 
ATOM     63  C   UNL     1      10.265   1.463   1.191  1.00  0.00     0.010 A 
ATOM     64  C   UNL     1      11.238   3.414   0.126  1.00  0.00     0.010 A 
ATOM     65  C   UNL     1      10.183   2.164   2.397  1.00  0.00     0.020 A 
ATOM     66  C   UNL     1      11.188   4.108   1.337  1.00  0.00     0.020 A 
ATOM     67  C   UNL     1      10.641   3.484   2.460  1.00  0.00     0.054 A 
BRANCH  67  68
ATOM     68  S   UNL     1      10.524   4.369   4.039  1.00  0.00     0.124 S 
ATOM     69  O   UNL     1       9.084   4.581   4.158  1.00  0.00    -0.237 OA
ATOM     70  O   UNL     1      11.098   3.413   4.982  1.00  0.00    -0.237 OA
ATOM     71  O   UNL     1      11.315   5.577   3.820  1.00  0.00    -0.744 OA
ENDBRANCH  67  68
ENDBRANCH  48  62
BRANCH  49  72
ATOM     72  C   UNL     1      10.597  -2.624  -8.755  1.00  0.00    -0.014 A 
ATOM     73  C   UNL     1      11.095  -3.930  -8.913  1.00  0.00     0.010 A 
ATOM     74  C   UNL     1      10.104  -1.949  -9.888  1.00  0.00     0.010 A 
ATOM     75  C   UNL     1      11.115  -4.539 -10.174  1.00  0.00     0.020 A 
ATOM     76  C   UNL     1      10.090  -2.565 -11.144  1.00  0.00     0.020 A 
ATOM     77  C   UNL     1      10.607  -3.853 -11.281  1.00  0.00     0.054 A 
BRANCH  77  78
ATOM     78  S   UNL     1      10.597  -4.681 -12.897  1.00  0.00     0.124 S 
ATOM     79  O   UNL     1      12.017  -4.710 -13.234  1.00  0.00    -0.237 OA
ATOM     80  O   UNL     1       9.994  -5.974 -12.583  1.00  0.00    -0.237 OA
ATOM     81  O   UNL     1       9.775  -3.804 -13.727  1.00  0.00    -0.744 OA
ENDBRANCH  77  78
ENDBRANCH  49  72
BRANCH  61  82
ATOM     82  C   UNL     1      15.736  -0.434  -4.559  1.00  0.00    -0.014 A 
ATOM     83  C   UNL     1      16.473   0.327  -5.483  1.00  0.00     0.010 A 
ATOM     84  C   UNL     1      16.426  -1.252  -3.644  1.00  0.00     0.010 A 
ATOM     85  C   UNL     1      17.869   0.250  -5.509  1.00  0.00     0.020 A 
ATOM     86  C   UNL     1      17.822  -1.307  -3.644  1.00  0.00     0.020 A 
ATOM     87  C   UNL     1      18.534  -0.564  -4.586  1.00  0.00     0.054 A 
BRANCH  87  88
ATOM     88  S   UNL     1      20.348  -0.604  -4.605  1.00  0.00     0.124 S 
ATOM     89  O   UNL     1      20.624  -1.347  -5.832  1.00  0.00    -0.237 OA
ATOM     90  O   UNL     1      20.698   0.814  -4.637  1.00  0.00    -0.237 OA
ATOM     91  O   UNL     1      20.693  -1.297  -3.366  1.00  0.00    -0.744 OA
ENDBRANCH  87  88
ENDBRANCH  61  82
ENDBRANCH  35  36
ENDBRANCH  28  30
ENDBRANCH  27  28
ENDBRANCH  26  27
ENDBRANCH   1  26
TORSDOF 21
