REMARK SMILES O=C(/C=C\c1ccc([N+](=O)[O-])cc1)OCCOC(=O)c1ccc(-c2c3nc(c(-c4ccc(S(=O)(=O)[O-])cc4)c4ccc([nH]4)c(-c4ccc(S(=O)(=O)[O-])cc4)c4nc(c(-c5ccc(S(=O)(=O)[O-])cc5)c5ccc2[nH]5)C=C4)C=C3)cc1
REMARK SMILES IDX 16 1 15 2 14 3 2 4 1 5 3 6 4 7 5 8 6 9 13 10 7 11 12 12 8 13
REMARK SMILES IDX 9 14 10 15 11 16 17 17 18 18 19 19 20 20 21 21 79 22 22 23
REMARK SMILES IDX 78 24 23 25 24 26 25 27 72 28 26 29 77 30 71 31 73 32 27 33
REMARK SMILES IDX 76 34 70 35 69 36 28 38 58 39 39 40 57 41 40 42 43 43 56 44
REMARK SMILES IDX 74 45 41 46 42 47 55 49 75 50 44 51 29 52 30 53 38 54 31 55
REMARK SMILES IDX 37 56 32 57 33 58 34 59 35 60 36 61 59 62 60 63 68 64 61 65
REMARK SMILES IDX 67 66 62 67 63 68 64 69 65 70 66 71 45 72 46 73 54 74 47 75
REMARK SMILES IDX 53 76 48 77 49 78 50 79 51 80 52 81
REMARK H PARENT 73 37 43 48
REMARK Flexibility Score: inf
ROOT
ATOM      1  C   UNL     1       3.080  -1.609   1.750  1.00  0.00     0.275 C 
ENDROOT
BRANCH   1   2
ATOM      2  C   UNL     1       2.935  -0.090   1.622  1.00  0.00     0.275 C 
BRANCH   2   3
ATOM      3  O   UNL     1       2.192   0.361   0.484  1.00  0.00    -0.459 OA
BRANCH   3   4
ATOM      4  C   UNL     1       2.710   0.705  -0.717  1.00  0.00     0.330 C 
ATOM      5  O   UNL     1       2.045   1.395  -1.488  1.00  0.00    -0.247 OA
BRANCH   4   6
ATOM      6  C   UNL     1       3.906   0.028  -1.266  1.00  0.00     0.094 C 
ATOM      7  C   UNL     1       5.231   0.014  -1.038  1.00  0.00     0.015 C 
BRANCH   7   8
ATOM      8  C   UNL     1       6.065   0.693  -0.045  1.00  0.00    -0.025 A 
ATOM      9  C   UNL     1       6.810   1.822  -0.406  1.00  0.00     0.015 A 
ATOM     10  C   UNL     1       6.222   0.169   1.242  1.00  0.00     0.015 A 
ATOM     11  C   UNL     1       7.601   2.485   0.542  1.00  0.00     0.086 A 
ATOM     12  C   UNL     1       6.941   0.859   2.219  1.00  0.00     0.086 A 
ATOM     13  C   UNL     1       7.615   2.029   1.865  1.00  0.00     0.269 A 
BRANCH  13  14
ATOM     14  N   UNL     1       8.331   2.785   2.894  1.00  0.00     0.062 N 
ATOM     15  O   UNL     1       9.202   3.584   2.524  1.00  0.00    -0.258 OA
ATOM     16  O   UNL     1       8.011   2.587   4.076  1.00  0.00    -0.258 OA
ENDBRANCH  13  14
ENDBRANCH   7   8
ENDBRANCH   4   6
ENDBRANCH   3   4
ENDBRANCH   2   3
ENDBRANCH   1   2
BRANCH   1  17
ATOM     17  O   UNL     1       3.074  -2.272   0.487  1.00  0.00    -0.458 OA
BRANCH  17  18
ATOM     18  C   UNL     1       1.819  -2.581   0.067  1.00  0.00     0.338 C 
ATOM     19  O   UNL     1       0.787  -2.451   0.695  1.00  0.00    -0.246 OA
BRANCH  18  20
ATOM     20  C   UNL     1       1.863  -2.989  -1.346  1.00  0.00     0.060 A 
ATOM     21  C   UNL     1       0.844  -2.519  -2.182  1.00  0.00     0.016 A 
ATOM     22  C   UNL     1       2.846  -3.858  -1.826  1.00  0.00     0.016 A 
ATOM     23  C   UNL     1       0.755  -2.986  -3.487  1.00  0.00     0.010 A 
ATOM     24  C   UNL     1       2.764  -4.314  -3.139  1.00  0.00     0.010 A 
ATOM     25  C   UNL     1       1.688  -3.921  -3.952  1.00  0.00    -0.014 A 
BRANCH  25  26
ATOM     26  C   UNL     1       1.444  -4.626  -5.227  1.00  0.00     0.031 A 
ATOM     27  C   UNL     1       0.923  -6.034  -5.175  1.00  0.00     0.074 A 
ATOM     28  C   UNL     1       1.696  -4.016  -6.396  1.00  0.00     0.049 A 
ATOM     29  N   UNL     1       0.695  -6.870  -6.153  1.00  0.00    -0.248 NA
ATOM     30  C   UNL     1       0.635  -6.579  -3.837  1.00  0.00     0.031 C 
ATOM     31  C   UNL     1       2.181  -2.644  -6.542  1.00  0.00     0.029 A 
ATOM     32  N   UNL     1       1.595  -4.481  -7.681  1.00  0.00    -0.354 N 
ATOM     33  C   UNL     1       0.260  -8.044  -5.548  1.00  0.00     0.074 A 
ATOM     34  C   UNL     1       0.290  -7.825  -4.120  1.00  0.00     0.031 C 
ATOM     35  C   UNL     1       2.356  -2.383  -7.848  1.00  0.00     0.029 A 
ATOM     36  C   UNL     1       2.031  -3.579  -8.621  1.00  0.00     0.049 A 
ATOM     37  H   UNL     1       1.245  -5.372  -7.908  1.00  0.00     0.167 HD
ATOM     38  C   UNL     1      -0.129  -9.200  -6.136  1.00  0.00     0.031 A 
ATOM     39  C   UNL     1       2.180  -3.719  -9.953  1.00  0.00     0.031 A 
ATOM     40  C   UNL     1      -0.128  -9.395  -7.561  1.00  0.00     0.049 A 
ATOM     41  C   UNL     1       1.783  -5.022 -10.589  1.00  0.00     0.074 A 
ATOM     42  C   UNL     1      -0.530 -10.505  -8.280  1.00  0.00     0.029 A 
ATOM     43  N   UNL     1       0.315  -8.456  -8.484  1.00  0.00    -0.354 N 
ATOM     44  N   UNL     1       1.327  -6.112 -10.014  1.00  0.00    -0.248 NA
ATOM     45  C   UNL     1       1.903  -5.116 -12.049  1.00  0.00     0.031 C 
ATOM     46  C   UNL     1      -0.261 -10.265  -9.631  1.00  0.00     0.029 A 
ATOM     47  C   UNL     1       0.231  -8.974  -9.764  1.00  0.00     0.049 A 
ATOM     48  H   UNL     1       0.640  -7.554  -8.261  1.00  0.00     0.167 HD
ATOM     49  C   UNL     1       1.078  -7.011 -11.043  1.00  0.00     0.074 A 
ATOM     50  C   UNL     1       1.431  -6.336 -12.277  1.00  0.00     0.031 C 
ATOM     51  C   UNL     1       0.592  -8.276 -10.975  1.00  0.00     0.031 A 
BRANCH  38  52
ATOM     52  C   UNL     1      -0.517 -10.344  -5.234  1.00  0.00    -0.014 A 
ATOM     53  C   UNL     1      -1.658 -10.285  -4.411  1.00  0.00     0.010 A 
ATOM     54  C   UNL     1       0.287 -11.498  -5.197  1.00  0.00     0.010 A 
ATOM     55  C   UNL     1      -1.946 -11.325  -3.521  1.00  0.00     0.020 A 
ATOM     56  C   UNL     1      -0.017 -12.555  -4.335  1.00  0.00     0.020 A 
ATOM     57  C   UNL     1      -1.117 -12.450  -3.482  1.00  0.00     0.054 A 
BRANCH  57  58
ATOM     58  S   UNL     1      -1.497 -13.773  -2.301  1.00  0.00     0.124 S 
ATOM     59  O   UNL     1      -1.144 -13.150  -1.028  1.00  0.00    -0.237 OA
ATOM     60  O   UNL     1      -2.925 -13.994  -2.517  1.00  0.00    -0.237 OA
ATOM     61  O   UNL     1      -0.629 -14.871  -2.717  1.00  0.00    -0.744 OA
ENDBRANCH  57  58
ENDBRANCH  38  52
BRANCH  39  62
ATOM     62  C   UNL     1       2.749  -2.592 -10.739  1.00  0.00    -0.014 A 
ATOM     63  C   UNL     1       1.943  -1.825 -11.596  1.00  0.00     0.010 A 
ATOM     64  C   UNL     1       4.099  -2.229 -10.564  1.00  0.00     0.010 A 
ATOM     65  C   UNL     1       2.473  -0.710 -12.255  1.00  0.00     0.020 A 
ATOM     66  C   UNL     1       4.624  -1.100 -11.199  1.00  0.00     0.020 A 
ATOM     67  C   UNL     1       3.807  -0.348 -12.042  1.00  0.00     0.054 A 
BRANCH  67  68
ATOM     68  S   UNL     1       4.442   1.159 -12.829  1.00  0.00     0.124 S 
ATOM     69  O   UNL     1       4.507   0.766 -14.233  1.00  0.00    -0.237 OA
ATOM     70  O   UNL     1       3.417   2.144 -12.493  1.00  0.00    -0.237 OA
ATOM     71  O   UNL     1       5.733   1.368 -12.177  1.00  0.00    -0.744 OA
ENDBRANCH  67  68
ENDBRANCH  39  62
BRANCH  51  72
ATOM     72  C   UNL     1       0.372  -9.010 -12.272  1.00  0.00    -0.014 A 
ATOM     73  C   UNL     1       1.448  -9.509 -13.024  1.00  0.00     0.010 A 
ATOM     74  C   UNL     1      -0.945  -9.294 -12.680  1.00  0.00     0.010 A 
ATOM     75  C   UNL     1       1.210 -10.273 -14.169  1.00  0.00     0.020 A 
ATOM     76  C   UNL     1      -1.186 -10.083 -13.806  1.00  0.00     0.020 A 
ATOM     77  C   UNL     1      -0.105 -10.563 -14.547  1.00  0.00     0.054 A 
BRANCH  77  78
ATOM     78  S   UNL     1      -0.383 -11.629 -15.988  1.00  0.00     0.124 S 
ATOM     79  O   UNL     1       0.007 -10.756 -17.092  1.00  0.00    -0.237 OA
ATOM     80  O   UNL     1       0.511 -12.754 -15.728  1.00  0.00    -0.237 OA
ATOM     81  O   UNL     1      -1.808 -11.944 -15.917  1.00  0.00    -0.744 OA
ENDBRANCH  77  78
ENDBRANCH  51  72
ENDBRANCH  25  26
ENDBRANCH  18  20
ENDBRANCH  17  18
ENDBRANCH   1  17
TORSDOF 16
