REMARK SMILES CCC[C@@H](C[NH2+]C(C)C)C(=O)OCCOC(=O)c1ccc(-c2c3nc(c(-c4ccc(S(=O)(=O)[O-])cc4)c4ccc([nH]4)c(-c4ccc(S(=O)(=O)[O-])cc4)c4nc(c(-c5ccc(S(=O)(=O)[O-])cc5)c5ccc2[nH]5)C=C4)C=C3)cc1
REMARK SMILES IDX 13 1 12 2 10 3 11 4 4 5 3 6 2 7 1 8 5 9 6 10 7 13 8 14 9 15
REMARK SMILES IDX 14 16 15 17 16 18 17 19 18 20 19 21 77 22 20 23 76 24 21 25
REMARK SMILES IDX 22 26 23 27 70 28 24 29 75 30 69 31 71 32 25 33 74 34 68 35
REMARK SMILES IDX 67 36 26 38 56 39 37 40 55 41 38 42 41 43 54 44 72 45 39 46
REMARK SMILES IDX 40 47 53 49 73 50 42 51 27 52 28 53 36 54 29 55 35 56 30 57
REMARK SMILES IDX 31 58 32 59 33 60 34 61 57 62 58 63 66 64 59 65 65 66 60 67
REMARK SMILES IDX 61 68 62 69 63 70 64 71 43 72 44 73 52 74 45 75 51 76 46 77
REMARK SMILES IDX 47 78 48 79 49 80 50 81
REMARK H PARENT 6 11 6 12 71 37 41 48
REMARK Flexibility Score: inf
ROOT
ATOM      1  C   UNL     1       1.218  -5.811   2.597  1.00  0.00     0.274 C 
ENDROOT
BRANCH   1   2
ATOM      2  O   UNL     1       0.801  -4.727   1.748  1.00  0.00    -0.462 OA
BRANCH   2   3
ATOM      3  C   UNL     1       0.317  -3.626   2.381  1.00  0.00     0.314 C 
ATOM      4  O   UNL     1       0.217  -3.510   3.598  1.00  0.00    -0.252 OA
BRANCH   3   5
ATOM      5  C   UNL     1      -0.109  -2.521   1.427  1.00  0.00     0.154 C 
BRANCH   5   6
ATOM      6  C   UNL     1       0.630  -2.533   0.076  1.00  0.00     0.021 C 
BRANCH   6   7
ATOM      7  C   UNL     1       0.369  -1.315  -0.819  1.00  0.00    -0.002 C 
ATOM      8  C   UNL     1       0.862  -0.004  -0.223  1.00  0.00     0.004 C 
ENDBRANCH   6   7
ENDBRANCH   5   6
BRANCH   5   9
ATOM      9  C   UNL     1      -1.641  -2.488   1.343  1.00  0.00     0.276 C 
BRANCH   9  10
ATOM     10  N   UNL     1      -2.199  -3.575   0.535  1.00  0.00    -0.344 N 
ATOM     11  H   UNL     1      -1.832  -4.460   0.883  1.00  0.00     0.346 HD
ATOM     12  H   UNL     1      -1.928  -3.406  -0.434  1.00  0.00     0.346 HD
BRANCH  10  13
ATOM     13  C   UNL     1      -3.664  -3.625   0.580  1.00  0.00     0.176 C 
ATOM     14  C   UNL     1      -4.309  -2.483  -0.207  1.00  0.00     0.075 C 
ATOM     15  C   UNL     1      -4.096  -4.971  -0.002  1.00  0.00     0.075 C 
ENDBRANCH  10  13
ENDBRANCH   9  10
ENDBRANCH   5   9
ENDBRANCH   3   5
ENDBRANCH   2   3
ENDBRANCH   1   2
BRANCH   1  16
ATOM     16  C   UNL     1       2.741  -5.864   2.742  1.00  0.00     0.275 C 
BRANCH  16  17
ATOM     17  O   UNL     1       3.254  -4.688   3.392  1.00  0.00    -0.458 OA
BRANCH  17  18
ATOM     18  C   UNL     1       3.696  -3.727   2.547  1.00  0.00     0.338 C 
ATOM     19  O   UNL     1       3.755  -3.782   1.331  1.00  0.00    -0.246 OA
BRANCH  18  20
ATOM     20  C   UNL     1       4.007  -2.501   3.296  1.00  0.00     0.060 A 
ATOM     21  C   UNL     1       3.226  -1.370   3.048  1.00  0.00     0.016 A 
ATOM     22  C   UNL     1       5.130  -2.422   4.122  1.00  0.00     0.016 A 
ATOM     23  C   UNL     1       3.576  -0.142   3.600  1.00  0.00     0.010 A 
ATOM     24  C   UNL     1       5.485  -1.186   4.672  1.00  0.00     0.010 A 
ATOM     25  C   UNL     1       4.727  -0.035   4.389  1.00  0.00    -0.014 A 
BRANCH  25  26
ATOM     26  C   UNL     1       5.201   1.308   4.797  1.00  0.00     0.031 A 
ATOM     27  C   UNL     1       6.335   1.944   4.042  1.00  0.00     0.074 A 
ATOM     28  C   UNL     1       4.589   1.976   5.791  1.00  0.00     0.049 A 
ATOM     29  N   UNL     1       6.937   3.084   4.261  1.00  0.00    -0.248 NA
ATOM     30  C   UNL     1       6.860   1.197   2.887  1.00  0.00     0.031 C 
ATOM     31  C   UNL     1       3.437   1.492   6.553  1.00  0.00     0.029 A 
ATOM     32  N   UNL     1       4.850   3.212   6.324  1.00  0.00    -0.354 N 
ATOM     33  C   UNL     1       7.926   3.181   3.289  1.00  0.00     0.074 A 
ATOM     34  C   UNL     1       7.849   1.981   2.484  1.00  0.00     0.031 C 
ATOM     35  C   UNL     1       3.087   2.426   7.454  1.00  0.00     0.029 A 
ATOM     36  C   UNL     1       4.012   3.553   7.358  1.00  0.00     0.049 A 
ATOM     37  H   UNL     1       5.569   3.800   5.997  1.00  0.00     0.167 HD
ATOM     38  C   UNL     1       8.820   4.178   3.086  1.00  0.00     0.031 A 
ATOM     39  C   UNL     1       4.004   4.643   8.150  1.00  0.00     0.031 A 
ATOM     40  C   UNL     1       8.893   5.372   3.884  1.00  0.00     0.049 A 
ATOM     41  C   UNL     1       5.032   5.719   7.933  1.00  0.00     0.074 A 
ATOM     42  C   UNL     1       9.776   6.431   3.773  1.00  0.00     0.029 A 
ATOM     43  N   UNL     1       8.043   5.668   4.938  1.00  0.00    -0.354 N 
ATOM     44  N   UNL     1       5.984   5.779   7.031  1.00  0.00    -0.248 NA
ATOM     45  C   UNL     1       4.985   6.875   8.839  1.00  0.00     0.031 C 
ATOM     46  C   UNL     1       9.477   7.357   4.780  1.00  0.00     0.029 A 
ATOM     47  C   UNL     1       8.383   6.890   5.491  1.00  0.00     0.049 A 
ATOM     48  H   UNL     1       7.306   5.093   5.248  1.00  0.00     0.167 HD
ATOM     49  C   UNL     1       6.637   6.987   7.251  1.00  0.00     0.074 A 
ATOM     50  C   UNL     1       5.965   7.631   8.361  1.00  0.00     0.031 C 
ATOM     51  C   UNL     1       7.698   7.515   6.593  1.00  0.00     0.031 A 
BRANCH  38  52
ATOM     52  C   UNL     1       9.819   3.989   1.979  1.00  0.00    -0.014 A 
ATOM     53  C   UNL     1       9.450   4.138   0.631  1.00  0.00     0.010 A 
ATOM     54  C   UNL     1      11.150   3.663   2.295  1.00  0.00     0.010 A 
ATOM     55  C   UNL     1      10.386   3.923  -0.385  1.00  0.00     0.020 A 
ATOM     56  C   UNL     1      12.094   3.468   1.284  1.00  0.00     0.020 A 
ATOM     57  C   UNL     1      11.700   3.580  -0.052  1.00  0.00     0.054 A 
BRANCH  57  58
ATOM     58  S   UNL     1      12.901   3.307  -1.384  1.00  0.00     0.124 S 
ATOM     59  O   UNL     1      12.546   1.964  -1.837  1.00  0.00    -0.237 OA
ATOM     60  O   UNL     1      12.597   4.385  -2.321  1.00  0.00    -0.237 OA
ATOM     61  O   UNL     1      14.193   3.417  -0.712  1.00  0.00    -0.744 OA
ENDBRANCH  57  58
ENDBRANCH  38  52
BRANCH  39  62
ATOM     62  C   UNL     1       2.999   4.758   9.240  1.00  0.00    -0.014 A 
ATOM     63  C   UNL     1       1.934   5.668   9.140  1.00  0.00     0.010 A 
ATOM     64  C   UNL     1       3.100   3.943  10.383  1.00  0.00     0.010 A 
ATOM     65  C   UNL     1       0.993   5.771  10.169  1.00  0.00     0.020 A 
ATOM     66  C   UNL     1       2.149   4.027  11.403  1.00  0.00     0.020 A 
ATOM     67  C   UNL     1       1.106   4.949  11.294  1.00  0.00     0.054 A 
BRANCH  67  68
ATOM     68  S   UNL     1      -0.157   5.051  12.593  1.00  0.00     0.124 S 
ATOM     69  O   UNL     1       0.261   6.239  13.329  1.00  0.00    -0.237 OA
ATOM     70  O   UNL     1      -1.394   5.184  11.827  1.00  0.00    -0.237 OA
ATOM     71  O   UNL     1      -0.011   3.785  13.308  1.00  0.00    -0.744 OA
ENDBRANCH  67  68
ENDBRANCH  39  62
BRANCH  51  72
ATOM     72  C   UNL     1       8.175   8.871   7.034  1.00  0.00    -0.014 A 
ATOM     73  C   UNL     1       8.935   9.027   8.206  1.00  0.00     0.010 A 
ATOM     74  C   UNL     1       7.900   9.996   6.236  1.00  0.00     0.010 A 
ATOM     75  C   UNL     1       9.388  10.293   8.588  1.00  0.00     0.020 A 
ATOM     76  C   UNL     1       8.367  11.259   6.605  1.00  0.00     0.020 A 
ATOM     77  C   UNL     1       9.097  11.402   7.788  1.00  0.00     0.054 A 
BRANCH  77  78
ATOM     78  S   UNL     1       9.727  13.031   8.278  1.00  0.00     0.124 S 
ATOM     79  O   UNL     1       8.771  13.427   9.309  1.00  0.00    -0.237 OA
ATOM     80  O   UNL     1      11.075  12.729   8.754  1.00  0.00    -0.237 OA
ATOM     81  O   UNL     1       9.670  13.808   7.042  1.00  0.00    -0.744 OA
ENDBRANCH  77  78
ENDBRANCH  51  72
ENDBRANCH  25  26
ENDBRANCH  18  20
ENDBRANCH  17  18
ENDBRANCH  16  17
ENDBRANCH   1  16
TORSDOF 19
