REMARK SMILES Cc1ccccc1NC(=S)NN1C(=O)CS[C@H]1c1ccccc1C(=O)OCCOC(=O)c1ccc(-c2c3nc(c(-c4ccc(S(=O)(=O)[O-])cc4)c4ccc([nH]4)c(-c4ccc(S(=O)(=O)[O-])cc4)c4nc(c(-c5ccc(S(=O)(=O)[O-])cc5)c5ccc2[nH]5)C=C4)C=C3)cc1
REMARK SMILES IDX 27 1 26 2 24 3 25 4 23 5 18 6 19 7 20 8 22 9 21 10 17 11
REMARK SMILES IDX 12 12 13 13 14 14 15 15 16 16 11 17 9 19 10 20 8 21 7 23
REMARK SMILES IDX 1 24 2 25 3 26 4 27 6 28 5 29 28 30 29 31 30 32 31 33 32 34
REMARK SMILES IDX 33 35 91 36 34 37 90 38 35 39 36 40 37 41 84 42 38 43 89 44
REMARK SMILES IDX 83 45 85 46 39 47 88 48 82 49 81 50 40 52 70 53 51 54 69 55
REMARK SMILES IDX 52 56 55 57 68 58 86 59 53 60 54 61 67 63 87 64 56 65 41 66
REMARK SMILES IDX 42 67 50 68 43 69 49 70 44 71 45 72 46 73 47 74 48 75 71 76
REMARK SMILES IDX 72 77 80 78 73 79 79 80 74 81 75 82 76 83 77 84 78 85 57 86
REMARK SMILES IDX 58 87 66 88 59 89 65 90 60 91 61 92 62 93 63 94 64 95
REMARK H PARENT 11 18 8 22 85 51 55 62
REMARK Flexibility Score: inf
ROOT
ATOM      1  C   UNL     1       0.056   1.997  -0.108  1.00  0.00     0.275 C 
ENDROOT
BRANCH   1   2
ATOM      2  O   UNL     1      -0.427   3.402   0.968  1.00  0.00    -0.458 OA
BRANCH   2   3
ATOM      3  C   UNL     1      -1.261   4.923   0.897  1.00  0.00     0.338 C 
ATOM      4  O   UNL     1      -0.258   5.663   0.767  1.00  0.00    -0.246 OA
BRANCH   3   5
ATOM      5  C   UNL     1      -3.428   5.162   0.717  1.00  0.00     0.066 A 
ATOM      6  C   UNL     1      -4.338   4.112  -0.297  1.00  0.00     0.001 A 
ATOM      7  C   UNL     1      -5.725   4.165  -0.524  1.00  0.00     0.008 A 
ATOM      8  C   UNL     1      -6.428   5.246  -0.048  1.00  0.00     0.000 A 
ATOM      9  C   UNL     1      -4.408   6.208   1.068  1.00  0.00     0.016 A 
ATOM     10  C   UNL     1      -5.781   6.254   0.664  1.00  0.00     0.001 A 
BRANCH   6  11
ATOM     11  C   UNL     1      -3.540   2.880  -1.373  1.00  0.00     0.197 C 
ATOM     12  N   UNL     1      -1.891   2.381  -1.115  1.00  0.00    -0.236 N 
ATOM     13  C   UNL     1      -2.085   0.954  -0.331  1.00  0.00     0.252 C 
ATOM     14  O   UNL     1      -1.640   0.575   0.760  1.00  0.00    -0.272 OA
ATOM     15  C   UNL     1      -3.285   0.196  -0.769  1.00  0.00     0.174 C 
ATOM     16  S   UNL     1      -4.586   1.306  -1.198  1.00  0.00    -0.120 SA
BRANCH  12  17
ATOM     17  N   UNL     1      -0.285   3.572  -1.140  1.00  0.00    -0.270 N 
ATOM     18  H   UNL     1      -0.522   4.515  -0.982  1.00  0.00     0.191 HD
BRANCH  17  19
ATOM     19  C   UNL     1       1.396   3.360  -1.367  1.00  0.00     0.189 C 
ATOM     20  S   UNL     1       2.413   4.694  -1.177  1.00  0.00    -0.039 S 
BRANCH  19  21
ATOM     21  N   UNL     1       2.128   1.922  -1.391  1.00  0.00    -0.331 N 
ATOM     22  H   UNL     1       3.101   2.045  -1.478  1.00  0.00     0.169 HD
BRANCH  21  23
ATOM     23  C   UNL     1       1.794   0.397  -1.321  1.00  0.00     0.043 A 
ATOM     24  C   UNL     1       3.686  -0.373   0.245  1.00  0.00     0.046 C 
ATOM     25  C   UNL     1       2.301  -0.459  -0.317  1.00  0.00    -0.028 A 
ATOM     26  C   UNL     1       1.562  -1.623   0.087  1.00  0.00     0.005 A 
ATOM     27  C   UNL     1       0.364  -1.979  -0.511  1.00  0.00     0.000 A 
ATOM     28  C   UNL     1       0.845  -0.260  -2.126  1.00  0.00     0.026 A 
ATOM     29  C   UNL     1       0.036  -1.324  -1.673  1.00  0.00     0.002 A 
ENDBRANCH  21  23
ENDBRANCH  19  21
ENDBRANCH  17  19
ENDBRANCH  12  17
ENDBRANCH   6  11
ENDBRANCH   3   5
ENDBRANCH   2   3
ENDBRANCH   1   2
BRANCH   1  30
ATOM     30  C   UNL     1      -0.264   1.950  -2.156  1.00  0.00     0.275 C 
BRANCH  30  31
ATOM     31  O   UNL     1      -1.189   3.330  -2.957  1.00  0.00    -0.458 OA
BRANCH  31  32
ATOM     32  C   UNL     1      -1.871   4.571  -2.481  1.00  0.00     0.338 C 
ATOM     33  O   UNL     1      -2.360   5.339  -3.304  1.00  0.00    -0.246 OA
BRANCH  32  34
ATOM     34  C   UNL     1      -2.189   4.860  -0.852  1.00  0.00     0.060 A 
ATOM     35  C   UNL     1      -2.095   6.521  -0.153  1.00  0.00     0.016 A 
ATOM     36  C   UNL     1      -2.453   3.523   0.502  1.00  0.00     0.016 A 
ATOM     37  C   UNL     1      -2.086   6.671   1.677  1.00  0.00     0.010 A 
ATOM     38  C   UNL     1      -2.508   3.826   2.148  1.00  0.00     0.010 A 
ATOM     39  C   UNL     1      -2.258   5.290   2.787  1.00  0.00    -0.014 A 
BRANCH  39  40
ATOM     40  C   UNL     1      -1.343   4.685   3.901  1.00  0.00     0.031 A 
ATOM     41  C   UNL     1      -2.014   3.402   4.684  1.00  0.00     0.074 A 
ATOM     42  C   UNL     1      -0.012   5.004   3.795  1.00  0.00     0.049 A 
ATOM     43  N   UNL     1      -2.293   3.340   5.953  1.00  0.00    -0.248 NA
ATOM     44  C   UNL     1      -2.687   2.141   4.063  1.00  0.00     0.031 C 
ATOM     45  C   UNL     1       1.224   4.533   4.427  1.00  0.00     0.029 A 
ATOM     46  N   UNL     1       0.466   6.111   3.090  1.00  0.00    -0.354 N 
ATOM     47  C   UNL     1      -2.500   1.970   6.196  1.00  0.00     0.074 A 
ATOM     48  C   UNL     1      -3.208   1.478   5.082  1.00  0.00     0.031 C 
ATOM     49  C   UNL     1       2.123   5.551   4.454  1.00  0.00     0.029 A 
ATOM     50  C   UNL     1       1.560   6.686   3.730  1.00  0.00     0.049 A 
ATOM     51  H   UNL     1       0.077   6.443   2.248  1.00  0.00     0.167 HD
ATOM     52  C   UNL     1      -1.560   1.238   6.876  1.00  0.00     0.031 A 
ATOM     53  C   UNL     1       1.326   7.946   4.202  1.00  0.00     0.031 A 
ATOM     54  C   UNL     1      -0.486   2.128   7.313  1.00  0.00     0.049 A 
ATOM     55  C   UNL     1       0.761   7.779   5.614  1.00  0.00     0.074 A 
ATOM     56  C   UNL     1       0.868   2.230   7.070  1.00  0.00     0.029 A 
ATOM     57  N   UNL     1      -0.863   3.349   7.843  1.00  0.00    -0.354 N 
ATOM     58  N   UNL     1       0.294   6.646   6.089  1.00  0.00    -0.248 NA
ATOM     59  C   UNL     1       0.869   8.790   6.660  1.00  0.00     0.031 C 
ATOM     60  C   UNL     1       1.259   3.576   7.396  1.00  0.00     0.029 A 
ATOM     61  C   UNL     1       0.135   4.290   7.783  1.00  0.00     0.049 A 
ATOM     62  H   UNL     1      -1.754   3.525   8.223  1.00  0.00     0.167 HD
ATOM     63  C   UNL     1       0.143   6.712   7.441  1.00  0.00     0.074 A 
ATOM     64  C   UNL     1       0.490   8.091   7.747  1.00  0.00     0.031 C 
ATOM     65  C   UNL     1      -0.182   5.646   8.239  1.00  0.00     0.031 A 
BRANCH  52  66
ATOM     66  C   UNL     1      -1.481  -0.289   6.956  1.00  0.00    -0.014 A 
ATOM     67  C   UNL     1      -0.565  -0.832   7.875  1.00  0.00     0.010 A 
ATOM     68  C   UNL     1      -2.253  -1.240   6.241  1.00  0.00     0.010 A 
ATOM     69  C   UNL     1      -0.453  -2.213   8.107  1.00  0.00     0.020 A 
ATOM     70  C   UNL     1      -2.159  -2.630   6.467  1.00  0.00     0.020 A 
ATOM     71  C   UNL     1      -1.266  -3.106   7.416  1.00  0.00     0.054 A 
BRANCH  71  72
ATOM     72  S   UNL     1      -1.159  -4.871   7.815  1.00  0.00     0.124 S 
ATOM     73  O   UNL     1       0.229  -5.183   7.487  1.00  0.00    -0.237 OA
ATOM     74  O   UNL     1      -1.491  -4.891   9.237  1.00  0.00    -0.237 OA
ATOM     75  O   UNL     1      -2.154  -5.490   6.940  1.00  0.00    -0.744 OA
ENDBRANCH  71  72
ENDBRANCH  52  66
BRANCH  53  76
ATOM     76  C   UNL     1       0.908   8.840   3.036  1.00  0.00    -0.014 A 
ATOM     77  C   UNL     1       1.833   8.905   1.952  1.00  0.00     0.010 A 
ATOM     78  C   UNL     1      -0.401   9.254   2.751  1.00  0.00     0.010 A 
ATOM     79  C   UNL     1       1.433   9.140   0.623  1.00  0.00     0.020 A 
ATOM     80  C   UNL     1      -0.801   9.550   1.409  1.00  0.00     0.020 A 
ATOM     81  C   UNL     1       0.103   9.420   0.348  1.00  0.00     0.054 A 
BRANCH  81  82
ATOM     82  S   UNL     1      -0.425   9.467  -1.406  1.00  0.00     0.124 S 
ATOM     83  O   UNL     1       0.339  10.590  -1.940  1.00  0.00    -0.237 OA
ATOM     84  O   UNL     1      -0.031   8.151  -1.905  1.00  0.00    -0.237 OA
ATOM     85  O   UNL     1      -1.869   9.686  -1.324  1.00  0.00    -0.744 OA
ENDBRANCH  81  82
ENDBRANCH  53  76
BRANCH  65  86
ATOM     86  C   UNL     1      -0.845   5.800   9.598  1.00  0.00    -0.014 A 
ATOM     87  C   UNL     1      -1.315   7.021  10.090  1.00  0.00     0.010 A 
ATOM     88  C   UNL     1      -1.133   4.655  10.388  1.00  0.00     0.010 A 
ATOM     89  C   UNL     1      -1.885   7.120  11.360  1.00  0.00     0.020 A 
ATOM     90  C   UNL     1      -1.807   4.724  11.603  1.00  0.00     0.020 A 
ATOM     91  C   UNL     1      -2.117   5.971  12.111  1.00  0.00     0.054 A 
BRANCH  91  92
ATOM     92  S   UNL     1      -2.805   6.134  13.765  1.00  0.00     0.124 S 
ATOM     93  O   UNL     1      -1.670   6.685  14.501  1.00  0.00    -0.237 OA
ATOM     94  O   UNL     1      -3.922   7.050  13.554  1.00  0.00    -0.237 OA
ATOM     95  O   UNL     1      -3.180   4.769  14.125  1.00  0.00    -0.744 OA
ENDBRANCH  91  92
ENDBRANCH  65  86
ENDBRANCH  39  40
ENDBRANCH  32  34
ENDBRANCH  31  32
ENDBRANCH  30  31
ENDBRANCH   1  30
TORSDOF 19
