REMARK SMILES O=C(OCCOC(=O)c1cccc(Nc2ccc([N+](=O)[O-])cc2)c1)c1ccc(-c2c3nc(c(-c4ccc(S(=O)(=O)[O-])cc4)c4ccc([nH]4)c(-c4ccc(S(=O)(=O)[O-])cc4)c4nc(c(-c5ccc(S(=O)(=O)[O-])cc5)c5ccc2[nH]5)C=C4)C=C3)cc1
REMARK SMILES IDX 4 1 3 2 2 3 1 4 25 5 26 6 84 7 27 8 83 9 28 10 29 11 30 12
REMARK SMILES IDX 77 13 31 14 82 15 76 16 78 17 32 18 81 19 75 20 74 21 33 23
REMARK SMILES IDX 63 24 44 25 62 26 45 27 48 28 61 29 79 30 46 31 47 32 60 34
REMARK SMILES IDX 80 35 49 36 34 37 35 38 43 39 36 40 42 41 37 42 38 43 39 44
REMARK SMILES IDX 40 45 41 46 64 47 65 48 73 49 66 50 72 51 67 52 68 53 69 54
REMARK SMILES IDX 70 55 71 56 50 57 51 58 59 59 52 60 58 61 53 62 54 63 55 64
REMARK SMILES IDX 56 65 57 66 5 67 6 68 7 69 8 70 9 71 10 72 24 73 11 74 13 75
REMARK SMILES IDX 12 76 14 77 15 79 16 80 23 81 17 82 22 83 18 84 19 85 20 86
REMARK SMILES IDX 21 87
REMARK H PARENT 78 22 48 33 14 78
REMARK Flexibility Score: inf
ROOT
ATOM      1  C   UNL     1       4.315  -1.361   0.395  1.00  0.00     0.275 C 
ENDROOT
BRANCH   1   2
ATOM      2  O   UNL     1       3.245  -0.512   0.842  1.00  0.00    -0.458 OA
BRANCH   2   3
ATOM      3  C   UNL     1       3.151   0.837   0.743  1.00  0.00     0.338 C 
ATOM      4  O   UNL     1       2.390   1.434   1.503  1.00  0.00    -0.246 OA
BRANCH   3   5
ATOM      5  C   UNL     1       3.773   1.610  -0.378  1.00  0.00     0.060 A 
ATOM      6  C   UNL     1       5.011   1.351  -0.974  1.00  0.00     0.016 A 
ATOM      7  C   UNL     1       3.029   2.701  -0.857  1.00  0.00     0.016 A 
ATOM      8  C   UNL     1       5.464   2.104  -2.062  1.00  0.00     0.010 A 
ATOM      9  C   UNL     1       3.471   3.454  -1.947  1.00  0.00     0.010 A 
ATOM     10  C   UNL     1       4.701   3.163  -2.550  1.00  0.00    -0.014 A 
BRANCH  10  11
ATOM     11  C   UNL     1       5.286   4.122  -3.511  1.00  0.00     0.031 A 
ATOM     12  C   UNL     1       5.747   5.440  -2.961  1.00  0.00     0.074 A 
ATOM     13  C   UNL     1       5.424   3.831  -4.818  1.00  0.00     0.049 A 
ATOM     14  N   UNL     1       6.157   6.504  -3.594  1.00  0.00    -0.248 NA
ATOM     15  C   UNL     1       5.753   5.567  -1.492  1.00  0.00     0.031 C 
ATOM     16  C   UNL     1       5.114   2.544  -5.439  1.00  0.00     0.029 A 
ATOM     17  N   UNL     1       5.824   4.618  -5.869  1.00  0.00    -0.354 N 
ATOM     18  C   UNL     1       6.493   7.415  -2.601  1.00  0.00     0.074 A 
ATOM     19  C   UNL     1       6.165   6.813  -1.330  1.00  0.00     0.031 C 
ATOM     20  C   UNL     1       5.256   2.653  -6.773  1.00  0.00     0.029 A 
ATOM     21  C   UNL     1       5.641   4.023  -7.097  1.00  0.00     0.049 A 
ATOM     22  H   UNL     1       6.204   5.519  -5.756  1.00  0.00     0.167 HD
ATOM     23  C   UNL     1       7.063   8.634  -2.737  1.00  0.00     0.031 A 
ATOM     24  C   UNL     1       5.705   4.550  -8.337  1.00  0.00     0.031 A 
ATOM     25  C   UNL     1       7.346   9.226  -4.012  1.00  0.00     0.049 A 
ATOM     26  C   UNL     1       6.074   6.000  -8.476  1.00  0.00     0.074 A 
ATOM     27  C   UNL     1       7.936  10.443  -4.292  1.00  0.00     0.029 A 
ATOM     28  N   UNL     1       7.034   8.635  -5.230  1.00  0.00    -0.354 N 
ATOM     29  N   UNL     1       6.377   6.861  -7.532  1.00  0.00    -0.248 NA
ATOM     30  C   UNL     1       6.116   6.551  -9.836  1.00  0.00     0.031 C 
ATOM     31  C   UNL     1       7.933  10.610  -5.682  1.00  0.00     0.029 A 
ATOM     32  C   UNL     1       7.396   9.471  -6.267  1.00  0.00     0.049 A 
ATOM     33  H   UNL     1       6.617   7.750  -5.337  1.00  0.00     0.167 HD
ATOM     34  C   UNL     1       6.730   8.032  -8.190  1.00  0.00     0.074 A 
ATOM     35  C   UNL     1       6.539   7.788  -9.607  1.00  0.00     0.031 C 
ATOM     36  C   UNL     1       7.216   9.186  -7.669  1.00  0.00     0.031 A 
BRANCH  23  37
ATOM     37  C   UNL     1       7.378   9.379  -1.469  1.00  0.00    -0.014 A 
ATOM     38  C   UNL     1       8.374   8.914  -0.588  1.00  0.00     0.010 A 
ATOM     39  C   UNL     1       6.627  10.512  -1.116  1.00  0.00     0.010 A 
ATOM     40  C   UNL     1       8.558   9.520   0.657  1.00  0.00     0.020 A 
ATOM     41  C   UNL     1       6.829  11.141   0.117  1.00  0.00     0.020 A 
ATOM     42  C   UNL     1       7.771  10.620   1.008  1.00  0.00     0.054 A 
BRANCH  42  43
ATOM     43  S   UNL     1       7.989  11.356   2.651  1.00  0.00     0.124 S 
ATOM     44  O   UNL     1       7.334  10.370   3.509  1.00  0.00    -0.237 OA
ATOM     45  O   UNL     1       9.442  11.431   2.781  1.00  0.00    -0.237 OA
ATOM     46  O   UNL     1       7.308  12.643   2.548  1.00  0.00    -0.744 OA
ENDBRANCH  42  43
ENDBRANCH  23  37
BRANCH  24  47
ATOM     47  C   UNL     1       5.268   3.748  -9.512  1.00  0.00    -0.014 A 
ATOM     48  C   UNL     1       6.157   3.158 -10.421  1.00  0.00     0.010 A 
ATOM     49  C   UNL     1       3.891   3.558  -9.704  1.00  0.00     0.010 A 
ATOM     50  C   UNL     1       5.668   2.376 -11.481  1.00  0.00     0.020 A 
ATOM     51  C   UNL     1       3.395   2.772 -10.744  1.00  0.00     0.020 A 
ATOM     52  C   UNL     1       4.289   2.180 -11.628  1.00  0.00     0.054 A 
BRANCH  52  53
ATOM     53  S   UNL     1       3.669   1.083 -12.935  1.00  0.00     0.124 S 
ATOM     54  O   UNL     1       3.883   1.885 -14.135  1.00  0.00    -0.237 OA
ATOM     55  O   UNL     1       4.526  -0.090 -12.791  1.00  0.00    -0.237 OA
ATOM     56  O   UNL     1       2.271   0.869 -12.562  1.00  0.00    -0.744 OA
ENDBRANCH  52  53
ENDBRANCH  24  47
BRANCH  36  57
ATOM     57  C   UNL     1       7.714  10.223  -8.633  1.00  0.00    -0.014 A 
ATOM     58  C   UNL     1       6.845  11.103  -9.295  1.00  0.00     0.010 A 
ATOM     59  C   UNL     1       9.106  10.382  -8.772  1.00  0.00     0.010 A 
ATOM     60  C   UNL     1       7.366  12.137 -10.078  1.00  0.00     0.020 A 
ATOM     61  C   UNL     1       9.628  11.426  -9.532  1.00  0.00     0.020 A 
ATOM     62  C   UNL     1       8.754  12.298 -10.182  1.00  0.00     0.054 A 
BRANCH  62  63
ATOM     63  S   UNL     1       9.408  13.710 -11.112  1.00  0.00     0.124 S 
ATOM     64  O   UNL     1       9.190  13.291 -12.494  1.00  0.00    -0.237 OA
ATOM     65  O   UNL     1       8.572  14.815 -10.649  1.00  0.00    -0.237 OA
ATOM     66  O   UNL     1      10.807  13.780 -10.696  1.00  0.00    -0.744 OA
ENDBRANCH  62  63
ENDBRANCH  36  57
ENDBRANCH  10  11
ENDBRANCH   3   5
ENDBRANCH   2   3
ENDBRANCH   1   2
BRANCH   1  67
ATOM     67  C   UNL     1       4.093  -1.974  -0.992  1.00  0.00     0.275 C 
BRANCH  67  68
ATOM     68  O   UNL     1       3.527  -1.051  -1.935  1.00  0.00    -0.458 OA
BRANCH  68  69
ATOM     69  C   UNL     1       2.175  -1.144  -2.079  1.00  0.00     0.338 C 
ATOM     70  O   UNL     1       1.452  -1.987  -1.587  1.00  0.00    -0.246 OA
BRANCH  69  71
ATOM     71  C   UNL     1       1.658   0.050  -2.779  1.00  0.00     0.062 A 
ATOM     72  C   UNL     1       0.673   0.789  -2.118  1.00  0.00     0.016 A 
ATOM     73  C   UNL     1       2.098   0.432  -4.052  1.00  0.00     0.041 A 
ATOM     74  C   UNL     1       0.164   1.943  -2.704  1.00  0.00     0.003 A 
ATOM     75  C   UNL     1       1.539   1.559  -4.683  1.00  0.00     0.039 A 
ATOM     76  C   UNL     1       0.602   2.325  -3.973  1.00  0.00     0.026 A 
BRANCH  75  77
ATOM     77  N   UNL     1       1.917   1.894  -5.995  1.00  0.00    -0.355 N 
ATOM     78  H   UNL     1       2.574   1.291  -6.412  1.00  0.00     0.167 HD
BRANCH  77  79
ATOM     79  C   UNL     1       1.490   2.967  -6.795  1.00  0.00     0.039 A 
ATOM     80  C   UNL     1       0.750   2.703  -7.956  1.00  0.00     0.033 A 
ATOM     81  C   UNL     1       1.803   4.296  -6.478  1.00  0.00     0.033 A 
ATOM     82  C   UNL     1       0.326   3.743  -8.790  1.00  0.00     0.088 A 
ATOM     83  C   UNL     1       1.403   5.347  -7.314  1.00  0.00     0.088 A 
ATOM     84  C   UNL     1       0.665   5.064  -8.472  1.00  0.00     0.269 A 
BRANCH  84  85
ATOM     85  N   UNL     1       0.277   6.152  -9.379  1.00  0.00     0.062 N 
ATOM     86  O   UNL     1      -0.382   5.857 -10.386  1.00  0.00    -0.258 OA
ATOM     87  O   UNL     1       0.608   7.306  -9.072  1.00  0.00    -0.258 OA
ENDBRANCH  84  85
ENDBRANCH  77  79
ENDBRANCH  75  77
ENDBRANCH  69  71
ENDBRANCH  68  69
ENDBRANCH  67  68
ENDBRANCH   1  67
TORSDOF 17
