REMARK SMILES O=C(NC1(C(=O)OCCOC(=O)c2ccc(-c3c4nc(c(-c5ccc(S(=O)(=O)[O-])cc5)c5ccc([nH]5)c(-c5ccc(S(=O)(=O)[O-])cc5)c5nc(c(-c6ccc(S(=O)(=O)[O-])cc6)c6ccc3[nH]6)C=C5)C=C4)cc2)Cc2ccccc2C1)OCC1c2ccccc2-c2ccccc21
REMARK SMILES IDX 8 1 7 2 5 3 6 4 4 5 73 6 80 7 74 8 79 9 75 10 78 11 76 12
REMARK SMILES IDX 77 13 3 14 1 15 2 16 81 18 82 19 83 20 84 21 95 22 85 23
REMARK SMILES IDX 89 24 90 25 94 26 86 27 88 28 91 29 93 30 87 31 92 32 9 33
REMARK SMILES IDX 10 34 11 35 12 36 13 37 14 38 72 39 15 40 71 41 16 42 17 43
REMARK SMILES IDX 18 44 65 45 19 46 70 47 64 48 66 49 20 50 69 51 63 52 62 53
REMARK SMILES IDX 21 55 51 56 32 57 50 58 33 59 36 60 49 61 67 62 34 63 35 64
REMARK SMILES IDX 48 66 68 67 37 68 22 69 23 70 31 71 24 72 30 73 25 74 26 75
REMARK SMILES IDX 27 76 28 77 29 78 52 79 53 80 61 81 54 82 60 83 55 84 56 85
REMARK SMILES IDX 57 86 58 87 59 88 38 89 39 90 47 91 40 92 46 93 41 94 42 95
REMARK SMILES IDX 43 96 44 97 45 98
REMARK H PARENT 3 17 66 54 36 65
REMARK Flexibility Score: inf
ROOT
ATOM      1  C   UNL     1       5.572  -2.024   2.644  1.00  0.00     0.274 C 
ENDROOT
BRANCH   1   2
ATOM      2  O   UNL     1       5.420  -1.565   1.275  1.00  0.00    -0.460 OA
BRANCH   2   3
ATOM      3  C   UNL     1       4.731  -2.347   0.413  1.00  0.00     0.332 C 
ATOM      4  O   UNL     1       4.070  -3.315   0.790  1.00  0.00    -0.249 OA
BRANCH   3   5
ATOM      5  C   UNL     1       4.731  -1.899  -1.095  1.00  0.00     0.149 C 
ATOM      6  C   UNL     1       5.150  -3.191  -1.886  1.00  0.00     0.076 C 
ATOM      7  C   UNL     1       5.643  -0.818  -1.738  1.00  0.00     0.076 C 
ATOM      8  C   UNL     1       6.555  -2.877  -2.362  1.00  0.00    -0.042 A 
ATOM      9  C   UNL     1       6.774  -1.512  -2.363  1.00  0.00    -0.042 A 
ATOM     10  C   UNL     1       7.576  -3.699  -2.795  1.00  0.00     0.004 A 
ATOM     11  C   UNL     1       7.911  -0.901  -2.870  1.00  0.00     0.004 A 
ATOM     12  C   UNL     1       8.770  -3.112  -3.261  1.00  0.00     0.000 A 
ATOM     13  C   UNL     1       8.927  -1.719  -3.325  1.00  0.00     0.000 A 
BRANCH   5  14
ATOM     14  N   UNL     1       3.364  -1.367  -1.274  1.00  0.00    -0.305 N 
ATOM     15  O   UNL     1       2.268   0.650  -1.359  1.00  0.00    -0.225 OA
ATOM     16  C   UNL     1       3.126  -0.054  -0.878  1.00  0.00     0.408 C 
ATOM     17  H   UNL     1       2.647  -1.922  -1.658  1.00  0.00     0.168 HD
BRANCH  16  18
ATOM     18  O   UNL     1       4.057   0.339   0.042  1.00  0.00    -0.449 OA
BRANCH  18  19
ATOM     19  C   UNL     1       4.688   1.627  -0.101  1.00  0.00     0.248 C 
BRANCH  19  20
ATOM     20  C   UNL     1       5.907   1.764   0.886  1.00  0.00     0.088 C 
ATOM     21  C   UNL     1       7.350   1.235   0.606  1.00  0.00    -0.029 A 
ATOM     22  C   UNL     1       6.188   3.260   0.989  1.00  0.00    -0.029 A 
ATOM     23  C   UNL     1       7.883  -0.053   0.623  1.00  0.00     0.005 A 
ATOM     24  C   UNL     1       8.254   2.312   0.545  1.00  0.00    -0.014 A 
ATOM     25  C   UNL     1       7.513   3.544   0.618  1.00  0.00    -0.014 A 
ATOM     26  C   UNL     1       5.284   4.266   1.284  1.00  0.00     0.005 A 
ATOM     27  C   UNL     1       9.266  -0.270   0.631  1.00  0.00     0.000 A 
ATOM     28  C   UNL     1       9.635   2.111   0.585  1.00  0.00     0.009 A 
ATOM     29  C   UNL     1       7.894   4.842   0.345  1.00  0.00     0.009 A 
ATOM     30  C   UNL     1       5.670   5.576   1.030  1.00  0.00     0.000 A 
ATOM     31  C   UNL     1      10.140   0.810   0.645  1.00  0.00     0.001 A 
ATOM     32  C   UNL     1       6.949   5.857   0.521  1.00  0.00     0.001 A 
ENDBRANCH  19  20
ENDBRANCH  18  19
ENDBRANCH  16  18
ENDBRANCH   5  14
ENDBRANCH   3   5
ENDBRANCH   2   3
ENDBRANCH   1   2
BRANCH   1  33
ATOM     33  C   UNL     1       5.125  -0.968   3.653  1.00  0.00     0.275 C 
BRANCH  33  34
ATOM     34  O   UNL     1       3.717  -0.782   3.480  1.00  0.00    -0.458 OA
BRANCH  34  35
ATOM     35  C   UNL     1       3.301   0.491   3.322  1.00  0.00     0.338 C 
ATOM     36  O   UNL     1       3.932   1.514   3.525  1.00  0.00    -0.246 OA
BRANCH  35  37
ATOM     37  C   UNL     1       1.924   0.485   2.816  1.00  0.00     0.060 A 
ATOM     38  C   UNL     1       1.531  -0.424   1.831  1.00  0.00     0.016 A 
ATOM     39  C   UNL     1       1.047   1.467   3.276  1.00  0.00     0.016 A 
ATOM     40  C   UNL     1       0.275  -0.304   1.252  1.00  0.00     0.010 A 
ATOM     41  C   UNL     1      -0.249   1.510   2.779  1.00  0.00     0.010 A 
ATOM     42  C   UNL     1      -0.643   0.622   1.767  1.00  0.00    -0.014 A 
BRANCH  42  43
ATOM     43  C   UNL     1      -2.069   0.549   1.384  1.00  0.00     0.031 A 
ATOM     44  C   UNL     1      -2.761   1.720   0.756  1.00  0.00     0.074 A 
ATOM     45  C   UNL     1      -2.735  -0.574   1.718  1.00  0.00     0.049 A 
ATOM     46  N   UNL     1      -4.041   1.918   0.586  1.00  0.00    -0.248 NA
ATOM     47  C   UNL     1      -1.912   2.825   0.283  1.00  0.00     0.031 C 
ATOM     48  C   UNL     1      -2.129  -1.757   2.344  1.00  0.00     0.029 A 
ATOM     49  N   UNL     1      -4.054  -0.913   1.592  1.00  0.00    -0.354 N 
ATOM     50  C   UNL     1      -4.160   3.188   0.034  1.00  0.00     0.074 A 
ATOM     51  C   UNL     1      -2.818   3.713  -0.110  1.00  0.00     0.031 C 
ATOM     52  C   UNL     1      -3.059  -2.705   2.498  1.00  0.00     0.029 A 
ATOM     53  C   UNL     1      -4.343  -2.159   2.095  1.00  0.00     0.049 A 
ATOM     54  H   UNL     1      -4.728  -0.323   1.183  1.00  0.00     0.167 HD
ATOM     55  C   UNL     1      -5.297   3.848  -0.297  1.00  0.00     0.031 A 
ATOM     56  C   UNL     1      -5.523  -2.776   2.275  1.00  0.00     0.031 A 
ATOM     57  C   UNL     1      -6.612   3.276  -0.135  1.00  0.00     0.049 A 
ATOM     58  C   UNL     1      -6.761  -2.025   1.901  1.00  0.00     0.074 A 
ATOM     59  C   UNL     1      -7.842   3.834  -0.434  1.00  0.00     0.029 A 
ATOM     60  N   UNL     1      -6.863   2.003   0.366  1.00  0.00    -0.354 N 
ATOM     61  N   UNL     1      -6.862  -0.808   1.419  1.00  0.00    -0.248 NA
ATOM     62  C   UNL     1      -8.037  -2.713   2.107  1.00  0.00     0.031 C 
ATOM     63  C   UNL     1      -8.836   2.916  -0.076  1.00  0.00     0.029 A 
ATOM     64  C   UNL     1      -8.226   1.762   0.395  1.00  0.00     0.049 A 
ATOM     65  H   UNL     1      -6.172   1.366   0.658  1.00  0.00     0.167 HD
ATOM     66  C   UNL     1      -8.219  -0.578   1.264  1.00  0.00     0.074 A 
ATOM     67  C   UNL     1      -8.895  -1.797   1.676  1.00  0.00     0.031 C 
ATOM     68  C   UNL     1      -8.854   0.539   0.830  1.00  0.00     0.031 A 
BRANCH  55  69
ATOM     69  C   UNL     1      -5.175   5.261  -0.814  1.00  0.00    -0.014 A 
ATOM     70  C   UNL     1      -4.654   5.540  -2.090  1.00  0.00     0.010 A 
ATOM     71  C   UNL     1      -5.632   6.331  -0.021  1.00  0.00     0.010 A 
ATOM     72  C   UNL     1      -4.559   6.860  -2.547  1.00  0.00     0.020 A 
ATOM     73  C   UNL     1      -5.562   7.651  -0.483  1.00  0.00     0.020 A 
ATOM     74  C   UNL     1      -5.009   7.908  -1.739  1.00  0.00     0.054 A 
BRANCH  74  75
ATOM     75  S   UNL     1      -4.891   9.610  -2.362  1.00  0.00     0.124 S 
ATOM     76  O   UNL     1      -3.457   9.870  -2.261  1.00  0.00    -0.237 OA
ATOM     77  O   UNL     1      -5.412   9.493  -3.721  1.00  0.00    -0.237 OA
ATOM     78  O   UNL     1      -5.728  10.377  -1.442  1.00  0.00    -0.744 OA
ENDBRANCH  74  75
ENDBRANCH  55  69
BRANCH  56  79
ATOM     79  C   UNL     1      -5.554  -4.136   2.876  1.00  0.00    -0.014 A 
ATOM     80  C   UNL     1      -5.865  -5.257   2.090  1.00  0.00     0.010 A 
ATOM     81  C   UNL     1      -5.165  -4.327   4.217  1.00  0.00     0.010 A 
ATOM     82  C   UNL     1      -5.783  -6.544   2.632  1.00  0.00     0.020 A 
ATOM     83  C   UNL     1      -5.050  -5.612   4.752  1.00  0.00     0.020 A 
ATOM     84  C   UNL     1      -5.369  -6.713   3.957  1.00  0.00     0.054 A 
BRANCH  84  85
ATOM     85  S   UNL     1      -5.184  -8.395   4.612  1.00  0.00     0.124 S 
ATOM     86  O   UNL     1      -6.571  -8.778   4.856  1.00  0.00    -0.237 OA
ATOM     87  O   UNL     1      -4.518  -9.094   3.516  1.00  0.00    -0.237 OA
ATOM     88  O   UNL     1      -4.365  -8.208   5.808  1.00  0.00    -0.744 OA
ENDBRANCH  84  85
ENDBRANCH  56  79
BRANCH  68  89
ATOM     89  C   UNL     1     -10.351   0.463   0.768  1.00  0.00    -0.014 A 
ATOM     90  C   UNL     1     -11.126   0.511   1.940  1.00  0.00     0.010 A 
ATOM     91  C   UNL     1     -10.985   0.352  -0.481  1.00  0.00     0.010 A 
ATOM     92  C   UNL     1     -12.515   0.410   1.865  1.00  0.00     0.020 A 
ATOM     93  C   UNL     1     -12.376   0.277  -0.561  1.00  0.00     0.020 A 
ATOM     94  C   UNL     1     -13.130   0.290   0.614  1.00  0.00     0.054 A 
BRANCH  94  95
ATOM     95  S   UNL     1     -14.938   0.186   0.539  1.00  0.00     0.124 S 
ATOM     96  O   UNL     1     -15.180  -1.187   0.974  1.00  0.00    -0.237 OA
ATOM     97  O   UNL     1     -15.359   1.226   1.474  1.00  0.00    -0.237 OA
ATOM     98  O   UNL     1     -15.241   0.459  -0.864  1.00  0.00    -0.744 OA
ENDBRANCH  94  95
ENDBRANCH  68  89
ENDBRANCH  42  43
ENDBRANCH  35  37
ENDBRANCH  34  35
ENDBRANCH  33  34
ENDBRANCH   1  33
TORSDOF 18
