REMARK SMILES O=C(CNC(=O)OCC1=Cc2ccccc2S1(=O)=O)OCCOC(=O)c1ccc(-c2c3nc(c(-c4ccc(S(=O)(=O)[O-])cc4)c4ccc([nH]4)c(-c4ccc(S(=O)(=O)[O-])cc4)c4nc(c(-c5ccc(S(=O)(=O)[O-])cc5)c5ccc2[nH]5)C=C4)C=C3)cc1
REMARK SMILES IDX 21 1 20 2 2 3 1 4 3 5 4 6 5 7 6 9 7 10 8 11 9 12 10 13 17 14
REMARK SMILES IDX 11 15 16 16 18 17 19 18 12 19 15 20 13 21 14 22 22 23 23 24
REMARK SMILES IDX 24 25 25 26 26 27 27 28 85 29 28 30 84 31 29 32 30 33 31 34
REMARK SMILES IDX 78 35 32 36 83 37 77 38 79 39 33 40 82 41 76 42 75 43 34 45
REMARK SMILES IDX 64 46 45 47 63 48 46 49 49 50 62 51 80 52 47 53 48 54 61 56
REMARK SMILES IDX 81 57 50 58 35 59 36 60 44 61 37 62 43 63 38 64 39 65 40 66
REMARK SMILES IDX 41 67 42 68 65 69 66 70 74 71 67 72 73 73 68 74 69 75 70 76
REMARK SMILES IDX 71 77 72 78 51 79 52 80 60 81 53 82 59 83 54 84 55 85 56 86
REMARK SMILES IDX 57 87 58 88
REMARK H PARENT 4 8 79 44 49 55
REMARK Flexibility Score: inf
ROOT
ATOM      1  C   UNL     1       4.302  -0.410  -1.213  1.00  0.00     0.274 C 
ENDROOT
BRANCH   1   2
ATOM      2  O   UNL     1       2.965  -0.783  -0.827  1.00  0.00    -0.461 OA
BRANCH   2   3
ATOM      3  C   UNL     1       2.408  -0.676   0.402  1.00  0.00     0.325 C 
ATOM      4  O   UNL     1       1.180  -0.687   0.500  1.00  0.00    -0.250 OA
BRANCH   3   5
ATOM      5  C   UNL     1       3.266  -0.447   1.647  1.00  0.00     0.242 C 
BRANCH   5   6
ATOM      6  N   UNL     1       4.429  -1.301   1.793  1.00  0.00    -0.311 N 
ATOM      7  C   UNL     1       5.733  -0.913   1.781  1.00  0.00     0.407 C 
ATOM      8  H   UNL     1       4.257  -2.263   1.913  1.00  0.00     0.167 HD
ATOM      9  O   UNL     1       6.644  -1.725   1.753  1.00  0.00    -0.225 OA
BRANCH   7  10
ATOM     10  O   UNL     1       5.885   0.432   1.703  1.00  0.00    -0.444 OA
BRANCH  10  11
ATOM     11  C   UNL     1       7.233   0.901   1.575  1.00  0.00     0.283 C 
BRANCH  11  12
ATOM     12  C   UNL     1       7.759   1.302   2.897  1.00  0.00     0.087 C 
ATOM     13  C   UNL     1       7.895   2.538   3.412  1.00  0.00     0.029 C 
ATOM     14  S   UNL     1       8.408   0.077   3.952  1.00  0.00     0.206 S 
ATOM     15  C   UNL     1       8.483   2.525   4.747  1.00  0.00    -0.005 A 
ATOM     16  C   UNL     1       8.819   1.246   5.180  1.00  0.00     0.079 A 
ATOM     17  O   UNL     1       7.361  -0.758   4.498  1.00  0.00    -0.219 OA
ATOM     18  O   UNL     1       9.648  -0.442   3.411  1.00  0.00    -0.219 OA
ATOM     19  C   UNL     1       8.693   3.598   5.597  1.00  0.00     0.009 A 
ATOM     20  C   UNL     1       9.334   0.963   6.431  1.00  0.00     0.021 A 
ATOM     21  C   UNL     1       9.219   3.349   6.872  1.00  0.00     0.001 A 
ATOM     22  C   UNL     1       9.534   2.042   7.288  1.00  0.00     0.001 A 
ENDBRANCH  11  12
ENDBRANCH  10  11
ENDBRANCH   7  10
ENDBRANCH   5   6
ENDBRANCH   3   5
ENDBRANCH   2   3
ENDBRANCH   1   2
BRANCH   1  23
ATOM     23  C   UNL     1       4.459   1.076  -1.538  1.00  0.00     0.275 C 
BRANCH  23  24
ATOM     24  O   UNL     1       4.004   1.908  -0.460  1.00  0.00    -0.458 OA
BRANCH  24  25
ATOM     25  C   UNL     1       2.757   2.421  -0.632  1.00  0.00     0.338 C 
ATOM     26  O   UNL     1       2.053   2.301  -1.619  1.00  0.00    -0.246 OA
BRANCH  25  27
ATOM     27  C   UNL     1       2.295   3.033   0.630  1.00  0.00     0.060 A 
ATOM     28  C   UNL     1       0.994   2.744   1.052  1.00  0.00     0.016 A 
ATOM     29  C   UNL     1       3.108   3.887   1.383  1.00  0.00     0.016 A 
ATOM     30  C   UNL     1       0.489   3.337   2.208  1.00  0.00     0.010 A 
ATOM     31  C   UNL     1       2.599   4.480   2.546  1.00  0.00     0.010 A 
ATOM     32  C   UNL     1       1.276   4.231   2.949  1.00  0.00    -0.014 A 
BRANCH  32  33
ATOM     33  C   UNL     1       0.662   4.962   4.086  1.00  0.00     0.031 A 
ATOM     34  C   UNL     1       0.201   6.382   3.897  1.00  0.00     0.074 A 
ATOM     35  C   UNL     1       0.453   4.342   5.263  1.00  0.00     0.049 A 
ATOM     36  N   UNL     1      -0.465   7.151   4.720  1.00  0.00    -0.248 NA
ATOM     37  C   UNL     1       0.533   7.019   2.613  1.00  0.00     0.031 C 
ATOM     38  C   UNL     1       0.851   2.971   5.580  1.00  0.00     0.029 A 
ATOM     39  N   UNL     1      -0.161   4.788   6.408  1.00  0.00    -0.354 N 
ATOM     40  C   UNL     1      -0.657   8.351   4.047  1.00  0.00     0.074 A 
ATOM     41  C   UNL     1       0.016   8.230   2.771  1.00  0.00     0.031 C 
ATOM     42  C   UNL     1       0.465   2.684   6.836  1.00  0.00     0.029 A 
ATOM     43  C   UNL     1      -0.200   3.851   7.413  1.00  0.00     0.049 A 
ATOM     44  H   UNL     1      -0.537   5.693   6.500  1.00  0.00     0.167 HD
ATOM     45  C   UNL     1      -1.351   9.446   4.440  1.00  0.00     0.031 A 
ATOM     46  C   UNL     1      -0.718   3.922   8.656  1.00  0.00     0.031 A 
ATOM     47  C   UNL     1      -1.997   9.585   5.719  1.00  0.00     0.049 A 
ATOM     48  C   UNL     1      -1.440   5.170   9.091  1.00  0.00     0.074 A 
ATOM     49  C   UNL     1      -2.726  10.659   6.203  1.00  0.00     0.029 A 
ATOM     50  N   UNL     1      -1.988   8.626   6.720  1.00  0.00    -0.354 N 
ATOM     51  N   UNL     1      -1.659   6.275   8.418  1.00  0.00    -0.248 NA
ATOM     52  C   UNL     1      -2.007   5.170  10.447  1.00  0.00     0.031 C 
ATOM     53  C   UNL     1      -3.114  10.368   7.516  1.00  0.00     0.029 A 
ATOM     54  C   UNL     1      -2.679   9.091   7.827  1.00  0.00     0.049 A 
ATOM     55  H   UNL     1      -1.555   7.745   6.653  1.00  0.00     0.167 HD
ATOM     56  C   UNL     1      -2.410   7.090   9.261  1.00  0.00     0.074 A 
ATOM     57  C   UNL     1      -2.627   6.341  10.481  1.00  0.00     0.031 C 
ATOM     58  C   UNL     1      -2.878   8.345   9.044  1.00  0.00     0.031 A 
BRANCH  45  59
ATOM     59  C   UNL     1      -1.441  10.591   3.466  1.00  0.00    -0.014 A 
ATOM     60  C   UNL     1      -2.233  10.490   2.308  1.00  0.00     0.010 A 
ATOM     61  C   UNL     1      -0.762  11.795   3.728  1.00  0.00     0.010 A 
ATOM     62  C   UNL     1      -2.317  11.558   1.411  1.00  0.00     0.020 A 
ATOM     63  C   UNL     1      -0.864  12.875   2.847  1.00  0.00     0.020 A 
ATOM     64  C   UNL     1      -1.629  12.743   1.686  1.00  0.00     0.054 A 
BRANCH  64  65
ATOM     65  S   UNL     1      -1.773  14.121   0.515  1.00  0.00     0.124 S 
ATOM     66  O   UNL     1      -0.971  13.645  -0.610  1.00  0.00    -0.237 OA
ATOM     67  O   UNL     1      -3.212  14.191   0.276  1.00  0.00    -0.237 OA
ATOM     68  O   UNL     1      -1.210  15.256   1.243  1.00  0.00    -0.744 OA
ENDBRANCH  64  65
ENDBRANCH  45  59
BRANCH  46  69
ATOM     69  C   UNL     1      -0.571   2.770   9.589  1.00  0.00    -0.014 A 
ATOM     70  C   UNL     1      -1.683   2.002   9.973  1.00  0.00     0.010 A 
ATOM     71  C   UNL     1       0.695   2.453  10.116  1.00  0.00     0.010 A 
ATOM     72  C   UNL     1      -1.538   0.956  10.890  1.00  0.00     0.020 A 
ATOM     73  C   UNL     1       0.848   1.391  11.010  1.00  0.00     0.020 A 
ATOM     74  C   UNL     1      -0.273   0.659  11.404  1.00  0.00     0.054 A 
BRANCH  74  75
ATOM     75  S   UNL     1      -0.100  -0.721  12.570  1.00  0.00     0.124 S 
ATOM     76  O   UNL     1      -0.663  -0.157  13.792  1.00  0.00    -0.237 OA
ATOM     77  O   UNL     1      -0.889  -1.773  11.934  1.00  0.00    -0.237 OA
ATOM     78  O   UNL     1       1.341  -0.964  12.598  1.00  0.00    -0.744 OA
ENDBRANCH  74  75
ENDBRANCH  46  69
BRANCH  58  79
ATOM     79  C   UNL     1      -3.690   8.980  10.145  1.00  0.00    -0.014 A 
ATOM     80  C   UNL     1      -3.094   9.384  11.353  1.00  0.00     0.010 A 
ATOM     81  C   UNL     1      -5.069   9.194   9.959  1.00  0.00     0.010 A 
ATOM     82  C   UNL     1      -3.869   9.941  12.374  1.00  0.00     0.020 A 
ATOM     83  C   UNL     1      -5.842   9.778  10.966  1.00  0.00     0.020 A 
ATOM     84  C   UNL     1      -5.241  10.128  12.177  1.00  0.00     0.054 A 
BRANCH  84  85
ATOM     85  S   UNL     1      -6.226  10.859  13.514  1.00  0.00     0.124 S 
ATOM     86  O   UNL     1      -6.337   9.746  14.452  1.00  0.00    -0.237 OA
ATOM     87  O   UNL     1      -5.391  11.973  13.956  1.00  0.00    -0.237 OA
ATOM     88  O   UNL     1      -7.471  11.245  12.855  1.00  0.00    -0.744 OA
ENDBRANCH  84  85
ENDBRANCH  58  79
ENDBRANCH  32  33
ENDBRANCH  25  27
ENDBRANCH  24  25
ENDBRANCH  23  24
ENDBRANCH   1  23
TORSDOF 18
