REMARK SMILES Cc1oc2cc(OCC(=O)OCCOC(=O)c3ccc(-c4c5nc(c(-c6ccc(S(=O)(=O)[O-])cc6)c6ccc([nH]6)c(-c6ccc(S(=O)(=O)[O-])cc6)c6nc(c(-c7ccc(S(=O)(=O)[O-])cc7)c7ccc4[nH]7)C=C6)C=C5)cc3)ccc2c(=O)c1Oc1ccc(Cl)cc1Cl
REMARK SMILES IDX 12 1 11 2 9 3 10 4 8 5 7 6 6 7 1 8 2 9 3 10 82 11 4 12 80 13
REMARK SMILES IDX 5 14 79 15 81 16 78 17 77 18 83 19 84 20 85 21 90 22 86 23
REMARK SMILES IDX 89 24 91 25 87 26 88 27 13 28 14 29 15 30 16 31 17 32 18 33
REMARK SMILES IDX 76 34 19 35 75 36 20 37 21 38 22 39 69 40 23 41 74 42 68 43
REMARK SMILES IDX 70 44 24 45 73 46 67 47 66 48 25 50 55 51 36 52 54 53 37 54
REMARK SMILES IDX 40 55 53 56 71 57 38 58 39 59 52 61 72 62 41 63 26 64 27 65
REMARK SMILES IDX 35 66 28 67 34 68 29 69 30 70 31 71 32 72 33 73 56 74 57 75
REMARK SMILES IDX 65 76 58 77 64 78 59 79 60 80 61 81 62 82 63 83 42 84 43 85
REMARK SMILES IDX 51 86 44 87 50 88 45 89 46 90 47 91 48 92 49 93
REMARK H PARENT 70 49 40 60
REMARK Flexibility Score: inf
ROOT
ATOM      1  C   UNL     1       3.214   3.956  -3.183  1.00  0.00     0.274 C 
ENDROOT
BRANCH   1   2
ATOM      2  O   UNL     1       3.538   3.013  -2.140  1.00  0.00    -0.460 OA
BRANCH   2   3
ATOM      3  C   UNL     1       3.771   3.549  -0.912  1.00  0.00     0.344 C 
ATOM      4  O   UNL     1       3.726   4.747  -0.651  1.00  0.00    -0.248 OA
BRANCH   3   5
ATOM      5  C   UNL     1       4.145   2.505   0.138  1.00  0.00     0.351 C 
BRANCH   5   6
ATOM      6  O   UNL     1       4.077   1.130  -0.200  1.00  0.00    -0.482 OA
BRANCH   6   7
ATOM      7  C   UNL     1       2.893   0.464  -0.065  1.00  0.00     0.123 A 
ATOM      8  C   UNL     1      -3.003   1.164   0.373  1.00  0.00     0.092 C 
ATOM      9  C   UNL     1      -1.867   0.190   0.335  1.00  0.00     0.148 A 
ATOM     10  O   UNL     1      -0.668   0.845   0.611  1.00  0.00    -0.457 OA
ATOM     11  C   UNL     1      -1.959  -1.135   0.056  1.00  0.00     0.213 A 
ATOM     12  C   UNL     1       0.511   0.227   0.310  1.00  0.00     0.142 A 
ATOM     13  C   UNL     1      -0.670  -1.896  -0.022  1.00  0.00     0.235 A 
ATOM     14  C   UNL     1       1.669   1.015   0.305  1.00  0.00     0.094 A 
ATOM     15  C   UNL     1       0.577  -1.118   0.001  1.00  0.00     0.069 A 
ATOM     16  O   UNL     1      -0.629  -3.115  -0.159  1.00  0.00    -0.285 OA
ATOM     17  C   UNL     1       1.806  -1.698  -0.316  1.00  0.00     0.020 A 
ATOM     18  C   UNL     1       2.955  -0.901  -0.360  1.00  0.00     0.047 A 
BRANCH  11  19
ATOM     19  O   UNL     1      -3.082  -1.905  -0.241  1.00  0.00    -0.448 OA
BRANCH  19  20
ATOM     20  C   UNL     1      -4.348  -1.405  -0.095  1.00  0.00     0.146 A 
ATOM     21  C   UNL     1      -4.975  -1.504   1.151  1.00  0.00     0.050 A 
ATOM     22  C   UNL     1      -5.027  -0.836  -1.181  1.00  0.00     0.085 A 
ATOM     23  C   UNL     1      -6.242  -0.944   1.335  1.00  0.00     0.024 A 
ATOM     24  C   UNL     1      -6.290  -0.271  -0.995  1.00  0.00     0.045 A 
ATOM     25  Cl  UNL     1      -4.311  -0.756  -2.750  1.00  0.00    -0.080 Cl
ATOM     26  C   UNL     1      -6.884  -0.315   0.267  1.00  0.00     0.042 A 
ATOM     27  Cl  UNL     1      -8.421   0.423   0.501  1.00  0.00    -0.084 Cl
ENDBRANCH  19  20
ENDBRANCH  11  19
ENDBRANCH   6   7
ENDBRANCH   5   6
ENDBRANCH   3   5
ENDBRANCH   2   3
ENDBRANCH   1   2
BRANCH   1  28
ATOM     28  C   UNL     1       1.704   4.055  -3.378  1.00  0.00     0.275 C 
BRANCH  28  29
ATOM     29  O   UNL     1       1.089   4.510  -2.161  1.00  0.00    -0.458 OA
BRANCH  29  30
ATOM     30  C   UNL     1       0.029   3.788  -1.747  1.00  0.00     0.338 C 
ATOM     31  O   UNL     1      -0.484   2.834  -2.325  1.00  0.00    -0.246 OA
BRANCH  30  32
ATOM     32  C   UNL     1      -0.478   4.284  -0.457  1.00  0.00     0.060 A 
ATOM     33  C   UNL     1       0.370   4.429   0.645  1.00  0.00     0.016 A 
ATOM     34  C   UNL     1      -1.857   4.434  -0.308  1.00  0.00     0.016 A 
ATOM     35  C   UNL     1      -0.173   4.587   1.922  1.00  0.00     0.010 A 
ATOM     36  C   UNL     1      -2.395   4.659   0.960  1.00  0.00     0.010 A 
ATOM     37  C   UNL     1      -1.562   4.675   2.089  1.00  0.00    -0.014 A 
BRANCH  37  38
ATOM     38  C   UNL     1      -2.163   4.860   3.428  1.00  0.00     0.031 A 
ATOM     39  C   UNL     1      -2.867   3.739   4.136  1.00  0.00     0.074 A 
ATOM     40  C   UNL     1      -2.132   6.087   3.970  1.00  0.00     0.049 A 
ATOM     41  N   UNL     1      -3.698   3.790   5.145  1.00  0.00    -0.248 NA
ATOM     42  C   UNL     1      -2.615   2.381   3.638  1.00  0.00     0.031 C 
ATOM     43  C   UNL     1      -1.441   7.242   3.394  1.00  0.00     0.029 A 
ATOM     44  N   UNL     1      -2.713   6.568   5.111  1.00  0.00    -0.354 N 
ATOM     45  C   UNL     1      -4.125   2.483   5.356  1.00  0.00     0.074 A 
ATOM     46  C   UNL     1      -3.454   1.659   4.371  1.00  0.00     0.031 C 
ATOM     47  C   UNL     1      -1.649   8.306   4.182  1.00  0.00     0.029 A 
ATOM     48  C   UNL     1      -2.530   7.917   5.279  1.00  0.00     0.049 A 
ATOM     49  H   UNL     1      -3.211   6.004   5.746  1.00  0.00     0.167 HD
ATOM     50  C   UNL     1      -4.991   2.021   6.291  1.00  0.00     0.031 A 
ATOM     51  C   UNL     1      -3.049   8.757   6.190  1.00  0.00     0.031 A 
ATOM     52  C   UNL     1      -5.576   2.843   7.321  1.00  0.00     0.049 A 
ATOM     53  C   UNL     1      -3.980   8.222   7.233  1.00  0.00     0.074 A 
ATOM     54  C   UNL     1      -6.429   2.468   8.346  1.00  0.00     0.029 A 
ATOM     55  N   UNL     1      -5.339   4.200   7.479  1.00  0.00    -0.354 N 
ATOM     56  N   UNL     1      -4.436   7.000   7.377  1.00  0.00    -0.248 NA
ATOM     57  C   UNL     1      -4.462   9.176   8.237  1.00  0.00     0.031 C 
ATOM     58  C   UNL     1      -6.720   3.603   9.113  1.00  0.00     0.029 A 
ATOM     59  C   UNL     1      -6.021   4.676   8.585  1.00  0.00     0.049 A 
ATOM     60  H   UNL     1      -4.768   4.745   6.890  1.00  0.00     0.167 HD
ATOM     61  C   UNL     1      -5.256   7.036   8.497  1.00  0.00     0.074 A 
ATOM     62  C   UNL     1      -5.217   8.396   9.000  1.00  0.00     0.031 C 
ATOM     63  C   UNL     1      -5.976   6.035   9.059  1.00  0.00     0.031 A 
BRANCH  50  64
ATOM     64  C   UNL     1      -5.380   0.566   6.244  1.00  0.00    -0.014 A 
ATOM     65  C   UNL     1      -4.503  -0.445   6.671  1.00  0.00     0.010 A 
ATOM     66  C   UNL     1      -6.682   0.215   5.836  1.00  0.00     0.010 A 
ATOM     67  C   UNL     1      -4.909  -1.784   6.663  1.00  0.00     0.020 A 
ATOM     68  C   UNL     1      -7.099  -1.119   5.848  1.00  0.00     0.020 A 
ATOM     69  C   UNL     1      -6.203  -2.113   6.247  1.00  0.00     0.054 A 
BRANCH  69  70
ATOM     70  S   UNL     1      -6.724  -3.851   6.272  1.00  0.00     0.124 S 
ATOM     71  O   UNL     1      -6.150  -4.345   5.023  1.00  0.00    -0.237 OA
ATOM     72  O   UNL     1      -6.107  -4.360   7.494  1.00  0.00    -0.237 OA
ATOM     73  O   UNL     1      -8.182  -3.771   6.301  1.00  0.00    -0.744 OA
ENDBRANCH  69  70
ENDBRANCH  50  64
BRANCH  51  74
ATOM     74  C   UNL     1      -2.689  10.193   6.121  1.00  0.00    -0.014 A 
ATOM     75  C   UNL     1      -1.730  10.722   6.999  1.00  0.00     0.010 A 
ATOM     76  C   UNL     1      -3.229  11.007   5.109  1.00  0.00     0.010 A 
ATOM     77  C   UNL     1      -1.307  12.045   6.860  1.00  0.00     0.020 A 
ATOM     78  C   UNL     1      -2.792  12.324   4.955  1.00  0.00     0.020 A 
ATOM     79  C   UNL     1      -1.835  12.835   5.834  1.00  0.00     0.054 A 
BRANCH  79  80
ATOM     80  S   UNL     1      -1.192  14.515   5.599  1.00  0.00     0.124 S 
ATOM     81  O   UNL     1      -1.937  15.266   6.604  1.00  0.00    -0.237 OA
ATOM     82  O   UNL     1       0.236  14.351   5.860  1.00  0.00    -0.237 OA
ATOM     83  O   UNL     1      -1.531  14.815   4.210  1.00  0.00    -0.744 OA
ENDBRANCH  79  80
ENDBRANCH  51  74
BRANCH  63  84
ATOM     84  C   UNL     1      -6.758   6.381  10.294  1.00  0.00    -0.014 A 
ATOM     85  C   UNL     1      -7.966   7.093  10.206  1.00  0.00     0.010 A 
ATOM     86  C   UNL     1      -6.276   5.988  11.555  1.00  0.00     0.010 A 
ATOM     87  C   UNL     1      -8.661   7.445  11.365  1.00  0.00     0.020 A 
ATOM     88  C   UNL     1      -6.978   6.323  12.715  1.00  0.00     0.020 A 
ATOM     89  C   UNL     1      -8.156   7.067  12.613  1.00  0.00     0.054 A 
BRANCH  89  90
ATOM     90  S   UNL     1      -9.072   7.530  14.108  1.00  0.00     0.124 S 
ATOM     91  O   UNL     1      -8.680   8.926  14.282  1.00  0.00    -0.237 OA
ATOM     92  O   UNL     1     -10.463   7.312  13.718  1.00  0.00    -0.237 OA
ATOM     93  O   UNL     1      -8.564   6.608  15.122  1.00  0.00    -0.744 OA
ENDBRANCH  89  90
ENDBRANCH  63  84
ENDBRANCH  37  38
ENDBRANCH  30  32
ENDBRANCH  29  30
ENDBRANCH  28  29
ENDBRANCH   1  28
TORSDOF 18
