REMARK SMILES O=C(Nc1ccccc1C(=O)OCCOC(=O)c1ccc(-c2c3nc(c(-c4ccc(S(=O)(=O)[O-])cc4)c4ccc([nH]4)c(-c4ccc(S(=O)(=O)[O-])cc4)c4nc(c(-c5ccc(S(=O)(=O)[O-])cc5)c5ccc2[nH]5)C=C4)C=C3)cc1)c1ccc(N2C(=O)[C@H]3CC=CC[C@H]3C2=O)cc1
REMARK SMILES IDX 13 1 12 2 10 3 11 4 9 5 4 6 5 7 6 8 8 9 7 10 3 11 1 12 2 13
REMARK SMILES IDX 78 15 79 16 94 17 80 18 93 19 81 20 82 21 83 22 91 23 84 24
REMARK SMILES IDX 85 25 90 26 92 27 86 28 89 29 87 30 88 31 14 32 15 33 16 34
REMARK SMILES IDX 17 35 18 36 19 37 77 38 20 39 76 40 21 41 22 42 23 43 70 44
REMARK SMILES IDX 24 45 75 46 69 47 71 48 25 49 74 50 68 51 67 52 26 54 56 55
REMARK SMILES IDX 37 56 55 57 38 58 41 59 54 60 72 61 39 62 40 63 53 65 73 66
REMARK SMILES IDX 42 67 27 68 28 69 36 70 29 71 35 72 30 73 31 74 32 75 33 76
REMARK SMILES IDX 34 77 57 78 58 79 66 80 59 81 65 82 60 83 61 84 62 85 63 86
REMARK SMILES IDX 64 87 43 88 44 89 52 90 45 91 51 92 46 93 47 94 48 95 49 96
REMARK SMILES IDX 50 97
REMARK H PARENT 3 14 71 53 41 64
REMARK Flexibility Score: inf
ROOT
ATOM      1  C   UNL     1       2.431  -2.454   1.701  1.00  0.00     0.275 C 
ENDROOT
BRANCH   1   2
ATOM      2  O   UNL     1       3.079  -1.961   0.504  1.00  0.00    -0.458 OA
BRANCH   2   3
ATOM      3  C   UNL     1       4.235  -1.283   0.715  1.00  0.00     0.340 C 
ATOM      4  O   UNL     1       4.797  -1.152   1.786  1.00  0.00    -0.246 OA
BRANCH   3   5
ATOM      5  C   UNL     1       4.785  -0.671  -0.514  1.00  0.00     0.083 A 
ATOM      6  C   UNL     1       4.078   0.215  -1.339  1.00  0.00     0.056 A 
ATOM      7  C   UNL     1       4.696   0.671  -2.518  1.00  0.00     0.027 A 
ATOM      8  C   UNL     1       6.030   0.365  -2.808  1.00  0.00     0.002 A 
ATOM      9  C   UNL     1       6.123  -0.980  -0.828  1.00  0.00     0.018 A 
ATOM     10  C   UNL     1       6.752  -0.448  -1.950  1.00  0.00     0.001 A 
BRANCH   6  11
ATOM     11  N   UNL     1       2.791   0.738  -1.097  1.00  0.00    -0.321 N 
ATOM     12  O   UNL     1       0.932   1.247   0.080  1.00  0.00    -0.269 OA
ATOM     13  C   UNL     1       2.151   1.081   0.076  1.00  0.00     0.255 C 
ATOM     14  H   UNL     1       2.253   0.884  -1.909  1.00  0.00     0.170 HD
BRANCH  13  15
ATOM     15  C   UNL     1       2.913   1.337   1.324  1.00  0.00     0.040 A 
ATOM     16  C   UNL     1       4.139   2.014   1.331  1.00  0.00     0.016 A 
ATOM     17  C   UNL     1       2.395   0.827   2.516  1.00  0.00     0.016 A 
ATOM     18  C   UNL     1       4.896   2.076   2.509  1.00  0.00     0.027 A 
ATOM     19  C   UNL     1       3.182   0.830   3.669  1.00  0.00     0.027 A 
ATOM     20  C   UNL     1       4.450   1.428   3.667  1.00  0.00     0.052 A 
BRANCH  20  21
ATOM     21  N   UNL     1       5.243   1.370   4.832  1.00  0.00    -0.250 N 
ATOM     22  C   UNL     1       5.904   2.448   5.359  1.00  0.00     0.238 C 
ATOM     23  C   UNL     1       5.384   0.236   5.592  1.00  0.00     0.238 C 
ATOM     24  O   UNL     1       6.018   3.568   4.876  1.00  0.00    -0.274 OA
ATOM     25  C   UNL     1       6.388   2.086   6.746  1.00  0.00     0.096 C 
ATOM     26  C   UNL     1       6.146   0.574   6.849  1.00  0.00     0.096 C 
ATOM     27  O   UNL     1       4.993  -0.897   5.336  1.00  0.00    -0.274 OA
ATOM     28  C   UNL     1       5.627   2.933   7.778  1.00  0.00     0.041 C 
ATOM     29  C   UNL     1       5.304   0.117   8.045  1.00  0.00     0.041 C 
ATOM     30  C   UNL     1       4.285   2.355   8.132  1.00  0.00    -0.030 C 
ATOM     31  C   UNL     1       4.135   1.031   8.269  1.00  0.00    -0.030 C 
ENDBRANCH  20  21
ENDBRANCH  13  15
ENDBRANCH   6  11
ENDBRANCH   3   5
ENDBRANCH   2   3
ENDBRANCH   1   2
BRANCH   1  32
ATOM     32  C   UNL     1       2.709  -3.926   2.004  1.00  0.00     0.275 C 
BRANCH  32  33
ATOM     33  O   UNL     1       4.047  -4.123   2.494  1.00  0.00    -0.458 OA
BRANCH  33  34
ATOM     34  C   UNL     1       4.952  -4.349   1.522  1.00  0.00     0.338 C 
ATOM     35  O   UNL     1       4.739  -4.464   0.324  1.00  0.00    -0.246 OA
BRANCH  34  36
ATOM     36  C   UNL     1       6.315  -4.360   2.059  1.00  0.00     0.060 A 
ATOM     37  C   UNL     1       7.073  -3.206   1.901  1.00  0.00     0.016 A 
ATOM     38  C   UNL     1       6.923  -5.550   2.439  1.00  0.00     0.016 A 
ATOM     39  C   UNL     1       8.451  -3.257   1.930  1.00  0.00     0.010 A 
ATOM     40  C   UNL     1       8.309  -5.572   2.610  1.00  0.00     0.010 A 
ATOM     41  C   UNL     1       9.087  -4.440   2.298  1.00  0.00    -0.014 A 
BRANCH  41  42
ATOM     42  C   UNL     1      10.566  -4.495   2.293  1.00  0.00     0.031 A 
ATOM     43  C   UNL     1      11.260  -5.507   1.426  1.00  0.00     0.074 A 
ATOM     44  C   UNL     1      11.272  -3.623   3.039  1.00  0.00     0.049 A 
ATOM     45  N   UNL     1      12.513  -5.875   1.434  1.00  0.00    -0.248 NA
ATOM     46  C   UNL     1      10.432  -6.215   0.433  1.00  0.00     0.031 C 
ATOM     47  C   UNL     1      10.707  -2.532   3.844  1.00  0.00     0.029 A 
ATOM     48  N   UNL     1      12.623  -3.510   3.241  1.00  0.00    -0.354 N 
ATOM     49  C   UNL     1      12.607  -6.909   0.509  1.00  0.00     0.074 A 
ATOM     50  C   UNL     1      11.287  -7.107  -0.047  1.00  0.00     0.031 C 
ATOM     51  C   UNL     1      11.703  -1.846   4.422  1.00  0.00     0.029 A 
ATOM     52  C   UNL     1      12.961  -2.516   4.129  1.00  0.00     0.049 A 
ATOM     53  H   UNL     1      13.286  -4.085   2.794  1.00  0.00     0.167 HD
ATOM     54  C   UNL     1      13.700  -7.633   0.176  1.00  0.00     0.031 A 
ATOM     55  C   UNL     1      14.143  -2.220   4.698  1.00  0.00     0.031 A 
ATOM     56  C   UNL     1      15.008  -7.383   0.722  1.00  0.00     0.049 A 
ATOM     57  C   UNL     1      15.326  -3.080   4.361  1.00  0.00     0.074 A 
ATOM     58  C   UNL     1      16.196  -8.036   0.447  1.00  0.00     0.029 A 
ATOM     59  N   UNL     1      15.300  -6.392   1.650  1.00  0.00    -0.354 N 
ATOM     60  N   UNL     1      15.396  -4.091   3.527  1.00  0.00    -0.248 NA
ATOM     61  C   UNL     1      16.583  -2.770   5.050  1.00  0.00     0.031 C 
ATOM     62  C   UNL     1      17.193  -7.481   1.256  1.00  0.00     0.029 A 
ATOM     63  C   UNL     1      16.643  -6.434   1.980  1.00  0.00     0.049 A 
ATOM     64  H   UNL     1      14.648  -5.754   2.020  1.00  0.00     0.167 HD
ATOM     65  C   UNL     1      16.715  -4.522   3.570  1.00  0.00     0.074 A 
ATOM     66  C   UNL     1      17.408  -3.650   4.499  1.00  0.00     0.031 C 
ATOM     67  C   UNL     1      17.303  -5.547   2.904  1.00  0.00     0.031 A 
BRANCH  54  68
ATOM     68  C   UNL     1      13.521  -8.795  -0.766  1.00  0.00    -0.014 A 
ATOM     69  C   UNL     1      13.228  -8.613  -2.129  1.00  0.00     0.010 A 
ATOM     70  C   UNL     1      13.693 -10.104  -0.275  1.00  0.00     0.010 A 
ATOM     71  C   UNL     1      13.081  -9.718  -2.974  1.00  0.00     0.020 A 
ATOM     72  C   UNL     1      13.578 -11.209  -1.123  1.00  0.00     0.020 A 
ATOM     73  C   UNL     1      13.259 -11.009  -2.466  1.00  0.00     0.054 A 
BRANCH  73  74
ATOM     74  S   UNL     1      13.103 -12.420  -3.595  1.00  0.00     0.124 S 
ATOM     75  O   UNL     1      11.666 -12.438  -3.860  1.00  0.00    -0.237 OA
ATOM     76  O   UNL     1      13.944 -12.023  -4.720  1.00  0.00    -0.237 OA
ATOM     77  O   UNL     1      13.604 -13.548  -2.814  1.00  0.00    -0.744 OA
ENDBRANCH  73  74
ENDBRANCH  54  68
BRANCH  55  78
ATOM     78  C   UNL     1      14.242  -1.108   5.683  1.00  0.00    -0.014 A 
ATOM     79  C   UNL     1      14.998   0.039   5.389  1.00  0.00     0.010 A 
ATOM     80  C   UNL     1      13.568  -1.184   6.917  1.00  0.00     0.010 A 
ATOM     81  C   UNL     1      15.093   1.081   6.316  1.00  0.00     0.020 A 
ATOM     82  C   UNL     1      13.630  -0.130   7.831  1.00  0.00     0.020 A 
ATOM     83  C   UNL     1      14.405   0.991   7.530  1.00  0.00     0.054 A 
BRANCH  83  84
ATOM     84  S   UNL     1      14.508   2.374   8.699  1.00  0.00     0.124 S 
ATOM     85  O   UNL     1      15.874   2.249   9.197  1.00  0.00    -0.237 OA
ATOM     86  O   UNL     1      14.248   3.528   7.842  1.00  0.00    -0.237 OA
ATOM     87  O   UNL     1      13.456   2.079   9.669  1.00  0.00    -0.744 OA
ENDBRANCH  83  84
ENDBRANCH  55  78
BRANCH  67  88
ATOM     88  C   UNL     1      18.779  -5.739   3.118  1.00  0.00    -0.014 A 
ATOM     89  C   UNL     1      19.286  -6.234   4.331  1.00  0.00     0.010 A 
ATOM     90  C   UNL     1      19.666  -5.459   2.062  1.00  0.00     0.010 A 
ATOM     91  C   UNL     1      20.660  -6.413   4.497  1.00  0.00     0.020 A 
ATOM     92  C   UNL     1      21.037  -5.670   2.212  1.00  0.00     0.020 A 
ATOM     93  C   UNL     1      21.526  -6.132   3.435  1.00  0.00     0.054 A 
BRANCH  93  94
ATOM     94  S   UNL     1      23.302  -6.415   3.662  1.00  0.00     0.124 S 
ATOM     95  O   UNL     1      23.671  -5.326   4.561  1.00  0.00    -0.237 OA
ATOM     96  O   UNL     1      23.339  -7.754   4.247  1.00  0.00    -0.237 OA
ATOM     97  O   UNL     1      23.844  -6.317   2.309  1.00  0.00    -0.744 OA
ENDBRANCH  93  94
ENDBRANCH  67  88
ENDBRANCH  41  42
ENDBRANCH  34  36
ENDBRANCH  33  34
ENDBRANCH  32  33
ENDBRANCH   1  32
TORSDOF 17
