REMARK SMILES COc1ccc(N2C(=O)/C(=C/c3c(C(=O)OCCOC(=O)c4ccc(-c5c6nc(c(-c7ccc(S(=O)(=O)[O-])cc7)c7ccc([nH]7)c(-c7ccc(S(=O)(=O)[O-])cc7)c7nc(c(-c8ccc(S(=O)(=O)[O-])cc8)c8ccc5[nH]8)C=C7)C=C6)cc4)[nH]c4cc(OC)ccc34)SC2=S)cc1
REMARK SMILES IDX 17 1 16 2 14 3 15 4 13 5 12 6 90 7 82 8 83 9 89 10 84 12
REMARK SMILES IDX 88 13 85 14 11 15 7 16 8 17 92 18 9 19 10 20 91 21 93 22
REMARK SMILES IDX 6 23 3 24 4 25 95 26 5 27 94 28 2 29 1 30 86 31 87 32 18 33
REMARK SMILES IDX 19 34 20 35 21 36 22 37 23 38 81 39 24 40 80 41 25 42 26 43
REMARK SMILES IDX 27 44 74 45 28 46 79 47 73 48 75 49 29 50 78 51 72 52 71 53
REMARK SMILES IDX 30 55 60 56 41 57 59 58 42 59 45 60 58 61 76 62 43 63 44 64
REMARK SMILES IDX 57 66 77 67 46 68 31 69 32 70 40 71 33 72 39 73 34 74 35 75
REMARK SMILES IDX 36 76 37 77 38 78 61 79 62 80 70 81 63 82 69 83 64 84 65 85
REMARK SMILES IDX 66 86 67 87 68 88 47 89 48 90 56 91 49 92 55 93 50 94 51 95
REMARK SMILES IDX 52 96 53 97 54 98
REMARK H PARENT 82 11 75 54 45 65
REMARK Flexibility Score: inf
ROOT
ATOM      1  C   UNL     1       3.572   7.261   4.182  1.00  0.00     0.275 C 
ENDROOT
BRANCH   1   2
ATOM      2  O   UNL     1       3.034   7.188   5.520  1.00  0.00    -0.457 OA
BRANCH   2   3
ATOM      3  C   UNL     1       3.968   7.323   6.500  1.00  0.00     0.355 C 
ATOM      4  O   UNL     1       5.174   7.397   6.300  1.00  0.00    -0.244 OA
BRANCH   3   5
ATOM      5  C   UNL     1       3.372   7.436   7.805  1.00  0.00     0.133 A 
ATOM      6  C   UNL     1       2.633   6.566   8.600  1.00  0.00     0.016 A 
ATOM      7  C   UNL     1       2.639   7.103   9.938  1.00  0.00     0.008 A 
ATOM      8  N   UNL     1       3.493   8.590   8.533  1.00  0.00    -0.348 N 
ATOM      9  C   UNL     1       3.206   8.372   9.847  1.00  0.00     0.050 A 
ATOM     10  C   UNL     1       2.236   6.681  11.225  1.00  0.00     0.015 A 
ATOM     11  H   UNL     1       3.753   9.461   8.156  1.00  0.00     0.167 HD
ATOM     12  C   UNL     1       3.387   9.235  10.929  1.00  0.00     0.073 A 
ATOM     13  C   UNL     1       2.455   7.524  12.345  1.00  0.00     0.047 A 
ATOM     14  C   UNL     1       3.022   8.789  12.195  1.00  0.00     0.120 A 
BRANCH   6  15
ATOM     15  C   UNL     1       1.946   5.427   8.064  1.00  0.00     0.032 C 
ATOM     16  N   UNL     1       2.403   3.391   5.165  1.00  0.00    -0.261 N 
ATOM     17  C   UNL     1       1.607   3.805   6.242  1.00  0.00     0.270 C 
ATOM     18  C   UNL     1       3.776   3.567   5.339  1.00  0.00     0.152 C 
ATOM     19  O   UNL     1       0.394   3.698   6.370  1.00  0.00    -0.268 OA
ATOM     20  C   UNL     1       2.460   4.476   7.267  1.00  0.00     0.081 C 
ATOM     21  S   UNL     1       4.104   4.093   6.988  1.00  0.00    -0.054 SA
ATOM     22  S   UNL     1       5.039   3.484   4.240  1.00  0.00    -0.051 S 
BRANCH  16  23
ATOM     23  C   UNL     1       1.799   2.869   3.967  1.00  0.00     0.051 A 
ATOM     24  C   UNL     1       0.629   1.847   1.584  1.00  0.00     0.119 A 
ATOM     25  C   UNL     1       0.003   2.861   2.308  1.00  0.00     0.048 A 
ATOM     26  C   UNL     1       1.842   1.348   2.044  1.00  0.00     0.048 A 
ATOM     27  C   UNL     1       0.574   3.361   3.489  1.00  0.00     0.030 A 
ATOM     28  C   UNL     1       2.408   1.845   3.227  1.00  0.00     0.030 A 
BRANCH  24  29
ATOM     29  O   UNL     1      -0.029   1.430   0.460  1.00  0.00    -0.497 OA
ATOM     30  C   UNL     1       0.435   0.220  -0.130  1.00  0.00     0.278 C 
ENDBRANCH  24  29
ENDBRANCH  16  23
ENDBRANCH   6  15
BRANCH  14  31
ATOM     31  O   UNL     1       3.256   9.712  13.175  1.00  0.00    -0.497 OA
ATOM     32  C   UNL     1       3.229   9.272  14.522  1.00  0.00     0.278 C 
ENDBRANCH  14  31
ENDBRANCH   3   5
ENDBRANCH   2   3
ENDBRANCH   1   2
BRANCH   1  33
ATOM     33  C   UNL     1       3.555   8.690   3.624  1.00  0.00     0.275 C 
BRANCH  33  34
ATOM     34  O   UNL     1       4.586   9.521   4.198  1.00  0.00    -0.458 OA
BRANCH  34  35
ATOM     35  C   UNL     1       4.208  10.195   5.304  1.00  0.00     0.338 C 
ATOM     36  O   UNL     1       3.113  10.163   5.846  1.00  0.00    -0.246 OA
BRANCH  35  37
ATOM     37  C   UNL     1       5.318  10.933   5.918  1.00  0.00     0.060 A 
ATOM     38  C   UNL     1       5.851  10.422   7.102  1.00  0.00     0.016 A 
ATOM     39  C   UNL     1       5.576  12.247   5.538  1.00  0.00     0.016 A 
ATOM     40  C   UNL     1       6.475  11.268   8.003  1.00  0.00     0.010 A 
ATOM     41  C   UNL     1       6.319  13.066   6.394  1.00  0.00     0.010 A 
ATOM     42  C   UNL     1       6.710  12.603   7.666  1.00  0.00    -0.014 A 
BRANCH  42  43
ATOM     43  C   UNL     1       7.266  13.532   8.681  1.00  0.00     0.031 A 
ATOM     44  C   UNL     1       6.468  14.743   9.091  1.00  0.00     0.074 A 
ATOM     45  C   UNL     1       8.449  13.271   9.270  1.00  0.00     0.049 A 
ATOM     46  N   UNL     1       6.848  15.793   9.769  1.00  0.00    -0.248 NA
ATOM     47  C   UNL     1       5.059  14.787   8.660  1.00  0.00     0.031 C 
ATOM     48  C   UNL     1       9.278  12.085   9.030  1.00  0.00     0.029 A 
ATOM     49  N   UNL     1       9.155  13.980  10.207  1.00  0.00    -0.354 N 
ATOM     50  C   UNL     1       5.759  16.658   9.770  1.00  0.00     0.074 A 
ATOM     51  C   UNL     1       4.695  16.002   9.042  1.00  0.00     0.031 C 
ATOM     52  C   UNL     1      10.353  12.129   9.830  1.00  0.00     0.029 A 
ATOM     53  C   UNL     1      10.343  13.388  10.562  1.00  0.00     0.049 A 
ATOM     54  H   UNL     1       8.841  14.832  10.588  1.00  0.00     0.167 HD
ATOM     55  C   UNL     1       5.668  17.895  10.316  1.00  0.00     0.031 A 
ATOM     56  C   UNL     1      11.338  13.831  11.352  1.00  0.00     0.031 A 
ATOM     57  C   UNL     1       6.722  18.498  11.089  1.00  0.00     0.049 A 
ATOM     58  C   UNL     1      11.210  15.194  11.967  1.00  0.00     0.074 A 
ATOM     59  C   UNL     1       6.767  19.757  11.662  1.00  0.00     0.029 A 
ATOM     60  N   UNL     1       7.907  17.861  11.428  1.00  0.00    -0.354 N 
ATOM     61  N   UNL     1      10.231  16.061  11.845  1.00  0.00    -0.248 NA
ATOM     62  C   UNL     1      12.321  15.645  12.812  1.00  0.00     0.031 C 
ATOM     63  C   UNL     1       7.987  19.884  12.337  1.00  0.00     0.029 A 
ATOM     64  C   UNL     1       8.683  18.691  12.217  1.00  0.00     0.049 A 
ATOM     65  H   UNL     1       8.159  16.951  11.149  1.00  0.00     0.167 HD
ATOM     66  C   UNL     1      10.605  17.159  12.607  1.00  0.00     0.074 A 
ATOM     67  C   UNL     1      11.889  16.837  13.202  1.00  0.00     0.031 C 
ATOM     68  C   UNL     1       9.953  18.334  12.794  1.00  0.00     0.031 A 
BRANCH  55  69
ATOM     69  C   UNL     1       4.418  18.688  10.039  1.00  0.00    -0.014 A 
ATOM     70  C   UNL     1       3.190  18.378  10.648  1.00  0.00     0.010 A 
ATOM     71  C   UNL     1       4.480  19.773   9.143  1.00  0.00     0.010 A 
ATOM     72  C   UNL     1       2.038  19.106  10.329  1.00  0.00     0.020 A 
ATOM     73  C   UNL     1       3.337  20.519   8.841  1.00  0.00     0.020 A 
ATOM     74  C   UNL     1       2.117  20.166   9.420  1.00  0.00     0.054 A 
BRANCH  74  75
ATOM     75  S   UNL     1       0.612  21.098   9.019  1.00  0.00     0.124 S 
ATOM     76  O   UNL     1      -0.061  20.195   8.089  1.00  0.00    -0.237 OA
ATOM     77  O   UNL     1      -0.031  21.252  10.321  1.00  0.00    -0.237 OA
ATOM     78  O   UNL     1       1.119  22.335   8.429  1.00  0.00    -0.744 OA
ENDBRANCH  74  75
ENDBRANCH  55  69
BRANCH  56  79
ATOM     79  C   UNL     1      12.551  12.993  11.555  1.00  0.00    -0.014 A 
ATOM     80  C   UNL     1      12.796  12.376  12.793  1.00  0.00     0.010 A 
ATOM     81  C   UNL     1      13.444  12.768  10.490  1.00  0.00     0.010 A 
ATOM     82  C   UNL     1      13.913  11.552  12.964  1.00  0.00     0.020 A 
ATOM     83  C   UNL     1      14.545  11.923  10.648  1.00  0.00     0.020 A 
ATOM     84  C   UNL     1      14.779  11.328  11.889  1.00  0.00     0.054 A 
BRANCH  84  85
ATOM     85  S   UNL     1      16.180  10.194  12.104  1.00  0.00     0.124 S 
ATOM     86  O   UNL     1      17.145  11.037  12.803  1.00  0.00    -0.237 OA
ATOM     87  O   UNL     1      15.598   9.111  12.893  1.00  0.00    -0.237 OA
ATOM     88  O   UNL     1      16.537   9.832  10.735  1.00  0.00    -0.744 OA
ENDBRANCH  84  85
ENDBRANCH  56  79
BRANCH  68  89
ATOM     89  C   UNL     1      10.604  19.323  13.716  1.00  0.00    -0.014 A 
ATOM     90  C   UNL     1      11.711  20.083  13.301  1.00  0.00     0.010 A 
ATOM     91  C   UNL     1      10.088  19.500  15.011  1.00  0.00     0.010 A 
ATOM     92  C   UNL     1      12.321  20.975  14.185  1.00  0.00     0.020 A 
ATOM     93  C   UNL     1      10.682  20.405  15.891  1.00  0.00     0.020 A 
ATOM     94  C   UNL     1      11.808  21.123  15.478  1.00  0.00     0.054 A 
BRANCH  94  95
ATOM     95  S   UNL     1      12.605  22.293  16.611  1.00  0.00     0.124 S 
ATOM     96  O   UNL     1      13.760  21.527  17.071  1.00  0.00    -0.237 OA
ATOM     97  O   UNL     1      12.908  23.429  15.745  1.00  0.00    -0.237 OA
ATOM     98  O   UNL     1      11.580  22.545  17.621  1.00  0.00    -0.744 OA
ENDBRANCH  94  95
ENDBRANCH  68  89
ENDBRANCH  42  43
ENDBRANCH  35  37
ENDBRANCH  34  35
ENDBRANCH  33  34
ENDBRANCH   1  33
TORSDOF 18
