REMARK SMILES O=C(NC[C@@H]1CCOC1)NC[C@@H]1CC[C@H](C(=O)OCCOC(=O)c2ccc(-c3c4nc(c(-c5ccc(S(=O)(=O)[O-])cc5)c5ccc([nH]5)c(-c5ccc(S(=O)(=O)[O-])cc5)c5nc(c(-c6ccc(S(=O)(=O)[O-])cc6)c6ccc3[nH]6)C=C5)C=C4)cc2)O1
REMARK SMILES IDX 19 1 18 2 16 3 17 4 15 5 12 6 13 7 84 8 14 9 11 10 10 11
REMARK SMILES IDX 1 12 2 13 3 14 4 17 5 18 6 19 9 20 7 21 8 22 20 23 21 24
REMARK SMILES IDX 22 25 23 26 24 27 25 28 83 29 26 30 82 31 27 32 28 33 29 34
REMARK SMILES IDX 76 35 30 36 81 37 75 38 77 39 31 40 80 41 74 42 73 43 32 45
REMARK SMILES IDX 62 46 43 47 61 48 44 49 47 50 60 51 78 52 45 53 46 54 59 56
REMARK SMILES IDX 79 57 48 58 33 59 34 60 42 61 35 62 41 63 36 64 37 65 38 66
REMARK SMILES IDX 39 67 40 68 63 69 64 70 72 71 65 72 71 73 66 74 67 75 68 76
REMARK SMILES IDX 69 77 70 78 49 79 50 80 58 81 51 82 57 83 52 84 53 85 54 86
REMARK SMILES IDX 55 87 56 88
REMARK H PARENT 3 15 10 16 77 44 47 55
REMARK Flexibility Score: inf
ROOT
ATOM      1  C   UNL     1      -1.066   3.194  -1.509  1.00  0.00     0.274 C 
ENDROOT
BRANCH   1   2
ATOM      2  O   UNL     1       0.222   3.021  -2.127  1.00  0.00    -0.460 OA
BRANCH   2   3
ATOM      3  C   UNL     1       0.231   2.646  -3.435  1.00  0.00     0.335 C 
ATOM      4  O   UNL     1      -0.776   2.424  -4.100  1.00  0.00    -0.249 OA
BRANCH   3   5
ATOM      5  C   UNL     1       1.655   2.515  -4.006  1.00  0.00     0.228 C 
ATOM      6  C   UNL     1       3.031   0.890  -3.051  1.00  0.00     0.138 C 
ATOM      7  C   UNL     1       3.193   2.180  -2.258  1.00  0.00     0.037 C 
ATOM      8  O   UNL     1       2.073   1.147  -4.093  1.00  0.00    -0.361 OA
ATOM      9  C   UNL     1       2.743   3.237  -3.232  1.00  0.00     0.047 C 
BRANCH   6  10
ATOM     10  C   UNL     1       2.560  -0.319  -2.236  1.00  0.00     0.149 C 
BRANCH  10  11
ATOM     11  N   UNL     1       3.196  -0.417  -0.937  1.00  0.00    -0.336 N 
ATOM     12  O   UNL     1       1.273  -0.087   0.251  1.00  0.00    -0.249 OA
ATOM     13  C   UNL     1       2.491  -0.237   0.206  1.00  0.00     0.314 C 
ATOM     14  N   UNL     1       3.182  -0.203   1.365  1.00  0.00    -0.338 N 
ATOM     15  H   UNL     1       2.614  -0.143   2.167  1.00  0.00     0.165 HD
ATOM     16  H   UNL     1       4.158  -0.618  -0.884  1.00  0.00     0.165 HD
BRANCH  14  17
ATOM     17  C   UNL     1       4.600  -0.238   1.653  1.00  0.00     0.123 C 
BRANCH  17  18
ATOM     18  C   UNL     1       5.219   1.111   2.061  1.00  0.00     0.036 C 
ATOM     19  C   UNL     1       4.300   2.057   2.811  1.00  0.00     0.036 C 
ATOM     20  C   UNL     1       5.659   1.963   0.880  1.00  0.00     0.165 C 
ATOM     21  C   UNL     1       3.712   2.928   1.719  1.00  0.00     0.160 C 
ATOM     22  O   UNL     1       4.673   2.973   0.661  1.00  0.00    -0.381 OA
ENDBRANCH  17  18
ENDBRANCH  14  17
ENDBRANCH  10  11
ENDBRANCH   6  10
ENDBRANCH   3   5
ENDBRANCH   2   3
ENDBRANCH   1   2
BRANCH   1  23
ATOM     23  C   UNL     1      -1.363   4.677  -1.280  1.00  0.00     0.275 C 
BRANCH  23  24
ATOM     24  O   UNL     1      -1.439   5.388  -2.530  1.00  0.00    -0.458 OA
BRANCH  24  25
ATOM     25  C   UNL     1      -0.314   6.054  -2.881  1.00  0.00     0.338 C 
ATOM     26  O   UNL     1       0.717   6.164  -2.241  1.00  0.00    -0.246 OA
BRANCH  25  27
ATOM     27  C   UNL     1      -0.456   6.553  -4.254  1.00  0.00     0.060 A 
ATOM     28  C   UNL     1       0.203   5.866  -5.275  1.00  0.00     0.016 A 
ATOM     29  C   UNL     1      -1.147   7.735  -4.522  1.00  0.00     0.016 A 
ATOM     30  C   UNL     1       0.182   6.358  -6.576  1.00  0.00     0.010 A 
ATOM     31  C   UNL     1      -1.174   8.225  -5.832  1.00  0.00     0.010 A 
ATOM     32  C   UNL     1      -0.500   7.546  -6.863  1.00  0.00    -0.014 A 
BRANCH  32  33
ATOM     33  C   UNL     1      -0.466   8.098  -8.238  1.00  0.00     0.031 A 
ATOM     34  C   UNL     1       0.367   9.312  -8.536  1.00  0.00     0.074 A 
ATOM     35  C   UNL     1      -1.170   7.501  -9.217  1.00  0.00     0.049 A 
ATOM     36  N   UNL     1       0.458   9.997  -9.647  1.00  0.00    -0.248 NA
ATOM     37  C   UNL     1       1.207   9.823  -7.441  1.00  0.00     0.031 C 
ATOM     38  C   UNL     1      -1.978   6.290  -9.059  1.00  0.00     0.029 A 
ATOM     39  N   UNL     1      -1.323   7.837 -10.538  1.00  0.00    -0.354 N 
ATOM     40  C   UNL     1       1.338  11.037  -9.378  1.00  0.00     0.074 A 
ATOM     41  C   UNL     1       1.752  10.896  -7.997  1.00  0.00     0.031 C 
ATOM     42  C   UNL     1      -2.542   5.986 -10.239  1.00  0.00     0.029 A 
ATOM     43  C   UNL     1      -2.176   7.004 -11.220  1.00  0.00     0.049 A 
ATOM     44  H   UNL     1      -0.864   8.601 -10.957  1.00  0.00     0.167 HD
ATOM     45  C   UNL     1       1.758  12.024 -10.205  1.00  0.00     0.031 A 
ATOM     46  C   UNL     1      -2.640   7.071 -12.482  1.00  0.00     0.031 A 
ATOM     47  C   UNL     1       1.349  12.156 -11.578  1.00  0.00     0.049 A 
ATOM     48  C   UNL     1      -2.198   8.201 -13.368  1.00  0.00     0.074 A 
ATOM     49  C   UNL     1       1.733  13.111 -12.504  1.00  0.00     0.029 A 
ATOM     50  N   UNL     1       0.461  11.309 -12.223  1.00  0.00    -0.354 N 
ATOM     51  N   UNL     1      -1.370   9.182 -13.097  1.00  0.00    -0.248 NA
ATOM     52  C   UNL     1      -2.758   8.240 -14.725  1.00  0.00     0.031 C 
ATOM     53  C   UNL     1       1.044  12.865 -13.697  1.00  0.00     0.029 A 
ATOM     54  C   UNL     1       0.264  11.732 -13.527  1.00  0.00     0.049 A 
ATOM     55  H   UNL     1       0.033  10.522 -11.814  1.00  0.00     0.167 HD
ATOM     56  C   UNL     1      -1.306   9.953 -14.252  1.00  0.00     0.074 A 
ATOM     57  C   UNL     1      -2.163   9.313 -15.230  1.00  0.00     0.031 C 
ATOM     58  C   UNL     1      -0.604  11.089 -14.481  1.00  0.00     0.031 A 
BRANCH  45  59
ATOM     59  C   UNL     1       2.674  13.067  -9.625  1.00  0.00    -0.014 A 
ATOM     60  C   UNL     1       4.029  12.791  -9.371  1.00  0.00     0.010 A 
ATOM     61  C   UNL     1       2.169  14.350  -9.345  1.00  0.00     0.010 A 
ATOM     62  C   UNL     1       4.854  13.769  -8.808  1.00  0.00     0.020 A 
ATOM     63  C   UNL     1       2.996  15.336  -8.800  1.00  0.00     0.020 A 
ATOM     64  C   UNL     1       4.329  15.033  -8.517  1.00  0.00     0.054 A 
BRANCH  64  65
ATOM     65  S   UNL     1       5.418  16.288  -7.788  1.00  0.00     0.124 S 
ATOM     66  O   UNL     1       5.488  15.852  -6.395  1.00  0.00    -0.237 OA
ATOM     67  O   UNL     1       6.651  16.133  -8.556  1.00  0.00    -0.237 OA
ATOM     68  O   UNL     1       4.701  17.541  -8.014  1.00  0.00    -0.744 OA
ENDBRANCH  64  65
ENDBRANCH  45  59
BRANCH  46  69
ATOM     69  C   UNL     1      -3.614   6.055 -12.961  1.00  0.00    -0.014 A 
ATOM     70  C   UNL     1      -3.224   5.059 -13.871  1.00  0.00     0.010 A 
ATOM     71  C   UNL     1      -4.934   6.062 -12.474  1.00  0.00     0.010 A 
ATOM     72  C   UNL     1      -4.139   4.087 -14.288  1.00  0.00     0.020 A 
ATOM     73  C   UNL     1      -5.845   5.079 -12.871  1.00  0.00     0.020 A 
ATOM     74  C   UNL     1      -5.443   4.101 -13.783  1.00  0.00     0.054 A 
BRANCH  74  75
ATOM     75  S   UNL     1      -6.595   2.788 -14.276  1.00  0.00     0.124 S 
ATOM     76  O   UNL     1      -7.016   3.237 -15.599  1.00  0.00    -0.237 OA
ATOM     77  O   UNL     1      -5.751   1.596 -14.251  1.00  0.00    -0.237 OA
ATOM     78  O   UNL     1      -7.624   2.833 -13.240  1.00  0.00    -0.744 OA
ENDBRANCH  74  75
ENDBRANCH  46  69
BRANCH  58  79
ATOM     79  C   UNL     1      -0.728  11.710 -15.844  1.00  0.00    -0.014 A 
ATOM     80  C   UNL     1      -1.875  12.442 -16.200  1.00  0.00     0.010 A 
ATOM     81  C   UNL     1       0.334  11.604 -16.760  1.00  0.00     0.010 A 
ATOM     82  C   UNL     1      -1.968  13.037 -17.461  1.00  0.00     0.020 A 
ATOM     83  C   UNL     1       0.252  12.214 -18.014  1.00  0.00     0.020 A 
ATOM     84  C   UNL     1      -0.904  12.916 -18.361  1.00  0.00     0.054 A 
BRANCH  84  85
ATOM     85  S   UNL     1      -1.025  13.735 -19.976  1.00  0.00     0.124 S 
ATOM     86  O   UNL     1      -1.888  12.819 -20.716  1.00  0.00    -0.237 OA
ATOM     87  O   UNL     1      -1.620  15.027 -19.641  1.00  0.00    -0.237 OA
ATOM     88  O   UNL     1       0.361  13.796 -20.435  1.00  0.00    -0.744 OA
ENDBRANCH  84  85
ENDBRANCH  58  79
ENDBRANCH  32  33
ENDBRANCH  25  27
ENDBRANCH  24  25
ENDBRANCH  23  24
ENDBRANCH   1  23
TORSDOF 18
