REMARK SMILES Cc1ccc(Nc2c(C)cccc2Cl)c(CC(=O)OCCOC(=O)c2ccc(-c3c4nc(c(-c5ccc(S(=O)(=O)[O-])cc5)c5ccc([nH]5)c(-c5ccc(S(=O)(=O)[O-])cc5)c5nc(c(-c6ccc(S(=O)(=O)[O-])cc6)c6ccc3[nH]6)C=C5)C=C4)cc2)c1
REMARK SMILES IDX 20 1 19 2 17 3 18 4 16 5 15 6 1 7 2 8 3 9 85 10 4 11 5 12
REMARK SMILES IDX 6 13 7 15 8 16 13 17 9 18 10 19 12 20 14 21 11 22 21 23
REMARK SMILES IDX 22 24 23 25 24 26 25 27 26 28 84 29 27 30 83 31 28 32 29 33
REMARK SMILES IDX 30 34 77 35 31 36 82 37 76 38 78 39 32 40 81 41 75 42 74 43
REMARK SMILES IDX 33 45 63 46 44 47 62 48 45 49 48 50 61 51 79 52 46 53 47 54
REMARK SMILES IDX 60 56 80 57 49 58 34 59 35 60 43 61 36 62 42 63 37 64 38 65
REMARK SMILES IDX 39 66 40 67 41 68 64 69 65 70 73 71 66 72 72 73 67 74 68 75
REMARK SMILES IDX 69 76 70 77 71 78 50 79 51 80 59 81 52 82 58 83 53 84 54 85
REMARK SMILES IDX 55 86 56 87 57 88
REMARK H PARENT 6 14 78 44 48 55
REMARK Flexibility Score: inf
ROOT
ATOM      1  C   UNL     1      -2.727   1.113  -4.032  1.00  0.00     0.274 C 
ENDROOT
BRANCH   1   2
ATOM      2  O   UNL     1      -1.811   1.647  -3.078  1.00  0.00    -0.462 OA
BRANCH   2   3
ATOM      3  C   UNL     1      -1.001   0.735  -2.498  1.00  0.00     0.310 C 
ATOM      4  O   UNL     1      -0.571  -0.260  -3.074  1.00  0.00    -0.252 OA
BRANCH   3   5
ATOM      5  C   UNL     1      -0.735   1.154  -1.067  1.00  0.00     0.160 C 
BRANCH   5   6
ATOM      6  C   UNL     1      -0.133   0.018  -0.285  1.00  0.00    -0.013 A 
ATOM      7  C   UNL     1       3.458  -0.925   0.423  1.00  0.00     0.044 C 
ATOM      8  C   UNL     1       1.966  -1.007   0.355  1.00  0.00    -0.051 A 
ATOM      9  C   UNL     1       1.287  -2.212   0.543  1.00  0.00     0.005 A 
ATOM     10  C   UNL     1       1.246   0.109  -0.049  1.00  0.00     0.009 A 
ATOM     11  C   UNL     1      -0.103  -2.285   0.385  1.00  0.00     0.026 A 
ATOM     12  C   UNL     1      -0.850  -1.168   0.009  1.00  0.00     0.042 A 
BRANCH  12  13
ATOM     13  N   UNL     1      -2.232  -1.269  -0.227  1.00  0.00    -0.354 N 
ATOM     14  H   UNL     1      -2.627  -0.463  -0.631  1.00  0.00     0.167 HD
BRANCH  13  15
ATOM     15  C   UNL     1      -3.168  -2.314   0.007  1.00  0.00     0.060 A 
ATOM     16  C   UNL     1      -3.617  -2.601   1.314  1.00  0.00    -0.026 A 
ATOM     17  C   UNL     1      -3.888  -2.868  -1.075  1.00  0.00     0.064 A 
ATOM     18  C   UNL     1      -2.943  -2.019   2.525  1.00  0.00     0.046 C 
ATOM     19  C   UNL     1      -4.724  -3.451   1.503  1.00  0.00     0.005 A 
ATOM     20  C   UNL     1      -5.031  -3.647  -0.873  1.00  0.00     0.023 A 
ATOM     21  Cl  UNL     1      -3.333  -2.707  -2.705  1.00  0.00    -0.082 Cl
ATOM     22  C   UNL     1      -5.444  -3.947   0.418  1.00  0.00     0.002 A 
ENDBRANCH  13  15
ENDBRANCH  12  13
ENDBRANCH   5   6
ENDBRANCH   3   5
ENDBRANCH   2   3
ENDBRANCH   1   2
BRANCH   1  23
ATOM     23  C   UNL     1      -4.015   0.580  -3.359  1.00  0.00     0.275 C 
BRANCH  23  24
ATOM     24  O   UNL     1      -4.009   0.457  -1.891  1.00  0.00    -0.458 OA
BRANCH  24  25
ATOM     25  C   UNL     1      -4.212   1.339  -0.858  1.00  0.00     0.338 C 
ATOM     26  O   UNL     1      -4.185   0.931   0.303  1.00  0.00    -0.246 OA
BRANCH  25  27
ATOM     27  C   UNL     1      -3.987   2.780  -1.090  1.00  0.00     0.060 A 
ATOM     28  C   UNL     1      -3.400   3.623  -0.122  1.00  0.00     0.016 A 
ATOM     29  C   UNL     1      -4.069   3.217  -2.377  1.00  0.00     0.016 A 
ATOM     30  C   UNL     1      -2.807   4.823  -0.535  1.00  0.00     0.010 A 
ATOM     31  C   UNL     1      -3.106   4.071  -2.807  1.00  0.00     0.010 A 
ATOM     32  C   UNL     1      -2.638   5.010  -1.908  1.00  0.00    -0.014 A 
BRANCH  32  33
ATOM     33  C   UNL     1      -2.314   6.234  -2.622  1.00  0.00     0.031 A 
ATOM     34  C   UNL     1      -0.961   6.783  -2.571  1.00  0.00     0.074 A 
ATOM     35  C   UNL     1      -3.305   6.694  -3.434  1.00  0.00     0.049 A 
ATOM     36  N   UNL     1      -0.661   7.964  -2.158  1.00  0.00    -0.248 NA
ATOM     37  C   UNL     1       0.194   5.997  -3.017  1.00  0.00     0.031 C 
ATOM     38  C   UNL     1      -3.331   7.804  -4.361  1.00  0.00     0.029 A 
ATOM     39  N   UNL     1      -4.622   6.207  -3.524  1.00  0.00    -0.354 N 
ATOM     40  C   UNL     1       0.594   8.209  -2.678  1.00  0.00     0.074 A 
ATOM     41  C   UNL     1       1.168   6.916  -2.988  1.00  0.00     0.031 C 
ATOM     42  C   UNL     1      -4.626   8.129  -4.582  1.00  0.00     0.029 A 
ATOM     43  C   UNL     1      -5.479   7.262  -3.767  1.00  0.00     0.049 A 
ATOM     44  H   UNL     1      -4.890   5.265  -3.429  1.00  0.00     0.167 HD
ATOM     45  C   UNL     1       0.900   9.430  -3.205  1.00  0.00     0.031 A 
ATOM     46  C   UNL     1      -6.354   7.611  -2.775  1.00  0.00     0.031 A 
ATOM     47  C   UNL     1      -0.312  10.239  -3.362  1.00  0.00     0.049 A 
ATOM     48  C   UNL     1      -5.862   8.862  -2.083  1.00  0.00     0.074 A 
ATOM     49  C   UNL     1      -1.074  10.538  -4.482  1.00  0.00     0.029 A 
ATOM     50  N   UNL     1      -1.112  10.536  -2.262  1.00  0.00    -0.354 N 
ATOM     51  N   UNL     1      -4.649   9.323  -2.222  1.00  0.00    -0.248 NA
ATOM     52  C   UNL     1      -6.681   9.715  -1.230  1.00  0.00     0.031 C 
ATOM     53  C   UNL     1      -2.365  10.936  -4.047  1.00  0.00     0.029 A 
ATOM     54  C   UNL     1      -2.390  10.889  -2.665  1.00  0.00     0.049 A 
ATOM     55  H   UNL     1      -0.811  10.499  -1.325  1.00  0.00     0.167 HD
ATOM     56  C   UNL     1      -4.530  10.528  -1.598  1.00  0.00     0.074 A 
ATOM     57  C   UNL     1      -5.829  10.727  -0.974  1.00  0.00     0.031 C 
ATOM     58  C   UNL     1      -3.390  11.277  -1.676  1.00  0.00     0.031 A 
BRANCH  45  59
ATOM     59  C   UNL     1       2.199   9.689  -3.937  1.00  0.00    -0.014 A 
ATOM     60  C   UNL     1       2.243  10.565  -5.039  1.00  0.00     0.010 A 
ATOM     61  C   UNL     1       3.426   9.117  -3.537  1.00  0.00     0.010 A 
ATOM     62  C   UNL     1       3.428  10.811  -5.747  1.00  0.00     0.020 A 
ATOM     63  C   UNL     1       4.618   9.340  -4.250  1.00  0.00     0.020 A 
ATOM     64  C   UNL     1       4.610  10.190  -5.353  1.00  0.00     0.054 A 
BRANCH  64  65
ATOM     65  S   UNL     1       6.126  10.536  -6.287  1.00  0.00     0.124 S 
ATOM     66  O   UNL     1       5.741  10.192  -7.654  1.00  0.00    -0.237 OA
ATOM     67  O   UNL     1       6.333  11.958  -6.031  1.00  0.00    -0.237 OA
ATOM     68  O   UNL     1       7.115   9.645  -5.684  1.00  0.00    -0.744 OA
ENDBRANCH  64  65
ENDBRANCH  45  59
BRANCH  46  69
ATOM     69  C   UNL     1      -7.097   6.453  -2.158  1.00  0.00    -0.014 A 
ATOM     70  C   UNL     1      -8.056   5.819  -2.983  1.00  0.00     0.010 A 
ATOM     71  C   UNL     1      -6.645   5.743  -1.026  1.00  0.00     0.010 A 
ATOM     72  C   UNL     1      -8.423   4.481  -2.792  1.00  0.00     0.020 A 
ATOM     73  C   UNL     1      -7.028   4.398  -0.818  1.00  0.00     0.020 A 
ATOM     74  C   UNL     1      -7.859   3.759  -1.744  1.00  0.00     0.054 A 
BRANCH  74  75
ATOM     75  S   UNL     1      -8.032   1.944  -1.786  1.00  0.00     0.124 S 
ATOM     76  O   UNL     1      -9.467   1.754  -1.607  1.00  0.00    -0.237 OA
ATOM     77  O   UNL     1      -7.506   1.630  -3.114  1.00  0.00    -0.237 OA
ATOM     78  O   UNL     1      -7.191   1.502  -0.682  1.00  0.00    -0.744 OA
ENDBRANCH  74  75
ENDBRANCH  46  69
BRANCH  58  79
ATOM     79  C   UNL     1      -3.128  12.539  -0.907  1.00  0.00    -0.014 A 
ATOM     80  C   UNL     1      -3.718  12.840   0.326  1.00  0.00     0.010 A 
ATOM     81  C   UNL     1      -2.125  13.420  -1.384  1.00  0.00     0.010 A 
ATOM     82  C   UNL     1      -3.372  14.004   1.020  1.00  0.00     0.020 A 
ATOM     83  C   UNL     1      -1.731  14.548  -0.673  1.00  0.00     0.020 A 
ATOM     84  C   UNL     1      -2.382  14.850   0.514  1.00  0.00     0.054 A 
BRANCH  84  85
ATOM     85  S   UNL     1      -1.900  16.318   1.447  1.00  0.00     0.124 S 
ATOM     86  O   UNL     1      -2.869  17.302   0.972  1.00  0.00    -0.237 OA
ATOM     87  O   UNL     1      -2.067  15.892   2.835  1.00  0.00    -0.237 OA
ATOM     88  O   UNL     1      -0.517  16.547   1.036  1.00  0.00    -0.744 OA
ENDBRANCH  84  85
ENDBRANCH  58  79
ENDBRANCH  32  33
ENDBRANCH  25  27
ENDBRANCH  24  25
ENDBRANCH  23  24
ENDBRANCH   1  23
TORSDOF 17
