REMARK SMILES COc1ccc(O[C@H](F)C(=O)OCCOC(=O)c2ccc(-c3c4nc(c(-c5ccc(S(=O)(=O)[O-])cc5)c5ccc([nH]5)c(-c5ccc(S(=O)(=O)[O-])cc5)c5nc(c(-c6ccc(S(=O)(=O)[O-])cc6)c6ccc3[nH]6)C=C5)C=C4)cc2)c(C(C)(C)C)c1
REMARK SMILES IDX 13 1 12 2 10 3 11 4 8 5 9 6 7 7 6 8 3 9 4 10 83 11 5 12
REMARK SMILES IDX 78 13 2 14 1 15 79 16 80 17 81 18 82 19 14 20 15 21 16 22
REMARK SMILES IDX 17 23 18 24 19 25 77 26 20 27 76 28 21 29 22 30 23 31 70 32
REMARK SMILES IDX 24 33 75 34 69 35 71 36 25 37 74 38 68 39 67 40 26 42 56 43
REMARK SMILES IDX 37 44 55 45 38 46 41 47 54 48 72 49 39 50 40 51 53 53 73 54
REMARK SMILES IDX 42 55 27 56 28 57 36 58 29 59 35 60 30 61 31 62 32 63 33 64
REMARK SMILES IDX 34 65 57 66 58 67 66 68 59 69 65 70 60 71 61 72 62 73 63 74
REMARK SMILES IDX 64 75 43 76 44 77 52 78 45 79 51 80 46 81 47 82 48 83 49 84
REMARK SMILES IDX 50 85
REMARK H PARENT 71 41 41 52
REMARK Flexibility Score: inf
ROOT
ATOM      1  C   UNL     1       5.450   2.751  -4.438  1.00  0.00     0.274 C 
ENDROOT
BRANCH   1   2
ATOM      2  O   UNL     1       4.395   3.436  -3.739  1.00  0.00    -0.457 OA
BRANCH   2   3
ATOM      3  C   UNL     1       4.667   4.684  -3.262  1.00  0.00     0.381 C 
ATOM      4  O   UNL     1       5.780   5.200  -3.261  1.00  0.00    -0.244 OA
BRANCH   3   5
ATOM      5  C   UNL     1       3.399   5.380  -2.733  1.00  0.00     0.461 C 
ATOM      6  F   UNL     1       2.229   4.883  -3.233  1.00  0.00    -0.189 F 
BRANCH   5   7
ATOM      7  O   UNL     1       3.264   5.493  -1.325  1.00  0.00    -0.450 OA
BRANCH   7   8
ATOM      8  C   UNL     1       3.333   4.334  -0.605  1.00  0.00     0.127 A 
ATOM      9  C   UNL     1       3.522   1.988   0.872  1.00  0.00     0.119 A 
ATOM     10  C   UNL     1       2.909   1.955  -0.366  1.00  0.00     0.050 A 
ATOM     11  C   UNL     1       4.046   3.181   1.380  1.00  0.00     0.054 A 
ATOM     12  C   UNL     1       2.793   3.132  -1.092  1.00  0.00     0.051 A 
ATOM     13  C   UNL     1       3.943   4.397   0.669  1.00  0.00     0.003 A 
BRANCH   9  14
ATOM     14  O   UNL     1       3.633   0.807   1.554  1.00  0.00    -0.497 OA
ATOM     15  C   UNL     1       2.836   0.836   2.737  1.00  0.00     0.278 C 
ENDBRANCH   9  14
BRANCH  13  16
ATOM     16  C   UNL     1       4.514   5.713   1.255  1.00  0.00    -0.009 C 
ATOM     17  C   UNL     1       5.782   6.120   0.474  1.00  0.00     0.016 C 
ATOM     18  C   UNL     1       3.484   6.869   1.199  1.00  0.00     0.016 C 
ATOM     19  C   UNL     1       4.920   5.591   2.746  1.00  0.00     0.016 C 
ENDBRANCH  13  16
ENDBRANCH   7   8
ENDBRANCH   5   7
ENDBRANCH   3   5
ENDBRANCH   2   3
ENDBRANCH   1   2
BRANCH   1  20
ATOM     20  C   UNL     1       5.131   2.696  -5.934  1.00  0.00     0.275 C 
BRANCH  20  21
ATOM     21  O   UNL     1       5.294   3.987  -6.550  1.00  0.00    -0.458 OA
BRANCH  21  22
ATOM     22  C   UNL     1       4.214   4.800  -6.480  1.00  0.00     0.338 C 
ATOM     23  O   UNL     1       3.126   4.547  -5.995  1.00  0.00    -0.246 OA
BRANCH  22  24
ATOM     24  C   UNL     1       4.582   6.140  -6.949  1.00  0.00     0.060 A 
ATOM     25  C   UNL     1       4.453   7.213  -6.061  1.00  0.00     0.016 A 
ATOM     26  C   UNL     1       4.976   6.348  -8.269  1.00  0.00     0.016 A 
ATOM     27  C   UNL     1       4.708   8.509  -6.491  1.00  0.00     0.010 A 
ATOM     28  C   UNL     1       5.236   7.648  -8.700  1.00  0.00     0.010 A 
ATOM     29  C   UNL     1       5.090   8.734  -7.817  1.00  0.00    -0.014 A 
BRANCH  29  30
ATOM     30  C   UNL     1       5.277  10.111  -8.318  1.00  0.00     0.031 A 
ATOM     31  C   UNL     1       4.248  10.698  -9.236  1.00  0.00     0.074 A 
ATOM     32  C   UNL     1       6.376  10.806  -7.975  1.00  0.00     0.049 A 
ATOM     33  N   UNL     1       4.304  11.794  -9.944  1.00  0.00    -0.248 NA
ATOM     34  C   UNL     1       2.991   9.944  -9.384  1.00  0.00     0.031 C 
ATOM     35  C   UNL     1       7.404  10.356  -7.034  1.00  0.00     0.029 A 
ATOM     36  N   UNL     1       6.821  12.031  -8.398  1.00  0.00    -0.354 N 
ATOM     37  C   UNL     1       3.108  11.846 -10.649  1.00  0.00     0.074 A 
ATOM     38  C   UNL     1       2.347  10.669 -10.287  1.00  0.00     0.031 C 
ATOM     39  C   UNL     1       8.369  11.287  -6.965  1.00  0.00     0.029 A 
ATOM     40  C   UNL     1       8.057  12.364  -7.900  1.00  0.00     0.049 A 
ATOM     41  H   UNL     1       6.305  12.615  -9.000  1.00  0.00     0.167 HD
ATOM     42  C   UNL     1       2.692  12.789 -11.527  1.00  0.00     0.031 A 
ATOM     43  C   UNL     1       8.867  13.398  -8.201  1.00  0.00     0.031 A 
ATOM     44  C   UNL     1       3.466  13.950 -11.875  1.00  0.00     0.049 A 
ATOM     45  C   UNL     1       8.415  14.397  -9.231  1.00  0.00     0.074 A 
ATOM     46  C   UNL     1       3.146  14.966 -12.757  1.00  0.00     0.029 A 
ATOM     47  N   UNL     1       4.717  14.248 -11.354  1.00  0.00    -0.354 N 
ATOM     48  N   UNL     1       7.294  14.424  -9.914  1.00  0.00    -0.248 NA
ATOM     49  C   UNL     1       9.334  15.502  -9.535  1.00  0.00     0.031 C 
ATOM     50  C   UNL     1       4.223  15.857 -12.801  1.00  0.00     0.029 A 
ATOM     51  C   UNL     1       5.189  15.426 -11.905  1.00  0.00     0.049 A 
ATOM     52  H   UNL     1       5.198  13.703 -10.690  1.00  0.00     0.167 HD
ATOM     53  C   UNL     1       7.359  15.566 -10.703  1.00  0.00     0.074 A 
ATOM     54  C   UNL     1       8.629  16.203 -10.414  1.00  0.00     0.031 C 
ATOM     55  C   UNL     1       6.449  16.048 -11.584  1.00  0.00     0.031 A 
BRANCH  42  56
ATOM     56  C   UNL     1       1.366  12.574 -12.204  1.00  0.00    -0.014 A 
ATOM     57  C   UNL     1       0.154  12.720 -11.505  1.00  0.00     0.010 A 
ATOM     58  C   UNL     1       1.333  12.245 -13.571  1.00  0.00     0.010 A 
ATOM     59  C   UNL     1      -1.065  12.503 -12.154  1.00  0.00     0.020 A 
ATOM     60  C   UNL     1       0.115  12.052 -14.229  1.00  0.00     0.020 A 
ATOM     61  C   UNL     1      -1.076  12.165 -13.511  1.00  0.00     0.054 A 
BRANCH  61  62
ATOM     62  S   UNL     1      -2.672  11.903 -14.332  1.00  0.00     0.124 S 
ATOM     63  O   UNL     1      -3.072  10.601 -13.803  1.00  0.00    -0.237 OA
ATOM     64  O   UNL     1      -3.464  13.039 -13.868  1.00  0.00    -0.237 OA
ATOM     65  O   UNL     1      -2.338  11.920 -15.754  1.00  0.00    -0.744 OA
ENDBRANCH  61  62
ENDBRANCH  42  56
BRANCH  43  66
ATOM     66  C   UNL     1      10.197  13.513  -7.545  1.00  0.00    -0.014 A 
ATOM     67  C   UNL     1      10.444  14.526  -6.604  1.00  0.00     0.010 A 
ATOM     68  C   UNL     1      11.219  12.592  -7.843  1.00  0.00     0.010 A 
ATOM     69  C   UNL     1      11.692  14.625  -5.981  1.00  0.00     0.020 A 
ATOM     70  C   UNL     1      12.459  12.671  -7.203  1.00  0.00     0.020 A 
ATOM     71  C   UNL     1      12.691  13.695  -6.284  1.00  0.00     0.054 A 
BRANCH  71  72
ATOM     72  S   UNL     1      14.285  13.810  -5.423  1.00  0.00     0.124 S 
ATOM     73  O   UNL     1      14.904  14.954  -6.085  1.00  0.00    -0.237 OA
ATOM     74  O   UNL     1      13.881  14.023  -4.036  1.00  0.00    -0.237 OA
ATOM     75  O   UNL     1      14.910  12.516  -5.690  1.00  0.00    -0.744 OA
ENDBRANCH  71  72
ENDBRANCH  43  66
BRANCH  55  76
ATOM     76  C   UNL     1       6.755  17.358 -12.256  1.00  0.00    -0.014 A 
ATOM     77  C   UNL     1       7.678  17.440 -13.311  1.00  0.00     0.010 A 
ATOM     78  C   UNL     1       6.030  18.505 -11.882  1.00  0.00     0.010 A 
ATOM     79  C   UNL     1       7.878  18.652 -13.977  1.00  0.00     0.020 A 
ATOM     80  C   UNL     1       6.210  19.711 -12.561  1.00  0.00     0.020 A 
ATOM     81  C   UNL     1       7.138  19.779 -13.601  1.00  0.00     0.054 A 
BRANCH  81  82
ATOM     82  S   UNL     1       7.355  21.319 -14.535  1.00  0.00     0.124 S 
ATOM     83  O   UNL     1       8.647  21.792 -14.045  1.00  0.00    -0.237 OA
ATOM     84  O   UNL     1       7.338  20.859 -15.921  1.00  0.00    -0.237 OA
ATOM     85  O   UNL     1       6.205  22.128 -14.140  1.00  0.00    -0.744 OA
ENDBRANCH  81  82
ENDBRANCH  55  76
ENDBRANCH  29  30
ENDBRANCH  22  24
ENDBRANCH  21  22
ENDBRANCH  20  21
ENDBRANCH   1  20
TORSDOF 18
