REMARK SMILES O=C(OCCOC(=O)[C@@H]1C[C@@H](O)CN1C(=O)CSc1ccc(F)cc1F)c1ccc(-c2c3nc(c(-c4ccc(S(=O)(=O)[O-])cc4)c4ccc([nH]4)c(-c4ccc(S(=O)(=O)[O-])cc4)c4nc(c(-c5ccc(S(=O)(=O)[O-])cc5)c5ccc2[nH]5)C=C4)C=C3)cc1
REMARK SMILES IDX 5 1 4 2 3 3 2 4 1 5 27 6 28 7 86 8 29 9 85 10 30 11 31 12
REMARK SMILES IDX 32 13 79 14 33 15 84 16 78 17 80 18 34 19 83 20 77 21 76 22
REMARK SMILES IDX 35 24 65 25 46 26 64 27 47 28 50 29 63 30 81 31 48 32 49 33
REMARK SMILES IDX 62 35 82 36 51 37 36 38 37 39 45 40 38 41 44 42 39 43 40 44
REMARK SMILES IDX 41 45 42 46 43 47 66 48 67 49 75 50 68 51 74 52 69 53 70 54
REMARK SMILES IDX 71 55 72 56 73 57 52 58 53 59 61 60 54 61 60 62 55 63 56 64
REMARK SMILES IDX 57 65 58 66 59 67 6 68 7 69 8 70 9 71 10 72 14 73 11 74
REMARK SMILES IDX 13 75 15 76 16 77 17 78 18 79 19 80 20 81 25 82 21 83 24 84
REMARK SMILES IDX 26 85 22 86 23 87 12 88
REMARK H PARENT 80 23 50 34 12 89
REMARK Flexibility Score: inf
ROOT
ATOM      1  C   UNL     1       4.988  -2.746   3.598  1.00  0.00     0.274 C 
ENDROOT
BRANCH   1   2
ATOM      2  C   UNL     1       6.131  -2.338   2.663  1.00  0.00     0.275 C 
BRANCH   2   3
ATOM      3  O   UNL     1       6.171  -0.941   2.308  1.00  0.00    -0.458 OA
BRANCH   3   4
ATOM      4  C   UNL     1       5.390  -0.229   1.458  1.00  0.00     0.338 C 
ATOM      5  O   UNL     1       5.583   0.984   1.369  1.00  0.00    -0.246 OA
BRANCH   4   6
ATOM      6  C   UNL     1       4.219  -0.800   0.716  1.00  0.00     0.060 A 
ATOM      7  C   UNL     1       4.074  -2.131   0.320  1.00  0.00     0.016 A 
ATOM      8  C   UNL     1       3.170   0.092   0.423  1.00  0.00     0.016 A 
ATOM      9  C   UNL     1       2.879  -2.588  -0.248  1.00  0.00     0.010 A 
ATOM     10  C   UNL     1       1.965  -0.365  -0.116  1.00  0.00     0.010 A 
ATOM     11  C   UNL     1       1.807  -1.719  -0.451  1.00  0.00    -0.014 A 
BRANCH  11  12
ATOM     12  C   UNL     1       0.574  -2.177  -1.133  1.00  0.00     0.031 A 
ATOM     13  C   UNL     1       0.314  -1.695  -2.527  1.00  0.00     0.074 A 
ATOM     14  C   UNL     1      -0.295  -3.037  -0.565  1.00  0.00     0.049 A 
ATOM     15  N   UNL     1      -0.681  -1.997  -3.315  1.00  0.00    -0.248 NA
ATOM     16  C   UNL     1       1.336  -0.830  -3.142  1.00  0.00     0.031 C 
ATOM     17  C   UNL     1      -0.101  -3.754   0.691  1.00  0.00     0.029 A 
ATOM     18  N   UNL     1      -1.559  -3.416  -0.954  1.00  0.00    -0.354 N 
ATOM     19  C   UNL     1      -0.333  -1.482  -4.551  1.00  0.00     0.074 A 
ATOM     20  C   UNL     1       0.868  -0.699  -4.373  1.00  0.00     0.031 C 
ATOM     21  C   UNL     1      -1.257  -4.336   1.050  1.00  0.00     0.029 A 
ATOM     22  C   UNL     1      -2.259  -4.061   0.042  1.00  0.00     0.049 A 
ATOM     23  H   UNL     1      -1.926  -3.244  -1.851  1.00  0.00     0.167 HD
ATOM     24  C   UNL     1      -0.904  -1.742  -5.748  1.00  0.00     0.031 A 
ATOM     25  C   UNL     1      -3.562  -4.382   0.138  1.00  0.00     0.031 A 
ATOM     26  C   UNL     1      -2.120  -2.487  -5.906  1.00  0.00     0.049 A 
ATOM     27  C   UNL     1      -4.362  -4.354  -1.126  1.00  0.00     0.074 A 
ATOM     28  C   UNL     1      -2.790  -2.809  -7.071  1.00  0.00     0.029 A 
ATOM     29  N   UNL     1      -2.864  -3.008  -4.856  1.00  0.00    -0.354 N 
ATOM     30  N   UNL     1      -3.991  -3.931  -2.309  1.00  0.00    -0.248 NA
ATOM     31  C   UNL     1      -5.690  -4.975  -1.083  1.00  0.00     0.031 C 
ATOM     32  C   UNL     1      -3.976  -3.466  -6.720  1.00  0.00     0.029 A 
ATOM     33  C   UNL     1      -4.013  -3.607  -5.341  1.00  0.00     0.049 A 
ATOM     34  H   UNL     1      -2.611  -2.958  -3.906  1.00  0.00     0.167 HD
ATOM     35  C   UNL     1      -4.988  -4.343  -3.178  1.00  0.00     0.074 A 
ATOM     36  C   UNL     1      -6.000  -5.000  -2.372  1.00  0.00     0.031 C 
ATOM     37  C   UNL     1      -5.024  -4.238  -4.529  1.00  0.00     0.031 A 
BRANCH  24  38
ATOM     38  C   UNL     1      -0.169  -1.246  -6.957  1.00  0.00    -0.014 A 
ATOM     39  C   UNL     1       1.054  -1.838  -7.333  1.00  0.00     0.010 A 
ATOM     40  C   UNL     1      -0.680  -0.181  -7.713  1.00  0.00     0.010 A 
ATOM     41  C   UNL     1       1.772  -1.347  -8.423  1.00  0.00     0.020 A 
ATOM     42  C   UNL     1       0.025   0.298  -8.820  1.00  0.00     0.020 A 
ATOM     43  C   UNL     1       1.252  -0.280  -9.159  1.00  0.00     0.054 A 
BRANCH  43  44
ATOM     44  S   UNL     1       2.196   0.327 -10.583  1.00  0.00     0.124 S 
ATOM     45  O   UNL     1       3.338   0.968  -9.936  1.00  0.00    -0.237 OA
ATOM     46  O   UNL     1       2.496  -0.902 -11.312  1.00  0.00    -0.237 OA
ATOM     47  O   UNL     1       1.268   1.235 -11.252  1.00  0.00    -0.744 OA
ENDBRANCH  43  44
ENDBRANCH  24  38
BRANCH  25  48
ATOM     48  C   UNL     1      -4.169  -4.811   1.427  1.00  0.00    -0.014 A 
ATOM     49  C   UNL     1      -4.440  -6.160   1.704  1.00  0.00     0.010 A 
ATOM     50  C   UNL     1      -4.538  -3.835   2.374  1.00  0.00     0.010 A 
ATOM     51  C   UNL     1      -5.099  -6.524   2.884  1.00  0.00     0.020 A 
ATOM     52  C   UNL     1      -5.187  -4.195   3.562  1.00  0.00     0.020 A 
ATOM     53  C   UNL     1      -5.474  -5.538   3.803  1.00  0.00     0.054 A 
BRANCH  53  54
ATOM     54  S   UNL     1      -6.318  -6.047   5.330  1.00  0.00     0.124 S 
ATOM     55  O   UNL     1      -7.612  -6.496   4.828  1.00  0.00    -0.237 OA
ATOM     56  O   UNL     1      -5.433  -7.095   5.833  1.00  0.00    -0.237 OA
ATOM     57  O   UNL     1      -6.345  -4.825   6.130  1.00  0.00    -0.744 OA
ENDBRANCH  53  54
ENDBRANCH  25  48
BRANCH  37  58
ATOM     58  C   UNL     1      -6.179  -4.895  -5.224  1.00  0.00    -0.014 A 
ATOM     59  C   UNL     1      -7.486  -4.394  -5.103  1.00  0.00     0.010 A 
ATOM     60  C   UNL     1      -5.944  -6.029  -6.024  1.00  0.00     0.010 A 
ATOM     61  C   UNL     1      -8.546  -5.042  -5.737  1.00  0.00     0.020 A 
ATOM     62  C   UNL     1      -6.996  -6.656  -6.690  1.00  0.00     0.020 A 
ATOM     63  C   UNL     1      -8.293  -6.168  -6.527  1.00  0.00     0.054 A 
BRANCH  63  64
ATOM     64  S   UNL     1      -9.684  -6.965  -7.370  1.00  0.00     0.124 S 
ATOM     65  O   UNL     1     -10.356  -7.647  -6.267  1.00  0.00    -0.237 OA
ATOM     66  O   UNL     1     -10.405  -5.829  -7.940  1.00  0.00    -0.237 OA
ATOM     67  O   UNL     1      -9.041  -7.840  -8.346  1.00  0.00    -0.744 OA
ENDBRANCH  63  64
ENDBRANCH  37  58
ENDBRANCH  11  12
ENDBRANCH   4   6
ENDBRANCH   3   4
ENDBRANCH   2   3
ENDBRANCH   1   2
BRANCH   1  68
ATOM     68  O   UNL     1       3.850  -1.898   3.427  1.00  0.00    -0.461 OA
BRANCH  68  69
ATOM     69  C   UNL     1       3.546  -1.027   4.429  1.00  0.00     0.329 C 
ATOM     70  O   UNL     1       4.091  -1.025   5.532  1.00  0.00    -0.250 OA
BRANCH  69  71
ATOM     71  C   UNL     1       2.555   0.044   3.927  1.00  0.00     0.197 C 
ATOM     72  C   UNL     1       2.686   1.310   4.786  1.00  0.00     0.070 C 
ATOM     73  N   UNL     1       1.103  -0.189   3.892  1.00  0.00    -0.325 N 
ATOM     74  C   UNL     1       1.407   2.069   4.479  1.00  0.00     0.136 C 
ATOM     75  C   UNL     1       0.361   0.961   4.391  1.00  0.00     0.152 C 
BRANCH  73  76
ATOM     76  C   UNL     1       0.552  -1.254   3.219  1.00  0.00     0.233 C 
ATOM     77  O   UNL     1       1.281  -2.079   2.672  1.00  0.00    -0.274 OA
BRANCH  76  78
ATOM     78  C   UNL     1      -0.964  -1.416   3.215  1.00  0.00     0.175 C 
BRANCH  78  79
ATOM     79  S   UNL     1      -1.586  -2.129   4.780  1.00  0.00    -0.113 SA
BRANCH  79  80
ATOM     80  C   UNL     1      -0.692  -3.676   4.831  1.00  0.00     0.044 A 
ATOM     81  C   UNL     1      -1.339  -4.880   4.532  1.00  0.00     0.021 A 
ATOM     82  C   UNL     1       0.659  -3.722   5.194  1.00  0.00     0.139 A 
ATOM     83  C   UNL     1      -0.621  -6.082   4.506  1.00  0.00     0.040 A 
ATOM     84  C   UNL     1       1.385  -4.906   5.156  1.00  0.00     0.079 A 
ATOM     85  F   UNL     1       1.292  -2.609   5.594  1.00  0.00    -0.206 F 
ATOM     86  C   UNL     1       0.738  -6.078   4.799  1.00  0.00     0.126 A 
ATOM     87  F   UNL     1       1.433  -7.222   4.751  1.00  0.00    -0.207 F 
ENDBRANCH  79  80
ENDBRANCH  78  79
ENDBRANCH  76  78
ENDBRANCH  73  76
BRANCH  74  88
ATOM     88  O   UNL     1       1.536   2.756   3.232  1.00  0.00    -0.391 OA
ATOM     89  H   UNL     1       1.761   2.121   2.534  1.00  0.00     0.211 HD
ENDBRANCH  74  88
ENDBRANCH  69  71
ENDBRANCH  68  69
ENDBRANCH   1  68
TORSDOF 19
