REMARK SMILES C[C@H](c1ccncc1)N1C[C@H](C(=O)OCCOC(=O)c2ccc(-c3c4nc(c(-c5ccc(S(=O)(=O)[O-])cc5)c5ccc([nH]5)c(-c5ccc(S(=O)(=O)[O-])cc5)c5nc(c(-c6ccc(S(=O)(=O)[O-])cc6)c6ccc3[nH]6)C=C5)C=C4)cc2)CC1=O
REMARK SMILES IDX 16 1 15 2 14 3 12 4 13 5 11 6 9 7 10 8 81 9 80 10 82 11 2 12
REMARK SMILES IDX 1 13 3 14 4 15 8 16 5 17 7 18 6 19 17 20 18 21 19 22 20 23
REMARK SMILES IDX 21 24 79 25 22 26 78 27 23 28 24 29 25 30 72 31 26 32 77 33
REMARK SMILES IDX 71 34 73 35 27 36 76 37 70 38 69 39 28 41 58 42 39 43 57 44
REMARK SMILES IDX 40 45 43 46 56 47 74 48 41 49 42 50 55 52 75 53 44 54 29 55
REMARK SMILES IDX 30 56 38 57 31 58 37 59 32 60 33 61 34 62 35 63 36 64 59 65
REMARK SMILES IDX 60 66 68 67 61 68 67 69 62 70 63 71 64 72 65 73 66 74 45 75
REMARK SMILES IDX 46 76 54 77 47 78 53 79 48 80 49 81 50 82 51 83 52 84
REMARK H PARENT 73 40 43 51
REMARK Flexibility Score: inf
ROOT
ATOM      1  C   UNL     1      -4.381  -0.338  -2.939  1.00  0.00     0.275 C 
ENDROOT
BRANCH   1   2
ATOM      2  C   UNL     1      -5.230  -1.104  -1.925  1.00  0.00     0.274 C 
BRANCH   2   3
ATOM      3  O   UNL     1      -5.022  -0.603  -0.580  1.00  0.00    -0.462 OA
BRANCH   3   4
ATOM      4  C   UNL     1      -4.148  -1.298   0.198  1.00  0.00     0.311 C 
ATOM      5  O   UNL     1      -3.683  -2.393  -0.107  1.00  0.00    -0.252 OA
BRANCH   4   6
ATOM      6  C   UNL     1      -3.817  -0.620   1.523  1.00  0.00     0.128 C 
ATOM      7  N   UNL     1      -1.813   0.508   1.086  1.00  0.00    -0.335 N 
ATOM      8  C   UNL     1      -2.318  -0.677   1.784  1.00  0.00     0.136 C 
ATOM      9  C   UNL     1      -2.762   1.527   1.260  1.00  0.00     0.224 C 
ATOM     10  C   UNL     1      -4.085   0.879   1.625  1.00  0.00     0.117 C 
ATOM     11  O   UNL     1      -2.586   2.730   1.177  1.00  0.00    -0.275 OA
BRANCH   7  12
ATOM     12  C   UNL     1      -0.142   0.696   0.550  1.00  0.00     0.112 C 
ATOM     13  C   UNL     1       0.199   1.872   1.821  1.00  0.00     0.036 C 
BRANCH  12  14
ATOM     14  C   UNL     1       0.664   0.335  -1.410  1.00  0.00    -0.023 A 
ATOM     15  C   UNL     1       1.000   1.300  -2.568  1.00  0.00     0.026 A 
ATOM     16  C   UNL     1       1.060  -0.999  -2.123  1.00  0.00     0.026 A 
ATOM     17  C   UNL     1       1.566   0.994  -3.831  1.00  0.00     0.111 A 
ATOM     18  C   UNL     1       1.656  -1.193  -3.387  1.00  0.00     0.111 A 
ATOM     19  N   UNL     1       1.910  -0.222  -4.256  1.00  0.00    -0.265 NA
ENDBRANCH  12  14
ENDBRANCH   7  12
ENDBRANCH   4   6
ENDBRANCH   3   4
ENDBRANCH   2   3
ENDBRANCH   1   2
BRANCH   1  20
ATOM     20  O   UNL     1      -3.017  -0.372  -2.505  1.00  0.00    -0.458 OA
BRANCH  20  21
ATOM     21  C   UNL     1      -2.680   0.734  -1.815  1.00  0.00     0.338 C 
ATOM     22  O   UNL     1      -3.333   1.758  -1.701  1.00  0.00    -0.246 OA
BRANCH  21  23
ATOM     23  C   UNL     1      -1.393   0.562  -1.154  1.00  0.00     0.060 A 
ATOM     24  C   UNL     1      -0.698  -0.994  -0.513  1.00  0.00     0.016 A 
ATOM     25  C   UNL     1      -0.504   2.098  -0.902  1.00  0.00     0.016 A 
ATOM     26  C   UNL     1       0.994  -1.014   0.225  1.00  0.00     0.010 A 
ATOM     27  C   UNL     1       1.208   2.054  -0.293  1.00  0.00     0.010 A 
ATOM     28  C   UNL     1       1.989   0.513   0.257  1.00  0.00    -0.014 A 
BRANCH  28  29
ATOM     29  C   UNL     1       3.505   0.531   0.508  1.00  0.00     0.031 A 
ATOM     30  C   UNL     1       4.258   1.828   0.877  1.00  0.00     0.074 A 
ATOM     31  C   UNL     1       4.269  -0.561   0.246  1.00  0.00     0.049 A 
ATOM     32  N   UNL     1       5.549   2.090   0.841  1.00  0.00    -0.248 NA
ATOM     33  C   UNL     1       3.478   3.013   1.258  1.00  0.00     0.031 C 
ATOM     34  C   UNL     1       3.804  -1.850  -0.257  1.00  0.00     0.029 A 
ATOM     35  N   UNL     1       5.631  -0.768   0.345  1.00  0.00    -0.354 N 
ATOM     36  C   UNL     1       5.679   3.464   1.082  1.00  0.00     0.074 A 
ATOM     37  C   UNL     1       4.349   4.000   1.137  1.00  0.00     0.031 C 
ATOM     38  C   UNL     1       4.807  -2.723  -0.347  1.00  0.00     0.029 A 
ATOM     39  C   UNL     1       6.032  -2.044  -0.002  1.00  0.00     0.049 A 
ATOM     40  H   UNL     1       6.260  -0.068   0.637  1.00  0.00     0.167 HD
ATOM     41  C   UNL     1       6.779   4.217   1.340  1.00  0.00     0.031 A 
ATOM     42  C   UNL     1       7.237  -2.640  -0.067  1.00  0.00     0.031 A 
ATOM     43  C   UNL     1       8.094   3.654   1.470  1.00  0.00     0.049 A 
ATOM     44  C   UNL     1       8.430  -1.845   0.336  1.00  0.00     0.074 A 
ATOM     45  C   UNL     1       9.260   4.267   1.891  1.00  0.00     0.029 A 
ATOM     46  N   UNL     1       8.399   2.324   1.226  1.00  0.00    -0.354 N 
ATOM     47  N   UNL     1       8.492  -0.571   0.637  1.00  0.00    -0.248 NA
ATOM     48  C   UNL     1       9.702  -2.565   0.437  1.00  0.00     0.031 C 
ATOM     49  C   UNL     1      10.281   3.312   1.871  1.00  0.00     0.029 A 
ATOM     50  C   UNL     1       9.737   2.096   1.487  1.00  0.00     0.049 A 
ATOM     51  H   UNL     1       7.759   1.644   0.914  1.00  0.00     0.167 HD
ATOM     52  C   UNL     1       9.809  -0.339   0.993  1.00  0.00     0.074 A 
ATOM     53  C   UNL     1      10.501  -1.610   0.891  1.00  0.00     0.031 C 
ATOM     54  C   UNL     1      10.394   0.822   1.372  1.00  0.00     0.031 A 
BRANCH  41  55
ATOM     55  C   UNL     1       6.606   5.708   1.586  1.00  0.00    -0.014 A 
ATOM     56  C   UNL     1       5.874   6.196   2.688  1.00  0.00     0.010 A 
ATOM     57  C   UNL     1       7.216   6.644   0.727  1.00  0.00     0.010 A 
ATOM     58  C   UNL     1       5.693   7.570   2.883  1.00  0.00     0.020 A 
ATOM     59  C   UNL     1       7.075   8.023   0.943  1.00  0.00     0.020 A 
ATOM     60  C   UNL     1       6.293   8.477   2.007  1.00  0.00     0.054 A 
BRANCH  60  61
ATOM     61  S   UNL     1       6.059  10.254   2.301  1.00  0.00     0.124 S 
ATOM     62  O   UNL     1       4.663  10.443   1.916  1.00  0.00    -0.237 OA
ATOM     63  O   UNL     1       6.337  10.381   3.729  1.00  0.00    -0.237 OA
ATOM     64  O   UNL     1       7.039  10.884   1.420  1.00  0.00    -0.744 OA
ENDBRANCH  60  61
ENDBRANCH  41  55
BRANCH  42  65
ATOM     65  C   UNL     1       7.325  -4.083  -0.444  1.00  0.00    -0.014 A 
ATOM     66  C   UNL     1       7.556  -5.057   0.545  1.00  0.00     0.010 A 
ATOM     67  C   UNL     1       7.058  -4.506  -1.762  1.00  0.00     0.010 A 
ATOM     68  C   UNL     1       7.523  -6.418   0.227  1.00  0.00     0.020 A 
ATOM     69  C   UNL     1       6.992  -5.869  -2.077  1.00  0.00     0.020 A 
ATOM     70  C   UNL     1       7.232  -6.817  -1.081  1.00  0.00     0.054 A 
BRANCH  70  71
ATOM     71  S   UNL     1       7.114  -8.592  -1.444  1.00  0.00     0.124 S 
ATOM     72  O   UNL     1       8.509  -9.013  -1.362  1.00  0.00    -0.237 OA
ATOM     73  O   UNL     1       6.243  -9.074  -0.375  1.00  0.00    -0.237 OA
ATOM     74  O   UNL     1       6.524  -8.631  -2.780  1.00  0.00    -0.744 OA
ENDBRANCH  70  71
ENDBRANCH  42  65
BRANCH  54  75
ATOM     75  C   UNL     1      11.845   0.754   1.729  1.00  0.00    -0.014 A 
ATOM     76  C   UNL     1      12.820   0.583   0.733  1.00  0.00     0.010 A 
ATOM     77  C   UNL     1      12.232   0.896   3.072  1.00  0.00     0.010 A 
ATOM     78  C   UNL     1      14.167   0.518   1.082  1.00  0.00     0.020 A 
ATOM     79  C   UNL     1      13.581   0.865   3.420  1.00  0.00     0.020 A 
ATOM     80  C   UNL     1      14.538   0.661   2.423  1.00  0.00     0.054 A 
BRANCH  80  81
ATOM     81  S   UNL     1      16.298   0.614   2.842  1.00  0.00     0.124 S 
ATOM     82  O   UNL     1      16.609  -0.803   2.682  1.00  0.00    -0.237 OA
ATOM     83  O   UNL     1      16.886   1.505   1.845  1.00  0.00    -0.237 OA
ATOM     84  O   UNL     1      16.340   1.111   4.215  1.00  0.00    -0.744 OA
ENDBRANCH  80  81
ENDBRANCH  54  75
ENDBRANCH  28  29
ENDBRANCH  21  23
ENDBRANCH  20  21
ENDBRANCH   1  20
TORSDOF 16
