REMARK SMILES CC[C@@H](C)SCc1cc(F)cc(/C=C/C(=O)OCCOC(=O)c2ccc(-c3c4nc(c(-c5ccc(S(=O)(=O)[O-])cc5)c5ccc([nH]5)c(-c5ccc(S(=O)(=O)[O-])cc5)c5nc(c(-c6ccc(S(=O)(=O)[O-])cc6)c6ccc3[nH]6)C=C5)C=C4)cc2)c1
REMARK SMILES IDX 18 1 17 2 15 3 16 4 14 5 13 6 12 7 7 8 8 9 83 10 9 11 10 12
REMARK SMILES IDX 11 13 6 14 5 15 3 16 4 17 2 18 1 19 19 20 20 21 21 22 22 23
REMARK SMILES IDX 23 24 24 25 82 26 25 27 81 28 26 29 27 30 28 31 75 32 29 33
REMARK SMILES IDX 80 34 74 35 76 36 30 37 79 38 73 39 72 40 31 42 61 43 42 44
REMARK SMILES IDX 60 45 43 46 46 47 59 48 77 49 44 50 45 51 58 53 78 54 47 55
REMARK SMILES IDX 32 56 33 57 41 58 34 59 40 60 35 61 36 62 37 63 38 64 39 65
REMARK SMILES IDX 62 66 63 67 71 68 64 69 70 70 65 71 66 72 67 73 68 74 69 75
REMARK SMILES IDX 48 76 49 77 57 78 50 79 56 80 51 81 52 82 53 83 54 84 55 85
REMARK H PARENT 76 41 46 52
REMARK Flexibility Score: inf
ROOT
ATOM      1  C   UNL     1      -2.686  10.598  -4.198  1.00  0.00     0.275 C 
ENDROOT
BRANCH   1   2
ATOM      2  O   UNL     1      -2.719   9.361  -3.463  1.00  0.00    -0.459 OA
BRANCH   2   3
ATOM      3  C   UNL     1      -3.758   8.543  -3.753  1.00  0.00     0.330 C 
ATOM      4  O   UNL     1      -4.696   8.803  -4.493  1.00  0.00    -0.247 OA
BRANCH   3   5
ATOM      5  C   UNL     1      -3.648   7.220  -3.108  1.00  0.00     0.094 C 
ATOM      6  C   UNL     1      -2.624   6.783  -2.359  1.00  0.00     0.016 C 
BRANCH   6   7
ATOM      7  C   UNL     1      -2.578   5.414  -1.818  1.00  0.00    -0.022 A 
ATOM      8  C   UNL     1      -1.947   3.881  -0.012  1.00  0.00    -0.035 A 
ATOM      9  C   UNL     1      -2.508   2.821  -0.734  1.00  0.00     0.043 A 
ATOM     10  C   UNL     1      -1.996   5.178  -0.561  1.00  0.00     0.013 A 
ATOM     11  C   UNL     1      -3.034   3.047  -1.998  1.00  0.00     0.124 A 
ATOM     12  F   UNL     1      -3.512   2.013  -2.703  1.00  0.00    -0.207 F 
ATOM     13  C   UNL     1      -3.061   4.321  -2.549  1.00  0.00     0.047 A 
BRANCH   8  14
ATOM     14  C   UNL     1      -1.305   3.626   1.326  1.00  0.00     0.105 C 
BRANCH  14  15
ATOM     15  S   UNL     1       0.507   3.815   1.351  1.00  0.00    -0.154 SA
BRANCH  15  16
ATOM     16  C   UNL     1       1.122   2.386   0.352  1.00  0.00     0.043 C 
ATOM     17  C   UNL     1       0.984   2.633  -1.149  1.00  0.00     0.019 C 
BRANCH  16  18
ATOM     18  C   UNL     1       0.558   1.037   0.824  1.00  0.00     0.011 C 
ATOM     19  C   UNL     1       1.135  -0.156   0.071  1.00  0.00     0.005 C 
ENDBRANCH  16  18
ENDBRANCH  15  16
ENDBRANCH  14  15
ENDBRANCH   8  14
ENDBRANCH   6   7
ENDBRANCH   3   5
ENDBRANCH   2   3
ENDBRANCH   1   2
BRANCH   1  20
ATOM     20  C   UNL     1      -1.709  10.526  -5.375  1.00  0.00     0.275 C 
BRANCH  20  21
ATOM     21  O   UNL     1      -2.168   9.640  -6.411  1.00  0.00    -0.458 OA
BRANCH  21  22
ATOM     22  C   UNL     1      -1.776   8.349  -6.287  1.00  0.00     0.338 C 
ATOM     23  O   UNL     1      -1.081   7.872  -5.407  1.00  0.00    -0.246 OA
BRANCH  22  24
ATOM     24  C   UNL     1      -2.400   7.541  -7.349  1.00  0.00     0.060 A 
ATOM     25  C   UNL     1      -3.153   6.420  -6.983  1.00  0.00     0.016 A 
ATOM     26  C   UNL     1      -2.187   7.845  -8.695  1.00  0.00     0.016 A 
ATOM     27  C   UNL     1      -3.695   5.593  -7.968  1.00  0.00     0.010 A 
ATOM     28  C   UNL     1      -2.729   7.016  -9.678  1.00  0.00     0.010 A 
ATOM     29  C   UNL     1      -3.478   5.879  -9.322  1.00  0.00    -0.014 A 
BRANCH  29  30
ATOM     30  C   UNL     1      -3.983   4.978 -10.386  1.00  0.00     0.031 A 
ATOM     31  C   UNL     1      -3.020   4.098 -11.131  1.00  0.00     0.074 A 
ATOM     32  C   UNL     1      -5.288   4.987 -10.716  1.00  0.00     0.049 A 
ATOM     33  N   UNL     1      -3.222   3.368 -12.196  1.00  0.00    -0.248 NA
ATOM     34  C   UNL     1      -1.645   4.038 -10.608  1.00  0.00     0.031 C 
ATOM     35  C   UNL     1      -6.327   5.761 -10.037  1.00  0.00     0.029 A 
ATOM     36  N   UNL     1      -5.958   4.337 -11.723  1.00  0.00    -0.354 N 
ATOM     37  C   UNL     1      -1.996   2.780 -12.489  1.00  0.00     0.074 A 
ATOM     38  C   UNL     1      -1.054   3.248 -11.495  1.00  0.00     0.031 C 
ATOM     39  C   UNL     1      -7.501   5.554 -10.656  1.00  0.00     0.029 A 
ATOM     40  C   UNL     1      -7.288   4.677 -11.805  1.00  0.00     0.049 A 
ATOM     41  H   UNL     1      -5.528   3.690 -12.328  1.00  0.00     0.167 HD
ATOM     42  C   UNL     1      -1.687   1.932 -13.499  1.00  0.00     0.031 A 
ATOM     43  C   UNL     1      -8.219   4.353 -12.724  1.00  0.00     0.031 A 
ATOM     44  C   UNL     1      -2.629   1.478 -14.487  1.00  0.00     0.049 A 
ATOM     45  C   UNL     1      -7.834   3.469 -13.881  1.00  0.00     0.074 A 
ATOM     46  C   UNL     1      -2.415   0.612 -15.545  1.00  0.00     0.029 A 
ATOM     47  N   UNL     1      -3.962   1.856 -14.541  1.00  0.00    -0.354 N 
ATOM     48  N   UNL     1      -6.672   2.920 -14.146  1.00  0.00    -0.248 NA
ATOM     49  C   UNL     1      -8.883   3.163 -14.865  1.00  0.00     0.031 C 
ATOM     50  C   UNL     1      -3.607   0.505 -16.268  1.00  0.00     0.029 A 
ATOM     51  C   UNL     1      -4.578   1.258 -15.626  1.00  0.00     0.049 A 
ATOM     52  H   UNL     1      -4.405   2.460 -13.902  1.00  0.00     0.167 HD
ATOM     53  C   UNL     1      -6.859   2.179 -15.308  1.00  0.00     0.074 A 
ATOM     54  C   UNL     1      -8.245   2.348 -15.695  1.00  0.00     0.031 C 
ATOM     55  C   UNL     1      -5.964   1.422 -15.988  1.00  0.00     0.031 A 
BRANCH  42  56
ATOM     56  C   UNL     1      -0.258   1.472 -13.610  1.00  0.00    -0.014 A 
ATOM     57  C   UNL     1       0.286   0.551 -12.697  1.00  0.00     0.010 A 
ATOM     58  C   UNL     1       0.542   1.939 -14.669  1.00  0.00     0.010 A 
ATOM     59  C   UNL     1       1.616   0.138 -12.818  1.00  0.00     0.020 A 
ATOM     60  C   UNL     1       1.864   1.508 -14.809  1.00  0.00     0.020 A 
ATOM     61  C   UNL     1       2.398   0.624 -13.870  1.00  0.00     0.054 A 
BRANCH  61  62
ATOM     62  S   UNL     1       4.117   0.061 -14.011  1.00  0.00     0.124 S 
ATOM     63  O   UNL     1       4.762   0.791 -12.922  1.00  0.00    -0.237 OA
ATOM     64  O   UNL     1       4.001  -1.381 -13.817  1.00  0.00    -0.237 OA
ATOM     65  O   UNL     1       4.510   0.477 -15.356  1.00  0.00    -0.744 OA
ENDBRANCH  61  62
ENDBRANCH  42  56
BRANCH  43  66
ATOM     66  C   UNL     1      -9.599   4.895 -12.603  1.00  0.00    -0.014 A 
ATOM     67  C   UNL     1     -10.673   4.052 -12.271  1.00  0.00     0.010 A 
ATOM     68  C   UNL     1      -9.845   6.266 -12.807  1.00  0.00     0.010 A 
ATOM     69  C   UNL     1     -11.969   4.566 -12.157  1.00  0.00     0.020 A 
ATOM     70  C   UNL     1     -11.133   6.789 -12.668  1.00  0.00     0.020 A 
ATOM     71  C   UNL     1     -12.190   5.933 -12.354  1.00  0.00     0.054 A 
BRANCH  71  72
ATOM     72  S   UNL     1     -13.870   6.587 -12.149  1.00  0.00     0.124 S 
ATOM     73  O   UNL     1     -14.529   6.117 -13.363  1.00  0.00    -0.237 OA
ATOM     74  O   UNL     1     -14.306   5.955 -10.906  1.00  0.00    -0.237 OA
ATOM     75  O   UNL     1     -13.666   8.031 -12.065  1.00  0.00    -0.744 OA
ENDBRANCH  71  72
ENDBRANCH  43  66
BRANCH  55  76
ATOM     76  C   UNL     1      -6.453   0.667 -17.195  1.00  0.00    -0.014 A 
ATOM     77  C   UNL     1      -6.684   1.317 -18.419  1.00  0.00     0.010 A 
ATOM     78  C   UNL     1      -6.576  -0.734 -17.125  1.00  0.00     0.010 A 
ATOM     79  C   UNL     1      -7.033   0.578 -19.553  1.00  0.00     0.020 A 
ATOM     80  C   UNL     1      -6.903  -1.477 -18.261  1.00  0.00     0.020 A 
ATOM     81  C   UNL     1      -7.132  -0.816 -19.469  1.00  0.00     0.054 A 
BRANCH  81  82
ATOM     82  S   UNL     1      -7.494  -1.760 -20.976  1.00  0.00     0.124 S 
ATOM     83  O   UNL     1      -8.914  -1.485 -21.174  1.00  0.00    -0.237 OA
ATOM     84  O   UNL     1      -6.595  -1.156 -21.956  1.00  0.00    -0.237 OA
ATOM     85  O   UNL     1      -7.171  -3.136 -20.608  1.00  0.00    -0.744 OA
ENDBRANCH  81  82
ENDBRANCH  55  76
ENDBRANCH  29  30
ENDBRANCH  22  24
ENDBRANCH  21  22
ENDBRANCH  20  21
ENDBRANCH   1  20
TORSDOF 19
