REMARK SMILES Cc1c(CC(=O)OCCOC(=O)c2ccc(-c3c4nc(c(-c5ccc(S(=O)(=O)[O-])cc5)c5ccc([nH]5)c(-c5ccc(S(=O)(=O)[O-])cc5)c5nc(c(-c6ccc(S(=O)(=O)[O-])cc6)c6ccc3[nH]6)C=C5)C=C4)cc2)cc(-c2ccc(S(C)(=O)=O)cc2)n1-c1cccc(F)c1
REMARK SMILES IDX 8 1 7 2 5 3 6 4 4 5 3 6 1 7 2 8 85 9 73 10 74 11 86 12 87 13
REMARK SMILES IDX 92 14 88 15 90 16 89 17 91 18 75 19 76 20 84 21 77 22 83 23
REMARK SMILES IDX 78 24 79 25 80 26 81 27 82 28 9 29 10 30 11 31 12 32 13 33
REMARK SMILES IDX 14 34 72 35 15 36 71 37 16 38 17 39 18 40 65 41 19 42 70 43
REMARK SMILES IDX 64 44 66 45 20 46 69 47 63 48 62 49 21 51 51 52 32 53 50 54
REMARK SMILES IDX 33 55 36 56 49 57 67 58 34 59 35 60 48 62 68 63 37 64 22 65
REMARK SMILES IDX 23 66 31 67 24 68 30 69 25 70 26 71 27 72 28 73 29 74 52 75
REMARK SMILES IDX 53 76 61 77 54 78 60 79 55 80 56 81 57 82 58 83 59 84 38 85
REMARK SMILES IDX 39 86 47 87 40 88 46 89 41 90 42 91 43 92 44 93 45 94
REMARK H PARENT 66 50 36 61
REMARK Flexibility Score: inf
ROOT
ATOM      1  C   UNL     1       3.635   0.731   1.290  1.00  0.00     0.274 C 
ENDROOT
BRANCH   1   2
ATOM      2  O   UNL     1       2.681  -0.299   1.002  1.00  0.00    -0.462 OA
BRANCH   2   3
ATOM      3  C   UNL     1       3.006  -1.598   1.221  1.00  0.00     0.310 C 
ATOM      4  O   UNL     1       4.125  -1.994   1.542  1.00  0.00    -0.252 OA
BRANCH   3   5
ATOM      5  C   UNL     1       1.782  -2.499   1.163  1.00  0.00     0.160 C 
BRANCH   5   6
ATOM      6  C   UNL     1       0.875  -2.348  -0.033  1.00  0.00    -0.015 A 
ATOM      7  C   UNL     1       0.154   0.162   0.110  1.00  0.00     0.065 C 
ATOM      8  C   UNL     1       0.214  -1.210  -0.479  1.00  0.00     0.024 A 
ATOM      9  N   UNL     1      -0.526  -1.531  -1.603  1.00  0.00    -0.313 N 
ATOM     10  C   UNL     1       0.389  -3.415  -0.848  1.00  0.00     0.033 A 
ATOM     11  C   UNL     1      -0.525  -2.909  -1.761  1.00  0.00     0.053 A 
BRANCH   9  12
ATOM     12  C   UNL     1      -1.261  -0.586  -2.354  1.00  0.00     0.049 A 
ATOM     13  C   UNL     1      -2.659  -0.622  -2.334  1.00  0.00     0.027 A 
ATOM     14  C   UNL     1      -0.572   0.444  -3.002  1.00  0.00     0.065 A 
ATOM     15  C   UNL     1      -3.373   0.403  -2.955  1.00  0.00     0.005 A 
ATOM     16  C   UNL     1      -1.302   1.433  -3.644  1.00  0.00     0.125 A 
ATOM     17  C   UNL     1      -2.693   1.430  -3.614  1.00  0.00     0.039 A 
ATOM     18  F   UNL     1      -0.654   2.400  -4.305  1.00  0.00    -0.207 F 
ENDBRANCH   9  12
BRANCH  11  19
ATOM     19  C   UNL     1      -1.341  -3.628  -2.738  1.00  0.00    -0.001 A 
ATOM     20  C   UNL     1      -1.203  -3.393  -4.112  1.00  0.00     0.011 A 
ATOM     21  C   UNL     1      -2.304  -4.542  -2.289  1.00  0.00     0.011 A 
ATOM     22  C   UNL     1      -2.030  -4.046  -5.029  1.00  0.00     0.021 A 
ATOM     23  C   UNL     1      -3.140  -5.195  -3.198  1.00  0.00     0.021 A 
ATOM     24  C   UNL     1      -3.004  -4.934  -4.562  1.00  0.00     0.067 A 
BRANCH  24  25
ATOM     25  S   UNL     1      -4.052  -5.753  -5.738  1.00  0.00     0.175 S 
ATOM     26  C   UNL     1      -5.024  -4.443  -6.434  1.00  0.00     0.163 C 
ATOM     27  O   UNL     1      -3.205  -6.298  -6.766  1.00  0.00    -0.224 OA
ATOM     28  O   UNL     1      -4.965  -6.618  -4.989  1.00  0.00    -0.224 OA
ENDBRANCH  24  25
ENDBRANCH  11  19
ENDBRANCH   5   6
ENDBRANCH   3   5
ENDBRANCH   2   3
ENDBRANCH   1   2
BRANCH   1  29
ATOM     29  C   UNL     1       3.018   2.133   1.062  1.00  0.00     0.275 C 
BRANCH  29  30
ATOM     30  O   UNL     1       2.012   2.773   1.956  1.00  0.00    -0.458 OA
BRANCH  30  31
ATOM     31  C   UNL     1       1.229   2.278   2.967  1.00  0.00     0.338 C 
ATOM     32  O   UNL     1       1.295   1.126   3.369  1.00  0.00    -0.246 OA
BRANCH  31  33
ATOM     33  C   UNL     1       0.296   3.374   3.601  1.00  0.00     0.060 A 
ATOM     34  C   UNL     1      -0.513   3.279   4.766  1.00  0.00     0.016 A 
ATOM     35  C   UNL     1       0.295   4.645   3.109  1.00  0.00     0.016 A 
ATOM     36  C   UNL     1      -1.149   4.465   5.500  1.00  0.00     0.010 A 
ATOM     37  C   UNL     1      -0.349   5.729   3.843  1.00  0.00     0.010 A 
ATOM     38  C   UNL     1      -1.047   5.818   5.096  1.00  0.00    -0.014 A 
BRANCH  38  39
ATOM     39  C   UNL     1      -0.737   7.213   6.163  1.00  0.00     0.031 A 
ATOM     40  C   UNL     1       0.730   6.989   6.456  1.00  0.00     0.074 A 
ATOM     41  C   UNL     1      -1.140   8.570   6.548  1.00  0.00     0.049 A 
ATOM     42  N   UNL     1       1.429   6.601   5.424  1.00  0.00    -0.248 NA
ATOM     43  C   UNL     1       1.575   7.679   7.416  1.00  0.00     0.031 C 
ATOM     44  C   UNL     1      -2.351   9.382   6.213  1.00  0.00     0.029 A 
ATOM     45  N   UNL     1      -0.438   9.660   7.282  1.00  0.00    -0.354 N 
ATOM     46  C   UNL     1       2.114   7.737   5.172  1.00  0.00     0.074 A 
ATOM     47  C   UNL     1       2.484   8.159   6.544  1.00  0.00     0.031 C 
ATOM     48  C   UNL     1      -2.324  10.671   6.721  1.00  0.00     0.029 A 
ATOM     49  C   UNL     1      -1.092  10.975   7.470  1.00  0.00     0.049 A 
ATOM     50  H   UNL     1       0.465   9.505   7.643  1.00  0.00     0.167 HD
ATOM     51  C   UNL     1       1.949   8.523   4.051  1.00  0.00     0.031 A 
ATOM     52  C   UNL     1      -0.561  12.174   8.059  1.00  0.00     0.031 A 
ATOM     53  C   UNL     1       2.918   9.540   3.951  1.00  0.00     0.049 A 
ATOM     54  C   UNL     1       0.523  12.299   7.065  1.00  0.00     0.074 A 
ATOM     55  C   UNL     1       4.152   9.797   4.497  1.00  0.00     0.029 A 
ATOM     56  N   UNL     1       2.614  10.640   3.198  1.00  0.00    -0.354 N 
ATOM     57  N   UNL     1       0.435  13.034   5.997  1.00  0.00    -0.248 NA
ATOM     58  C   UNL     1       1.865  11.903   7.505  1.00  0.00     0.031 C 
ATOM     59  C   UNL     1       4.154  11.219   4.627  1.00  0.00     0.029 A 
ATOM     60  C   UNL     1       2.980  11.680   4.010  1.00  0.00     0.049 A 
ATOM     61  H   UNL     1       2.227  10.676   2.294  1.00  0.00     0.167 HD
ATOM     62  C   UNL     1       1.705  12.976   5.498  1.00  0.00     0.074 A 
ATOM     63  C   UNL     1       2.549  12.614   6.609  1.00  0.00     0.031 C 
ATOM     64  C   UNL     1       1.933  12.655   4.207  1.00  0.00     0.031 A 
BRANCH  51  65
ATOM     65  C   UNL     1       0.849   8.453   2.924  1.00  0.00    -0.014 A 
ATOM     66  C   UNL     1      -0.570   8.584   3.092  1.00  0.00     0.010 A 
ATOM     67  C   UNL     1       1.257   8.214   1.604  1.00  0.00     0.010 A 
ATOM     68  C   UNL     1      -1.510   8.211   2.090  1.00  0.00     0.020 A 
ATOM     69  C   UNL     1       0.333   7.913   0.579  1.00  0.00     0.020 A 
ATOM     70  C   UNL     1      -1.035   7.816   0.848  1.00  0.00     0.054 A 
BRANCH  70  71
ATOM     71  S   UNL     1      -2.122   7.040  -0.397  1.00  0.00     0.124 S 
ATOM     72  O   UNL     1      -1.774   5.625  -0.253  1.00  0.00    -0.237 OA
ATOM     73  O   UNL     1      -3.475   7.379   0.033  1.00  0.00    -0.237 OA
ATOM     74  O   UNL     1      -1.681   7.652  -1.647  1.00  0.00    -0.744 OA
ENDBRANCH  70  71
ENDBRANCH  51  65
BRANCH  52  75
ATOM     75  C   UNL     1      -0.424  13.757   8.733  1.00  0.00    -0.014 A 
ATOM     76  C   UNL     1      -1.329  14.566   9.445  1.00  0.00     0.010 A 
ATOM     77  C   UNL     1       0.879  14.431   8.729  1.00  0.00     0.010 A 
ATOM     78  C   UNL     1      -0.944  15.859  10.070  1.00  0.00     0.020 A 
ATOM     79  C   UNL     1       1.274  15.671   9.295  1.00  0.00     0.020 A 
ATOM     80  C   UNL     1       0.354  16.397   9.993  1.00  0.00     0.054 A 
BRANCH  80  81
ATOM     81  S   UNL     1       0.936  17.927  10.834  1.00  0.00     0.124 S 
ATOM     82  O   UNL     1       0.507  18.988   9.928  1.00  0.00    -0.237 OA
ATOM     83  O   UNL     1       0.253  17.880  12.123  1.00  0.00    -0.237 OA
ATOM     84  O   UNL     1       2.389  17.749  10.919  1.00  0.00    -0.744 OA
ENDBRANCH  80  81
ENDBRANCH  52  75
BRANCH  64  85
ATOM     85  C   UNL     1       0.689  12.811   3.352  1.00  0.00    -0.014 A 
ATOM     86  C   UNL     1       0.469  14.008   2.668  1.00  0.00     0.010 A 
ATOM     87  C   UNL     1      -0.366  11.866   3.387  1.00  0.00     0.010 A 
ATOM     88  C   UNL     1      -0.754  14.245   2.026  1.00  0.00     0.020 A 
ATOM     89  C   UNL     1      -1.581  12.079   2.720  1.00  0.00     0.020 A 
ATOM     90  C   UNL     1      -1.766  13.278   2.039  1.00  0.00     0.054 A 
BRANCH  90  91
ATOM     91  S   UNL     1      -3.365  13.674   1.268  1.00  0.00     0.124 S 
ATOM     92  O   UNL     1      -3.558  15.080   1.623  1.00  0.00    -0.237 OA
ATOM     93  O   UNL     1      -3.094  13.430  -0.145  1.00  0.00    -0.237 OA
ATOM     94  O   UNL     1      -4.302  12.755   1.909  1.00  0.00    -0.744 OA
ENDBRANCH  90  91
ENDBRANCH  64  85
ENDBRANCH  38  39
ENDBRANCH  31  33
ENDBRANCH  30  31
ENDBRANCH  29  30
ENDBRANCH   1  29
TORSDOF 18
