REMARK SMILES C#CCN(CC(=O)OCCOC(=O)c1ccc(-c2c3nc(c(-c4ccc(S(=O)(=O)[O-])cc4)c4ccc([nH]4)c(-c4ccc(S(=O)(=O)[O-])cc4)c4nc(c(-c5ccc(S(=O)(=O)[O-])cc5)c5ccc2[nH]5)C=C4)C=C3)cc1)C(=O)[C@H]1C[NH2+]C[C@H]1C
REMARK SMILES IDX 9 1 8 2 6 3 7 4 5 5 4 6 3 7 2 8 1 9 74 10 75 11 76 12 77 13
REMARK SMILES IDX 80 14 78 15 79 16 81 17 10 20 11 21 12 22 13 23 14 24 15 25
REMARK SMILES IDX 73 26 16 27 72 28 17 29 18 30 19 31 66 32 20 33 71 34 65 35
REMARK SMILES IDX 67 36 21 37 70 38 64 39 63 40 22 42 52 43 33 44 51 45 34 46
REMARK SMILES IDX 37 47 50 48 68 49 35 50 36 51 49 53 69 54 38 55 23 56 24 57
REMARK SMILES IDX 32 58 25 59 31 60 26 61 27 62 28 63 29 64 30 65 53 66 54 67
REMARK SMILES IDX 62 68 55 69 61 70 56 71 57 72 58 73 59 74 60 75 39 76 40 77
REMARK SMILES IDX 48 78 41 79 47 80 42 81 43 82 44 83 45 84 46 85
REMARK H PARENT 78 18 78 19 67 41 37 52
REMARK Flexibility Score: inf
ROOT
ATOM      1  C   UNL     1      -6.514   0.865  -1.856  1.00  0.00     0.274 C 
ENDROOT
BRANCH   1   2
ATOM      2  O   UNL     1      -5.075   0.868  -1.735  1.00  0.00    -0.461 OA
BRANCH   2   3
ATOM      3  C   UNL     1      -4.445  -0.329  -1.919  1.00  0.00     0.325 C 
ATOM      4  O   UNL     1      -5.006  -1.412  -2.013  1.00  0.00    -0.250 OA
BRANCH   3   5
ATOM      5  C   UNL     1      -2.948  -0.152  -2.196  1.00  0.00     0.243 C 
BRANCH   5   6
ATOM      6  N   UNL     1      -2.281   0.735  -1.251  1.00  0.00    -0.320 N 
BRANCH   6   7
ATOM      7  C   UNL     1      -1.845   0.097  -0.015  1.00  0.00     0.210 C 
BRANCH   7   8
ATOM      8  C   UNL     1      -0.325   0.097  -0.015  1.00  0.00    -0.085 C 
ATOM      9  C   UNL     1       0.979   0.097  -0.015  1.00  0.00     0.006 C 
ENDBRANCH   7   8
ENDBRANCH   6   7
BRANCH   6  10
ATOM     10  C   UNL     1      -2.071   2.108  -1.397  1.00  0.00     0.233 C 
ATOM     11  O   UNL     1      -1.840   2.808  -0.409  1.00  0.00    -0.274 OA
BRANCH  10  12
ATOM     12  C   UNL     1      -2.085   2.699  -2.815  1.00  0.00     0.142 C 
ATOM     13  C   UNL     1      -3.503   2.970  -3.274  1.00  0.00     0.274 C 
ATOM     14  C   UNL     1      -1.370   4.036  -3.131  1.00  0.00     0.059 C 
ATOM     15  N   UNL     1      -3.384   3.893  -4.404  1.00  0.00    -0.345 N 
ATOM     16  C   UNL     1      -2.386   4.854  -3.942  1.00  0.00     0.264 C 
ATOM     17  C   UNL     1      -0.829   4.872  -1.983  1.00  0.00     0.015 C 
ATOM     18  H   UNL     1      -4.274   4.352  -4.596  1.00  0.00     0.346 HD
ATOM     19  H   UNL     1      -3.122   3.429  -5.274  1.00  0.00     0.346 HD
ENDBRANCH  10  12
ENDBRANCH   6  10
ENDBRANCH   5   6
ENDBRANCH   3   5
ENDBRANCH   2   3
ENDBRANCH   1   2
BRANCH   1  20
ATOM     20  C   UNL     1      -6.973   1.861  -2.937  1.00  0.00     0.275 C 
BRANCH  20  21
ATOM     21  O   UNL     1      -6.226   1.799  -4.167  1.00  0.00    -0.458 OA
BRANCH  21  22
ATOM     22  C   UNL     1      -6.167   0.607  -4.801  1.00  0.00     0.338 C 
ATOM     23  O   UNL     1      -6.809  -0.387  -4.538  1.00  0.00    -0.246 OA
BRANCH  22  24
ATOM     24  C   UNL     1      -5.015   0.638  -5.733  1.00  0.00     0.060 A 
ATOM     25  C   UNL     1      -4.022  -0.334  -5.580  1.00  0.00     0.016 A 
ATOM     26  C   UNL     1      -4.915   1.588  -6.752  1.00  0.00     0.016 A 
ATOM     27  C   UNL     1      -2.940  -0.379  -6.461  1.00  0.00     0.010 A 
ATOM     28  C   UNL     1      -3.881   1.485  -7.693  1.00  0.00     0.010 A 
ATOM     29  C   UNL     1      -2.919   0.466  -7.585  1.00  0.00    -0.014 A 
BRANCH  29  30
ATOM     30  C   UNL     1      -2.139   0.056  -8.786  1.00  0.00     0.031 A 
ATOM     31  C   UNL     1      -0.979   0.837  -9.328  1.00  0.00     0.074 A 
ATOM     32  C   UNL     1      -2.572  -1.044  -9.440  1.00  0.00     0.049 A 
ATOM     33  N   UNL     1      -0.303   0.630 -10.431  1.00  0.00    -0.248 NA
ATOM     34  C   UNL     1      -0.513   1.988  -8.543  1.00  0.00     0.031 C 
ATOM     35  C   UNL     1      -3.697  -1.887  -9.015  1.00  0.00     0.029 A 
ATOM     36  N   UNL     1      -2.140  -1.638 -10.598  1.00  0.00    -0.354 N 
ATOM     37  C   UNL     1       0.665   1.625 -10.483  1.00  0.00     0.074 A 
ATOM     38  C   UNL     1       0.483   2.442  -9.299  1.00  0.00     0.031 C 
ATOM     39  C   UNL     1      -3.854  -2.891  -9.885  1.00  0.00     0.029 A 
ATOM     40  C   UNL     1      -2.898  -2.723 -10.970  1.00  0.00     0.049 A 
ATOM     41  H   UNL     1      -1.363  -1.319 -11.112  1.00  0.00     0.167 HD
ATOM     42  C   UNL     1       1.610   1.834 -11.434  1.00  0.00     0.031 A 
ATOM     43  C   UNL     1      -2.876  -3.481 -12.080  1.00  0.00     0.031 A 
ATOM     44  C   UNL     1       1.767   1.030 -12.623  1.00  0.00     0.049 A 
ATOM     45  C   UNL     1      -1.880  -3.174 -13.151  1.00  0.00     0.074 A 
ATOM     46  C   UNL     1       2.715   1.154 -13.626  1.00  0.00     0.029 A 
ATOM     47  N   UNL     1       0.950  -0.032 -12.982  1.00  0.00    -0.354 N 
ATOM     48  N   UNL     1      -0.961  -2.240 -13.168  1.00  0.00    -0.248 NA
ATOM     49  C   UNL     1      -1.921  -4.014 -14.354  1.00  0.00     0.031 C 
ATOM     50  C   UNL     1       2.440   0.201 -14.614  1.00  0.00     0.029 A 
ATOM     51  C   UNL     1       1.351  -0.550 -14.204  1.00  0.00     0.049 A 
ATOM     52  H   UNL     1       0.196  -0.370 -12.446  1.00  0.00     0.167 HD
ATOM     53  C   UNL     1      -0.306  -2.384 -14.383  1.00  0.00     0.074 A 
ATOM     54  C   UNL     1      -0.924  -3.505 -15.064  1.00  0.00     0.031 C 
ATOM     55  C   UNL     1       0.716  -1.650 -14.885  1.00  0.00     0.031 A 
BRANCH  42  56
ATOM     56  C   UNL     1       2.543   3.004 -11.255  1.00  0.00    -0.014 A 
ATOM     57  C   UNL     1       3.602   2.954 -10.332  1.00  0.00     0.010 A 
ATOM     58  C   UNL     1       2.409   4.136 -12.080  1.00  0.00     0.010 A 
ATOM     59  C   UNL     1       4.492   4.027 -10.216  1.00  0.00     0.020 A 
ATOM     60  C   UNL     1       3.307   5.204 -11.980  1.00  0.00     0.020 A 
ATOM     61  C   UNL     1       4.335   5.148 -11.037  1.00  0.00     0.054 A 
BRANCH  61  62
ATOM     62  S   UNL     1       5.515   6.518 -10.882  1.00  0.00     0.124 S 
ATOM     63  O   UNL     1       5.078   7.150  -9.640  1.00  0.00    -0.237 OA
ATOM     64  O   UNL     1       6.802   5.830 -10.817  1.00  0.00    -0.237 OA
ATOM     65  O   UNL     1       5.294   7.306 -12.093  1.00  0.00    -0.744 OA
ENDBRANCH  61  62
ENDBRANCH  42  56
BRANCH  43  66
ATOM     66  C   UNL     1      -3.874  -4.571 -12.233  1.00  0.00    -0.014 A 
ATOM     67  C   UNL     1      -3.491  -5.913 -12.089  1.00  0.00     0.010 A 
ATOM     68  C   UNL     1      -5.230  -4.259 -12.449  1.00  0.00     0.010 A 
ATOM     69  C   UNL     1      -4.448  -6.929 -12.157  1.00  0.00     0.020 A 
ATOM     70  C   UNL     1      -6.192  -5.270 -12.492  1.00  0.00     0.020 A 
ATOM     71  C   UNL     1      -5.793  -6.600 -12.353  1.00  0.00     0.054 A 
BRANCH  71  72
ATOM     72  S   UNL     1      -7.031  -7.926 -12.355  1.00  0.00     0.124 S 
ATOM     73  O   UNL     1      -6.878  -8.479 -13.697  1.00  0.00    -0.237 OA
ATOM     74  O   UNL     1      -6.582  -8.783 -11.261  1.00  0.00    -0.237 OA
ATOM     75  O   UNL     1      -8.286  -7.219 -12.106  1.00  0.00    -0.744 OA
ENDBRANCH  71  72
ENDBRANCH  43  66
BRANCH  55  76
ATOM     76  C   UNL     1       1.237  -2.051 -16.236  1.00  0.00    -0.014 A 
ATOM     77  C   UNL     1       0.520  -1.743 -17.406  1.00  0.00     0.010 A 
ATOM     78  C   UNL     1       2.466  -2.725 -16.339  1.00  0.00     0.010 A 
ATOM     79  C   UNL     1       1.012  -2.128 -18.656  1.00  0.00     0.020 A 
ATOM     80  C   UNL     1       2.971  -3.093 -17.588  1.00  0.00     0.020 A 
ATOM     81  C   UNL     1       2.233  -2.803 -18.738  1.00  0.00     0.054 A 
BRANCH  81  82
ATOM     82  S   UNL     1       2.873  -3.260 -20.374  1.00  0.00     0.124 S 
ATOM     83  O   UNL     1       2.057  -4.426 -20.703  1.00  0.00    -0.237 OA
ATOM     84  O   UNL     1       2.609  -2.063 -21.169  1.00  0.00    -0.237 OA
ATOM     85  O   UNL     1       4.286  -3.537 -20.126  1.00  0.00    -0.744 OA
ENDBRANCH  81  82
ENDBRANCH  55  76
ENDBRANCH  29  30
ENDBRANCH  22  24
ENDBRANCH  21  22
ENDBRANCH  20  21
ENDBRANCH   1  20
TORSDOF 19
