REMARK SMILES C[C@@H](C(=O)OCCOC(=O)c1ccc(-c2c3nc(c(-c4ccc(S(=O)(=O)[O-])cc4)c4ccc([nH]4)c(-c4ccc(S(=O)(=O)[O-])cc4)c4nc(c(-c5ccc(S(=O)(=O)[O-])cc5)c5ccc2[nH]5)C=C4)C=C3)cc1)S(=O)(=O)N[C@@]12C[C@@H]3C[C@@](C)(C[C@@](C)(C3)C1)C2
REMARK SMILES IDX 6 1 5 2 3 3 4 4 2 5 1 6 71 7 72 8 73 9 74 10 75 12 76 13
REMARK SMILES IDX 85 14 86 15 77 16 82 17 79 18 84 19 78 20 81 21 83 22 80 23
REMARK SMILES IDX 7 24 8 25 9 26 10 27 11 28 12 29 70 30 13 31 69 32 14 33
REMARK SMILES IDX 15 34 16 35 63 36 17 37 68 38 62 39 64 40 18 41 67 42 61 43
REMARK SMILES IDX 60 44 19 46 49 47 30 48 48 49 31 50 34 51 47 52 65 53 32 54
REMARK SMILES IDX 33 55 46 57 66 58 35 59 20 60 21 61 29 62 22 63 28 64 23 65
REMARK SMILES IDX 24 66 25 67 26 68 27 69 50 70 51 71 59 72 52 73 58 74 53 75
REMARK SMILES IDX 54 76 55 77 56 78 57 79 36 80 37 81 45 82 38 83 44 84 39 85
REMARK SMILES IDX 40 86 41 87 42 88 43 89
REMARK H PARENT 74 11 64 45 34 56
REMARK Flexibility Score: inf
ROOT
ATOM      1  C   UNL     1       2.622   3.440   1.553  1.00  0.00     0.274 C 
ENDROOT
BRANCH   1   2
ATOM      2  O   UNL     1       2.044   2.155   1.222  1.00  0.00    -0.461 OA
BRANCH   2   3
ATOM      3  C   UNL     1       1.017   1.751   2.030  1.00  0.00     0.325 C 
ATOM      4  O   UNL     1       0.525   2.467   2.894  1.00  0.00    -0.251 OA
BRANCH   3   5
ATOM      5  C   UNL     1       0.672   0.298   1.872  1.00  0.00     0.230 C 
ATOM      6  C   UNL     1       1.673  -0.568   1.125  1.00  0.00     0.039 C 
BRANCH   5   7
ATOM      7  S   UNL     1      -1.042   0.058   1.435  1.00  0.00     0.225 S 
ATOM      8  O   UNL     1      -1.270  -1.366   1.285  1.00  0.00    -0.212 OA
ATOM      9  O   UNL     1      -1.848   0.779   2.393  1.00  0.00    -0.212 OA
BRANCH   7  10
ATOM     10  N   UNL     1      -1.374   0.821  -0.011  1.00  0.00    -0.208 NA
ATOM     11  H   UNL     1      -0.857   1.699   0.040  1.00  0.00     0.141 HD
BRANCH  10  12
ATOM     12  C   UNL     1      -1.143   0.336  -1.394  1.00  0.00     0.034 C 
ATOM     13  C   UNL     1      -2.260   0.891  -2.326  1.00  0.00     0.027 C 
ATOM     14  C   UNL     1       0.168   0.943  -1.915  1.00  0.00     0.030 C 
ATOM     15  C   UNL     1      -1.159  -1.193  -1.516  1.00  0.00     0.030 C 
ATOM     16  C   UNL     1      -2.005   0.473  -3.791  1.00  0.00    -0.008 C 
ATOM     17  C   UNL     1       0.479   0.458  -3.344  1.00  0.00    -0.030 C 
ATOM     18  C   UNL     1      -0.911  -1.646  -2.966  1.00  0.00    -0.030 C 
ATOM     19  C   UNL     1      -0.636   0.993  -4.267  1.00  0.00     0.010 C 
ATOM     20  C   UNL     1      -2.005  -1.058  -3.882  1.00  0.00     0.010 C 
ATOM     21  C   UNL     1       0.468  -1.090  -3.388  1.00  0.00     0.013 C 
ATOM     22  C   UNL     1       1.852   0.984  -3.770  1.00  0.00     0.011 C 
ATOM     23  C   UNL     1      -0.934  -3.176  -3.039  1.00  0.00     0.011 C 
ENDBRANCH  10  12
ENDBRANCH   7  10
ENDBRANCH   5   7
ENDBRANCH   3   5
ENDBRANCH   2   3
ENDBRANCH   1   2
BRANCH   1  24
ATOM     24  C   UNL     1       2.107   4.553   0.643  1.00  0.00     0.275 C 
BRANCH  24  25
ATOM     25  O   UNL     1       0.678   4.619   0.731  1.00  0.00    -0.458 OA
BRANCH  25  26
ATOM     26  C   UNL     1       0.017   4.771  -0.439  1.00  0.00     0.338 C 
ATOM     27  O   UNL     1       0.521   4.971  -1.536  1.00  0.00    -0.246 OA
BRANCH  26  28
ATOM     28  C   UNL     1      -1.441   4.618  -0.231  1.00  0.00     0.060 A 
ATOM     29  C   UNL     1      -1.944   3.820   0.794  1.00  0.00     0.016 A 
ATOM     30  C   UNL     1      -2.327   5.197  -1.141  1.00  0.00     0.016 A 
ATOM     31  C   UNL     1      -3.305   3.509   0.840  1.00  0.00     0.010 A 
ATOM     32  C   UNL     1      -3.706   4.975  -1.020  1.00  0.00     0.010 A 
ATOM     33  C   UNL     1      -4.216   4.093  -0.051  1.00  0.00    -0.014 A 
BRANCH  33  34
ATOM     34  C   UNL     1      -5.678   3.780   0.021  1.00  0.00     0.031 A 
ATOM     35  C   UNL     1      -6.438   3.338  -1.211  1.00  0.00     0.074 A 
ATOM     36  C   UNL     1      -6.348   3.887   1.189  1.00  0.00     0.049 A 
ATOM     37  N   UNL     1      -7.731   3.231  -1.391  1.00  0.00    -0.248 NA
ATOM     38  C   UNL     1      -5.644   2.982  -2.399  1.00  0.00     0.031 C 
ATOM     39  C   UNL     1      -5.762   4.249   2.482  1.00  0.00     0.029 A 
ATOM     40  N   UNL     1      -7.678   3.690   1.480  1.00  0.00    -0.354 N 
ATOM     41  C   UNL     1      -7.907   2.863  -2.721  1.00  0.00     0.074 A 
ATOM     42  C   UNL     1      -6.587   2.754  -3.304  1.00  0.00     0.031 C 
ATOM     43  C   UNL     1      -6.705   4.186   3.431  1.00  0.00     0.029 A 
ATOM     44  C   UNL     1      -7.989   3.904   2.803  1.00  0.00     0.049 A 
ATOM     45  H   UNL     1      -8.343   3.421   0.807  1.00  0.00     0.167 HD
ATOM     46  C   UNL     1      -9.061   2.651  -3.401  1.00  0.00     0.031 A 
ATOM     47  C   UNL     1      -9.173   3.937   3.446  1.00  0.00     0.031 A 
ATOM     48  C   UNL     1     -10.375   2.716  -2.815  1.00  0.00     0.049 A 
ATOM     49  C   UNL     1     -10.440   3.749   2.665  1.00  0.00     0.074 A 
ATOM     50  C   UNL     1     -11.600   2.510  -3.427  1.00  0.00     0.029 A 
ATOM     51  N   UNL     1     -10.638   2.993  -1.483  1.00  0.00    -0.354 N 
ATOM     52  N   UNL     1     -10.588   3.490   1.389  1.00  0.00    -0.248 NA
ATOM     53  C   UNL     1     -11.700   3.891   3.406  1.00  0.00     0.031 C 
ATOM     54  C   UNL     1     -12.606   2.705  -2.475  1.00  0.00     0.029 A 
ATOM     55  C   UNL     1     -12.005   2.982  -1.259  1.00  0.00     0.049 A 
ATOM     56  H   UNL     1      -9.954   3.170  -0.797  1.00  0.00     0.167 HD
ATOM     57  C   UNL     1     -11.960   3.437   1.174  1.00  0.00     0.074 A 
ATOM     58  C   UNL     1     -12.596   3.667   2.455  1.00  0.00     0.031 C 
ATOM     59  C   UNL     1     -12.630   3.226   0.015  1.00  0.00     0.031 A 
BRANCH  46  60
ATOM     60  C   UNL     1      -8.966   2.378  -4.880  1.00  0.00    -0.014 A 
ATOM     61  C   UNL     1      -8.549   1.132  -5.377  1.00  0.00     0.010 A 
ATOM     62  C   UNL     1      -9.370   3.377  -5.787  1.00  0.00     0.010 A 
ATOM     63  C   UNL     1      -8.509   0.900  -6.756  1.00  0.00     0.020 A 
ATOM     64  C   UNL     1      -9.353   3.141  -7.164  1.00  0.00     0.020 A 
ATOM     65  C   UNL     1      -8.908   1.907  -7.641  1.00  0.00     0.054 A 
BRANCH  65  66
ATOM     66  S   UNL     1      -8.876   1.572  -9.424  1.00  0.00     0.124 S 
ATOM     67  O   UNL     1      -7.446   1.635  -9.715  1.00  0.00    -0.237 OA
ATOM     68  O   UNL     1      -9.476   0.243  -9.513  1.00  0.00    -0.237 OA
ATOM     69  O   UNL     1      -9.677   2.652  -9.995  1.00  0.00    -0.744 OA
ENDBRANCH  65  66
ENDBRANCH  46  60
BRANCH  47  70
ATOM     70  C   UNL     1      -9.210   4.246   4.902  1.00  0.00    -0.014 A 
ATOM     71  C   UNL     1      -9.558   3.256   5.836  1.00  0.00     0.010 A 
ATOM     72  C   UNL     1      -8.858   5.529   5.361  1.00  0.00     0.010 A 
ATOM     73  C   UNL     1      -9.550   3.544   7.205  1.00  0.00     0.020 A 
ATOM     74  C   UNL     1      -8.818   5.811   6.728  1.00  0.00     0.020 A 
ATOM     75  C   UNL     1      -9.174   4.818   7.642  1.00  0.00     0.054 A 
BRANCH  75  76
ATOM     76  S   UNL     1      -9.088   5.153   9.423  1.00  0.00     0.124 S 
ATOM     77  O   UNL     1     -10.490   5.385   9.755  1.00  0.00    -0.237 OA
ATOM     78  O   UNL     1      -8.507   3.922   9.954  1.00  0.00    -0.237 OA
ATOM     79  O   UNL     1      -8.220   6.326   9.505  1.00  0.00    -0.744 OA
ENDBRANCH  75  76
ENDBRANCH  47  70
BRANCH  59  80
ATOM     80  C   UNL     1     -14.131   3.213   0.085  1.00  0.00    -0.014 A 
ATOM     81  C   UNL     1     -14.859   4.407   0.228  1.00  0.00     0.010 A 
ATOM     82  C   UNL     1     -14.823   1.993  -0.019  1.00  0.00     0.010 A 
ATOM     83  C   UNL     1     -16.254   4.378   0.300  1.00  0.00     0.020 A 
ATOM     84  C   UNL     1     -16.218   1.962   0.030  1.00  0.00     0.020 A 
ATOM     85  C   UNL     1     -16.925   3.154   0.205  1.00  0.00     0.054 A 
BRANCH  85  86
ATOM     86  S   UNL     1     -18.738   3.141   0.275  1.00  0.00     0.124 S 
ATOM     87  O   UNL     1     -18.988   3.331   1.701  1.00  0.00    -0.237 OA
ATOM     88  O   UNL     1     -19.102   4.267  -0.582  1.00  0.00    -0.237 OA
ATOM     89  O   UNL     1     -19.094   1.825  -0.251  1.00  0.00    -0.744 OA
ENDBRANCH  85  86
ENDBRANCH  59  80
ENDBRANCH  33  34
ENDBRANCH  26  28
ENDBRANCH  25  26
ENDBRANCH  24  25
ENDBRANCH   1  24
TORSDOF 17
