REMARK SMILES O=C(C[C@@H](C(=O)OCCOC(=O)c1ccc(-c2c3nc(c(-c4ccc(S(=O)(=O)[O-])cc4)c4ccc([nH]4)c(-c4ccc(S(=O)(=O)[O-])cc4)c4nc(c(-c5ccc(S(=O)(=O)[O-])cc5)c5ccc2[nH]5)C=C4)C=C3)cc1)[NH+]1CCN(c2cccc(Cl)c2)CC1)c1ccc(F)cc1
REMARK SMILES IDX 8 1 7 2 5 3 6 4 4 5 3 6 2 7 1 8 86 9 87 10 92 11 88 12 91 13
REMARK SMILES IDX 89 14 90 15 73 16 74 17 85 18 75 20 84 21 76 22 77 23 78 24
REMARK SMILES IDX 83 25 79 26 81 27 80 28 82 29 9 30 10 31 11 32 12 33 13 34
REMARK SMILES IDX 14 35 72 36 15 37 71 38 16 39 17 40 18 41 65 42 19 43 70 44
REMARK SMILES IDX 64 45 66 46 20 47 69 48 63 49 62 50 21 52 51 53 32 54 50 55
REMARK SMILES IDX 33 56 36 57 49 58 67 59 34 60 35 61 48 63 68 64 37 65 22 66
REMARK SMILES IDX 23 67 31 68 24 69 30 70 25 71 26 72 27 73 28 74 29 75 52 76
REMARK SMILES IDX 53 77 61 78 54 79 60 80 55 81 56 82 57 83 58 84 59 85 38 86
REMARK SMILES IDX 39 87 47 88 40 89 46 90 41 91 42 92 43 93 44 94 45 95
REMARK H PARENT 73 19 66 51 36 62
REMARK Flexibility Score: inf
ROOT
ATOM      1  C   UNL     1       6.386   0.782   2.321  1.00  0.00     0.274 C 
ENDROOT
BRANCH   1   2
ATOM      2  O   UNL     1       5.198   1.426   1.779  1.00  0.00    -0.458 OA
BRANCH   2   3
ATOM      3  C   UNL     1       4.521   0.890   0.736  1.00  0.00     0.365 C 
ATOM      4  O   UNL     1       4.729  -0.216   0.256  1.00  0.00    -0.245 OA
BRANCH   3   5
ATOM      5  C   UNL     1       3.442   1.848   0.191  1.00  0.00     0.303 C 
BRANCH   5   6
ATOM      6  C   UNL     1       2.312   0.931  -0.361  1.00  0.00     0.158 C 
BRANCH   6   7
ATOM      7  C   UNL     1       1.473   0.135   0.649  1.00  0.00     0.169 C 
ATOM      8  O   UNL     1       0.246   0.084   0.577  1.00  0.00    -0.294 OA
BRANCH   7   9
ATOM      9  C   UNL     1       2.120  -0.726   1.669  1.00  0.00     0.018 A 
ATOM     10  C   UNL     1       2.655  -0.154   2.828  1.00  0.00     0.015 A 
ATOM     11  C   UNL     1       2.185  -2.113   1.472  1.00  0.00     0.015 A 
ATOM     12  C   UNL     1       3.355  -0.953   3.734  1.00  0.00     0.040 A 
ATOM     13  C   UNL     1       2.860  -2.913   2.400  1.00  0.00     0.040 A 
ATOM     14  C   UNL     1       3.460  -2.322   3.508  1.00  0.00     0.123 A 
ATOM     15  F   UNL     1       4.146  -3.079   4.374  1.00  0.00    -0.207 F 
ENDBRANCH   7   9
ENDBRANCH   6   7
ENDBRANCH   5   6
BRANCH   5  16
ATOM     16  N   UNL     1       3.929   2.710  -0.934  1.00  0.00    -0.320 N 
ATOM     17  C   UNL     1       4.033   4.167  -0.751  1.00  0.00     0.284 C 
ATOM     18  C   UNL     1       5.166   2.269  -1.578  1.00  0.00     0.284 C 
ATOM     19  H   UNL     1       3.118   2.554  -1.532  1.00  0.00     0.348 HD
ATOM     20  C   UNL     1       5.355   4.777  -0.176  1.00  0.00     0.178 C 
ATOM     21  C   UNL     1       6.463   2.669  -0.850  1.00  0.00     0.178 C 
ATOM     22  N   UNL     1       6.588   4.110  -0.650  1.00  0.00    -0.360 N 
BRANCH  22  23
ATOM     23  C   UNL     1       7.866   4.593  -0.320  1.00  0.00     0.038 A 
ATOM     24  C   UNL     1       8.067   5.779   0.401  1.00  0.00     0.026 A 
ATOM     25  C   UNL     1       9.048   3.927  -0.717  1.00  0.00     0.046 A 
ATOM     26  C   UNL     1       9.354   6.274   0.685  1.00  0.00     0.004 A 
ATOM     27  C   UNL     1      10.330   4.425  -0.461  1.00  0.00     0.043 A 
ATOM     28  C   UNL     1      10.489   5.606   0.238  1.00  0.00     0.020 A 
ATOM     29  Cl  UNL     1      11.711   3.563  -1.027  1.00  0.00    -0.084 Cl
ENDBRANCH  22  23
ENDBRANCH   5  16
ENDBRANCH   3   5
ENDBRANCH   2   3
ENDBRANCH   1   2
BRANCH   1  30
ATOM     30  C   UNL     1       7.009  -0.441   1.611  1.00  0.00     0.275 C 
BRANCH  30  31
ATOM     31  O   UNL     1       7.494  -0.098   0.295  1.00  0.00    -0.458 OA
BRANCH  31  32
ATOM     32  C   UNL     1       7.631  -1.139  -0.580  1.00  0.00     0.338 C 
ATOM     33  O   UNL     1       7.414  -2.313  -0.377  1.00  0.00    -0.246 OA
BRANCH  32  34
ATOM     34  C   UNL     1       8.168  -0.580  -1.842  1.00  0.00     0.060 A 
ATOM     35  C   UNL     1       7.312   0.082  -2.721  1.00  0.00     0.016 A 
ATOM     36  C   UNL     1       9.530  -0.636  -2.119  1.00  0.00     0.016 A 
ATOM     37  C   UNL     1       7.820   0.897  -3.733  1.00  0.00     0.010 A 
ATOM     38  C   UNL     1      10.037   0.096  -3.202  1.00  0.00     0.010 A 
ATOM     39  C   UNL     1       9.193   0.920  -3.974  1.00  0.00    -0.014 A 
BRANCH  39  40
ATOM     40  C   UNL     1       9.723   1.630  -5.161  1.00  0.00     0.031 A 
ATOM     41  C   UNL     1       9.841   0.849  -6.428  1.00  0.00     0.074 A 
ATOM     42  C   UNL     1      10.054   2.935  -5.139  1.00  0.00     0.049 A 
ATOM     43  N   UNL     1      10.478   1.147  -7.523  1.00  0.00    -0.248 NA
ATOM     44  C   UNL     1       9.093  -0.419  -6.481  1.00  0.00     0.031 C 
ATOM     45  C   UNL     1       9.705   3.876  -4.084  1.00  0.00     0.029 A 
ATOM     46  N   UNL     1      10.787   3.697  -6.017  1.00  0.00    -0.354 N 
ATOM     47  C   UNL     1      10.220   0.099  -8.393  1.00  0.00     0.074 A 
ATOM     48  C   UNL     1       9.361  -0.837  -7.708  1.00  0.00     0.031 C 
ATOM     49  C   UNL     1      10.343   5.042  -4.286  1.00  0.00     0.029 A 
ATOM     50  C   UNL     1      11.148   4.923  -5.492  1.00  0.00     0.049 A 
ATOM     51  H   UNL     1      11.028   3.401  -6.924  1.00  0.00     0.167 HD
ATOM     52  C   UNL     1      10.684  -0.061  -9.650  1.00  0.00     0.031 A 
ATOM     53  C   UNL     1      12.069   5.811  -5.918  1.00  0.00     0.031 A 
ATOM     54  C   UNL     1      11.564   0.883 -10.280  1.00  0.00     0.049 A 
ATOM     55  C   UNL     1      12.764   5.507  -7.220  1.00  0.00     0.074 A 
ATOM     56  C   UNL     1      12.152   0.815 -11.528  1.00  0.00     0.029 A 
ATOM     57  N   UNL     1      11.994   2.065  -9.691  1.00  0.00    -0.354 N 
ATOM     58  N   UNL     1      12.577   4.484  -8.023  1.00  0.00    -0.248 NA
ATOM     59  C   UNL     1      13.763   6.471  -7.693  1.00  0.00     0.031 C 
ATOM     60  C   UNL     1      12.995   1.922 -11.663  1.00  0.00     0.029 A 
ATOM     61  C   UNL     1      12.872   2.718 -10.532  1.00  0.00     0.049 A 
ATOM     62  H   UNL     1      11.714   2.390  -8.805  1.00  0.00     0.167 HD
ATOM     63  C   UNL     1      13.383   4.716  -9.127  1.00  0.00     0.074 A 
ATOM     64  C   UNL     1      14.074   5.968  -8.881  1.00  0.00     0.031 C 
ATOM     65  C   UNL     1      13.522   3.976 -10.254  1.00  0.00     0.031 A 
BRANCH  52  66
ATOM     66  C   UNL     1      10.339  -1.339 -10.355  1.00  0.00    -0.014 A 
ATOM     67  C   UNL     1       9.048  -1.594 -10.849  1.00  0.00     0.010 A 
ATOM     68  C   UNL     1      11.344  -2.309 -10.525  1.00  0.00     0.010 A 
ATOM     69  C   UNL     1       8.765  -2.805 -11.489  1.00  0.00     0.020 A 
ATOM     70  C   UNL     1      11.072  -3.508 -11.185  1.00  0.00     0.020 A 
ATOM     71  C   UNL     1       9.782  -3.752 -11.657  1.00  0.00     0.054 A 
BRANCH  71  72
ATOM     72  S   UNL     1       9.405  -5.289 -12.542  1.00  0.00     0.124 S 
ATOM     73  O   UNL     1       8.552  -5.989 -11.585  1.00  0.00    -0.237 OA
ATOM     74  O   UNL     1       8.734  -4.806 -13.746  1.00  0.00    -0.237 OA
ATOM     75  O   UNL     1      10.717  -5.893 -12.764  1.00  0.00    -0.744 OA
ENDBRANCH  71  72
ENDBRANCH  52  66
BRANCH  53  76
ATOM     76  C   UNL     1      12.444   7.002  -5.097  1.00  0.00    -0.014 A 
ATOM     77  C   UNL     1      12.221   8.313  -5.554  1.00  0.00     0.010 A 
ATOM     78  C   UNL     1      13.099   6.824  -3.862  1.00  0.00     0.010 A 
ATOM     79  C   UNL     1      12.683   9.415  -4.821  1.00  0.00     0.020 A 
ATOM     80  C   UNL     1      13.541   7.921  -3.114  1.00  0.00     0.020 A 
ATOM     81  C   UNL     1      13.349   9.211  -3.608  1.00  0.00     0.054 A 
BRANCH  81  82
ATOM     82  S   UNL     1      13.957  10.653  -2.686  1.00  0.00     0.124 S 
ATOM     83  O   UNL     1      15.041  11.128  -3.540  1.00  0.00    -0.237 OA
ATOM     84  O   UNL     1      12.776  11.511  -2.627  1.00  0.00    -0.237 OA
ATOM     85  O   UNL     1      14.373  10.091  -1.403  1.00  0.00    -0.744 OA
ENDBRANCH  81  82
ENDBRANCH  53  76
BRANCH  65  86
ATOM     86  C   UNL     1      14.390   4.540 -11.339  1.00  0.00    -0.014 A 
ATOM     87  C   UNL     1      15.790   4.550 -11.228  1.00  0.00     0.010 A 
ATOM     88  C   UNL     1      13.783   4.982 -12.529  1.00  0.00     0.010 A 
ATOM     89  C   UNL     1      16.569   5.011 -12.290  1.00  0.00     0.020 A 
ATOM     90  C   UNL     1      14.560   5.409 -13.603  1.00  0.00     0.020 A 
ATOM     91  C   UNL     1      15.950   5.429 -13.473  1.00  0.00     0.054 A 
BRANCH  91  92
ATOM     92  S   UNL     1      16.989   5.942 -14.864  1.00  0.00     0.124 S 
ATOM     93  O   UNL     1      17.482   7.239 -14.412  1.00  0.00    -0.237 OA
ATOM     94  O   UNL     1      17.986   4.876 -14.927  1.00  0.00    -0.237 OA
ATOM     95  O   UNL     1      16.061   5.986 -15.992  1.00  0.00    -0.744 OA
ENDBRANCH  91  92
ENDBRANCH  65  86
ENDBRANCH  39  40
ENDBRANCH  32  34
ENDBRANCH  31  32
ENDBRANCH  30  31
ENDBRANCH   1  30
TORSDOF 19
