REMARK SMILES CC(C)[C@H](NC(=O)[C@H](Cc1ccccc1)n1c(=O)[nH]c2ccccc2c1=O)C(=O)OCCOC(=O)c1ccc(-c2c3nc(c(-c4ccc(S(=O)(=O)[O-])cc4)c4ccc([nH]4)c(-c4ccc(S(=O)(=O)[O-])cc4)c4nc(c(-c5ccc(S(=O)(=O)[O-])cc5)c5ccc2[nH]5)C=C4)C=C3)cc1
REMARK SMILES IDX 31 1 30 2 28 3 29 4 4 5 2 6 1 7 3 8 5 9 6 10 7 12 8 13 16 14
REMARK SMILES IDX 17 15 26 16 18 17 19 18 25 19 27 20 20 21 24 23 21 24 23 25
REMARK SMILES IDX 22 26 9 27 10 28 11 29 15 30 12 31 14 32 13 33 32 34 33 35
REMARK SMILES IDX 34 36 35 37 36 38 37 39 95 40 38 41 94 42 39 43 40 44 41 45
REMARK SMILES IDX 88 46 42 47 93 48 87 49 89 50 43 51 92 52 86 53 85 54 44 56
REMARK SMILES IDX 74 57 55 58 73 59 56 60 59 61 72 62 90 63 57 64 58 65 71 67
REMARK SMILES IDX 91 68 60 69 45 70 46 71 54 72 47 73 53 74 48 75 49 76 50 77
REMARK SMILES IDX 51 78 52 79 75 80 76 81 84 82 77 83 83 84 78 85 79 86 80 87
REMARK SMILES IDX 81 88 82 89 61 90 62 91 70 92 63 93 69 94 64 95 65 96 66 97
REMARK SMILES IDX 67 98 68 99
REMARK H PARENT 5 11 19 22 89 55 59 66
REMARK Flexibility Score: inf
ROOT
ATOM      1  C   UNL     1       2.165  -1.526   7.027  1.00  0.00     0.274 C 
ENDROOT
BRANCH   1   2
ATOM      2  O   UNL     1       1.158  -1.204   6.050  1.00  0.00    -0.461 OA
BRANCH   2   3
ATOM      3  C   UNL     1       0.229  -2.173   5.801  1.00  0.00     0.329 C 
ATOM      4  O   UNL     1       0.299  -3.307   6.258  1.00  0.00    -0.250 OA
BRANCH   3   5
ATOM      5  C   UNL     1      -1.016  -1.598   5.071  1.00  0.00     0.194 C 
BRANCH   5   6
ATOM      6  C   UNL     1      -1.902  -2.569   4.257  1.00  0.00     0.017 C 
ATOM      7  C   UNL     1      -2.038  -3.989   4.821  1.00  0.00     0.010 C 
ATOM      8  C   UNL     1      -3.310  -1.993   4.054  1.00  0.00     0.010 C 
ENDBRANCH   5   6
BRANCH   5   9
ATOM      9  N   UNL     1      -0.814  -0.249   4.521  1.00  0.00    -0.341 N 
ATOM     10  C   UNL     1      -0.056   0.306   3.547  1.00  0.00     0.244 C 
ATOM     11  H   UNL     1      -1.373   0.420   4.978  1.00  0.00     0.164 HD
ATOM     12  O   UNL     1       0.235   1.488   3.777  1.00  0.00    -0.273 OA
BRANCH  10  13
ATOM     13  C   UNL     1       0.639  -0.471   2.407  1.00  0.00     0.189 C 
BRANCH  13  14
ATOM     14  N   UNL     1      -0.144  -1.518   1.732  1.00  0.00    -0.247 N 
ATOM     15  C   UNL     1      -1.347  -1.169   1.140  1.00  0.00     0.329 A 
ATOM     16  C   UNL     1       0.388  -2.811   1.688  1.00  0.00     0.264 A 
ATOM     17  O   UNL     1      -1.897  -0.079   1.264  1.00  0.00    -0.248 OA
ATOM     18  N   UNL     1      -1.990  -2.137   0.423  1.00  0.00    -0.307 N 
ATOM     19  C   UNL     1      -0.463  -3.863   1.094  1.00  0.00     0.064 A 
ATOM     20  O   UNL     1       1.488  -3.119   2.139  1.00  0.00    -0.268 OA
ATOM     21  C   UNL     1      -1.616  -3.476   0.422  1.00  0.00     0.055 A 
ATOM     22  H   UNL     1      -2.762  -1.871  -0.126  1.00  0.00     0.171 HD
ATOM     23  C   UNL     1      -0.170  -5.220   1.258  1.00  0.00     0.016 A 
ATOM     24  C   UNL     1      -2.449  -4.431  -0.161  1.00  0.00     0.027 A 
ATOM     25  C   UNL     1      -1.027  -6.181   0.719  1.00  0.00     0.001 A 
ATOM     26  C   UNL     1      -2.153  -5.787  -0.007  1.00  0.00     0.002 A 
ENDBRANCH  13  14
BRANCH  13  27
ATOM     27  C   UNL     1       1.421   0.441   1.412  1.00  0.00     0.071 C 
BRANCH  27  28
ATOM     28  C   UNL     1       0.658   1.514   0.658  1.00  0.00    -0.045 A 
ATOM     29  C   UNL     1       0.038   1.244  -0.568  1.00  0.00     0.004 A 
ATOM     30  C   UNL     1       0.527   2.802   1.200  1.00  0.00     0.004 A 
ATOM     31  C   UNL     1      -0.768   2.208  -1.183  1.00  0.00     0.000 A 
ATOM     32  C   UNL     1      -0.275   3.764   0.587  1.00  0.00     0.000 A 
ATOM     33  C   UNL     1      -0.935   3.462  -0.599  1.00  0.00     0.000 A 
ENDBRANCH  27  28
ENDBRANCH  13  27
ENDBRANCH  10  13
ENDBRANCH   5   9
ENDBRANCH   3   5
ENDBRANCH   2   3
ENDBRANCH   1   2
BRANCH   1  34
ATOM     34  C   UNL     1       1.847  -0.890   8.386  1.00  0.00     0.275 C 
BRANCH  34  35
ATOM     35  O   UNL     1       0.659  -1.444   8.988  1.00  0.00    -0.458 OA
BRANCH  35  36
ATOM     36  C   UNL     1      -0.476  -0.746   8.752  1.00  0.00     0.338 C 
ATOM     37  O   UNL     1      -0.596   0.259   8.072  1.00  0.00    -0.246 OA
BRANCH  36  38
ATOM     38  C   UNL     1      -1.641  -1.438   9.323  1.00  0.00     0.060 A 
ATOM     39  C   UNL     1      -2.440  -2.175   8.453  1.00  0.00     0.016 A 
ATOM     40  C   UNL     1      -2.053  -1.225  10.637  1.00  0.00     0.016 A 
ATOM     41  C   UNL     1      -3.692  -2.621   8.844  1.00  0.00     0.010 A 
ATOM     42  C   UNL     1      -3.280  -1.754  11.061  1.00  0.00     0.010 A 
ATOM     43  C   UNL     1      -4.122  -2.432  10.159  1.00  0.00    -0.014 A 
BRANCH  43  44
ATOM     44  C   UNL     1      -5.459  -2.934  10.561  1.00  0.00     0.031 A 
ATOM     45  C   UNL     1      -6.529  -1.971  10.990  1.00  0.00     0.074 A 
ATOM     46  C   UNL     1      -5.725  -4.254  10.494  1.00  0.00     0.049 A 
ATOM     47  N   UNL     1      -7.699  -2.224  11.517  1.00  0.00    -0.248 NA
ATOM     48  C   UNL     1      -6.249  -0.538  10.804  1.00  0.00     0.031 C 
ATOM     49  C   UNL     1      -4.799  -5.285  10.016  1.00  0.00     0.029 A 
ATOM     50  N   UNL     1      -6.859  -4.955  10.819  1.00  0.00    -0.354 N 
ATOM     51  C   UNL     1      -8.273  -0.985  11.776  1.00  0.00     0.074 A 
ATOM     52  C   UNL     1      -7.328   0.019  11.338  1.00  0.00     0.031 C 
ATOM     53  C   UNL     1      -5.410  -6.479  10.053  1.00  0.00     0.029 A 
ATOM     54  C   UNL     1      -6.735  -6.312  10.639  1.00  0.00     0.049 A 
ATOM     55  H   UNL     1      -7.682  -4.528  11.149  1.00  0.00     0.167 HD
ATOM     56  C   UNL     1      -9.474  -0.714  12.341  1.00  0.00     0.031 A 
ATOM     57  C   UNL     1      -7.570  -7.320  10.956  1.00  0.00     0.031 A 
ATOM     58  C   UNL     1     -10.417  -1.721  12.748  1.00  0.00     0.049 A 
ATOM     59  C   UNL     1      -8.868  -6.999  11.636  1.00  0.00     0.074 A 
ATOM     60  C   UNL     1     -11.656  -1.552  13.341  1.00  0.00     0.029 A 
ATOM     61  N   UNL     1     -10.230  -3.086  12.595  1.00  0.00    -0.354 N 
ATOM     62  N   UNL     1      -9.367  -5.825  11.941  1.00  0.00    -0.248 NA
ATOM     63  C   UNL     1      -9.705  -8.137  12.037  1.00  0.00     0.031 C 
ATOM     64  C   UNL     1     -12.203  -2.818  13.578  1.00  0.00     0.029 A 
ATOM     65  C   UNL     1     -11.322  -3.773  13.096  1.00  0.00     0.049 A 
ATOM     66  H   UNL     1      -9.437  -3.505  12.189  1.00  0.00     0.167 HD
ATOM     67  C   UNL     1     -10.577  -6.082  12.572  1.00  0.00     0.074 A 
ATOM     68  C   UNL     1     -10.746  -7.522  12.584  1.00  0.00     0.031 C 
ATOM     69  C   UNL     1     -11.464  -5.206  13.102  1.00  0.00     0.031 A 
BRANCH  56  70
ATOM     70  C   UNL     1      -9.806   0.728  12.604  1.00  0.00    -0.014 A 
ATOM     71  C   UNL     1     -10.201   1.593  11.570  1.00  0.00     0.010 A 
ATOM     72  C   UNL     1      -9.742   1.218  13.922  1.00  0.00     0.010 A 
ATOM     73  C   UNL     1     -10.493   2.933  11.845  1.00  0.00     0.020 A 
ATOM     74  C   UNL     1     -10.051   2.551  14.203  1.00  0.00     0.020 A 
ATOM     75  C   UNL     1     -10.408   3.405  13.159  1.00  0.00     0.054 A 
BRANCH  75  76
ATOM     76  S   UNL     1     -10.801   5.144  13.495  1.00  0.00     0.124 S 
ATOM     77  O   UNL     1      -9.589   5.819  13.038  1.00  0.00    -0.237 OA
ATOM     78  O   UNL     1     -11.992   5.371  12.680  1.00  0.00    -0.237 OA
ATOM     79  O   UNL     1     -11.025   5.175  14.938  1.00  0.00    -0.744 OA
ENDBRANCH  75  76
ENDBRANCH  56  70
BRANCH  57  80
ATOM     80  C   UNL     1      -7.159  -8.726  10.700  1.00  0.00    -0.014 A 
ATOM     81  C   UNL     1      -7.774  -9.479   9.687  1.00  0.00     0.010 A 
ATOM     82  C   UNL     1      -6.120  -9.306  11.453  1.00  0.00     0.010 A 
ATOM     83  C   UNL     1      -7.357 -10.789   9.430  1.00  0.00     0.020 A 
ATOM     84  C   UNL     1      -5.684 -10.605  11.183  1.00  0.00     0.020 A 
ATOM     85  C   UNL     1      -6.312 -11.342  10.178  1.00  0.00     0.054 A 
BRANCH  85  86
ATOM     86  S   UNL     1      -5.731 -13.015   9.782  1.00  0.00     0.124 S 
ATOM     87  O   UNL     1      -6.729 -13.847  10.447  1.00  0.00    -0.237 OA
ATOM     88  O   UNL     1      -5.767 -13.029   8.321  1.00  0.00    -0.237 OA
ATOM     89  O   UNL     1      -4.391 -13.054  10.363  1.00  0.00    -0.744 OA
ENDBRANCH  85  86
ENDBRANCH  57  80
BRANCH  69  90
ATOM     90  C   UNL     1     -12.704  -5.782  13.725  1.00  0.00    -0.014 A 
ATOM     91  C   UNL     1     -12.662  -6.361  15.005  1.00  0.00     0.010 A 
ATOM     92  C   UNL     1     -13.931  -5.693  13.044  1.00  0.00     0.010 A 
ATOM     93  C   UNL     1     -13.829  -6.861  15.588  1.00  0.00     0.020 A 
ATOM     94  C   UNL     1     -15.102  -6.176  13.632  1.00  0.00     0.020 A 
ATOM     95  C   UNL     1     -15.041  -6.767  14.896  1.00  0.00     0.054 A 
BRANCH  95  96
ATOM     96  S   UNL     1     -16.553  -7.375  15.692  1.00  0.00     0.124 S 
ATOM     97  O   UNL     1     -16.438  -8.818  15.499  1.00  0.00    -0.237 OA
ATOM     98  O   UNL     1     -16.404  -6.912  17.070  1.00  0.00    -0.237 OA
ATOM     99  O   UNL     1     -17.624  -6.728  14.937  1.00  0.00    -0.744 OA
ENDBRANCH  95  96
ENDBRANCH  69  90
ENDBRANCH  43  44
ENDBRANCH  36  38
ENDBRANCH  35  36
ENDBRANCH  34  35
ENDBRANCH   1  34
TORSDOF 20
