REMARK SMILES CC(C)C[C@H](NC(=O)[C@H](Cc1ccccc1)NC(=O)CNC(=O)CNC(=O)OCc1ccccc1)C(=O)OCCOC(=O)c1ccc(-c2c3nc(c(-c4ccc(S(=O)(=O)[O-])cc4)c4ccc([nH]4)c(-c4ccc(S(=O)(=O)[O-])cc4)c4nc(c(-c5ccc(S(=O)(=O)[O-])cc5)c5ccc2[nH]5)C=C4)C=C3)cc1
REMARK SMILES IDX 5 1 4 2 2 3 1 4 3 5 36 6 37 7 38 8 39 9 40 10 41 11 42 12
REMARK SMILES IDX 43 13 44 14 45 15 103 16 46 17 102 18 47 19 48 20 49 21
REMARK SMILES IDX 96 22 50 23 101 24 95 25 97 26 51 27 100 28 94 29 93 30
REMARK SMILES IDX 52 32 82 33 63 34 81 35 64 36 67 37 80 38 98 39 65 40 66 41
REMARK SMILES IDX 79 43 99 44 68 45 53 46 54 47 62 48 55 49 61 50 56 51 57 52
REMARK SMILES IDX 58 53 59 54 60 55 83 56 84 57 92 58 85 59 91 60 86 61 87 62
REMARK SMILES IDX 88 63 89 64 90 65 69 66 70 67 78 68 71 69 77 70 72 71 73 72
REMARK SMILES IDX 74 73 75 74 76 75 6 76 7 77 8 79 9 80 17 81 18 82 19 84
REMARK SMILES IDX 20 85 21 86 22 87 23 89 24 90 25 91 26 92 27 94 28 95 29 96
REMARK SMILES IDX 30 97 31 98 35 99 32 100 34 101 33 102 10 103 11 104 12 105
REMARK SMILES IDX 16 106 13 107 15 108 14 109
REMARK H PARENT 97 31 67 42 6 78 17 83 21 88 25 93
REMARK Flexibility Score: inf
ROOT
ATOM      1  C   UNL     1      -0.592  -4.342  -1.456  1.00  0.00     0.192 C 
ENDROOT
BRANCH   1   2
ATOM      2  C   UNL     1       0.307  -3.064  -1.667  1.00  0.00     0.040 C 
BRANCH   2   3
ATOM      3  C   UNL     1       0.730  -1.993  -0.611  1.00  0.00    -0.015 C 
ATOM      4  C   UNL     1       1.927  -2.309   0.315  1.00  0.00     0.007 C 
ATOM      5  C   UNL     1       1.187  -0.737  -1.379  1.00  0.00     0.007 C 
ENDBRANCH   2   3
ENDBRANCH   1   2
BRANCH   1   6
ATOM      6  C   UNL     1       0.185  -5.689  -1.593  1.00  0.00     0.328 C 
ATOM      7  O   UNL     1       1.039  -5.858  -2.457  1.00  0.00    -0.250 OA
BRANCH   6   8
ATOM      8  O   UNL     1      -0.194  -6.643  -0.697  1.00  0.00    -0.461 OA
BRANCH   8   9
ATOM      9  C   UNL     1       0.482  -7.917  -0.790  1.00  0.00     0.274 C 
BRANCH   9  10
ATOM     10  C   UNL     1      -0.465  -9.067  -1.135  1.00  0.00     0.275 C 
BRANCH  10  11
ATOM     11  O   UNL     1      -1.236  -8.805  -2.304  1.00  0.00    -0.458 OA
BRANCH  11  12
ATOM     12  C   UNL     1      -2.296  -7.991  -2.119  1.00  0.00     0.338 C 
ATOM     13  O   UNL     1      -2.682  -7.444  -1.099  1.00  0.00    -0.246 OA
BRANCH  12  14
ATOM     14  C   UNL     1      -2.879  -7.769  -3.423  1.00  0.00     0.060 A 
ATOM     15  C   UNL     1      -2.525  -6.605  -4.104  1.00  0.00     0.016 A 
ATOM     16  C   UNL     1      -3.683  -8.757  -3.982  1.00  0.00     0.016 A 
ATOM     17  C   UNL     1      -2.962  -6.425  -5.399  1.00  0.00     0.010 A 
ATOM     18  C   UNL     1      -4.080  -8.599  -5.295  1.00  0.00     0.010 A 
ATOM     19  C   UNL     1      -3.700  -7.445  -6.004  1.00  0.00    -0.014 A 
BRANCH  19  20
ATOM     20  C   UNL     1      -4.034  -7.360  -7.428  1.00  0.00     0.031 A 
ATOM     21  C   UNL     1      -5.462  -7.205  -7.816  1.00  0.00     0.074 A 
ATOM     22  C   UNL     1      -3.041  -7.548  -8.315  1.00  0.00     0.049 A 
ATOM     23  N   UNL     1      -6.007  -7.323  -8.992  1.00  0.00    -0.248 NA
ATOM     24  C   UNL     1      -6.409  -6.919  -6.725  1.00  0.00     0.031 C 
ATOM     25  C   UNL     1      -1.623  -7.712  -7.973  1.00  0.00     0.029 A 
ATOM     26  N   UNL     1      -3.074  -7.670  -9.674  1.00  0.00    -0.354 N 
ATOM     27  C   UNL     1      -7.370  -7.169  -8.781  1.00  0.00     0.074 A 
ATOM     28  C   UNL     1      -7.568  -6.973  -7.362  1.00  0.00     0.031 C 
ATOM     29  C   UNL     1      -0.923  -7.927  -9.096  1.00  0.00     0.029 A 
ATOM     30  C   UNL     1      -1.850  -7.979 -10.218  1.00  0.00     0.049 A 
ATOM     31  H   UNL     1      -3.890  -7.550 -10.210  1.00  0.00     0.167 HD
ATOM     32  C   UNL     1      -8.356  -7.204  -9.705  1.00  0.00     0.031 A 
ATOM     33  C   UNL     1      -1.529  -8.314 -11.480  1.00  0.00     0.031 A 
ATOM     34  C   UNL     1      -8.097  -7.433 -11.101  1.00  0.00     0.049 A 
ATOM     35  C   UNL     1      -2.638  -8.351 -12.489  1.00  0.00     0.074 A 
ATOM     36  C   UNL     1      -8.991  -7.461 -12.154  1.00  0.00     0.029 A 
ATOM     37  N   UNL     1      -6.836  -7.687 -11.633  1.00  0.00    -0.354 N 
ATOM     38  N   UNL     1      -3.925  -8.164 -12.296  1.00  0.00    -0.248 NA
ATOM     39  C   UNL     1      -2.264  -8.629 -13.877  1.00  0.00     0.031 C 
ATOM     40  C   UNL     1      -8.277  -7.787 -13.313  1.00  0.00     0.029 A 
ATOM     41  C   UNL     1      -6.928  -7.893 -12.997  1.00  0.00     0.049 A 
ATOM     42  H   UNL     1      -6.000  -7.716 -11.114  1.00  0.00     0.167 HD
ATOM     43  C   UNL     1      -4.516  -8.273 -13.545  1.00  0.00     0.074 A 
ATOM     44  C   UNL     1      -3.441  -8.539 -14.485  1.00  0.00     0.031 C 
ATOM     45  C   UNL     1      -5.823  -8.156 -13.889  1.00  0.00     0.031 A 
BRANCH  32  46
ATOM     46  C   UNL     1      -9.769  -7.055  -9.208  1.00  0.00    -0.014 A 
ATOM     47  C   UNL     1     -10.221  -5.859  -8.617  1.00  0.00     0.010 A 
ATOM     48  C   UNL     1     -10.651  -8.148  -9.290  1.00  0.00     0.010 A 
ATOM     49  C   UNL     1     -11.498  -5.784  -8.053  1.00  0.00     0.020 A 
ATOM     50  C   UNL     1     -11.942  -8.065  -8.758  1.00  0.00     0.020 A 
ATOM     51  C   UNL     1     -12.347  -6.893  -8.118  1.00  0.00     0.054 A 
BRANCH  51  52
ATOM     52  S   UNL     1     -13.988  -6.779  -7.355  1.00  0.00     0.124 S 
ATOM     53  O   UNL     1     -13.662  -6.831  -5.932  1.00  0.00    -0.237 OA
ATOM     54  O   UNL     1     -14.478  -5.490  -7.839  1.00  0.00    -0.237 OA
ATOM     55  O   UNL     1     -14.695  -7.946  -7.876  1.00  0.00    -0.744 OA
ENDBRANCH  51  52
ENDBRANCH  32  46
BRANCH  33  56
ATOM     56  C   UNL     1      -0.115  -8.627 -11.813  1.00  0.00    -0.014 A 
ATOM     57  C   UNL     1       0.670  -7.706 -12.526  1.00  0.00     0.010 A 
ATOM     58  C   UNL     1       0.490  -9.799 -11.316  1.00  0.00     0.010 A 
ATOM     59  C   UNL     1       2.033  -7.945 -12.729  1.00  0.00     0.020 A 
ATOM     60  C   UNL     1       1.857 -10.029 -11.495  1.00  0.00     0.020 A 
ATOM     61  C   UNL     1       2.621  -9.100 -12.203  1.00  0.00     0.054 A 
BRANCH  61  62
ATOM     62  S   UNL     1       4.410  -9.335 -12.397  1.00  0.00     0.124 S 
ATOM     63  O   UNL     1       4.526  -9.627 -13.823  1.00  0.00    -0.237 OA
ATOM     64  O   UNL     1       4.945  -8.045 -11.970  1.00  0.00    -0.237 OA
ATOM     65  O   UNL     1       4.709 -10.452 -11.503  1.00  0.00    -0.744 OA
ENDBRANCH  61  62
ENDBRANCH  33  56
BRANCH  45  66
ATOM     66  C   UNL     1      -6.152  -8.269 -15.350  1.00  0.00    -0.014 A 
ATOM     67  C   UNL     1      -6.141  -9.510 -16.008  1.00  0.00     0.010 A 
ATOM     68  C   UNL     1      -6.571  -7.119 -16.044  1.00  0.00     0.010 A 
ATOM     69  C   UNL     1      -6.535  -9.596 -17.344  1.00  0.00     0.020 A 
ATOM     70  C   UNL     1      -6.994  -7.207 -17.369  1.00  0.00     0.020 A 
ATOM     71  C   UNL     1      -6.966  -8.445 -18.013  1.00  0.00     0.054 A 
BRANCH  71  72
ATOM     72  S   UNL     1      -7.551  -8.599 -19.721  1.00  0.00     0.124 S 
ATOM     73  O   UNL     1      -6.305  -8.822 -20.449  1.00  0.00    -0.237 OA
ATOM     74  O   UNL     1      -8.451  -9.748 -19.648  1.00  0.00    -0.237 OA
ATOM     75  O   UNL     1      -8.204  -7.318 -19.981  1.00  0.00    -0.744 OA
ENDBRANCH  71  72
ENDBRANCH  45  66
ENDBRANCH  19  20
ENDBRANCH  12  14
ENDBRANCH  11  12
ENDBRANCH  10  11
ENDBRANCH   9  10
ENDBRANCH   8   9
ENDBRANCH   6   8
ENDBRANCH   1   6
BRANCH   1  76
ATOM     76  N   UNL     1      -1.812  -4.269  -0.629  1.00  0.00    -0.341 N 
ATOM     77  C   UNL     1      -2.153  -4.289   0.687  1.00  0.00     0.243 C 
ATOM     78  H   UNL     1      -2.612  -4.179  -1.195  1.00  0.00     0.164 HD
ATOM     79  O   UNL     1      -3.364  -4.209   0.925  1.00  0.00    -0.273 OA
BRANCH  77  80
ATOM     80  C   UNL     1      -1.133  -4.147   1.826  1.00  0.00     0.175 C 
BRANCH  80  81
ATOM     81  N   UNL     1       0.188  -4.538   1.338  1.00  0.00    -0.342 N 
ATOM     82  C   UNL     1       1.125  -5.478   1.558  1.00  0.00     0.240 C 
ATOM     83  H   UNL     1       0.484  -3.922   0.629  1.00  0.00     0.164 HD
ATOM     84  O   UNL     1       2.098  -5.485   0.796  1.00  0.00    -0.273 OA
BRANCH  82  85
ATOM     85  C   UNL     1       1.060  -6.445   2.704  1.00  0.00     0.216 C 
BRANCH  85  86
ATOM     86  N   UNL     1       1.350  -5.704   3.907  1.00  0.00    -0.346 N 
ATOM     87  C   UNL     1       0.685  -5.743   5.092  1.00  0.00     0.239 C 
ATOM     88  H   UNL     1       2.124  -5.097   3.866  1.00  0.00     0.164 HD
ATOM     89  O   UNL     1       1.013  -4.948   5.973  1.00  0.00    -0.273 OA
BRANCH  87  90
ATOM     90  C   UNL     1      -0.443  -6.762   5.291  1.00  0.00     0.219 C 
BRANCH  90  91
ATOM     91  N   UNL     1      -1.658  -6.364   4.611  1.00  0.00    -0.312 N 
ATOM     92  C   UNL     1      -2.325  -7.043   3.637  1.00  0.00     0.407 C 
ATOM     93  H   UNL     1      -2.046  -5.501   4.884  1.00  0.00     0.167 HD
ATOM     94  O   UNL     1      -3.202  -6.484   2.991  1.00  0.00    -0.225 OA
BRANCH  92  95
ATOM     95  O   UNL     1      -1.874  -8.303   3.428  1.00  0.00    -0.445 OA
BRANCH  95  96
ATOM     96  C   UNL     1      -2.273  -8.896   2.174  1.00  0.00     0.270 C 
BRANCH  96  97
ATOM     97  C   UNL     1      -3.731  -9.252   2.005  1.00  0.00    -0.011 A 
ATOM     98  C   UNL     1      -4.238  -9.455   0.711  1.00  0.00     0.007 A 
ATOM     99  C   UNL     1      -4.613  -9.336   3.084  1.00  0.00     0.007 A 
ATOM    100  C   UNL     1      -5.605  -9.607   0.486  1.00  0.00     0.000 A 
ATOM    101  C   UNL     1      -5.982  -9.502   2.863  1.00  0.00     0.000 A 
ATOM    102  C   UNL     1      -6.480  -9.612   1.565  1.00  0.00     0.000 A 
ENDBRANCH  96  97
ENDBRANCH  95  96
ENDBRANCH  92  95
ENDBRANCH  90  91
ENDBRANCH  87  90
ENDBRANCH  85  86
ENDBRANCH  82  85
ENDBRANCH  80  81
BRANCH  80 103
ATOM    103  C   UNL     1      -1.197  -2.652   2.229  1.00  0.00     0.070 C 
BRANCH 103 104
ATOM    104  C   UNL     1      -1.617  -2.354   3.645  1.00  0.00    -0.045 A 
ATOM    105  C   UNL     1      -2.909  -1.896   3.936  1.00  0.00     0.004 A 
ATOM    106  C   UNL     1      -0.675  -2.434   4.675  1.00  0.00     0.004 A 
ATOM    107  C   UNL     1      -3.242  -1.507   5.236  1.00  0.00     0.000 A 
ATOM    108  C   UNL     1      -1.013  -2.060   5.974  1.00  0.00     0.000 A 
ATOM    109  C   UNL     1      -2.293  -1.589   6.254  1.00  0.00     0.000 A 
ENDBRANCH 103 104
ENDBRANCH  80 103
ENDBRANCH  77  80
ENDBRANCH   1  76
TORSDOF 28
