REMARK SMILES O=C(CCC(=O)OCCOC(=O)c1ccc(-c2c3nc(c(-c4ccc(S(=O)(=O)[O-])cc4)c4ccc([nH]4)c(-c4ccc(S(=O)(=O)[O-])cc4)c4nc(c(-c5ccc(S(=O)(=O)[O-])cc5)c5ccc2[nH]5)C=C4)C=C3)cc1)Nc1nncs1
REMARK SMILES IDX 8 1 7 2 5 3 6 4 4 5 3 6 2 7 1 8 73 9 74 11 75 12 78 13 76 14
REMARK SMILES IDX 77 15 9 16 10 17 11 18 12 19 13 20 14 21 72 22 15 23 71 24
REMARK SMILES IDX 16 25 17 26 18 27 65 28 19 29 70 30 64 31 66 32 20 33 69 34
REMARK SMILES IDX 63 35 62 36 21 38 51 39 32 40 50 41 33 42 36 43 49 44 67 45
REMARK SMILES IDX 34 46 35 47 48 49 68 50 37 51 22 52 23 53 31 54 24 55 30 56
REMARK SMILES IDX 25 57 26 58 27 59 28 60 29 61 52 62 53 63 61 64 54 65 60 66
REMARK SMILES IDX 55 67 56 68 57 69 58 70 59 71 38 72 39 73 47 74 40 75 46 76
REMARK SMILES IDX 41 77 42 78 43 79 44 80 45 81
REMARK H PARENT 73 10 66 37 36 48
REMARK Flexibility Score: inf
ROOT
ATOM      1  C   UNL     1       5.795  -0.425  -2.304  1.00  0.00     0.274 C 
ENDROOT
BRANCH   1   2
ATOM      2  O   UNL     1       4.609  -0.630  -1.499  1.00  0.00    -0.462 OA
BRANCH   2   3
ATOM      3  C   UNL     1       4.596  -1.724  -0.689  1.00  0.00     0.306 C 
ATOM      4  O   UNL     1       5.514  -2.526  -0.597  1.00  0.00    -0.252 OA
BRANCH   3   5
ATOM      5  C   UNL     1       3.277  -1.890   0.042  1.00  0.00     0.132 C 
BRANCH   5   6
ATOM      6  C   UNL     1       2.766  -0.659   0.787  1.00  0.00     0.112 C 
BRANCH   6   7
ATOM      7  C   UNL     1       1.791   0.142  -0.056  1.00  0.00     0.226 C 
ATOM      8  O   UNL     1       0.586   0.099   0.167  1.00  0.00    -0.275 OA
ATOM      9  N   UNL     1       2.411   0.813  -1.079  1.00  0.00    -0.301 N 
ATOM     10  H   UNL     1       3.392   0.892  -1.069  1.00  0.00     0.172 HD
BRANCH   9  11
ATOM     11  C   UNL     1       1.717   1.375  -2.111  1.00  0.00     0.212 A 
ATOM     12  N   UNL     1       0.432   1.576  -2.271  1.00  0.00    -0.120 NA
ATOM     13  S   UNL     1       2.684   1.788  -3.460  1.00  0.00    -0.083 S 
ATOM     14  N   UNL     1       0.140   2.052  -3.538  1.00  0.00    -0.145 NA
ATOM     15  C   UNL     1       1.223   2.163  -4.275  1.00  0.00     0.204 A 
ENDBRANCH   9  11
ENDBRANCH   6   7
ENDBRANCH   5   6
ENDBRANCH   3   5
ENDBRANCH   2   3
ENDBRANCH   1   2
BRANCH   1  16
ATOM     16  C   UNL     1       6.646   0.727  -1.762  1.00  0.00     0.275 C 
BRANCH  16  17
ATOM     17  O   UNL     1       7.313   0.342  -0.548  1.00  0.00    -0.458 OA
BRANCH  17  18
ATOM     18  C   UNL     1       6.600   0.562   0.581  1.00  0.00     0.338 C 
ATOM     19  O   UNL     1       5.525   1.130   0.656  1.00  0.00    -0.246 OA
BRANCH  18  20
ATOM     20  C   UNL     1       7.233  -0.152   1.702  1.00  0.00     0.060 A 
ATOM     21  C   UNL     1       6.503  -1.155   2.347  1.00  0.00     0.016 A 
ATOM     22  C   UNL     1       8.516   0.183   2.137  1.00  0.00     0.016 A 
ATOM     23  C   UNL     1       7.051  -1.822   3.439  1.00  0.00     0.010 A 
ATOM     24  C   UNL     1       9.067  -0.495   3.229  1.00  0.00     0.010 A 
ATOM     25  C   UNL     1       8.333  -1.492   3.895  1.00  0.00    -0.014 A 
BRANCH  25  26
ATOM     26  C   UNL     1       8.881  -2.174   5.093  1.00  0.00     0.031 A 
ATOM     27  C   UNL     1       8.994  -1.430   6.395  1.00  0.00     0.074 A 
ATOM     28  C   UNL     1       9.247  -3.467   5.017  1.00  0.00     0.049 A 
ATOM     29  N   UNL     1       9.430  -1.854   7.553  1.00  0.00    -0.248 NA
ATOM     30  C   UNL     1       8.563  -0.024   6.391  1.00  0.00     0.031 C 
ATOM     31  C   UNL     1       9.152  -4.302   3.817  1.00  0.00     0.029 A 
ATOM     32  N   UNL     1       9.758  -4.310   5.971  1.00  0.00    -0.354 N 
ATOM     33  C   UNL     1       9.347  -0.764   8.412  1.00  0.00     0.074 A 
ATOM     34  C   UNL     1       8.843   0.347   7.632  1.00  0.00     0.031 C 
ATOM     35  C   UNL     1       9.562  -5.545   4.117  1.00  0.00     0.029 A 
ATOM     36  C   UNL     1       9.992  -5.584   5.512  1.00  0.00     0.049 A 
ATOM     37  H   UNL     1       9.941  -4.028   6.896  1.00  0.00     0.167 HD
ATOM     38  C   UNL     1       9.662  -0.695   9.729  1.00  0.00     0.031 A 
ATOM     39  C   UNL     1      10.501  -6.660   6.142  1.00  0.00     0.031 A 
ATOM     40  C   UNL     1      10.171  -1.804  10.495  1.00  0.00     0.049 A 
ATOM     41  C   UNL     1      10.893  -6.542   7.589  1.00  0.00     0.074 A 
ATOM     42  C   UNL     1      10.492  -1.845  11.841  1.00  0.00     0.029 A 
ATOM     43  N   UNL     1      10.447  -3.063   9.981  1.00  0.00    -0.354 N 
ATOM     44  N   UNL     1      10.783  -5.511   8.394  1.00  0.00    -0.248 NA
ATOM     45  C   UNL     1      11.472  -7.738   8.214  1.00  0.00     0.031 C 
ATOM     46  C   UNL     1      11.023  -3.109  12.126  1.00  0.00     0.029 A 
ATOM     47  C   UNL     1      10.967  -3.878  10.975  1.00  0.00     0.049 A 
ATOM     48  H   UNL     1      10.296  -3.337   9.048  1.00  0.00     0.167 HD
ATOM     49  C   UNL     1      11.252  -5.944   9.630  1.00  0.00     0.074 A 
ATOM     50  C   UNL     1      11.629  -7.334   9.467  1.00  0.00     0.031 C 
ATOM     51  C   UNL     1      11.358  -5.255  10.794  1.00  0.00     0.031 A 
BRANCH  38  52
ATOM     52  C   UNL     1       9.515   0.644  10.407  1.00  0.00    -0.014 A 
ATOM     53  C   UNL     1       8.253   1.221  10.642  1.00  0.00     0.010 A 
ATOM     54  C   UNL     1      10.668   1.334  10.827  1.00  0.00     0.010 A 
ATOM     55  C   UNL     1       8.150   2.485  11.232  1.00  0.00     0.020 A 
ATOM     56  C   UNL     1      10.568   2.583  11.446  1.00  0.00     0.020 A 
ATOM     57  C   UNL     1       9.310   3.162  11.623  1.00  0.00     0.054 A 
BRANCH  57  58
ATOM     58  S   UNL     1       9.150   4.804  12.377  1.00  0.00     0.124 S 
ATOM     59  O   UNL     1       8.773   5.625  11.229  1.00  0.00    -0.237 OA
ATOM     60  O   UNL     1       8.103   4.598  13.374  1.00  0.00    -0.237 OA
ATOM     61  O   UNL     1      10.480   5.068  12.920  1.00  0.00    -0.744 OA
ENDBRANCH  57  58
ENDBRANCH  38  52
BRANCH  39  62
ATOM     62  C   UNL     1      10.658  -7.947   5.409  1.00  0.00    -0.014 A 
ATOM     63  C   UNL     1       9.856  -9.055   5.734  1.00  0.00     0.010 A 
ATOM     64  C   UNL     1      11.601  -8.067   4.371  1.00  0.00     0.010 A 
ATOM     65  C   UNL     1      10.001 -10.261   5.043  1.00  0.00     0.020 A 
ATOM     66  C   UNL     1      11.727  -9.262   3.658  1.00  0.00     0.020 A 
ATOM     67  C   UNL     1      10.932 -10.356   4.005  1.00  0.00     0.054 A 
BRANCH  67  68
ATOM     68  S   UNL     1      11.057 -11.913   3.083  1.00  0.00     0.124 S 
ATOM     69  O   UNL     1      11.699 -12.792   4.054  1.00  0.00    -0.237 OA
ATOM     70  O   UNL     1       9.660 -12.213   2.781  1.00  0.00    -0.237 OA
ATOM     71  O   UNL     1      11.874 -11.559   1.923  1.00  0.00    -0.744 OA
ENDBRANCH  67  68
ENDBRANCH  39  62
BRANCH  51  72
ATOM     72  C   UNL     1      11.874  -6.012  11.992  1.00  0.00    -0.014 A 
ATOM     73  C   UNL     1      13.213  -6.438  12.070  1.00  0.00     0.010 A 
ATOM     74  C   UNL     1      11.004  -6.297  13.060  1.00  0.00     0.010 A 
ATOM     75  C   UNL     1      13.654  -7.187  13.165  1.00  0.00     0.020 A 
ATOM     76  C   UNL     1      11.450  -7.014  14.172  1.00  0.00     0.020 A 
ATOM     77  C   UNL     1      12.766  -7.476  14.206  1.00  0.00     0.054 A 
BRANCH  77  78
ATOM     78  S   UNL     1      13.360  -8.451  15.616  1.00  0.00     0.124 S 
ATOM     79  O   UNL     1      13.440  -9.793  15.044  1.00  0.00    -0.237 OA
ATOM     80  O   UNL     1      14.642  -7.822  15.925  1.00  0.00    -0.237 OA
ATOM     81  O   UNL     1      12.322  -8.266  16.627  1.00  0.00    -0.744 OA
ENDBRANCH  77  78
ENDBRANCH  51  72
ENDBRANCH  25  26
ENDBRANCH  18  20
ENDBRANCH  17  18
ENDBRANCH  16  17
ENDBRANCH   1  16
TORSDOF 17
