REMARK SMILES [NH3+][C@H]1CCCCC[C@@H]1C(=O)N[C@@H](CCO)C(=O)OCCOC(=O)c1ccc(-c2c3nc(c(-c4ccc(S(=O)(=O)[O-])cc4)c4ccc([nH]4)c(-c4ccc(S(=O)(=O)[O-])cc4)c4nc(c(-c5ccc(S(=O)(=O)[O-])cc5)c5ccc2[nH]5)C=C4)C=C3)cc1
REMARK SMILES IDX 18 1 16 2 17 3 12 4 11 5 9 6 10 7 8 9 2 10 1 11 3 15 7 17
REMARK SMILES IDX 6 18 5 19 4 20 13 22 14 23 15 24 19 26 20 27 21 28 22 29
REMARK SMILES IDX 23 30 24 31 25 32 83 33 26 34 82 35 27 36 28 37 29 38 76 39
REMARK SMILES IDX 30 40 81 41 75 42 77 43 31 44 80 45 74 46 73 47 32 49 62 50
REMARK SMILES IDX 43 51 61 52 44 53 47 54 60 55 78 56 45 57 46 58 59 60 79 61
REMARK SMILES IDX 48 62 33 63 34 64 42 65 35 66 41 67 36 68 37 69 38 70 39 71
REMARK SMILES IDX 40 72 63 73 64 74 72 75 65 76 71 77 66 78 67 79 68 80 69 81
REMARK SMILES IDX 70 82 49 83 50 84 58 85 51 86 57 87 52 88 53 89 54 90 55 91
REMARK SMILES IDX 56 92
REMARK H PARENT 11 8 1 12 1 13 1 14 15 25 77 48 47 59
REMARK Flexibility Score: 90.00
ROOT
ATOM      1  O   UNL     1       3.148   1.496  -2.601  1.00  0.00    -0.461 OA
ENDROOT
BRANCH   1   2
ATOM      2  C   UNL     1       3.492   0.915  -1.414  1.00  0.00     0.328 C 
ATOM      3  O   UNL     1       4.161   1.451  -0.539  1.00  0.00    -0.250 OA
BRANCH   2   4
ATOM      4  C   UNL     1       3.031  -0.548  -1.329  1.00  0.00     0.194 C 
BRANCH   4   5
ATOM      5  N   UNL     1       1.929  -0.885  -2.235  1.00  0.00    -0.342 N 
ATOM      6  C   UNL     1       0.722  -1.486  -2.151  1.00  0.00     0.229 C 
ATOM      7  O   UNL     1       0.207  -1.675  -3.266  1.00  0.00    -0.275 OA
ATOM      8  H   UNL     1       2.120  -0.594  -3.156  1.00  0.00     0.164 HD
BRANCH   6   9
ATOM      9  C   UNL     1      -0.084  -1.848  -0.874  1.00  0.00     0.136 C 
BRANCH   9  10
ATOM     10  C   UNL     1       0.629  -2.089   0.464  1.00  0.00     0.193 C 
BRANCH  10  11
ATOM     11  N   UNL     1      -0.303  -2.055   1.601  1.00  0.00    -0.354 N 
ATOM     12  H   UNL     1       0.211  -2.219   2.467  1.00  0.00     0.344 HD
ATOM     13  H   UNL     1      -1.010  -2.780   1.483  1.00  0.00     0.344 HD
ATOM     14  H   UNL     1      -0.755  -1.142   1.643  1.00  0.00     0.344 HD
ENDBRANCH  10  11
BRANCH  10  15
ATOM     15  C   UNL     1       1.525  -3.334   0.494  1.00  0.00     0.066 CG0
ATOM     16  G   UNL     1       0.821  -4.667   0.720  1.00  0.00     0.000 G0
ENDBRANCH  10  15
ENDBRANCH   9  10
BRANCH   9  17
ATOM     17  C   UNL     1      -1.070  -2.999  -1.208  1.00  0.00     0.020 C 
BRANCH  17  18
ATOM     18  C   UNL     1      -0.386  -4.313  -1.589  1.00  0.00     0.001 C 
BRANCH  18  19
ATOM     19  C   UNL     1      -0.010  -5.229  -0.431  1.00  0.00     0.000 C 
BRANCH  19  20
ATOM     20  C   UNL     1       0.821  -4.667   0.720  1.00  0.00     0.006 CG0
ATOM     21  G   UNL     1       1.525  -3.334   0.494  1.00  0.00     0.000 G0
ENDBRANCH  19  20
ENDBRANCH  18  19
ENDBRANCH  17  18
ENDBRANCH   9  17
ENDBRANCH   6   9
ENDBRANCH   4   5
BRANCH   4  22
ATOM     22  C   UNL     1       4.229  -1.489  -1.540  1.00  0.00     0.065 C 
BRANCH  22  23
ATOM     23  C   UNL     1       4.830  -1.482  -2.943  1.00  0.00     0.159 C 
BRANCH  23  24
ATOM     24  O   UNL     1       5.454  -0.242  -3.236  1.00  0.00    -0.396 OA
ATOM     25  H   UNL     1       4.795   0.469  -3.195  1.00  0.00     0.210 HD
ENDBRANCH  23  24
ENDBRANCH  22  23
ENDBRANCH   4  22
ENDBRANCH   2   4
ENDBRANCH   1   2
BRANCH   1  26
ATOM     26  C   UNL     1       3.535   2.876  -2.754  1.00  0.00     0.274 C 
BRANCH  26  27
ATOM     27  C   UNL     1       2.310   3.789  -2.736  1.00  0.00     0.275 C 
BRANCH  27  28
ATOM     28  O   UNL     1       1.597   3.656  -1.494  1.00  0.00    -0.458 OA
BRANCH  28  29
ATOM     29  C   UNL     1       0.473   2.905  -1.561  1.00  0.00     0.338 C 
ATOM     30  O   UNL     1      -0.001   2.365  -2.545  1.00  0.00    -0.246 OA
BRANCH  29  31
ATOM     31  C   UNL     1      -0.087   2.745  -0.214  1.00  0.00     0.060 A 
ATOM     32  C   UNL     1       0.370   1.690   0.570  1.00  0.00     0.016 A 
ATOM     33  C   UNL     1      -1.141   3.546   0.223  1.00  0.00     0.016 A 
ATOM     34  C   UNL     1      -0.263   1.395   1.774  1.00  0.00     0.010 A 
ATOM     35  C   UNL     1      -1.740   3.278   1.461  1.00  0.00     0.010 A 
ATOM     36  C   UNL     1      -1.326   2.181   2.238  1.00  0.00    -0.014 A 
BRANCH  36  37
ATOM     37  C   UNL     1      -2.025   1.821   3.504  1.00  0.00     0.031 A 
ATOM     38  C   UNL     1      -3.484   1.447   3.487  1.00  0.00     0.074 A 
ATOM     39  C   UNL     1      -1.352   1.797   4.673  1.00  0.00     0.049 A 
ATOM     40  N   UNL     1      -4.302   1.267   4.495  1.00  0.00    -0.248 NA
ATOM     41  C   UNL     1      -4.108   1.258   2.168  1.00  0.00     0.031 C 
ATOM     42  C   UNL     1       0.077   2.075   4.837  1.00  0.00     0.029 A 
ATOM     43  N   UNL     1      -1.781   1.515   5.947  1.00  0.00    -0.354 N 
ATOM     44  C   UNL     1      -5.545   0.999   3.933  1.00  0.00     0.074 A 
ATOM     45  C   UNL     1      -5.374   1.034   2.495  1.00  0.00     0.031 C 
ATOM     46  C   UNL     1       0.410   1.917   6.128  1.00  0.00     0.029 A 
ATOM     47  C   UNL     1      -0.791   1.607   6.896  1.00  0.00     0.049 A 
ATOM     48  H   UNL     1      -2.711   1.271   6.160  1.00  0.00     0.167 HD
ATOM     49  C   UNL     1      -6.723   0.752   4.556  1.00  0.00     0.031 A 
ATOM     50  C   UNL     1      -0.842   1.497   8.238  1.00  0.00     0.031 A 
ATOM     51  C   UNL     1      -6.887   0.674   5.984  1.00  0.00     0.049 A 
ATOM     52  C   UNL     1      -2.163   1.252   8.909  1.00  0.00     0.074 A 
ATOM     53  C   UNL     1      -8.045   0.439   6.707  1.00  0.00     0.029 A 
ATOM     54  N   UNL     1      -5.862   0.808   6.907  1.00  0.00    -0.354 N 
ATOM     55  N   UNL     1      -3.344   1.081   8.364  1.00  0.00    -0.248 NA
ATOM     56  C   UNL     1      -2.162   1.206  10.378  1.00  0.00     0.031 C 
ATOM     57  C   UNL     1      -7.725   0.460   8.069  1.00  0.00     0.029 A 
ATOM     58  C   UNL     1      -6.361   0.668   8.192  1.00  0.00     0.049 A 
ATOM     59  H   UNL     1      -4.919   0.978   6.683  1.00  0.00     0.167 HD
ATOM     60  C   UNL     1      -4.226   0.912   9.424  1.00  0.00     0.074 A 
ATOM     61  C   UNL     1      -3.441   0.971  10.640  1.00  0.00     0.031 C 
ATOM     62  C   UNL     1      -5.570   0.737   9.393  1.00  0.00     0.031 A 
BRANCH  49  63
ATOM     63  C   UNL     1      -7.947   0.587   3.696  1.00  0.00    -0.014 A 
ATOM     64  C   UNL     1      -8.187  -0.599   2.982  1.00  0.00     0.010 A 
ATOM     65  C   UNL     1      -8.898   1.623   3.647  1.00  0.00     0.010 A 
ATOM     66  C   UNL     1      -9.345  -0.736   2.211  1.00  0.00     0.020 A 
ATOM     67  C   UNL     1     -10.067   1.482   2.893  1.00  0.00     0.020 A 
ATOM     68  C   UNL     1     -10.276   0.308   2.167  1.00  0.00     0.054 A 
BRANCH  68  69
ATOM     69  S   UNL     1     -11.787   0.096   1.186  1.00  0.00     0.124 S 
ATOM     70  O   UNL     1     -11.294   0.304  -0.173  1.00  0.00    -0.237 OA
ATOM     71  O   UNL     1     -12.191  -1.271   1.504  1.00  0.00    -0.237 OA
ATOM     72  O   UNL     1     -12.677   1.138   1.692  1.00  0.00    -0.744 OA
ENDBRANCH  68  69
ENDBRANCH  49  63
BRANCH  50  73
ATOM     73  C   UNL     1       0.395   1.683   9.042  1.00  0.00    -0.014 A 
ATOM     74  C   UNL     1       1.002   0.593   9.687  1.00  0.00     0.010 A 
ATOM     75  C   UNL     1       0.982   2.958   9.150  1.00  0.00     0.010 A 
ATOM     76  C   UNL     1       2.172   0.774  10.431  1.00  0.00     0.020 A 
ATOM     77  C   UNL     1       2.165   3.138   9.870  1.00  0.00     0.020 A 
ATOM     78  C   UNL     1       2.747   2.046  10.516  1.00  0.00     0.054 A 
BRANCH  78  79
ATOM     79  S   UNL     1       4.304   2.255  11.424  1.00  0.00     0.124 S 
ATOM     80  O   UNL     1       3.839   2.349  12.803  1.00  0.00    -0.237 OA
ATOM     81  O   UNL     1       5.040   1.039  11.084  1.00  0.00    -0.237 OA
ATOM     82  O   UNL     1       4.859   3.484  10.861  1.00  0.00    -0.744 OA
ENDBRANCH  78  79
ENDBRANCH  50  73
BRANCH  62  83
ATOM     83  C   UNL     1      -6.272   0.586  10.713  1.00  0.00    -0.014 A 
ATOM     84  C   UNL     1      -6.512   1.702  11.533  1.00  0.00     0.010 A 
ATOM     85  C   UNL     1      -6.729  -0.680  11.121  1.00  0.00     0.010 A 
ATOM     86  C   UNL     1      -7.171   1.551  12.756  1.00  0.00     0.020 A 
ATOM     87  C   UNL     1      -7.405  -0.832  12.335  1.00  0.00     0.020 A 
ATOM     88  C   UNL     1      -7.608   0.283  13.152  1.00  0.00     0.054 A 
BRANCH  88  89
ATOM     89  S   UNL     1      -8.490   0.112  14.728  1.00  0.00     0.124 S 
ATOM     90  O   UNL     1      -7.395   0.152  15.693  1.00  0.00    -0.237 OA
ATOM     91  O   UNL     1      -9.375   1.274  14.733  1.00  0.00    -0.237 OA
ATOM     92  O   UNL     1      -9.167  -1.178  14.606  1.00  0.00    -0.744 OA
ENDBRANCH  88  89
ENDBRANCH  62  83
ENDBRANCH  36  37
ENDBRANCH  29  31
ENDBRANCH  28  29
ENDBRANCH  27  28
ENDBRANCH  26  27
ENDBRANCH   1  26
TORSDOF 20
