REMARK SMILES Cc1cc(C)cc(CSCc2cc(C(=O)OCCOC(=O)c3ccc(-c4c5nc(c(-c6ccc(S(=O)(=O)[O-])cc6)c6ccc([nH]6)c(-c6ccc(S(=O)(=O)[O-])cc6)c6nc(c(-c7ccc(S(=O)(=O)[O-])cc7)c7ccc4[nH]7)C=C6)C=C5)cc3)c(C)o2)c1
REMARK SMILES IDX 17 1 16 2 14 3 15 4 13 5 11 6 12 7 84 8 82 9 83 10 10 11
REMARK SMILES IDX 9 12 8 13 7 14 1 15 2 16 3 17 85 18 4 19 5 20 6 21 18 22
REMARK SMILES IDX 19 23 20 24 21 25 22 26 23 27 81 28 24 29 80 30 25 31 26 32
REMARK SMILES IDX 27 33 74 34 28 35 79 36 73 37 75 38 29 39 78 40 72 41 71 42
REMARK SMILES IDX 30 44 60 45 41 46 59 47 42 48 45 49 58 50 76 51 43 52 44 53
REMARK SMILES IDX 57 55 77 56 46 57 31 58 32 59 40 60 33 61 39 62 34 63 35 64
REMARK SMILES IDX 36 65 37 66 38 67 61 68 62 69 70 70 63 71 69 72 64 73 65 74
REMARK SMILES IDX 66 75 67 76 68 77 47 78 48 79 56 80 49 81 55 82 50 83 51 84
REMARK SMILES IDX 52 85 53 86 54 87
REMARK H PARENT 75 43 45 54
REMARK Flexibility Score: inf
ROOT
ATOM      1  C   UNL     1      -1.937   3.099   1.239  1.00  0.00     0.275 C 
ENDROOT
BRANCH   1   2
ATOM      2  O   UNL     1      -1.816   1.768   1.790  1.00  0.00    -0.458 OA
BRANCH   2   3
ATOM      3  C   UNL     1      -0.635   1.456   2.398  1.00  0.00     0.341 C 
ATOM      4  O   UNL     1       0.307   2.239   2.496  1.00  0.00    -0.246 OA
BRANCH   3   5
ATOM      5  C   UNL     1      -0.555   0.086   2.872  1.00  0.00     0.101 A 
ATOM      6  C   UNL     1      -0.500  -2.161   2.857  1.00  0.00     0.114 A 
ATOM      7  C   UNL     1      -1.186  -1.077   2.347  1.00  0.00     0.062 A 
ATOM      8  O   UNL     1       0.287  -1.742   3.885  1.00  0.00    -0.465 OA
ATOM      9  C   UNL     1       0.210  -0.386   3.927  1.00  0.00     0.115 A 
ATOM     10  C   UNL     1       0.905   0.237   5.068  1.00  0.00     0.088 C 
BRANCH   6  11
ATOM     11  C   UNL     1      -0.406  -3.610   2.562  1.00  0.00     0.145 C 
BRANCH  11  12
ATOM     12  S   UNL     1      -1.142  -4.139   0.984  1.00  0.00    -0.149 SA
BRANCH  12  13
ATOM     13  C   UNL     1       0.127  -3.563  -0.202  1.00  0.00     0.105 C 
BRANCH  13  14
ATOM     14  C   UNL     1       0.067  -2.087  -0.512  1.00  0.00    -0.038 A 
ATOM     15  C   UNL     1       2.317   0.983  -0.251  1.00  0.00     0.044 C 
ATOM     16  C   UNL     1       1.128   0.110  -0.533  1.00  0.00    -0.051 A 
ATOM     17  C   UNL     1      -0.096   0.687  -0.900  1.00  0.00     0.006 A 
ATOM     18  C   UNL     1       1.196  -1.275  -0.330  1.00  0.00     0.008 A 
ATOM     19  C   UNL     1      -1.233  -0.106  -1.098  1.00  0.00    -0.051 A 
ATOM     20  C   UNL     1      -2.585   0.516  -1.294  1.00  0.00     0.044 C 
ATOM     21  C   UNL     1      -1.130  -1.493  -0.944  1.00  0.00     0.008 A 
ENDBRANCH  13  14
ENDBRANCH  12  13
ENDBRANCH  11  12
ENDBRANCH   6  11
ENDBRANCH   3   5
ENDBRANCH   2   3
ENDBRANCH   1   2
BRANCH   1  22
ATOM     22  C   UNL     1      -3.016   3.895   1.968  1.00  0.00     0.275 C 
BRANCH  22  23
ATOM     23  O   UNL     1      -2.514   4.315   3.246  1.00  0.00    -0.458 OA
BRANCH  23  24
ATOM     24  C   UNL     1      -2.828   3.489   4.269  1.00  0.00     0.338 C 
ATOM     25  O   UNL     1      -3.579   2.533   4.251  1.00  0.00    -0.246 OA
BRANCH  24  26
ATOM     26  C   UNL     1      -1.980   3.813   5.420  1.00  0.00     0.060 A 
ATOM     27  C   UNL     1      -0.669   3.363   5.391  1.00  0.00     0.016 A 
ATOM     28  C   UNL     1      -2.510   4.353   6.587  1.00  0.00     0.016 A 
ATOM     29  C   UNL     1       0.069   3.302   6.559  1.00  0.00     0.010 A 
ATOM     30  C   UNL     1      -1.707   4.415   7.734  1.00  0.00     0.010 A 
ATOM     31  C   UNL     1      -0.425   3.834   7.751  1.00  0.00    -0.014 A 
BRANCH  31  32
ATOM     32  C   UNL     1       0.378   3.702   9.000  1.00  0.00     0.031 A 
ATOM     33  C   UNL     1      -0.249   3.109  10.237  1.00  0.00     0.074 A 
ATOM     34  C   UNL     1       1.684   4.049   9.018  1.00  0.00     0.049 A 
ATOM     35  N   UNL     1       0.187   3.123  11.470  1.00  0.00    -0.248 NA
ATOM     36  C   UNL     1      -1.548   2.434  10.073  1.00  0.00     0.031 C 
ATOM     37  C   UNL     1       2.454   4.545   7.872  1.00  0.00     0.029 A 
ATOM     38  N   UNL     1       2.607   4.016  10.034  1.00  0.00    -0.354 N 
ATOM     39  C   UNL     1      -0.822   2.547  12.237  1.00  0.00     0.074 A 
ATOM     40  C   UNL     1      -1.887   2.184  11.330  1.00  0.00     0.031 C 
ATOM     41  C   UNL     1       3.737   4.694   8.226  1.00  0.00     0.029 A 
ATOM     42  C   UNL     1       3.852   4.467   9.658  1.00  0.00     0.049 A 
ATOM     43  H   UNL     1       2.400   3.700  10.943  1.00  0.00     0.167 HD
ATOM     44  C   UNL     1      -0.854   2.359  13.578  1.00  0.00     0.031 A 
ATOM     45  C   UNL     1       4.947   4.754  10.387  1.00  0.00     0.031 A 
ATOM     46  C   UNL     1       0.247   2.677  14.451  1.00  0.00     0.049 A 
ATOM     47  C   UNL     1       4.871   4.595  11.875  1.00  0.00     0.074 A 
ATOM     48  C   UNL     1       0.330   2.527  15.824  1.00  0.00     0.029 A 
ATOM     49  N   UNL     1       1.467   3.190  14.031  1.00  0.00    -0.354 N 
ATOM     50  N   UNL     1       3.875   4.150  12.603  1.00  0.00    -0.248 NA
ATOM     51  C   UNL     1       6.053   5.001  12.643  1.00  0.00     0.031 C 
ATOM     52  C   UNL     1       1.577   3.007  16.240  1.00  0.00     0.029 A 
ATOM     53  C   UNL     1       2.300   3.385  15.120  1.00  0.00     0.049 A 
ATOM     54  H   UNL     1       1.705   3.386  13.096  1.00  0.00     0.167 HD
ATOM     55  C   UNL     1       4.313   4.211  13.919  1.00  0.00     0.074 A 
ATOM     56  C   UNL     1       5.674   4.712  13.881  1.00  0.00     0.031 C 
ATOM     57  C   UNL     1       3.650   3.888  15.056  1.00  0.00     0.031 A 
BRANCH  44  58
ATOM     58  C   UNL     1      -2.139   1.859  14.192  1.00  0.00    -0.014 A 
ATOM     59  C   UNL     1      -2.608   0.548  13.996  1.00  0.00     0.010 A 
ATOM     60  C   UNL     1      -2.883   2.728  15.015  1.00  0.00     0.010 A 
ATOM     61  C   UNL     1      -3.814   0.132  14.573  1.00  0.00     0.020 A 
ATOM     62  C   UNL     1      -4.071   2.308  15.620  1.00  0.00     0.020 A 
ATOM     63  C   UNL     1      -4.539   1.016  15.379  1.00  0.00     0.054 A 
BRANCH  63  64
ATOM     64  S   UNL     1      -6.092   0.447  16.125  1.00  0.00     0.124 S 
ATOM     65  O   UNL     1      -6.976   0.373  14.964  1.00  0.00    -0.237 OA
ATOM     66  O   UNL     1      -5.715  -0.837  16.709  1.00  0.00    -0.237 OA
ATOM     67  O   UNL     1      -6.420   1.494  17.090  1.00  0.00    -0.744 OA
ENDBRANCH  63  64
ENDBRANCH  44  58
BRANCH  45  68
ATOM     68  C   UNL     1       6.156   5.314   9.718  1.00  0.00    -0.014 A 
ATOM     69  C   UNL     1       7.357   4.587   9.669  1.00  0.00     0.010 A 
ATOM     70  C   UNL     1       6.095   6.571   9.084  1.00  0.00     0.010 A 
ATOM     71  C   UNL     1       8.470   5.105   8.998  1.00  0.00     0.020 A 
ATOM     72  C   UNL     1       7.191   7.073   8.378  1.00  0.00     0.020 A 
ATOM     73  C   UNL     1       8.376   6.340   8.348  1.00  0.00     0.054 A 
BRANCH  73  74
ATOM     74  S   UNL     1       9.809   6.957   7.422  1.00  0.00     0.124 S 
ATOM     75  O   UNL     1      10.723   7.335   8.495  1.00  0.00    -0.237 OA
ATOM     76  O   UNL     1      10.202   5.790   6.636  1.00  0.00    -0.237 OA
ATOM     77  O   UNL     1       9.262   8.066   6.644  1.00  0.00    -0.744 OA
ENDBRANCH  73  74
ENDBRANCH  45  68
BRANCH  57  78
ATOM     78  C   UNL     1       4.409   4.022  16.347  1.00  0.00    -0.014 A 
ATOM     79  C   UNL     1       4.721   5.282  16.886  1.00  0.00     0.010 A 
ATOM     80  C   UNL     1       4.783   2.861  17.047  1.00  0.00     0.010 A 
ATOM     81  C   UNL     1       5.428   5.378  18.086  1.00  0.00     0.020 A 
ATOM     82  C   UNL     1       5.460   2.953  18.264  1.00  0.00     0.020 A 
ATOM     83  C   UNL     1       5.792   4.212  18.768  1.00  0.00     0.054 A 
BRANCH  83  84
ATOM     84  S   UNL     1       6.676   4.364  20.343  1.00  0.00     0.124 S 
ATOM     85  O   UNL     1       7.998   4.806  19.907  1.00  0.00    -0.237 OA
ATOM     86  O   UNL     1       5.883   5.361  21.058  1.00  0.00    -0.237 OA
ATOM     87  O   UNL     1       6.623   3.015  20.902  1.00  0.00    -0.744 OA
ENDBRANCH  83  84
ENDBRANCH  57  78
ENDBRANCH  31  32
ENDBRANCH  24  26
ENDBRANCH  23  24
ENDBRANCH  22  23
ENDBRANCH   1  22
TORSDOF 18
