REMARK SMILES COc1ccc(NC(=O)[C@@H]2[C@@H](C(=O)OCCOC(=O)c3ccc(-c4c5nc(c(-c6ccc(S(=O)(=O)[O-])cc6)c6ccc([nH]6)c(-c6ccc(S(=O)(=O)[O-])cc6)c6nc(c(-c7ccc(S(=O)(=O)[O-])cc7)c7ccc4[nH]7)C=C6)C=C5)cc3)[C@@H]3CC[C@H]2C3=C(C)C)cc1
REMARK SMILES IDX 15 1 14 2 12 3 13 4 11 5 10 6 83 7 80 8 82 9 84 10 81 11
REMARK SMILES IDX 85 12 86 13 87 14 8 15 7 16 9 18 6 19 3 20 4 21 89 22 5 23
REMARK SMILES IDX 88 24 2 25 1 26 16 27 17 28 18 29 19 30 20 31 21 32 79 33
REMARK SMILES IDX 22 34 78 35 23 36 24 37 25 38 72 39 26 40 77 41 71 42 73 43
REMARK SMILES IDX 27 44 76 45 70 46 69 47 28 49 58 50 39 51 57 52 40 53 43 54
REMARK SMILES IDX 56 55 74 56 41 57 42 58 55 60 75 61 44 62 29 63 30 64 38 65
REMARK SMILES IDX 31 66 37 67 32 68 33 69 34 70 35 71 36 72 59 73 60 74 68 75
REMARK SMILES IDX 61 76 67 77 62 78 63 79 64 80 65 81 66 82 45 83 46 84 54 85
REMARK SMILES IDX 47 86 53 87 48 88 49 89 50 90 51 91 52 92
REMARK H PARENT 7 17 73 48 43 59
REMARK Flexibility Score: inf
ROOT
ATOM      1  C   UNL     1      -2.808  -2.747  -2.223  1.00  0.00     0.274 C 
ENDROOT
BRANCH   1   2
ATOM      2  O   UNL     1      -2.450  -3.401  -3.458  1.00  0.00    -0.462 OA
BRANCH   2   3
ATOM      3  C   UNL     1      -1.253  -4.041  -3.453  1.00  0.00     0.310 C 
ATOM      4  O   UNL     1      -0.531  -4.148  -2.469  1.00  0.00    -0.252 OA
BRANCH   3   5
ATOM      5  C   UNL     1      -0.874  -4.649  -4.787  1.00  0.00     0.119 C 
ATOM      6  C   UNL     1      -0.886  -3.675  -5.990  1.00  0.00     0.101 C 
ATOM      7  C   UNL     1      -1.713  -4.476  -7.037  1.00  0.00     0.029 C 
ATOM      8  C   UNL     1      -1.858  -5.768  -5.189  1.00  0.00     0.030 C 
ATOM      9  C   UNL     1      -1.046  -5.815  -7.442  1.00  0.00     0.009 C 
ATOM     10  C   UNL     1      -2.773  -5.045  -6.134  1.00  0.00    -0.064 C 
ATOM     11  C   UNL     1      -1.154  -6.693  -6.184  1.00  0.00     0.009 C 
ATOM     12  C   UNL     1      -4.113  -4.990  -6.177  1.00  0.00    -0.077 C 
ATOM     13  C   UNL     1      -4.996  -5.731  -5.207  1.00  0.00     0.039 C 
ATOM     14  C   UNL     1      -4.844  -4.210  -7.231  1.00  0.00     0.039 C 
BRANCH   6  15
ATOM     15  C   UNL     1       0.494  -3.308  -6.543  1.00  0.00     0.228 C 
ATOM     16  N   UNL     1       1.502  -2.888  -5.723  1.00  0.00    -0.326 N 
ATOM     17  H   UNL     1       2.405  -3.029  -6.090  1.00  0.00     0.169 HD
ATOM     18  O   UNL     1       0.752  -3.409  -7.746  1.00  0.00    -0.274 OA
BRANCH  16  19
ATOM     19  C   UNL     1       1.487  -2.295  -4.455  1.00  0.00     0.041 A 
ATOM     20  C   UNL     1       1.553  -1.212  -1.869  1.00  0.00     0.119 A 
ATOM     21  C   UNL     1       0.484  -0.934  -2.719  1.00  0.00     0.048 A 
ATOM     22  C   UNL     1       2.608  -1.999  -2.326  1.00  0.00     0.048 A 
ATOM     23  C   UNL     1       0.455  -1.467  -4.014  1.00  0.00     0.030 A 
ATOM     24  C   UNL     1       2.592  -2.511  -3.626  1.00  0.00     0.030 A 
BRANCH  20  25
ATOM     25  O   UNL     1       1.576  -0.864  -0.549  1.00  0.00    -0.497 OA
ATOM     26  C   UNL     1       1.327   0.509  -0.281  1.00  0.00     0.278 C 
ENDBRANCH  20  25
ENDBRANCH  16  19
ENDBRANCH   6  15
ENDBRANCH   3   5
ENDBRANCH   2   3
ENDBRANCH   1   2
BRANCH   1  27
ATOM     27  C   UNL     1      -3.607  -3.646  -1.277  1.00  0.00     0.275 C 
BRANCH  27  28
ATOM     28  O   UNL     1      -2.793  -4.722  -0.779  1.00  0.00    -0.458 OA
BRANCH  28  29
ATOM     29  C   UNL     1      -3.134  -5.953  -1.217  1.00  0.00     0.338 C 
ATOM     30  O   UNL     1      -4.109  -6.255  -1.889  1.00  0.00    -0.246 OA
BRANCH  29  31
ATOM     31  C   UNL     1      -2.085  -6.925  -0.878  1.00  0.00     0.060 A 
ATOM     32  C   UNL     1      -1.161  -7.253  -1.870  1.00  0.00     0.016 A 
ATOM     33  C   UNL     1      -2.111  -7.635   0.321  1.00  0.00     0.016 A 
ATOM     34  C   UNL     1      -0.306  -8.331  -1.712  1.00  0.00     0.010 A 
ATOM     35  C   UNL     1      -1.221  -8.702   0.499  1.00  0.00     0.010 A 
ATOM     36  C   UNL     1      -0.343  -9.079  -0.534  1.00  0.00    -0.014 A 
BRANCH  36  37
ATOM     37  C   UNL     1       0.476 -10.310  -0.463  1.00  0.00     0.031 A 
ATOM     38  C   UNL     1      -0.193 -11.652  -0.565  1.00  0.00     0.074 A 
ATOM     39  C   UNL     1       1.818 -10.216  -0.410  1.00  0.00     0.049 A 
ATOM     40  N   UNL     1       0.341 -12.844  -0.516  1.00  0.00    -0.248 NA
ATOM     41  C   UNL     1      -1.655 -11.655  -0.751  1.00  0.00     0.031 C 
ATOM     42  C   UNL     1       2.579  -8.965  -0.373  1.00  0.00     0.029 A 
ATOM     43  N   UNL     1       2.780 -11.193  -0.398  1.00  0.00    -0.354 N 
ATOM     44  C   UNL     1      -0.718 -13.737  -0.623  1.00  0.00     0.074 A 
ATOM     45  C   UNL     1      -1.927 -12.952  -0.745  1.00  0.00     0.031 C 
ATOM     46  C   UNL     1       3.892  -9.251  -0.358  1.00  0.00     0.029 A 
ATOM     47  C   UNL     1       4.061 -10.701  -0.339  1.00  0.00     0.049 A 
ATOM     48  H   UNL     1       2.572 -12.155  -0.429  1.00  0.00     0.167 HD
ATOM     49  C   UNL     1      -0.684 -15.090  -0.615  1.00  0.00     0.031 A 
ATOM     50  C   UNL     1       5.239 -11.347  -0.256  1.00  0.00     0.031 A 
ATOM     51  C   UNL     1       0.523 -15.866  -0.525  1.00  0.00     0.049 A 
ATOM     52  C   UNL     1       5.246 -12.850  -0.233  1.00  0.00     0.074 A 
ATOM     53  C   UNL     1       0.664 -17.243  -0.518  1.00  0.00     0.029 A 
ATOM     54  N   UNL     1       1.798 -15.332  -0.436  1.00  0.00    -0.354 N 
ATOM     55  N   UNL     1       4.231 -13.678  -0.311  1.00  0.00    -0.248 NA
ATOM     56  C   UNL     1       6.555 -13.503  -0.105  1.00  0.00     0.031 C 
ATOM     57  C   UNL     1       2.026 -17.541  -0.391  1.00  0.00     0.029 A 
ATOM     58  C   UNL     1       2.732 -16.350  -0.355  1.00  0.00     0.049 A 
ATOM     59  H   UNL     1       2.009 -14.370  -0.431  1.00  0.00     0.167 HD
ATOM     60  C   UNL     1       4.781 -14.952  -0.243  1.00  0.00     0.074 A 
ATOM     61  C   UNL     1       6.217 -14.785  -0.145  1.00  0.00     0.031 C 
ATOM     62  C   UNL     1       4.154 -16.155  -0.250  1.00  0.00     0.031 A 
BRANCH  49  63
ATOM     63  C   UNL     1      -1.999 -15.816  -0.655  1.00  0.00    -0.014 A 
ATOM     64  C   UNL     1      -2.719 -15.965  -1.853  1.00  0.00     0.010 A 
ATOM     65  C   UNL     1      -2.503 -16.389   0.527  1.00  0.00     0.010 A 
ATOM     66  C   UNL     1      -3.935 -16.655  -1.862  1.00  0.00     0.020 A 
ATOM     67  C   UNL     1      -3.710 -17.093   0.518  1.00  0.00     0.020 A 
ATOM     68  C   UNL     1      -4.426 -17.210  -0.675  1.00  0.00     0.054 A 
BRANCH  68  69
ATOM     69  S   UNL     1      -5.990 -18.128  -0.714  1.00  0.00     0.124 S 
ATOM     70  O   UNL     1      -6.972 -17.047  -0.747  1.00  0.00    -0.237 OA
ATOM     71  O   UNL     1      -5.877 -18.910  -1.943  1.00  0.00    -0.237 OA
ATOM     72  O   UNL     1      -5.963 -18.909   0.520  1.00  0.00    -0.744 OA
ENDBRANCH  68  69
ENDBRANCH  49  63
BRANCH  50  73
ATOM     73  C   UNL     1       6.504 -10.575  -0.135  1.00  0.00    -0.014 A 
ATOM     74  C   UNL     1       7.423 -10.524  -1.195  1.00  0.00     0.010 A 
ATOM     75  C   UNL     1       6.790  -9.883   1.056  1.00  0.00     0.010 A 
ATOM     76  C   UNL     1       8.617  -9.808  -1.061  1.00  0.00     0.020 A 
ATOM     77  C   UNL     1       7.971  -9.148   1.186  1.00  0.00     0.020 A 
ATOM     78  C   UNL     1       8.884  -9.127   0.131  1.00  0.00     0.054 A 
BRANCH  78  79
ATOM     79  S   UNL     1      10.412  -8.159   0.278  1.00  0.00     0.124 S 
ATOM     80  O   UNL     1      11.383  -9.182   0.650  1.00  0.00    -0.237 OA
ATOM     81  O   UNL     1      10.568  -7.595  -1.061  1.00  0.00    -0.237 OA
ATOM     82  O   UNL     1      10.094  -7.184   1.319  1.00  0.00    -0.744 OA
ENDBRANCH  78  79
ENDBRANCH  50  73
BRANCH  62  83
ATOM     83  C   UNL     1       5.028 -17.372  -0.156  1.00  0.00    -0.014 A 
ATOM     84  C   UNL     1       5.600 -17.753   1.070  1.00  0.00     0.010 A 
ATOM     85  C   UNL     1       5.265 -18.152  -1.302  1.00  0.00     0.010 A 
ATOM     86  C   UNL     1       6.429 -18.874   1.142  1.00  0.00     0.020 A 
ATOM     87  C   UNL     1       6.078 -19.285  -1.229  1.00  0.00     0.020 A 
ATOM     88  C   UNL     1       6.671 -19.628  -0.011  1.00  0.00     0.054 A 
BRANCH  88  89
ATOM     89  S   UNL     1       7.737 -21.090   0.100  1.00  0.00     0.124 S 
ATOM     90  O   UNL     1       9.070 -20.499   0.021  1.00  0.00    -0.237 OA
ATOM     91  O   UNL     1       7.378 -21.660   1.397  1.00  0.00    -0.237 OA
ATOM     92  O   UNL     1       7.340 -21.892  -1.056  1.00  0.00    -0.744 OA
ENDBRANCH  88  89
ENDBRANCH  62  83
ENDBRANCH  36  37
ENDBRANCH  29  31
ENDBRANCH  28  29
ENDBRANCH  27  28
ENDBRANCH   1  27
TORSDOF 17
