REMARK SMILES Cc1cc2n(n1)[C@H](C(F)(F)F)CCN2C(=O)c1cnn([C@@H](C)C(=O)OCCOC(=O)c2ccc(-c3c4nc(c(-c5ccc(S(=O)(=O)[O-])cc5)c5ccc([nH]5)c(-c5ccc(S(=O)(=O)[O-])cc5)c5nc(c(-c6ccc(S(=O)(=O)[O-])cc6)c6ccc3[nH]6)C=C5)C=C4)cc2)c1
REMARK SMILES IDX 26 1 25 2 23 3 24 4 21 5 22 6 20 7 17 8 18 9 91 10 19 11
REMARK SMILES IDX 15 12 16 13 14 14 1 15 2 16 3 17 6 18 4 19 5 20 7 21 13 22
REMARK SMILES IDX 12 23 8 24 9 25 10 26 11 27 27 28 28 29 29 30 30 31 31 32
REMARK SMILES IDX 32 33 90 34 33 35 89 36 34 37 35 38 36 39 83 40 37 41 88 42
REMARK SMILES IDX 82 43 84 44 38 45 87 46 81 47 80 48 39 50 69 51 50 52 68 53
REMARK SMILES IDX 51 54 54 55 67 56 85 57 52 58 53 59 66 61 86 62 55 63 40 64
REMARK SMILES IDX 41 65 49 66 42 67 48 68 43 69 44 70 45 71 46 72 47 73 70 74
REMARK SMILES IDX 71 75 79 76 72 77 78 78 73 79 74 80 75 81 76 82 77 83 56 84
REMARK SMILES IDX 57 85 65 86 58 87 64 88 59 89 60 90 61 91 62 92 63 93
REMARK H PARENT 84 49 54 60
REMARK Flexibility Score: inf
ROOT
ATOM      1  C   UNL     1       4.204 -12.464   0.108  1.00  0.00     0.274 C 
ENDROOT
BRANCH   1   2
ATOM      2  O   UNL     1       3.002 -11.665   0.088  1.00  0.00    -0.460 OA
BRANCH   2   3
ATOM      3  C   UNL     1       2.358 -11.501   1.274  1.00  0.00     0.330 C 
ATOM      4  O   UNL     1       2.642 -12.123   2.297  1.00  0.00    -0.250 OA
BRANCH   3   5
ATOM      5  C   UNL     1       1.191 -10.540   1.238  1.00  0.00     0.213 C 
ATOM      6  C   UNL     1      -0.055 -11.259   0.747  1.00  0.00     0.046 C 
BRANCH   5   7
ATOM      7  N   UNL     1       1.418  -9.273   0.540  1.00  0.00    -0.258 N 
ATOM      8  C   UNL     1       1.539  -7.107   0.083  1.00  0.00     0.078 A 
ATOM      9  C   UNL     1       1.866  -7.923  -1.021  1.00  0.00     0.149 A 
ATOM     10  C   UNL     1       1.276  -8.020   1.090  1.00  0.00     0.123 A 
ATOM     11  N   UNL     1       1.613  -9.216  -0.796  1.00  0.00    -0.180 NA
BRANCH   8  12
ATOM     12  C   UNL     1       1.545  -5.667   0.220  1.00  0.00     0.262 C 
ATOM     13  O   UNL     1       2.148  -5.074   1.094  1.00  0.00    -0.269 OA
BRANCH  12  14
ATOM     14  N   UNL     1       0.626  -4.983  -0.694  1.00  0.00    -0.293 N 
ATOM     15  C   UNL     1       1.160  -0.014  -0.018  1.00  0.00     0.069 C 
ATOM     16  C   UNL     1       0.756  -1.374  -0.458  1.00  0.00     0.062 A 
ATOM     17  C   UNL     1       1.318  -2.620  -0.063  1.00  0.00     0.072 A 
ATOM     18  N   UNL     1      -0.259  -1.543  -1.317  1.00  0.00    -0.176 NA
ATOM     19  C   UNL     1       0.565  -3.578  -0.701  1.00  0.00     0.134 A 
ATOM     20  N   UNL     1      -0.354  -2.870  -1.430  1.00  0.00    -0.237 N 
ATOM     21  C   UNL     1      -1.330  -3.466  -2.314  1.00  0.00     0.216 C 
ATOM     22  C   UNL     1      -0.438  -5.707  -1.431  1.00  0.00     0.130 C 
ATOM     23  C   UNL     1      -0.930  -4.911  -2.643  1.00  0.00     0.059 C 
BRANCH  21  24
ATOM     24  C   UNL     1      -2.715  -3.381  -1.713  1.00  0.00     0.410 C 
ATOM     25  F   UNL     1      -3.611  -3.957  -2.558  1.00  0.00    -0.169 F 
ATOM     26  F   UNL     1      -2.799  -4.061  -0.547  1.00  0.00    -0.169 F 
ATOM     27  F   UNL     1      -3.141  -2.122  -1.503  1.00  0.00    -0.169 F 
ENDBRANCH  21  24
ENDBRANCH  12  14
ENDBRANCH   8  12
ENDBRANCH   5   7
ENDBRANCH   3   5
ENDBRANCH   2   3
ENDBRANCH   1   2
BRANCH   1  28
ATOM     28  C   UNL     1       5.448 -11.624   0.383  1.00  0.00     0.275 C 
BRANCH  28  29
ATOM     29  O   UNL     1       5.464 -11.150   1.730  1.00  0.00    -0.458 OA
BRANCH  29  30
ATOM     30  C   UNL     1       4.852  -9.959   1.900  1.00  0.00     0.338 C 
ATOM     31  O   UNL     1       4.190  -9.354   1.072  1.00  0.00    -0.246 OA
BRANCH  30  32
ATOM     32  C   UNL     1       5.207  -9.357   3.181  1.00  0.00     0.060 A 
ATOM     33  C   UNL     1       4.608  -8.122   3.467  1.00  0.00     0.016 A 
ATOM     34  C   UNL     1       6.347  -9.810   3.848  1.00  0.00     0.016 A 
ATOM     35  C   UNL     1       5.295  -7.229   4.253  1.00  0.00     0.010 A 
ATOM     36  C   UNL     1       7.042  -8.910   4.617  1.00  0.00     0.010 A 
ATOM     37  C   UNL     1       6.550  -7.607   4.726  1.00  0.00    -0.014 A 
BRANCH  37  38
ATOM     38  C   UNL     1       7.390  -6.581   5.300  1.00  0.00     0.031 A 
ATOM     39  C   UNL     1       7.112  -6.271   6.716  1.00  0.00     0.074 A 
ATOM     40  C   UNL     1       8.437  -6.093   4.611  1.00  0.00     0.049 A 
ATOM     41  N   UNL     1       6.790  -5.138   7.244  1.00  0.00    -0.248 NA
ATOM     42  C   UNL     1       7.079  -7.411   7.646  1.00  0.00     0.031 C 
ATOM     43  C   UNL     1       8.968  -6.577   3.331  1.00  0.00     0.029 A 
ATOM     44  N   UNL     1       9.345  -5.160   4.994  1.00  0.00    -0.354 N 
ATOM     45  C   UNL     1       6.688  -5.385   8.608  1.00  0.00     0.074 A 
ATOM     46  C   UNL     1       6.702  -6.816   8.774  1.00  0.00     0.031 C 
ATOM     47  C   UNL     1      10.228  -6.114   3.178  1.00  0.00     0.029 A 
ATOM     48  C   UNL     1      10.533  -5.216   4.280  1.00  0.00     0.049 A 
ATOM     49  H   UNL     1       9.176  -4.506   5.710  1.00  0.00     0.167 HD
ATOM     50  C   UNL     1       6.834  -4.410   9.543  1.00  0.00     0.031 A 
ATOM     51  C   UNL     1      11.711  -4.657   4.646  1.00  0.00     0.031 A 
ATOM     52  C   UNL     1       6.714  -3.091   8.990  1.00  0.00     0.049 A 
ATOM     53  C   UNL     1      11.415  -3.616   5.662  1.00  0.00     0.074 A 
ATOM     54  C   UNL     1       5.701  -2.391   8.368  1.00  0.00     0.029 A 
ATOM     55  N   UNL     1       7.877  -2.414   8.711  1.00  0.00    -0.354 N 
ATOM     56  N   UNL     1      10.731  -2.534   5.410  1.00  0.00    -0.248 NA
ATOM     57  C   UNL     1      11.519  -3.964   7.072  1.00  0.00     0.031 C 
ATOM     58  C   UNL     1       6.349  -1.580   7.393  1.00  0.00     0.029 A 
ATOM     59  C   UNL     1       7.725  -1.810   7.487  1.00  0.00     0.049 A 
ATOM     60  H   UNL     1       8.676  -2.371   9.285  1.00  0.00     0.167 HD
ATOM     61  C   UNL     1       9.992  -2.294   6.561  1.00  0.00     0.074 A 
ATOM     62  C   UNL     1      10.611  -3.129   7.585  1.00  0.00     0.031 C 
ATOM     63  C   UNL     1       8.784  -1.658   6.505  1.00  0.00     0.031 A 
BRANCH  50  64
ATOM     64  C   UNL     1       7.443  -4.681  10.892  1.00  0.00    -0.014 A 
ATOM     65  C   UNL     1       7.383  -3.698  11.894  1.00  0.00     0.010 A 
ATOM     66  C   UNL     1       8.293  -5.786  11.122  1.00  0.00     0.010 A 
ATOM     67  C   UNL     1       8.165  -3.802  13.053  1.00  0.00     0.020 A 
ATOM     68  C   UNL     1       9.034  -5.926  12.293  1.00  0.00     0.020 A 
ATOM     69  C   UNL     1       8.993  -4.912  13.237  1.00  0.00     0.054 A 
BRANCH  69  70
ATOM     70  S   UNL     1      10.085  -4.987  14.676  1.00  0.00     0.124 S 
ATOM     71  O   UNL     1      11.045  -3.930  14.373  1.00  0.00    -0.237 OA
ATOM     72  O   UNL     1       9.166  -4.715  15.778  1.00  0.00    -0.237 OA
ATOM     73  O   UNL     1      10.614  -6.348  14.633  1.00  0.00    -0.744 OA
ENDBRANCH  69  70
ENDBRANCH  50  64
BRANCH  51  74
ATOM     74  C   UNL     1      13.063  -5.228   4.427  1.00  0.00    -0.014 A 
ATOM     75  C   UNL     1      14.220  -4.450   4.604  1.00  0.00     0.010 A 
ATOM     76  C   UNL     1      13.227  -6.622   4.279  1.00  0.00     0.010 A 
ATOM     77  C   UNL     1      15.488  -5.051   4.675  1.00  0.00     0.020 A 
ATOM     78  C   UNL     1      14.486  -7.227   4.335  1.00  0.00     0.020 A 
ATOM     79  C   UNL     1      15.611  -6.439   4.555  1.00  0.00     0.054 A 
BRANCH  79  80
ATOM     80  S   UNL     1      17.229  -7.223   4.808  1.00  0.00     0.124 S 
ATOM     81  O   UNL     1      17.962  -6.810   3.615  1.00  0.00    -0.237 OA
ATOM     82  O   UNL     1      17.674  -6.628   6.065  1.00  0.00    -0.237 OA
ATOM     83  O   UNL     1      16.912  -8.649   4.879  1.00  0.00    -0.744 OA
ENDBRANCH  79  80
ENDBRANCH  51  74
BRANCH  63  84
ATOM     84  C   UNL     1       8.390  -0.991   5.202  1.00  0.00    -0.014 A 
ATOM     85  C   UNL     1       8.168  -1.718   4.015  1.00  0.00     0.010 A 
ATOM     86  C   UNL     1       8.052   0.373   5.221  1.00  0.00     0.010 A 
ATOM     87  C   UNL     1       7.623  -1.100   2.881  1.00  0.00     0.020 A 
ATOM     88  C   UNL     1       7.492   0.993   4.097  1.00  0.00     0.020 A 
ATOM     89  C   UNL     1       7.276   0.252   2.933  1.00  0.00     0.054 A 
BRANCH  89  90
ATOM     90  S   UNL     1       6.461   1.009   1.497  1.00  0.00     0.124 S 
ATOM     91  O   UNL     1       7.537   1.067   0.512  1.00  0.00    -0.237 OA
ATOM     92  O   UNL     1       5.384   0.067   1.193  1.00  0.00    -0.237 OA
ATOM     93  O   UNL     1       6.006   2.306   1.997  1.00  0.00    -0.744 OA
ENDBRANCH  89  90
ENDBRANCH  63  84
ENDBRANCH  37  38
ENDBRANCH  30  32
ENDBRANCH  29  30
ENDBRANCH  28  29
ENDBRANCH   1  28
TORSDOF 18
