REMARK SMILES O=C(OCCOC(=O)c1cc(Cl)cc(Cl)c1NC(=S)NC(=O)c1cccc2ccccc12)c1ccc(-c2c3nc(c(-c4ccc(S(=O)(=O)[O-])cc4)c4ccc([nH]4)c(-c4ccc(S(=O)(=O)[O-])cc4)c4nc(c(-c5ccc(S(=O)(=O)[O-])cc5)c5ccc2[nH]5)C=C4)C=C3)cc1
REMARK SMILES IDX 5 1 4 2 3 3 2 4 1 5 33 6 34 7 92 8 35 9 91 10 36 11 37 12
REMARK SMILES IDX 38 13 85 14 39 15 90 16 84 17 86 18 40 19 89 20 83 21 82 22
REMARK SMILES IDX 41 24 71 25 52 26 70 27 53 28 56 29 69 30 87 31 54 32 55 33
REMARK SMILES IDX 68 35 88 36 57 37 42 38 43 39 51 40 44 41 50 42 45 43 46 44
REMARK SMILES IDX 47 45 48 46 49 47 72 48 73 49 81 50 74 51 80 52 75 53 76 54
REMARK SMILES IDX 77 55 78 56 79 57 58 58 59 59 67 60 60 61 66 62 61 63 62 64
REMARK SMILES IDX 63 65 64 66 65 67 6 68 7 69 8 70 9 71 10 72 16 73 11 74
REMARK SMILES IDX 14 75 12 76 13 77 15 78 17 79 18 81 19 82 20 83 21 84 22 86
REMARK SMILES IDX 23 87 24 88 32 89 25 90 27 91 31 92 26 93 28 94 30 95 29 96
REMARK H PARENT 86 23 56 34 17 80 20 85
REMARK Flexibility Score: inf
ROOT
ATOM      1  C   UNL     1       3.863  -2.027  -0.731  1.00  0.00     0.275 C 
ENDROOT
BRANCH   1   2
ATOM      2  C   UNL     1       4.612  -1.657   0.553  1.00  0.00     0.275 C 
BRANCH   2   3
ATOM      3  O   UNL     1       3.988  -0.631   1.324  1.00  0.00    -0.458 OA
BRANCH   3   4
ATOM      4  C   UNL     1       3.966   0.701   1.109  1.00  0.00     0.338 C 
ATOM      5  O   UNL     1       3.248   1.371   1.851  1.00  0.00    -0.246 OA
BRANCH   4   6
ATOM      6  C   UNL     1       4.663   1.413  -0.026  1.00  0.00     0.060 A 
ATOM      7  C   UNL     1       5.668   0.966  -0.892  1.00  0.00     0.016 A 
ATOM      8  C   UNL     1       4.207   2.713  -0.237  1.00  0.00     0.016 A 
ATOM      9  C   UNL     1       6.191   1.792  -1.922  1.00  0.00     0.010 A 
ATOM     10  C   UNL     1       4.610   3.472  -1.332  1.00  0.00     0.010 A 
ATOM     11  C   UNL     1       5.672   3.064  -2.149  1.00  0.00    -0.014 A 
BRANCH  11  12
ATOM     12  C   UNL     1       6.277   4.127  -3.018  1.00  0.00     0.031 A 
ATOM     13  C   UNL     1       6.497   5.469  -2.347  1.00  0.00     0.074 A 
ATOM     14  C   UNL     1       6.456   4.012  -4.351  1.00  0.00     0.049 A 
ATOM     15  N   UNL     1       6.498   6.672  -2.852  1.00  0.00    -0.248 NA
ATOM     16  C   UNL     1       6.615   5.436  -0.872  1.00  0.00     0.031 C 
ATOM     17  C   UNL     1       6.300   2.796  -5.149  1.00  0.00     0.029 A 
ATOM     18  N   UNL     1       6.663   5.002  -5.298  1.00  0.00    -0.354 N 
ATOM     19  C   UNL     1       6.605   7.519  -1.752  1.00  0.00     0.074 A 
ATOM     20  C   UNL     1       6.431   6.710  -0.571  1.00  0.00     0.031 C 
ATOM     21  C   UNL     1       6.239   3.131  -6.452  1.00  0.00     0.029 A 
ATOM     22  C   UNL     1       6.306   4.585  -6.569  1.00  0.00     0.049 A 
ATOM     23  H   UNL     1       7.023   5.895  -5.091  1.00  0.00     0.167 HD
ATOM     24  C   UNL     1       6.956   8.826  -1.711  1.00  0.00     0.031 A 
ATOM     25  C   UNL     1       5.926   5.306  -7.648  1.00  0.00     0.031 A 
ATOM     26  C   UNL     1       7.213   9.584  -2.898  1.00  0.00     0.049 A 
ATOM     27  C   UNL     1       6.096   6.799  -7.619  1.00  0.00     0.074 A 
ATOM     28  C   UNL     1       7.795  10.828  -3.032  1.00  0.00     0.029 A 
ATOM     29  N   UNL     1       6.902   9.137  -4.172  1.00  0.00    -0.354 N 
ATOM     30  N   UNL     1       6.350   7.580  -6.597  1.00  0.00    -0.248 NA
ATOM     31  C   UNL     1       6.026   7.493  -8.912  1.00  0.00     0.031 C 
ATOM     32  C   UNL     1       7.806  11.148  -4.395  1.00  0.00     0.029 A 
ATOM     33  C   UNL     1       7.278  10.079  -5.104  1.00  0.00     0.049 A 
ATOM     34  H   UNL     1       6.475   8.274  -4.380  1.00  0.00     0.167 HD
ATOM     35  C   UNL     1       6.625   8.829  -7.146  1.00  0.00     0.074 A 
ATOM     36  C   UNL     1       6.397   8.721  -8.572  1.00  0.00     0.031 C 
ATOM     37  C   UNL     1       7.109   9.933  -6.527  1.00  0.00     0.031 A 
BRANCH  24  38
ATOM     38  C   UNL     1       7.200   9.438  -0.352  1.00  0.00    -0.014 A 
ATOM     39  C   UNL     1       8.172   8.890   0.511  1.00  0.00     0.010 A 
ATOM     40  C   UNL     1       6.460  10.548   0.087  1.00  0.00     0.010 A 
ATOM     41  C   UNL     1       8.319   9.357   1.816  1.00  0.00     0.020 A 
ATOM     42  C   UNL     1       6.640  11.055   1.381  1.00  0.00     0.020 A 
ATOM     43  C   UNL     1       7.543  10.432   2.247  1.00  0.00     0.054 A 
BRANCH  43  44
ATOM     44  S   UNL     1       7.749  11.005   3.954  1.00  0.00     0.124 S 
ATOM     45  O   UNL     1       7.089   9.943   4.710  1.00  0.00    -0.237 OA
ATOM     46  O   UNL     1       9.202  11.065   4.098  1.00  0.00    -0.237 OA
ATOM     47  O   UNL     1       7.071  12.299   3.970  1.00  0.00    -0.744 OA
ENDBRANCH  43  44
ENDBRANCH  24  38
BRANCH  25  48
ATOM     48  C   UNL     1       5.293   4.655  -8.832  1.00  0.00    -0.014 A 
ATOM     49  C   UNL     1       6.064   4.213  -9.917  1.00  0.00     0.010 A 
ATOM     50  C   UNL     1       3.893   4.501  -8.894  1.00  0.00     0.010 A 
ATOM     51  C   UNL     1       5.451   3.612 -11.024  1.00  0.00     0.020 A 
ATOM     52  C   UNL     1       3.277   3.873  -9.983  1.00  0.00     0.020 A 
ATOM     53  C   UNL     1       4.064   3.430 -11.044  1.00  0.00     0.054 A 
BRANCH  53  54
ATOM     54  S   UNL     1       3.317   2.576 -12.462  1.00  0.00     0.124 S 
ATOM     55  O   UNL     1       3.582   3.507 -13.555  1.00  0.00    -0.237 OA
ATOM     56  O   UNL     1       4.074   1.327 -12.498  1.00  0.00    -0.237 OA
ATOM     57  O   UNL     1       1.913   2.436 -12.084  1.00  0.00    -0.744 OA
ENDBRANCH  53  54
ENDBRANCH  25  48
BRANCH  37  58
ATOM     58  C   UNL     1       7.649  11.041  -7.384  1.00  0.00    -0.014 A 
ATOM     59  C   UNL     1       6.825  11.975  -8.026  1.00  0.00     0.010 A 
ATOM     60  C   UNL     1       9.049  11.203  -7.428  1.00  0.00     0.010 A 
ATOM     61  C   UNL     1       7.396  13.065  -8.690  1.00  0.00     0.020 A 
ATOM     62  C   UNL     1       9.620  12.303  -8.063  1.00  0.00     0.020 A 
ATOM     63  C   UNL     1       8.788  13.229  -8.691  1.00  0.00     0.054 A 
BRANCH  63  64
ATOM     64  S   UNL     1       9.497  14.713  -9.454  1.00  0.00     0.124 S 
ATOM     65  O   UNL     1       9.313  14.440 -10.877  1.00  0.00    -0.237 OA
ATOM     66  O   UNL     1       8.666  15.781  -8.905  1.00  0.00    -0.237 OA
ATOM     67  O   UNL     1      10.884  14.712  -8.993  1.00  0.00    -0.744 OA
ENDBRANCH  63  64
ENDBRANCH  37  58
ENDBRANCH  11  12
ENDBRANCH   4   6
ENDBRANCH   3   4
ENDBRANCH   2   3
ENDBRANCH   1   2
BRANCH   1  68
ATOM     68  O   UNL     1       3.179  -0.919  -1.335  1.00  0.00    -0.458 OA
BRANCH  68  69
ATOM     69  C   UNL     1       1.868  -0.740  -1.004  1.00  0.00     0.340 C 
ATOM     70  O   UNL     1       1.172  -1.454  -0.309  1.00  0.00    -0.246 OA
BRANCH  69  71
ATOM     71  C   UNL     1       1.466   0.562  -1.558  1.00  0.00     0.086 A 
ATOM     72  C   UNL     1       1.668   0.836  -2.913  1.00  0.00     0.038 A 
ATOM     73  C   UNL     1       0.850   1.556  -0.817  1.00  0.00     0.074 A 
ATOM     74  C   UNL     1       1.199   2.101  -3.473  1.00  0.00     0.043 A 
ATOM     75  C   UNL     1       1.233   2.832  -1.117  1.00  0.00     0.066 A 
ATOM     76  Cl  UNL     1      -0.209   2.521  -5.453  1.00  0.00    -0.084 Cl
ATOM     77  C   UNL     1       1.600   3.056  -2.424  1.00  0.00     0.043 A 
ATOM     78  Cl  UNL     1       1.078   4.165  -0.028  1.00  0.00    -0.082 Cl
BRANCH  73  79
ATOM     79  N   UNL     1      -0.356   1.319  -0.147  1.00  0.00    -0.330 N 
ATOM     80  H   UNL     1      -0.433   0.458   0.325  1.00  0.00     0.169 HD
BRANCH  79  81
ATOM     81  C   UNL     1      -1.433   2.147  -0.077  1.00  0.00     0.177 C 
ATOM     82  S   UNL     1      -2.462   1.989   1.237  1.00  0.00    -0.040 S 
BRANCH  81  83
ATOM     83  N   UNL     1      -1.763   3.120  -1.036  1.00  0.00    -0.299 N 
ATOM     84  C   UNL     1      -1.531   3.729  -2.312  1.00  0.00     0.258 C 
ATOM     85  H   UNL     1      -2.513   3.623  -0.643  1.00  0.00     0.172 HD
ATOM     86  O   UNL     1      -2.012   4.842  -2.526  1.00  0.00    -0.269 OA
BRANCH  84  87
ATOM     87  C   UNL     1      -0.720   3.112  -3.379  1.00  0.00     0.048 A 
ATOM     88  C   UNL     1      -0.862   1.333  -3.664  1.00  0.00     0.014 A 
ATOM     89  C   UNL     1       0.596   4.130  -4.200  1.00  0.00    -0.006 A 
ATOM     90  C   UNL     1       0.301   0.492  -4.766  1.00  0.00     0.001 A 
ATOM     91  C   UNL     1       1.871   3.236  -5.162  1.00  0.00    -0.018 A 
ATOM     92  C   UNL     1       0.831   5.514  -4.096  1.00  0.00     0.009 A 
ATOM     93  C   UNL     1       1.702   1.434  -5.458  1.00  0.00     0.009 A 
ATOM     94  C   UNL     1       2.957   3.974  -5.567  1.00  0.00     0.009 A 
ATOM     95  C   UNL     1       2.047   6.059  -4.551  1.00  0.00     0.001 A 
ATOM     96  C   UNL     1       3.058   5.324  -5.217  1.00  0.00     0.001 A 
ENDBRANCH  84  87
ENDBRANCH  81  83
ENDBRANCH  79  81
ENDBRANCH  73  79
ENDBRANCH  69  71
ENDBRANCH  68  69
ENDBRANCH   1  68
TORSDOF 18
