REMARK SMILES NC(=O)c1ccc(NC(=O)Cc2ccccc2C(=O)OCCOC(=O)c2ccc(-c3c4nc(c(-c5ccc(S(=O)(=O)[O-])cc5)c5ccc([nH]5)c(-c5ccc(S(=O)(=O)[O-])cc5)c5nc(c(-c6ccc(S(=O)(=O)[O-])cc6)c6ccc3[nH]6)C=C5)C=C4)cc2)cc1
REMARK SMILES IDX 21 1 20 2 18 3 19 4 17 5 12 6 13 7 14 8 16 9 15 10 11 11
REMARK SMILES IDX 9 12 8 13 10 15 7 16 4 17 5 18 87 19 6 20 86 21 2 22 1 23
REMARK SMILES IDX 3 26 22 27 23 28 24 29 25 30 26 31 27 32 85 33 28 34 84 35
REMARK SMILES IDX 29 36 30 37 31 38 78 39 32 40 83 41 77 42 79 43 33 44 82 45
REMARK SMILES IDX 76 46 75 47 34 49 64 50 45 51 63 52 46 53 49 54 62 55 80 56
REMARK SMILES IDX 47 57 48 58 61 60 81 61 50 62 35 63 36 64 44 65 37 66 43 67
REMARK SMILES IDX 38 68 39 69 40 70 41 71 42 72 65 73 66 74 74 75 67 76 73 77
REMARK SMILES IDX 68 78 69 79 70 80 71 81 72 82 51 83 52 84 60 85 53 86 59 87
REMARK SMILES IDX 54 88 55 89 56 90 57 91 58 92
REMARK H PARENT 8 14 1 24 1 25 79 48 49 59
REMARK Flexibility Score: inf
ROOT
ATOM      1  C   UNL     1       0.768   1.319   6.512  1.00  0.00     0.275 C 
ENDROOT
BRANCH   1   2
ATOM      2  O   UNL     1       0.264   2.675   6.454  1.00  0.00    -0.458 OA
BRANCH   2   3
ATOM      3  C   UNL     1      -0.274   2.999   5.255  1.00  0.00     0.338 C 
ATOM      4  O   UNL     1      -0.460   2.203   4.346  1.00  0.00    -0.246 OA
BRANCH   3   5
ATOM      5  C   UNL     1      -0.554   4.434   5.048  1.00  0.00     0.063 A 
ATOM      6  C   UNL     1       0.441   5.428   5.103  1.00  0.00    -0.024 A 
ATOM      7  C   UNL     1       0.084   6.738   4.716  1.00  0.00     0.005 A 
ATOM      8  C   UNL     1      -1.189   7.034   4.218  1.00  0.00     0.000 A 
ATOM      9  C   UNL     1      -1.835   4.749   4.559  1.00  0.00     0.016 A 
ATOM     10  C   UNL     1      -2.149   6.036   4.132  1.00  0.00     0.001 A 
BRANCH   6  11
ATOM     11  C   UNL     1       1.857   5.164   5.568  1.00  0.00     0.136 C 
BRANCH  11  12
ATOM     12  C   UNL     1       2.946   5.708   4.654  1.00  0.00     0.228 C 
ATOM     13  N   UNL     1       3.235   5.199   3.420  1.00  0.00    -0.326 N 
ATOM     14  H   UNL     1       3.901   5.733   2.929  1.00  0.00     0.169 HD
ATOM     15  O   UNL     1       3.588   6.707   5.008  1.00  0.00    -0.274 OA
BRANCH  13  16
ATOM     16  C   UNL     1       2.786   4.080   2.700  1.00  0.00     0.041 A 
ATOM     17  C   UNL     1       1.640   2.069   1.113  1.00  0.00     0.039 A 
ATOM     18  C   UNL     1       1.692   1.930   2.494  1.00  0.00     0.016 A 
ATOM     19  C   UNL     1       2.278   3.144   0.501  1.00  0.00     0.016 A 
ATOM     20  C   UNL     1       2.282   2.926   3.281  1.00  0.00     0.027 A 
ATOM     21  C   UNL     1       2.862   4.139   1.299  1.00  0.00     0.027 A 
BRANCH  17  22
ATOM     22  C   UNL     1       0.799   1.131   0.350  1.00  0.00     0.248 C 
ATOM     23  N   UNL     1       1.451   0.271  -0.479  1.00  0.00    -0.366 N 
ATOM     24  H   UNL     1       0.940  -0.379  -1.014  1.00  0.00     0.159 HD
ATOM     25  H   UNL     1       2.433   0.297  -0.543  1.00  0.00     0.159 HD
ATOM     26  O   UNL     1      -0.415   1.118   0.490  1.00  0.00    -0.270 OA
ENDBRANCH  17  22
ENDBRANCH  13  16
ENDBRANCH  11  12
ENDBRANCH   6  11
ENDBRANCH   3   5
ENDBRANCH   2   3
ENDBRANCH   1   2
BRANCH   1  27
ATOM     27  C   UNL     1      -0.251   0.272   6.974  1.00  0.00     0.275 C 
BRANCH  27  28
ATOM     28  O   UNL     1      -1.313   0.079   6.024  1.00  0.00    -0.458 OA
BRANCH  28  29
ATOM     29  C   UNL     1      -2.438   0.777   6.303  1.00  0.00     0.338 C 
ATOM     30  O   UNL     1      -2.634   1.494   7.269  1.00  0.00    -0.246 OA
BRANCH  29  31
ATOM     31  C   UNL     1      -3.452   0.605   5.251  1.00  0.00     0.060 A 
ATOM     32  C   UNL     1      -3.376   1.392   4.106  1.00  0.00     0.016 A 
ATOM     33  C   UNL     1      -4.601  -0.136   5.511  1.00  0.00     0.016 A 
ATOM     34  C   UNL     1      -4.483   1.564   3.294  1.00  0.00     0.010 A 
ATOM     35  C   UNL     1      -5.678  -0.060   4.621  1.00  0.00     0.010 A 
ATOM     36  C   UNL     1      -5.646   0.832   3.533  1.00  0.00    -0.014 A 
BRANCH  36  37
ATOM     37  C   UNL     1      -6.839   1.057   2.683  1.00  0.00     0.031 A 
ATOM     38  C   UNL     1      -8.122   1.513   3.319  1.00  0.00     0.074 A 
ATOM     39  C   UNL     1      -6.760   0.888   1.348  1.00  0.00     0.049 A 
ATOM     40  N   UNL     1      -9.326   1.557   2.812  1.00  0.00    -0.248 NA
ATOM     41  C   UNL     1      -8.044   1.964   4.720  1.00  0.00     0.031 C 
ATOM     42  C   UNL     1      -5.544   0.549   0.601  1.00  0.00     0.029 A 
ATOM     43  N   UNL     1      -7.724   0.985   0.377  1.00  0.00    -0.354 N 
ATOM     44  C   UNL     1     -10.157   1.969   3.849  1.00  0.00     0.074 A 
ATOM     45  C   UNL     1      -9.321   2.163   5.013  1.00  0.00     0.031 C 
ATOM     46  C   UNL     1      -5.828   0.500  -0.708  1.00  0.00     0.029 A 
ATOM     47  C   UNL     1      -7.261   0.689  -0.883  1.00  0.00     0.049 A 
ATOM     48  H   UNL     1      -8.655   1.243   0.564  1.00  0.00     0.167 HD
ATOM     49  C   UNL     1     -11.498   2.155   3.825  1.00  0.00     0.031 A 
ATOM     50  C   UNL     1      -7.924   0.524  -2.042  1.00  0.00     0.031 A 
ATOM     51  C   UNL     1     -12.299   1.984   2.640  1.00  0.00     0.049 A 
ATOM     52  C   UNL     1      -9.418   0.665  -2.031  1.00  0.00     0.074 A 
ATOM     53  C   UNL     1     -13.665   2.137   2.491  1.00  0.00     0.029 A 
ATOM     54  N   UNL     1     -11.796   1.636   1.393  1.00  0.00    -0.354 N 
ATOM     55  N   UNL     1     -10.208   0.975  -1.030  1.00  0.00    -0.248 NA
ATOM     56  C   UNL     1     -10.114   0.418  -3.300  1.00  0.00     0.031 C 
ATOM     57  C   UNL     1     -13.995   1.829   1.167  1.00  0.00     0.029 A 
ATOM     58  C   UNL     1     -12.826   1.549   0.474  1.00  0.00     0.049 A 
ATOM     59  H   UNL     1     -10.846   1.474   1.193  1.00  0.00     0.167 HD
ATOM     60  C   UNL     1     -11.495   0.980  -1.551  1.00  0.00     0.074 A 
ATOM     61  C   UNL     1     -11.373   0.659  -2.961  1.00  0.00     0.031 C 
ATOM     62  C   UNL     1     -12.672   1.226  -0.924  1.00  0.00     0.031 A 
BRANCH  49  63
ATOM     63  C   UNL     1     -12.181   2.492   5.127  1.00  0.00    -0.014 A 
ATOM     64  C   UNL     1     -12.005   3.735   5.760  1.00  0.00     0.010 A 
ATOM     65  C   UNL     1     -13.023   1.536   5.727  1.00  0.00     0.010 A 
ATOM     66  C   UNL     1     -12.616   3.996   6.991  1.00  0.00     0.020 A 
ATOM     67  C   UNL     1     -13.661   1.805   6.941  1.00  0.00     0.020 A 
ATOM     68  C   UNL     1     -13.436   3.026   7.577  1.00  0.00     0.054 A 
BRANCH  68  69
ATOM     69  S   UNL     1     -14.219   3.391   9.173  1.00  0.00     0.124 S 
ATOM     70  O   UNL     1     -13.084   3.317  10.090  1.00  0.00    -0.237 OA
ATOM     71  O   UNL     1     -14.768   4.728   8.962  1.00  0.00    -0.237 OA
ATOM     72  O   UNL     1     -15.211   2.330   9.325  1.00  0.00    -0.744 OA
ENDBRANCH  68  69
ENDBRANCH  49  63
BRANCH  50  73
ATOM     73  C   UNL     1      -7.180   0.146  -3.276  1.00  0.00    -0.014 A 
ATOM     74  C   UNL     1      -7.067   1.045  -4.349  1.00  0.00     0.010 A 
ATOM     75  C   UNL     1      -6.540  -1.106  -3.366  1.00  0.00     0.010 A 
ATOM     76  C   UNL     1      -6.334   0.699  -5.489  1.00  0.00     0.020 A 
ATOM     77  C   UNL     1      -5.780  -1.443  -4.489  1.00  0.00     0.020 A 
ATOM     78  C   UNL     1      -5.690  -0.540  -5.549  1.00  0.00     0.054 A 
BRANCH  78  79
ATOM     79  S   UNL     1      -4.692  -0.940  -7.011  1.00  0.00     0.124 S 
ATOM     80  O   UNL     1      -5.716  -1.176  -8.023  1.00  0.00    -0.237 OA
ATOM     81  O   UNL     1      -3.892   0.270  -7.189  1.00  0.00    -0.237 OA
ATOM     82  O   UNL     1      -3.935  -2.121  -6.599  1.00  0.00    -0.744 OA
ENDBRANCH  78  79
ENDBRANCH  50  73
BRANCH  62  83
ATOM     83  C   UNL     1     -13.914   1.198  -1.771  1.00  0.00    -0.014 A 
ATOM     84  C   UNL     1     -14.444  -0.011  -2.253  1.00  0.00     0.010 A 
ATOM     85  C   UNL     1     -14.585   2.404  -2.047  1.00  0.00     0.010 A 
ATOM     86  C   UNL     1     -15.608  -0.011  -3.024  1.00  0.00     0.020 A 
ATOM     87  C   UNL     1     -15.765   2.405  -2.792  1.00  0.00     0.020 A 
ATOM     88  C   UNL     1     -16.261   1.198  -3.288  1.00  0.00     0.054 A 
BRANCH  88  89
ATOM     89  S   UNL     1     -17.795   1.167  -4.253  1.00  0.00     0.124 S 
ATOM     90  O   UNL     1     -17.301   0.896  -5.600  1.00  0.00    -0.237 OA
ATOM     91  O   UNL     1     -18.545   0.080  -3.628  1.00  0.00    -0.237 OA
ATOM     92  O   UNL     1     -18.359   2.500  -4.052  1.00  0.00    -0.744 OA
ENDBRANCH  88  89
ENDBRANCH  62  83
ENDBRANCH  36  37
ENDBRANCH  29  31
ENDBRANCH  28  29
ENDBRANCH  27  28
ENDBRANCH   1  27
TORSDOF 18
