REMARK SMILES Cc1ccc(C#N)cc1S(=O)(=O)Nc1cccc(C(=O)OCCOC(=O)c2ccc(-c3c4nc(c(-c5ccc(S(=O)(=O)[O-])cc5)c5ccc([nH]5)c(-c5ccc(S(=O)(=O)[O-])cc5)c5nc(c(-c6ccc(S(=O)(=O)[O-])cc6)c6ccc3[nH]6)C=C5)C=C4)cc2)c1
REMARK SMILES IDX 22 1 21 2 19 3 20 4 18 5 14 6 15 7 87 8 16 9 17 10 13 11
REMARK SMILES IDX 10 13 11 14 12 15 9 16 1 17 2 18 3 19 4 20 8 21 5 22 6 23
REMARK SMILES IDX 7 24 23 25 24 26 25 27 26 28 27 29 28 30 86 31 29 32 85 33
REMARK SMILES IDX 30 34 31 35 32 36 79 37 33 38 84 39 78 40 80 41 34 42 83 43
REMARK SMILES IDX 77 44 76 45 35 47 65 48 46 49 64 50 47 51 50 52 63 53 81 54
REMARK SMILES IDX 48 55 49 56 62 58 82 59 51 60 36 61 37 62 45 63 38 64 44 65
REMARK SMILES IDX 39 66 40 67 41 68 42 69 43 70 66 71 67 72 75 73 68 74 74 75
REMARK SMILES IDX 69 76 70 77 71 78 72 79 73 80 52 81 53 82 61 83 54 84 60 85
REMARK SMILES IDX 55 86 56 87 57 88 58 89 59 90
REMARK H PARENT 13 12 80 46 50 57
REMARK Flexibility Score: inf
ROOT
ATOM      1  C   UNL     1       4.045   4.687   2.192  1.00  0.00     0.275 C 
ENDROOT
BRANCH   1   2
ATOM      2  O   UNL     1       2.978   3.959   1.548  1.00  0.00    -0.458 OA
BRANCH   2   3
ATOM      3  C   UNL     1       3.098   3.756   0.210  1.00  0.00     0.338 C 
ATOM      4  O   UNL     1       4.027   4.125  -0.489  1.00  0.00    -0.246 OA
BRANCH   3   5
ATOM      5  C   UNL     1       1.978   2.923  -0.315  1.00  0.00     0.062 A 
ATOM      6  C   UNL     1      -0.064   1.659   0.030  1.00  0.00     0.050 A 
ATOM      7  C   UNL     1       0.049   1.097  -1.240  1.00  0.00     0.027 A 
ATOM      8  C   UNL     1       0.856   2.627   0.460  1.00  0.00     0.042 A 
ATOM      9  C   UNL     1       1.143   1.429  -2.043  1.00  0.00     0.003 A 
ATOM     10  C   UNL     1       2.111   2.325  -1.577  1.00  0.00     0.016 A 
BRANCH   6  11
ATOM     11  N   UNL     1      -0.953   1.196   1.026  1.00  0.00    -0.280 N 
ATOM     12  H   UNL     1      -1.158   1.827   1.754  1.00  0.00     0.180 HD
BRANCH  11  13
ATOM     13  S   UNL     1      -1.693  -0.284   1.113  1.00  0.00     0.262 S 
ATOM     14  O   UNL     1      -2.507  -0.447  -0.074  1.00  0.00    -0.201 OA
ATOM     15  O   UNL     1      -2.320  -0.284   2.422  1.00  0.00    -0.201 OA
BRANCH  13  16
ATOM     16  C   UNL     1      -0.556  -1.673   1.132  1.00  0.00     0.092 A 
ATOM     17  C   UNL     1       1.787  -0.539   1.099  1.00  0.00     0.046 C 
ATOM     18  C   UNL     1       0.840  -1.691   0.988  1.00  0.00    -0.030 A 
ATOM     19  C   UNL     1       1.472  -2.931   0.734  1.00  0.00     0.006 A 
ATOM     20  C   UNL     1       0.774  -4.136   0.772  1.00  0.00     0.020 A 
ATOM     21  C   UNL     1      -1.242  -2.908   1.228  1.00  0.00     0.042 A 
ATOM     22  C   UNL     1      -0.580  -4.130   1.074  1.00  0.00     0.053 A 
BRANCH  22  23
ATOM     23  C   UNL     1      -1.295  -5.365   1.224  1.00  0.00     0.099 C 
ATOM     24  N   UNL     1      -1.876  -6.356   1.366  1.00  0.00    -0.192 NA
ENDBRANCH  22  23
ENDBRANCH  13  16
ENDBRANCH  11  13
ENDBRANCH   6  11
ENDBRANCH   3   5
ENDBRANCH   2   3
ENDBRANCH   1   2
BRANCH   1  25
ATOM     25  C   UNL     1       4.947   3.774   3.031  1.00  0.00     0.275 C 
BRANCH  25  26
ATOM     26  O   UNL     1       5.750   2.916   2.204  1.00  0.00    -0.458 OA
BRANCH  26  27
ATOM     27  C   UNL     1       5.205   1.708   1.931  1.00  0.00     0.338 C 
ATOM     28  O   UNL     1       4.148   1.262   2.341  1.00  0.00    -0.246 OA
BRANCH  27  29
ATOM     29  C   UNL     1       6.022   1.048   0.905  1.00  0.00     0.060 A 
ATOM     30  C   UNL     1       7.265   0.490   1.202  1.00  0.00     0.016 A 
ATOM     31  C   UNL     1       5.495   0.964  -0.383  1.00  0.00     0.016 A 
ATOM     32  C   UNL     1       7.998  -0.118   0.176  1.00  0.00     0.010 A 
ATOM     33  C   UNL     1       6.207   0.324  -1.391  1.00  0.00     0.010 A 
ATOM     34  C   UNL     1       7.478  -0.204  -1.130  1.00  0.00    -0.014 A 
BRANCH  34  35
ATOM     35  C   UNL     1       8.242  -0.846  -2.233  1.00  0.00     0.031 A 
ATOM     36  C   UNL     1       8.660  -0.045  -3.440  1.00  0.00     0.074 A 
ATOM     37  C   UNL     1       8.519  -2.164  -2.168  1.00  0.00     0.049 A 
ATOM     38  N   UNL     1       9.312  -0.443  -4.503  1.00  0.00    -0.248 NA
ATOM     39  C   UNL     1       8.281   1.378  -3.473  1.00  0.00     0.031 C 
ATOM     40  C   UNL     1       8.126  -3.049  -1.071  1.00  0.00     0.029 A 
ATOM     41  N   UNL     1       9.198  -2.989  -3.032  1.00  0.00    -0.354 N 
ATOM     42  C   UNL     1       9.424   0.675  -5.322  1.00  0.00     0.074 A 
ATOM     43  C   UNL     1       8.709   1.749  -4.672  1.00  0.00     0.031 C 
ATOM     44  C   UNL     1       8.611  -4.277  -1.302  1.00  0.00     0.029 A 
ATOM     45  C   UNL     1       9.300  -4.288  -2.591  1.00  0.00     0.049 A 
ATOM     46  H   UNL     1       9.576  -2.679  -3.887  1.00  0.00     0.167 HD
ATOM     47  C   UNL     1      10.096   0.803  -6.491  1.00  0.00     0.031 A 
ATOM     48  C   UNL     1       9.879  -5.370  -3.152  1.00  0.00     0.031 A 
ATOM     49  C   UNL     1      10.823  -0.273  -7.115  1.00  0.00     0.049 A 
ATOM     50  C   UNL     1      10.595  -5.213  -4.465  1.00  0.00     0.074 A 
ATOM     51  C   UNL     1      11.580  -0.231  -8.272  1.00  0.00     0.029 A 
ATOM     52  N   UNL     1      10.891  -1.574  -6.640  1.00  0.00    -0.354 N 
ATOM     53  N   UNL     1      10.763  -4.127  -5.181  1.00  0.00    -0.248 NA
ATOM     54  C   UNL     1      11.213  -6.415  -5.043  1.00  0.00     0.031 C 
ATOM     55  C   UNL     1      12.032  -1.522  -8.543  1.00  0.00     0.029 A 
ATOM     56  C   UNL     1      11.643  -2.353  -7.504  1.00  0.00     0.049 A 
ATOM     57  H   UNL     1      10.468  -1.897  -5.811  1.00  0.00     0.167 HD
ATOM     58  C   UNL     1      11.518  -4.510  -6.284  1.00  0.00     0.074 A 
ATOM     59  C   UNL     1      11.799  -5.922  -6.127  1.00  0.00     0.031 C 
ATOM     60  C   UNL     1      11.930  -3.758  -7.334  1.00  0.00     0.031 A 
BRANCH  47  61
ATOM     61  C   UNL     1      10.133   2.155  -7.165  1.00  0.00    -0.014 A 
ATOM     62  C   UNL     1       9.614   2.311  -8.465  1.00  0.00     0.010 A 
ATOM     63  C   UNL     1      10.823   3.232  -6.577  1.00  0.00     0.010 A 
ATOM     64  C   UNL     1       9.832   3.492  -9.182  1.00  0.00     0.020 A 
ATOM     65  C   UNL     1      11.008   4.428  -7.275  1.00  0.00     0.020 A 
ATOM     66  C   UNL     1      10.540   4.539  -8.586  1.00  0.00     0.054 A 
BRANCH  66  67
ATOM     67  S   UNL     1      10.876   6.033  -9.558  1.00  0.00     0.124 S 
ATOM     68  O   UNL     1      11.838   5.551 -10.544  1.00  0.00    -0.237 OA
ATOM     69  O   UNL     1       9.555   6.377 -10.078  1.00  0.00    -0.237 OA
ATOM     70  O   UNL     1      11.411   6.971  -8.572  1.00  0.00    -0.744 OA
ENDBRANCH  66  67
ENDBRANCH  47  61
BRANCH  48  71
ATOM     71  C   UNL     1       9.833  -6.674  -2.427  1.00  0.00    -0.014 A 
ATOM     72  C   UNL     1       8.599  -7.305  -2.173  1.00  0.00     0.010 A 
ATOM     73  C   UNL     1      11.004  -7.234  -1.887  1.00  0.00     0.010 A 
ATOM     74  C   UNL     1       8.527  -8.415  -1.328  1.00  0.00     0.020 A 
ATOM     75  C   UNL     1      10.942  -8.371  -1.074  1.00  0.00     0.020 A 
ATOM     76  C   UNL     1       9.699  -8.930  -0.769  1.00  0.00     0.054 A 
BRANCH  76  77
ATOM     77  S   UNL     1       9.566 -10.309   0.402  1.00  0.00     0.124 S 
ATOM     78  O   UNL     1       8.955  -9.659   1.559  1.00  0.00    -0.237 OA
ATOM     79  O   UNL     1       8.711 -11.251  -0.315  1.00  0.00    -0.237 OA
ATOM     80  O   UNL     1      10.949 -10.739   0.585  1.00  0.00    -0.744 OA
ENDBRANCH  76  77
ENDBRANCH  48  71
BRANCH  60  81
ATOM     81  C   UNL     1      12.726  -4.421  -8.431  1.00  0.00    -0.014 A 
ATOM     82  C   UNL     1      14.042  -3.995  -8.696  1.00  0.00     0.010 A 
ATOM     83  C   UNL     1      12.108  -5.322  -9.316  1.00  0.00     0.010 A 
ATOM     84  C   UNL     1      14.696  -4.396  -9.863  1.00  0.00     0.020 A 
ATOM     85  C   UNL     1      12.776  -5.758 -10.465  1.00  0.00     0.020 A 
ATOM     86  C   UNL     1      14.050  -5.261 -10.749  1.00  0.00     0.054 A 
BRANCH  86  87
ATOM     87  S   UNL     1      14.874  -5.684 -12.309  1.00  0.00     0.124 S 
ATOM     88  O   UNL     1      14.830  -4.418 -13.034  1.00  0.00    -0.237 OA
ATOM     89  O   UNL     1      16.198  -6.109 -11.862  1.00  0.00    -0.237 OA
ATOM     90  O   UNL     1      14.039  -6.748 -12.862  1.00  0.00    -0.744 OA
ENDBRANCH  86  87
ENDBRANCH  60  81
ENDBRANCH  34  35
ENDBRANCH  27  29
ENDBRANCH  26  27
ENDBRANCH  25  26
ENDBRANCH   1  25
TORSDOF 18
