REMARK SMILES O=C1O[C@@H](c2ccc(O)c(O)c2)[C@H](C(=O)OCCOC(=O)c2ccc(-c3c4nc(c(-c5ccc(S(=O)(=O)[O-])cc5)c5ccc([nH]5)c(-c5ccc(S(=O)(=O)[O-])cc5)c5nc(c(-c6ccc(S(=O)(=O)[O-])cc6)c6ccc3[nH]6)C=C5)C=C4)cc2)/C1=C\c1ccc(O)c(O)c1
REMARK SMILES IDX 18 1 17 2 16 3 14 4 15 5 13 6 1 7 2 8 3 9 82 10 4 11 83 12
REMARK SMILES IDX 5 13 6 14 12 15 7 16 10 17 8 18 11 19 9 21 84 23 85 24 91 25
REMARK SMILES IDX 86 26 89 27 87 28 90 29 88 31 19 33 20 34 21 35 22 36 23 37
REMARK SMILES IDX 81 38 24 39 80 40 25 41 26 42 27 43 74 44 28 45 79 46 73 47
REMARK SMILES IDX 75 48 29 49 78 50 72 51 71 52 30 54 60 55 41 56 59 57 42 58
REMARK SMILES IDX 45 59 58 60 76 61 43 62 44 63 57 65 77 66 46 67 31 68 32 69
REMARK SMILES IDX 40 70 33 71 39 72 34 73 35 74 36 75 37 76 38 77 61 78 62 79
REMARK SMILES IDX 70 80 63 81 69 82 64 83 65 84 66 85 67 86 68 87 47 88 48 89
REMARK SMILES IDX 56 90 49 91 55 92 50 93 51 94 52 95 53 96 54 97
REMARK H PARENT 11 20 9 22 90 30 88 32 75 53 45 64
REMARK Flexibility Score: inf
ROOT
ATOM      1  C   UNL     1       2.560   2.920   4.225  1.00  0.00     0.275 C 
ENDROOT
BRANCH   1   2
ATOM      2  C   UNL     1       2.958   1.565   3.627  1.00  0.00     0.274 C 
BRANCH   2   3
ATOM      3  O   UNL     1       2.865   1.547   2.185  1.00  0.00    -0.461 OA
BRANCH   3   4
ATOM      4  C   UNL     1       1.705   1.049   1.663  1.00  0.00     0.318 C 
ATOM      5  O   UNL     1       0.816   0.546   2.338  1.00  0.00    -0.251 OA
BRANCH   4   6
ATOM      6  C   UNL     1       1.723   1.097   0.139  1.00  0.00     0.182 C 
ATOM      7  O   UNL     1      -1.469  -0.241  -0.594  1.00  0.00    -0.247 OA
ATOM      8  C   UNL     1      -0.288  -0.025  -0.464  1.00  0.00     0.335 C 
ATOM      9  O   UNL     1       0.687  -0.963  -0.288  1.00  0.00    -0.453 OA
ATOM     10  C   UNL     1       0.381   1.304  -0.475  1.00  0.00     0.056 C 
ATOM     11  C   UNL     1       1.986  -0.335  -0.320  1.00  0.00     0.226 C 
ATOM     12  C   UNL     1      -0.197   2.340  -1.105  1.00  0.00     0.020 C 
BRANCH  11  13
ATOM     13  C   UNL     1       2.600  -0.455  -1.709  1.00  0.00    -0.002 A 
ATOM     14  C   UNL     1       3.736   0.304  -2.051  1.00  0.00     0.012 A 
ATOM     15  C   UNL     1       2.063  -1.329  -2.672  1.00  0.00     0.057 A 
ATOM     16  C   UNL     1       4.279   0.249  -3.338  1.00  0.00     0.050 A 
ATOM     17  C   UNL     1       2.613  -1.382  -3.945  1.00  0.00     0.157 A 
ATOM     18  C   UNL     1       3.703  -0.590  -4.282  1.00  0.00     0.157 A 
BRANCH  17  19
ATOM     19  O   UNL     1       2.060  -2.216  -4.873  1.00  0.00    -0.504 OA
ATOM     20  H   UNL     1       2.421  -2.261  -5.736  1.00  0.00     0.293 HD
ENDBRANCH  17  19
BRANCH  18  21
ATOM     21  O   UNL     1       4.178  -0.668  -5.561  1.00  0.00    -0.504 OA
ATOM     22  H   UNL     1       4.912  -0.147  -5.822  1.00  0.00     0.293 HD
ENDBRANCH  18  21
ENDBRANCH  11  13
BRANCH  12  23
ATOM     23  C   UNL     1       0.359   3.689  -1.260  1.00  0.00    -0.021 A 
ATOM     24  C   UNL     1       1.231   4.049  -2.292  1.00  0.00     0.012 A 
ATOM     25  C   UNL     1      -0.045   4.680  -0.368  1.00  0.00     0.058 A 
ATOM     26  C   UNL     1       1.693   5.375  -2.401  1.00  0.00     0.051 A 
ATOM     27  C   UNL     1       0.460   5.966  -0.429  1.00  0.00     0.157 A 
ATOM     28  C   UNL     1       1.311   6.323  -1.456  1.00  0.00     0.157 A 
BRANCH  27  29
ATOM     29  O   UNL     1       0.094   6.875   0.521  1.00  0.00    -0.504 OA
ATOM     30  H   UNL     1       0.431   7.749   0.488  1.00  0.00     0.293 HD
ENDBRANCH  27  29
BRANCH  28  31
ATOM     31  O   UNL     1       1.725   7.622  -1.498  1.00  0.00    -0.504 OA
ATOM     32  H   UNL     1       2.303   7.908  -2.178  1.00  0.00     0.293 HD
ENDBRANCH  28  31
ENDBRANCH  12  23
ENDBRANCH   4   6
ENDBRANCH   3   4
ENDBRANCH   2   3
ENDBRANCH   1   2
BRANCH   1  33
ATOM     33  O   UNL     1       1.131   3.129   4.207  1.00  0.00    -0.458 OA
BRANCH  33  34
ATOM     34  C   UNL     1       0.703   3.715   3.067  1.00  0.00     0.338 C 
ATOM     35  O   UNL     1       1.422   4.031   2.130  1.00  0.00    -0.246 OA
BRANCH  34  36
ATOM     36  C   UNL     1      -0.762   3.868   2.991  1.00  0.00     0.060 A 
ATOM     37  C   UNL     1      -1.469   2.896   2.285  1.00  0.00     0.016 A 
ATOM     38  C   UNL     1      -1.326   5.135   3.179  1.00  0.00     0.016 A 
ATOM     39  C   UNL     1      -2.643   3.250   1.617  1.00  0.00     0.010 A 
ATOM     40  C   UNL     1      -2.566   5.449   2.592  1.00  0.00     0.010 A 
ATOM     41  C   UNL     1      -3.211   4.535   1.743  1.00  0.00    -0.014 A 
BRANCH  41  42
ATOM     42  C   UNL     1      -4.447   4.890   0.970  1.00  0.00     0.031 A 
ATOM     43  C   UNL     1      -4.522   6.077   0.024  1.00  0.00     0.074 A 
ATOM     44  C   UNL     1      -5.525   4.086   1.075  1.00  0.00     0.049 A 
ATOM     45  N   UNL     1      -5.556   6.559  -0.628  1.00  0.00    -0.248 NA
ATOM     46  C   UNL     1      -3.280   6.813  -0.237  1.00  0.00     0.031 C 
ATOM     47  C   UNL     1      -5.596   2.871   1.891  1.00  0.00     0.029 A 
ATOM     48  N   UNL     1      -6.761   4.159   0.484  1.00  0.00    -0.354 N 
ATOM     49  C   UNL     1      -5.091   7.661  -1.349  1.00  0.00     0.074 A 
ATOM     50  C   UNL     1      -3.679   7.776  -1.060  1.00  0.00     0.031 C 
ATOM     51  C   UNL     1      -6.782   2.285   1.706  1.00  0.00     0.029 A 
ATOM     52  C   UNL     1      -7.608   3.152   0.879  1.00  0.00     0.049 A 
ATOM     53  H   UNL     1      -7.015   4.860  -0.159  1.00  0.00     0.167 HD
ATOM     54  C   UNL     1      -5.779   8.506  -2.161  1.00  0.00     0.031 A 
ATOM     55  C   UNL     1      -8.927   2.971   0.684  1.00  0.00     0.031 A 
ATOM     56  C   UNL     1      -7.191   8.388  -2.444  1.00  0.00     0.049 A 
ATOM     57  C   UNL     1      -9.693   3.975  -0.113  1.00  0.00     0.074 A 
ATOM     58  C   UNL     1      -7.981   9.196  -3.247  1.00  0.00     0.029 A 
ATOM     59  N   UNL     1      -8.025   7.406  -1.932  1.00  0.00    -0.354 N 
ATOM     60  N   UNL     1      -9.253   5.050  -0.721  1.00  0.00    -0.248 NA
ATOM     61  C   UNL     1     -11.137   3.751  -0.236  1.00  0.00     0.031 C 
ATOM     62  C   UNL     1      -9.302   8.742  -3.167  1.00  0.00     0.029 A 
ATOM     63  C   UNL     1      -9.325   7.609  -2.371  1.00  0.00     0.049 A 
ATOM     64  H   UNL     1      -7.737   6.672  -1.343  1.00  0.00     0.167 HD
ATOM     65  C   UNL     1     -10.369   5.632  -1.306  1.00  0.00     0.074 A 
ATOM     66  C   UNL     1     -11.498   4.776  -0.997  1.00  0.00     0.031 C 
ATOM     67  C   UNL     1     -10.448   6.773  -2.033  1.00  0.00     0.031 A 
BRANCH  54  68
ATOM     68  C   UNL     1      -5.050   9.685  -2.773  1.00  0.00    -0.014 A 
ATOM     69  C   UNL     1      -4.155   9.532  -3.846  1.00  0.00     0.010 A 
ATOM     70  C   UNL     1      -5.362  10.988  -2.334  1.00  0.00     0.010 A 
ATOM     71  C   UNL     1      -3.574  10.654  -4.454  1.00  0.00     0.020 A 
ATOM     72  C   UNL     1      -4.802  12.113  -2.953  1.00  0.00     0.020 A 
ATOM     73  C   UNL     1      -3.900  11.938  -4.003  1.00  0.00     0.054 A 
BRANCH  73  74
ATOM     74  S   UNL     1      -3.161  13.375  -4.833  1.00  0.00     0.124 S 
ATOM     75  O   UNL     1      -1.770  13.295  -4.393  1.00  0.00    -0.237 OA
ATOM     76  O   UNL     1      -3.388  13.084  -6.246  1.00  0.00    -0.237 OA
ATOM     77  O   UNL     1      -3.914  14.510  -4.305  1.00  0.00    -0.744 OA
ENDBRANCH  73  74
ENDBRANCH  54  68
BRANCH  55  78
ATOM     78  C   UNL     1      -9.594   1.833   1.371  1.00  0.00    -0.014 A 
ATOM     79  C   UNL     1     -10.055   0.721   0.651  1.00  0.00     0.010 A 
ATOM     80  C   UNL     1      -9.669   1.824   2.779  1.00  0.00     0.010 A 
ATOM     81  C   UNL     1     -10.562  -0.391   1.330  1.00  0.00     0.020 A 
ATOM     82  C   UNL     1     -10.137   0.701   3.459  1.00  0.00     0.020 A 
ATOM     83  C   UNL     1     -10.586  -0.399   2.730  1.00  0.00     0.054 A 
BRANCH  83  84
ATOM     84  S   UNL     1     -11.138  -1.894   3.595  1.00  0.00     0.124 S 
ATOM     85  O   UNL     1     -12.588  -1.808   3.451  1.00  0.00    -0.237 OA
ATOM     86  O   UNL     1     -10.489  -2.961   2.837  1.00  0.00    -0.237 OA
ATOM     87  O   UNL     1     -10.630  -1.710   4.953  1.00  0.00    -0.744 OA
ENDBRANCH  83  84
ENDBRANCH  55  78
BRANCH  67  88
ATOM     88  C   UNL     1     -11.807   7.143  -2.560  1.00  0.00    -0.014 A 
ATOM     89  C   UNL     1     -12.818   7.608  -1.701  1.00  0.00     0.010 A 
ATOM     90  C   UNL     1     -12.080   7.004  -3.933  1.00  0.00     0.010 A 
ATOM     91  C   UNL     1     -14.097   7.874  -2.197  1.00  0.00     0.020 A 
ATOM     92  C   UNL     1     -13.350   7.296  -4.437  1.00  0.00     0.020 A 
ATOM     93  C   UNL     1     -14.357   7.707  -3.561  1.00  0.00     0.054 A 
BRANCH  93  94
ATOM     94  S   UNL     1     -16.027   8.047  -4.180  1.00  0.00     0.124 S 
ATOM     95  O   UNL     1     -16.771   6.886  -3.699  1.00  0.00    -0.237 OA
ATOM     96  O   UNL     1     -16.357   9.316  -3.535  1.00  0.00    -0.237 OA
ATOM     97  O   UNL     1     -15.851   8.119  -5.629  1.00  0.00    -0.744 OA
ENDBRANCH  93  94
ENDBRANCH  67  88
ENDBRANCH  41  42
ENDBRANCH  34  36
ENDBRANCH  33  34
ENDBRANCH   1  33
TORSDOF 20
