REMARK SMILES Cc1nc(-c2cccc(N3C[C@H](C(=O)OCCOC(=O)c4ccc(-c5c6nc(c(-c7ccc(S(=O)(=O)[O-])cc7)c7ccc([nH]7)c(-c7ccc(S(=O)(=O)[O-])cc7)c7nc(c(-c8ccc(S(=O)(=O)[O-])cc8)c8ccc5[nH]8)C=C7)C=C6)cc4)CC3=O)c2)no1
REMARK SMILES IDX 17 1 16 2 15 3 13 4 14 5 12 6 10 7 11 8 82 9 81 10 83 11
REMARK SMILES IDX 9 12 5 13 6 14 84 15 7 16 8 17 4 18 1 19 2 20 3 21 86 22
REMARK SMILES IDX 85 23 18 24 19 25 20 26 21 27 22 28 80 29 23 30 79 31 24 32
REMARK SMILES IDX 25 33 26 34 73 35 27 36 78 37 72 38 74 39 28 40 77 41 71 42
REMARK SMILES IDX 70 43 29 45 59 46 40 47 58 48 41 49 44 50 57 51 75 52 42 53
REMARK SMILES IDX 43 54 56 56 76 57 45 58 30 59 31 60 39 61 32 62 38 63 33 64
REMARK SMILES IDX 34 65 35 66 36 67 37 68 60 69 61 70 69 71 62 72 68 73 63 74
REMARK SMILES IDX 64 75 65 76 66 77 67 78 46 79 47 80 55 81 48 82 54 83 49 84
REMARK SMILES IDX 50 85 51 86 52 87 53 88
REMARK H PARENT 74 44 44 55
REMARK Flexibility Score: inf
ROOT
ATOM      1  C   UNL     1       8.466   6.690   5.102  1.00  0.00     0.275 C 
ENDROOT
BRANCH   1   2
ATOM      2  C   UNL     1       7.901   7.289   3.814  1.00  0.00     0.274 C 
BRANCH   2   3
ATOM      3  O   UNL     1       6.458   7.301   3.786  1.00  0.00    -0.462 OA
BRANCH   3   4
ATOM      4  C   UNL     1       5.882   6.319   3.040  1.00  0.00     0.311 C 
ATOM      5  O   UNL     1       6.494   5.395   2.523  1.00  0.00    -0.252 OA
BRANCH   4   6
ATOM      6  C   UNL     1       4.398   6.569   2.850  1.00  0.00     0.128 C 
ATOM      7  N   UNL     1       3.493   4.641   1.879  1.00  0.00    -0.312 N 
ATOM      8  C   UNL     1       3.963   5.959   1.531  1.00  0.00     0.141 C 
ATOM      9  C   UNL     1       3.086   4.588   3.212  1.00  0.00     0.227 C 
ATOM     10  C   UNL     1       3.513   5.882   3.881  1.00  0.00     0.117 C 
ATOM     11  O   UNL     1       2.534   3.676   3.807  1.00  0.00    -0.274 OA
BRANCH   7  12
ATOM     12  C   UNL     1       3.453   3.566   0.960  1.00  0.00     0.044 A 
ATOM     13  C   UNL     1       2.393   1.558   0.059  1.00  0.00     0.025 A 
ATOM     14  C   UNL     1       3.437   1.426  -0.867  1.00  0.00     0.012 A 
ATOM     15  C   UNL     1       2.428   2.611   0.992  1.00  0.00     0.038 A 
ATOM     16  C   UNL     1       4.472   2.356  -0.893  1.00  0.00     0.003 A 
ATOM     17  C   UNL     1       4.468   3.427   0.001  1.00  0.00     0.026 A 
BRANCH  13  18
ATOM     18  C   UNL     1       1.254   0.653   0.005  1.00  0.00     0.202 A 
ATOM     19  C   UNL     1      -2.195  -0.200   0.148  1.00  0.00     0.114 C 
ATOM     20  C   UNL     1      -0.740   0.002   0.058  1.00  0.00     0.223 A 
ATOM     21  N   UNL     1      -0.018   1.057   0.359  1.00  0.00    -0.191 NA
ATOM     22  O   UNL     1      -0.011  -1.030  -0.448  1.00  0.00    -0.339 OA
ATOM     23  N   UNL     1       1.308  -0.591  -0.500  1.00  0.00    -0.057 NA
ENDBRANCH  13  18
ENDBRANCH   7  12
ENDBRANCH   4   6
ENDBRANCH   3   4
ENDBRANCH   2   3
ENDBRANCH   1   2
BRANCH   1  24
ATOM     24  O   UNL     1       8.168   5.288   5.210  1.00  0.00    -0.458 OA
BRANCH  24  25
ATOM     25  C   UNL     1       7.099   4.998   5.987  1.00  0.00     0.338 C 
ATOM     26  O   UNL     1       6.401   5.786   6.602  1.00  0.00    -0.246 OA
BRANCH  25  27
ATOM     27  C   UNL     1       6.800   3.563   5.910  1.00  0.00     0.060 A 
ATOM     28  C   UNL     1       5.824   3.155   5.007  1.00  0.00     0.016 A 
ATOM     29  C   UNL     1       7.350   2.656   6.814  1.00  0.00     0.016 A 
ATOM     30  C   UNL     1       5.327   1.859   5.047  1.00  0.00     0.010 A 
ATOM     31  C   UNL     1       6.896   1.330   6.810  1.00  0.00     0.010 A 
ATOM     32  C   UNL     1       5.857   0.929   5.949  1.00  0.00    -0.014 A 
BRANCH  32  33
ATOM     33  C   UNL     1       5.281  -0.439   6.015  1.00  0.00     0.031 A 
ATOM     34  C   UNL     1       4.568  -0.898   7.258  1.00  0.00     0.074 A 
ATOM     35  C   UNL     1       5.354  -1.255   4.945  1.00  0.00     0.049 A 
ATOM     36  N   UNL     1       4.112  -2.088   7.557  1.00  0.00    -0.248 NA
ATOM     37  C   UNL     1       4.345   0.112   8.305  1.00  0.00     0.031 C 
ATOM     38  C   UNL     1       5.954  -0.910   3.654  1.00  0.00     0.029 A 
ATOM     39  N   UNL     1       4.906  -2.540   4.769  1.00  0.00    -0.354 N 
ATOM     40  C   UNL     1       3.586  -1.981   8.840  1.00  0.00     0.074 A 
ATOM     41  C   UNL     1       3.786  -0.612   9.265  1.00  0.00     0.031 C 
ATOM     42  C   UNL     1       5.808  -1.944   2.811  1.00  0.00     0.029 A 
ATOM     43  C   UNL     1       5.171  -3.049   3.520  1.00  0.00     0.049 A 
ATOM     44  H   UNL     1       4.438  -3.049   5.470  1.00  0.00     0.167 HD
ATOM     45  C   UNL     1       2.992  -2.938   9.594  1.00  0.00     0.031 A 
ATOM     46  C   UNL     1       4.959  -4.276   3.009  1.00  0.00     0.031 A 
ATOM     47  C   UNL     1       2.768  -4.290   9.154  1.00  0.00     0.049 A 
ATOM     48  C   UNL     1       4.336  -5.333   3.876  1.00  0.00     0.074 A 
ATOM     49  C   UNL     1       2.194  -5.339   9.851  1.00  0.00     0.029 A 
ATOM     50  N   UNL     1       3.091  -4.775   7.896  1.00  0.00    -0.354 N 
ATOM     51  N   UNL     1       3.916  -5.238   5.115  1.00  0.00    -0.248 NA
ATOM     52  C   UNL     1       4.173  -6.667   3.282  1.00  0.00     0.031 C 
ATOM     53  C   UNL     1       2.200  -6.469   9.024  1.00  0.00     0.029 A 
ATOM     54  C   UNL     1       2.738  -6.111   7.798  1.00  0.00     0.049 A 
ATOM     55  H   UNL     1       3.509  -4.247   7.177  1.00  0.00     0.167 HD
ATOM     56  C   UNL     1       3.437  -6.499   5.449  1.00  0.00     0.074 A 
ATOM     57  C   UNL     1       3.598  -7.333   4.275  1.00  0.00     0.031 C 
ATOM     58  C   UNL     1       2.915  -6.928   6.625  1.00  0.00     0.031 A 
BRANCH  45  59
ATOM     59  C   UNL     1       2.588  -2.562  10.994  1.00  0.00    -0.014 A 
ATOM     60  C   UNL     1       1.465  -1.754  11.243  1.00  0.00     0.010 A 
ATOM     61  C   UNL     1       3.340  -3.044  12.082  1.00  0.00     0.010 A 
ATOM     62  C   UNL     1       1.125  -1.401  12.553  1.00  0.00     0.020 A 
ATOM     63  C   UNL     1       2.991  -2.712  13.393  1.00  0.00     0.020 A 
ATOM     64  C   UNL     1       1.896  -1.875  13.620  1.00  0.00     0.054 A 
BRANCH  64  65
ATOM     65  S   UNL     1       1.436  -1.409  15.312  1.00  0.00     0.124 S 
ATOM     66  O   UNL     1       1.926  -0.035  15.389  1.00  0.00    -0.237 OA
ATOM     67  O   UNL     1      -0.018  -1.556  15.306  1.00  0.00    -0.237 OA
ATOM     68  O   UNL     1       2.152  -2.372  16.144  1.00  0.00    -0.744 OA
ENDBRANCH  64  65
ENDBRANCH  45  59
BRANCH  46  69
ATOM     69  C   UNL     1       5.395  -4.579   1.620  1.00  0.00    -0.014 A 
ATOM     70  C   UNL     1       4.455  -4.750   0.590  1.00  0.00     0.010 A 
ATOM     71  C   UNL     1       6.767  -4.663   1.316  1.00  0.00     0.010 A 
ATOM     72  C   UNL     1       4.879  -5.005  -0.719  1.00  0.00     0.020 A 
ATOM     73  C   UNL     1       7.195  -4.891   0.006  1.00  0.00     0.020 A 
ATOM     74  C   UNL     1       6.247  -5.071  -1.003  1.00  0.00     0.054 A 
BRANCH  74  75
ATOM     75  S   UNL     1       6.785  -5.329  -2.717  1.00  0.00     0.124 S 
ATOM     76  O   UNL     1       6.616  -6.770  -2.875  1.00  0.00    -0.237 OA
ATOM     77  O   UNL     1       5.856  -4.496  -3.477  1.00  0.00    -0.237 OA
ATOM     78  O   UNL     1       8.168  -4.857  -2.714  1.00  0.00    -0.744 OA
ENDBRANCH  74  75
ENDBRANCH  46  69
BRANCH  58  79
ATOM     79  C   UNL     1       2.470  -8.362   6.694  1.00  0.00    -0.014 A 
ATOM     80  C   UNL     1       3.406  -9.404   6.810  1.00  0.00     0.010 A 
ATOM     81  C   UNL     1       1.097  -8.667   6.688  1.00  0.00     0.010 A 
ATOM     82  C   UNL     1       2.977 -10.731   6.892  1.00  0.00     0.020 A 
ATOM     83  C   UNL     1       0.664  -9.991   6.790  1.00  0.00     0.020 A 
ATOM     84  C   UNL     1       1.608 -11.017   6.878  1.00  0.00     0.054 A 
BRANCH  84  85
ATOM     85  S   UNL     1       1.071 -12.743   7.026  1.00  0.00     0.124 S 
ATOM     86  O   UNL     1       1.313 -13.253   5.679  1.00  0.00    -0.237 OA
ATOM     87  O   UNL     1       1.953 -13.270   8.065  1.00  0.00    -0.237 OA
ATOM     88  O   UNL     1      -0.336 -12.636   7.409  1.00  0.00    -0.744 OA
ENDBRANCH  84  85
ENDBRANCH  58  79
ENDBRANCH  32  33
ENDBRANCH  25  27
ENDBRANCH  24  25
ENDBRANCH   1  24
TORSDOF 16
