REMARK SMILES O=C(OCCOC(=O)[C@@H]1[C@H](C(=O)Nc2ccccc2Cc2ccccc2)[C@H]2C=C[C@@H]1O2)c1ccc(-c2c3nc(c(-c4ccc(S(=O)(=O)[O-])cc4)c4ccc([nH]4)c(-c4ccc(S(=O)(=O)[O-])cc4)c4nc(c(-c5ccc(S(=O)(=O)[O-])cc5)c5ccc2[nH]5)C=C4)C=C3)cc1
REMARK SMILES IDX 5 1 4 2 3 3 2 4 1 5 32 6 33 7 91 8 34 9 90 10 35 11 36 12
REMARK SMILES IDX 37 13 84 14 38 15 89 16 83 17 85 18 39 19 88 20 82 21 81 22
REMARK SMILES IDX 40 24 70 25 51 26 69 27 52 28 55 29 68 30 86 31 53 32 54 33
REMARK SMILES IDX 67 35 87 36 56 37 41 38 42 39 50 40 43 41 49 42 44 43 45 44
REMARK SMILES IDX 46 45 47 46 48 47 71 48 72 49 80 50 73 51 79 52 74 53 75 54
REMARK SMILES IDX 76 55 77 56 78 57 57 58 58 59 66 60 59 61 65 62 60 63 61 64
REMARK SMILES IDX 62 65 63 66 64 67 6 68 7 69 8 70 9 71 10 72 30 73 27 74
REMARK SMILES IDX 29 75 31 76 28 77 11 78 12 79 13 80 14 82 15 83 19 84 16 85
REMARK SMILES IDX 18 86 17 87 20 88 21 89 22 90 26 91 23 92 25 93 24 94
REMARK H PARENT 85 23 55 34 13 81
REMARK Flexibility Score: inf
ROOT
ATOM      1  C   UNL     1       5.443  -2.322  -1.023  1.00  0.00     0.274 C 
ENDROOT
BRANCH   1   2
ATOM      2  C   UNL     1       5.784  -1.566   0.319  1.00  0.00     0.275 C 
BRANCH   2   3
ATOM      3  O   UNL     1       4.953  -0.475   0.751  1.00  0.00    -0.458 OA
BRANCH   3   4
ATOM      4  C   UNL     1       3.651  -0.478   0.369  1.00  0.00     0.338 C 
ATOM      5  O   UNL     1       2.842  -1.204   0.904  1.00  0.00    -0.246 OA
BRANCH   4   6
ATOM      6  C   UNL     1       3.561   0.654  -0.754  1.00  0.00     0.060 A 
ATOM      7  C   UNL     1       5.240   0.805  -1.434  1.00  0.00     0.016 A 
ATOM      8  C   UNL     1       2.470   2.188  -0.954  1.00  0.00     0.016 A 
ATOM      9  C   UNL     1       5.827   2.141  -2.244  1.00  0.00     0.010 A 
ATOM     10  C   UNL     1       3.269   3.676  -1.672  1.00  0.00     0.010 A 
ATOM     11  C   UNL     1       4.862   3.524  -2.411  1.00  0.00    -0.014 A 
BRANCH  11  12
ATOM     12  C   UNL     1       5.303   4.392  -3.519  1.00  0.00     0.031 A 
ATOM     13  C   UNL     1       5.803   5.671  -3.010  1.00  0.00     0.074 A 
ATOM     14  C   UNL     1       5.240   4.057  -4.839  1.00  0.00     0.049 A 
ATOM     15  N   UNL     1       6.022   6.770  -3.647  1.00  0.00    -0.248 NA
ATOM     16  C   UNL     1       6.022   5.730  -1.553  1.00  0.00     0.031 C 
ATOM     17  C   UNL     1       4.920   2.751  -5.441  1.00  0.00     0.029 A 
ATOM     18  N   UNL     1       5.395   4.833  -5.964  1.00  0.00    -0.354 N 
ATOM     19  C   UNL     1       6.400   7.644  -2.649  1.00  0.00     0.074 A 
ATOM     20  C   UNL     1       6.157   7.025  -1.375  1.00  0.00     0.031 C 
ATOM     21  C   UNL     1       4.706   2.860  -6.761  1.00  0.00     0.029 A 
ATOM     22  C   UNL     1       5.016   4.213  -7.146  1.00  0.00     0.049 A 
ATOM     23  H   UNL     1       5.746   5.752  -5.933  1.00  0.00     0.167 HD
ATOM     24  C   UNL     1       7.036   8.815  -2.808  1.00  0.00     0.031 A 
ATOM     25  C   UNL     1       4.965   4.677  -8.410  1.00  0.00     0.031 A 
ATOM     26  C   UNL     1       7.279   9.337  -4.113  1.00  0.00     0.049 A 
ATOM     27  C   UNL     1       5.523   6.056  -8.580  1.00  0.00     0.074 A 
ATOM     28  C   UNL     1       7.864  10.525  -4.475  1.00  0.00     0.029 A 
ATOM     29  N   UNL     1       6.921   8.669  -5.285  1.00  0.00    -0.354 N 
ATOM     30  N   UNL     1       5.920   6.881  -7.636  1.00  0.00    -0.248 NA
ATOM     31  C   UNL     1       5.703   6.550  -9.944  1.00  0.00     0.031 C 
ATOM     32  C   UNL     1       7.772  10.618  -5.867  1.00  0.00     0.029 A 
ATOM     33  C   UNL     1       7.228   9.441  -6.379  1.00  0.00     0.049 A 
ATOM     34  H   UNL     1       6.509   7.776  -5.323  1.00  0.00     0.167 HD
ATOM     35  C   UNL     1       6.457   7.974  -8.286  1.00  0.00     0.074 A 
ATOM     36  C   UNL     1       6.311   7.708  -9.711  1.00  0.00     0.031 C 
ATOM     37  C   UNL     1       7.039   9.082  -7.767  1.00  0.00     0.031 A 
BRANCH  24  38
ATOM     38  C   UNL     1       7.406   9.521  -1.543  1.00  0.00    -0.014 A 
ATOM     39  C   UNL     1       8.310   8.951  -0.617  1.00  0.00     0.010 A 
ATOM     40  C   UNL     1       6.682  10.664  -1.183  1.00  0.00     0.010 A 
ATOM     41  C   UNL     1       8.418   9.470   0.674  1.00  0.00     0.020 A 
ATOM     42  C   UNL     1       6.824  11.213   0.091  1.00  0.00     0.020 A 
ATOM     43  C   UNL     1       7.671  10.599   1.018  1.00  0.00     0.054 A 
BRANCH  43  44
ATOM     44  S   UNL     1       7.828  11.265   2.695  1.00  0.00     0.124 S 
ATOM     45  O   UNL     1       7.152  10.246   3.494  1.00  0.00    -0.237 OA
ATOM     46  O   UNL     1       9.276  11.342   2.869  1.00  0.00    -0.237 OA
ATOM     47  O   UNL     1       7.143  12.553   2.620  1.00  0.00    -0.744 OA
ENDBRANCH  43  44
ENDBRANCH  24  38
BRANCH  25  48
ATOM     48  C   UNL     1       4.494   3.821  -9.548  1.00  0.00    -0.014 A 
ATOM     49  C   UNL     1       5.394   3.272 -10.481  1.00  0.00     0.010 A 
ATOM     50  C   UNL     1       3.129   3.485  -9.673  1.00  0.00     0.010 A 
ATOM     51  C   UNL     1       4.948   2.423 -11.508  1.00  0.00     0.020 A 
ATOM     52  C   UNL     1       2.679   2.624 -10.688  1.00  0.00     0.020 A 
ATOM     53  C   UNL     1       3.592   2.099 -11.602  1.00  0.00     0.054 A 
BRANCH  53  54
ATOM     54  S   UNL     1       3.049   0.945 -12.902  1.00  0.00     0.124 S 
ATOM     55  O   UNL     1       3.306   1.707 -14.120  1.00  0.00    -0.237 OA
ATOM     56  O   UNL     1       3.921  -0.206 -12.680  1.00  0.00    -0.237 OA
ATOM     57  O   UNL     1       1.639   0.717 -12.594  1.00  0.00    -0.744 OA
ENDBRANCH  53  54
ENDBRANCH  25  48
BRANCH  37  58
ATOM     58  C   UNL     1       7.592  10.060  -8.748  1.00  0.00    -0.014 A 
ATOM     59  C   UNL     1       6.740  10.909  -9.468  1.00  0.00     0.010 A 
ATOM     60  C   UNL     1       8.986  10.239  -8.791  1.00  0.00     0.010 A 
ATOM     61  C   UNL     1       7.283  11.947 -10.215  1.00  0.00     0.020 A 
ATOM     62  C   UNL     1       9.525  11.303  -9.501  1.00  0.00     0.020 A 
ATOM     63  C   UNL     1       8.668  12.149 -10.208  1.00  0.00     0.054 A 
BRANCH  63  64
ATOM     64  S   UNL     1       9.329  13.591 -11.074  1.00  0.00     0.124 S 
ATOM     65  O   UNL     1       9.114  13.225 -12.471  1.00  0.00    -0.237 OA
ATOM     66  O   UNL     1       8.489  14.674 -10.569  1.00  0.00    -0.237 OA
ATOM     67  O   UNL     1      10.726  13.641 -10.649  1.00  0.00    -0.744 OA
ENDBRANCH  63  64
ENDBRANCH  37  58
ENDBRANCH  11  12
ENDBRANCH   4   6
ENDBRANCH   3   4
ENDBRANCH   2   3
ENDBRANCH   1   2
BRANCH   1  68
ATOM     68  O   UNL     1       5.107  -1.517  -2.254  1.00  0.00    -0.462 OA
BRANCH  68  69
ATOM     69  C   UNL     1       3.768  -1.230  -2.396  1.00  0.00     0.312 C 
ATOM     70  O   UNL     1       3.056  -1.887  -1.668  1.00  0.00    -0.252 OA
BRANCH  69  71
ATOM     71  C   UNL     1       3.292   0.127  -3.191  1.00  0.00     0.147 C 
ATOM     72  C   UNL     1       3.601   1.743  -2.460  1.00  0.00     0.129 C 
ATOM     73  C   UNL     1       1.797   0.374  -3.822  1.00  0.00     0.157 C 
ATOM     74  C   UNL     1       2.092   2.432  -3.265  1.00  0.00     0.155 C 
ATOM     75  C   UNL     1       1.752   1.177  -5.085  1.00  0.00     0.004 C 
ATOM     76  O   UNL     1       1.175   1.366  -2.989  1.00  0.00    -0.365 OA
ATOM     77  C   UNL     1       1.984   2.441  -4.739  1.00  0.00     0.004 C 
BRANCH  72  78
ATOM     78  C   UNL     1       4.326   2.404  -0.502  1.00  0.00     0.231 C 
ATOM     79  O   UNL     1       5.382   2.967  -0.090  1.00  0.00    -0.274 OA
ATOM     80  N   UNL     1       3.455   2.099   0.946  1.00  0.00    -0.325 N 
ATOM     81  H   UNL     1       3.956   2.402   1.738  1.00  0.00     0.169 HD
BRANCH  80  82
ATOM     82  C   UNL     1       1.989   1.428   1.372  1.00  0.00     0.044 A 
ATOM     83  C   UNL     1       1.689   1.978   2.633  1.00  0.00     0.026 A 
ATOM     84  C   UNL     1       0.851   0.549   0.686  1.00  0.00    -0.020 A 
ATOM     85  C   UNL     1       0.394   1.951   3.149  1.00  0.00     0.002 A 
ATOM     86  C   UNL     1      -0.421   0.601   1.296  1.00  0.00     0.006 A 
ATOM     87  C   UNL     1      -0.646   1.322   2.469  1.00  0.00     0.000 A 
BRANCH  84  88
ATOM     88  C   UNL     1       0.638  -0.278  -0.776  1.00  0.00     0.073 C 
BRANCH  88  89
ATOM     89  C   UNL     1       0.438  -1.832  -1.179  1.00  0.00    -0.044 A 
ATOM     90  C   UNL     1       0.921  -2.362  -2.430  1.00  0.00     0.004 A 
ATOM     91  C   UNL     1      -0.157  -2.826  -0.434  1.00  0.00     0.004 A 
ATOM     92  C   UNL     1       1.275  -3.700  -2.692  1.00  0.00     0.000 A 
ATOM     93  C   UNL     1       0.074  -4.209  -0.742  1.00  0.00     0.000 A 
ATOM     94  C   UNL     1       0.902  -4.638  -1.784  1.00  0.00     0.000 A 
ENDBRANCH  88  89
ENDBRANCH  84  88
ENDBRANCH  80  82
ENDBRANCH  72  78
ENDBRANCH  69  71
ENDBRANCH  68  69
ENDBRANCH   1  68
TORSDOF 18
