REMARK SMILES O=C(/C=C/[C@@]12C=C(O)C(=O)C=C1C(=O)C1=Cc3cc(O)c(O)cc3O[C@@H](c3ccc(O)c(O)c3)[C@@H]12)OCCOC(=O)c1ccc(-c2c3nc(c(-c4ccc(S(=O)(=O)[O-])cc4)c4ccc([nH]4)c(-c4ccc(S(=O)(=O)[O-])cc4)c4nc(c(-c5ccc(S(=O)(=O)[O-])cc5)c5ccc2[nH]5)C=C4)C=C3)cc1
REMARK SMILES IDX 36 1 2 2 1 3 3 4 4 5 5 6 6 7 12 8 35 9 7 10 11 11 13 12
REMARK SMILES IDX 15 13 9 15 14 16 16 17 10 18 8 19 17 21 18 22 24 23 19 24
REMARK SMILES IDX 23 25 21 26 25 27 26 28 27 30 28 31 34 32 29 33 32 34 30 35
REMARK SMILES IDX 33 36 31 38 20 40 22 42 37 44 38 45 39 46 40 47 41 48 42 49
REMARK SMILES IDX 43 50 101 51 44 52 100 53 45 54 46 55 47 56 94 57 48 58
REMARK SMILES IDX 99 59 93 60 95 61 49 62 98 63 92 64 91 65 50 67 80 68 61 69
REMARK SMILES IDX 79 70 62 71 65 72 78 73 96 74 63 75 64 76 77 78 97 79 66 80
REMARK SMILES IDX 51 81 52 82 60 83 53 84 59 85 54 86 55 87 56 88 57 89 58 90
REMARK SMILES IDX 81 91 82 92 90 93 83 94 89 95 84 96 85 97 86 98 87 99 88 100
REMARK SMILES IDX 67 101 68 102 76 103 69 104 75 105 70 106 71 107 72 108
REMARK SMILES IDX 73 109 74 110
REMARK H PARENT 8 20 33 37 31 39 20 41 22 43 95 66 65 77
REMARK Flexibility Score: 90.00
ROOT
ATOM      1  O   UNL     1       2.911   1.020   0.922  1.00  0.00    -0.459 OA
ENDROOT
BRANCH   1   2
ATOM      2  C   UNL     1       3.026   1.428  -0.369  1.00  0.00     0.330 C 
ATOM      3  O   UNL     1       2.418   2.381  -0.833  1.00  0.00    -0.247 OA
BRANCH   2   4
ATOM      4  C   UNL     1       3.758   0.486  -1.227  1.00  0.00     0.090 C 
ATOM      5  C   UNL     1       5.075   0.531  -1.536  1.00  0.00    -0.003 C 
BRANCH   5   6
ATOM      6  C   UNL     1       5.916  -0.629  -2.196  1.00  0.00     0.051 C 
ATOM      7  C   UNL     1       7.238  -0.647  -1.464  1.00  0.00     0.040 C 
ATOM      8  C   UNL     1       5.185  -1.931  -2.001  1.00  0.00     0.018 C 
ATOM      9  C   UNL     1       5.921  -0.581  -3.775  1.00  0.00     0.087 CG0
ATOM     10  C   UNL     1       7.582  -1.594  -0.577  1.00  0.00     0.160 C 
ATOM     11  C   UNL     1       5.520  -2.943  -1.199  1.00  0.00     0.065 C 
ATOM     12  C   UNL     1       4.078  -1.872  -2.978  1.00  0.00     0.186 C 
ATOM     13  C   UNL     1       4.483  -0.913  -4.012  1.00  0.00     0.009 C 
ATOM     14  G   UNL     1       6.627  -1.677  -4.636  1.00  0.00     0.000 G0
ATOM     15  C   UNL     1       6.715  -2.790  -0.348  1.00  0.00     0.220 C 
ATOM     16  O   UNL     1       2.999  -2.389  -2.899  1.00  0.00    -0.289 OA
ATOM     17  C   UNL     1       3.723  -0.538  -5.032  1.00  0.00     0.020 C 
ATOM     18  O   UNL     1       7.035  -3.623   0.492  1.00  0.00    -0.286 OA
BRANCH  10  19
ATOM     19  O   UNL     1       8.768  -1.521   0.128  1.00  0.00    -0.504 OA
ATOM     20  H   UNL     1       9.338  -0.786   0.011  1.00  0.00     0.293 HD
ENDBRANCH  10  19
BRANCH  17  21
ATOM     21  C   UNL     1       4.400  -0.086  -6.237  1.00  0.00     0.021 A 
ATOM     22  C   UNL     1       3.712   0.800  -7.077  1.00  0.00     0.062 A 
ATOM     23  C   UNL     1       5.620  -0.653  -6.662  1.00  0.00     0.131 A 
ATOM     24  C   UNL     1       4.247   1.144  -8.313  1.00  0.00     0.158 A 
ATOM     25  C   UNL     1       6.153  -0.270  -7.888  1.00  0.00     0.097 A 
ATOM     26  C   UNL     1       5.493   0.658  -8.686  1.00  0.00     0.161 A 
BRANCH  23  27
ATOM     27  O   UNL     1       6.318  -1.665  -6.052  1.00  0.00    -0.484 OA
BRANCH  27  28
ATOM     28  C   UNL     1       6.627  -1.677  -4.636  1.00  0.00     0.213 CG0
ATOM     29  G   UNL     1       5.921  -0.581  -3.775  1.00  0.00     0.000 G0
BRANCH  28  30
ATOM     30  C   UNL     1       8.130  -1.629  -4.492  1.00  0.00    -0.003 A 
ATOM     31  C   UNL     1       8.776  -2.404  -3.517  1.00  0.00     0.011 A 
ATOM     32  C   UNL     1       8.886  -0.743  -5.266  1.00  0.00     0.057 A 
ATOM     33  C   UNL     1      10.097  -2.132  -3.171  1.00  0.00     0.050 A 
ATOM     34  C   UNL     1      10.223  -0.526  -4.969  1.00  0.00     0.157 A 
ATOM     35  C   UNL     1      10.799  -1.157  -3.873  1.00  0.00     0.157 A 
BRANCH  34  36
ATOM     36  O   UNL     1      10.946   0.354  -5.720  1.00  0.00    -0.504 OA
ATOM     37  H   UNL     1      11.850   0.505  -5.524  1.00  0.00     0.293 HD
ENDBRANCH  34  36
BRANCH  35  38
ATOM     38  O   UNL     1      12.047  -0.799  -3.456  1.00  0.00    -0.504 OA
ATOM     39  H   UNL     1      12.434  -1.226  -2.717  1.00  0.00     0.293 HD
ENDBRANCH  35  38
ENDBRANCH  28  30
ENDBRANCH  27  28
ENDBRANCH  23  27
BRANCH  24  40
ATOM     40  O   UNL     1       3.495   1.950  -9.114  1.00  0.00    -0.504 OA
ATOM     41  H   UNL     1       2.659   2.253  -8.819  1.00  0.00     0.293 HD
ENDBRANCH  24  40
BRANCH  26  42
ATOM     42  O   UNL     1       6.183   1.088  -9.774  1.00  0.00    -0.504 OA
ATOM     43  H   UNL     1       5.798   1.713 -10.356  1.00  0.00     0.293 HD
ENDBRANCH  26  42
ENDBRANCH  17  21
ENDBRANCH   5   6
ENDBRANCH   2   4
ENDBRANCH   1   2
BRANCH   1  44
ATOM     44  C   UNL     1       3.897   0.167   1.540  1.00  0.00     0.275 C 
BRANCH  44  45
ATOM     45  C   UNL     1       3.448  -1.287   1.750  1.00  0.00     0.275 C 
BRANCH  45  46
ATOM     46  O   UNL     1       3.012  -1.974   0.557  1.00  0.00    -0.458 OA
BRANCH  46  47
ATOM     47  C   UNL     1       1.744  -2.489   0.573  1.00  0.00     0.338 C 
ATOM     48  O   UNL     1       0.888  -2.269   1.411  1.00  0.00    -0.246 OA
BRANCH  47  49
ATOM     49  C   UNL     1       1.537  -3.367  -0.610  1.00  0.00     0.060 A 
ATOM     50  C   UNL     1       2.412  -4.427  -0.858  1.00  0.00     0.016 A 
ATOM     51  C   UNL     1       0.513  -3.098  -1.528  1.00  0.00     0.016 A 
ATOM     52  C   UNL     1       2.383  -5.084  -2.101  1.00  0.00     0.010 A 
ATOM     53  C   UNL     1       0.453  -3.799  -2.755  1.00  0.00     0.010 A 
ATOM     54  C   UNL     1       1.430  -4.755  -3.093  1.00  0.00    -0.014 A 
BRANCH  54  55
ATOM     55  C   UNL     1       1.464  -5.443  -4.431  1.00  0.00     0.031 A 
ATOM     56  C   UNL     1       1.755  -4.755  -5.755  1.00  0.00     0.074 A 
ATOM     57  C   UNL     1       1.275  -6.774  -4.468  1.00  0.00     0.049 A 
ATOM     58  N   UNL     1       1.900  -5.272  -6.957  1.00  0.00    -0.248 NA
ATOM     59  C   UNL     1       1.938  -3.307  -5.735  1.00  0.00     0.031 C 
ATOM     60  C   UNL     1       1.020  -7.617  -3.304  1.00  0.00     0.029 A 
ATOM     61  N   UNL     1       1.251  -7.641  -5.533  1.00  0.00    -0.354 N 
ATOM     62  C   UNL     1       2.265  -4.222  -7.801  1.00  0.00     0.074 A 
ATOM     63  C   UNL     1       2.291  -3.034  -6.987  1.00  0.00     0.031 C 
ATOM     64  C   UNL     1       0.846  -8.878  -3.717  1.00  0.00     0.029 A 
ATOM     65  C   UNL     1       0.897  -8.915  -5.178  1.00  0.00     0.049 A 
ATOM     66  H   UNL     1       1.466  -7.374  -6.456  1.00  0.00     0.167 HD
ATOM     67  C   UNL     1       2.534  -4.232  -9.131  1.00  0.00     0.031 A 
ATOM     68  C   UNL     1       0.575  -9.990  -5.924  1.00  0.00     0.031 A 
ATOM     69  C   UNL     1       2.362  -5.372  -9.992  1.00  0.00     0.049 A 
ATOM     70  C   UNL     1       0.674  -9.945  -7.417  1.00  0.00     0.074 A 
ATOM     71  C   UNL     1       2.535  -5.433 -11.367  1.00  0.00     0.029 A 
ATOM     72  N   UNL     1       1.926  -6.616  -9.586  1.00  0.00    -0.354 N 
ATOM     73  N   UNL     1       1.087  -8.966  -8.180  1.00  0.00    -0.248 NA
ATOM     74  C   UNL     1       0.272 -11.153  -8.150  1.00  0.00     0.031 C 
ATOM     75  C   UNL     1       2.138  -6.697 -11.800  1.00  0.00     0.029 A 
ATOM     76  C   UNL     1       1.778  -7.439 -10.688  1.00  0.00     0.049 A 
ATOM     77  H   UNL     1       1.747  -6.878  -8.655  1.00  0.00     0.167 HD
ATOM     78  C   UNL     1       1.003  -9.442  -9.484  1.00  0.00     0.074 A 
ATOM     79  C   UNL     1       0.518 -10.801  -9.407  1.00  0.00     0.031 C 
ATOM     80  C   UNL     1       1.300  -8.794 -10.634  1.00  0.00     0.031 A 
BRANCH  67  81
ATOM     81  C   UNL     1       3.010  -2.982  -9.830  1.00  0.00    -0.014 A 
ATOM     82  C   UNL     1       2.098  -2.208 -10.572  1.00  0.00     0.010 A 
ATOM     83  C   UNL     1       4.390  -2.772 -10.009  1.00  0.00     0.010 A 
ATOM     84  C   UNL     1       2.555  -1.272 -11.502  1.00  0.00     0.020 A 
ATOM     85  C   UNL     1       4.851  -1.836 -10.944  1.00  0.00     0.020 A 
ATOM     86  C   UNL     1       3.929  -1.106 -11.697  1.00  0.00     0.054 A 
BRANCH  86  87
ATOM     87  S   UNL     1       4.489   0.155 -12.871  1.00  0.00     0.124 S 
ATOM     88  O   UNL     1       4.479  -0.552 -14.143  1.00  0.00    -0.237 OA
ATOM     89  O   UNL     1       3.485   1.200 -12.687  1.00  0.00    -0.237 OA
ATOM     90  O   UNL     1       5.796   0.531 -12.341  1.00  0.00    -0.744 OA
ENDBRANCH  86  87
ENDBRANCH  67  81
BRANCH  68  91
ATOM     91  C   UNL     1       0.052 -11.176  -5.203  1.00  0.00    -0.014 A 
ATOM     92  C   UNL     1      -1.186 -11.079  -4.535  1.00  0.00     0.010 A 
ATOM     93  C   UNL     1       0.843 -12.322  -5.037  1.00  0.00     0.010 A 
ATOM     94  C   UNL     1      -1.582 -12.067  -3.638  1.00  0.00     0.020 A 
ATOM     95  C   UNL     1       0.429 -13.333  -4.167  1.00  0.00     0.020 A 
ATOM     96  C   UNL     1      -0.759 -13.178  -3.444  1.00  0.00     0.054 A 
BRANCH  96  97
ATOM     97  S   UNL     1      -1.242 -14.406  -2.203  1.00  0.00     0.124 S 
ATOM     98  O   UNL     1      -0.829 -13.752  -0.963  1.00  0.00    -0.237 OA
ATOM     99  O   UNL     1      -2.684 -14.518  -2.405  1.00  0.00    -0.237 OA
ATOM    100  O   UNL     1      -0.469 -15.587  -2.577  1.00  0.00    -0.744 OA
ENDBRANCH  96  97
ENDBRANCH  68  91
BRANCH  80 101
ATOM    101  C   UNL     1       1.105  -9.501 -11.947  1.00  0.00    -0.014 A 
ATOM    102  C   UNL     1       2.221  -9.811 -12.748  1.00  0.00     0.010 A 
ATOM    103  C   UNL     1      -0.186  -9.687 -12.468  1.00  0.00     0.010 A 
ATOM    104  C   UNL     1       2.049 -10.249 -14.063  1.00  0.00     0.020 A 
ATOM    105  C   UNL     1      -0.362 -10.150 -13.775  1.00  0.00     0.020 A 
ATOM    106  C   UNL     1       0.757 -10.399 -14.573  1.00  0.00     0.054 A 
BRANCH 106 107
ATOM    107  S   UNL     1       0.553 -10.904 -16.304  1.00  0.00     0.124 S 
ATOM    108  O   UNL     1       0.902  -9.684 -17.024  1.00  0.00    -0.237 OA
ATOM    109  O   UNL     1       1.506 -12.005 -16.430  1.00  0.00    -0.237 OA
ATOM    110  O   UNL     1      -0.852 -11.296 -16.383  1.00  0.00    -0.744 OA
ENDBRANCH 106 107
ENDBRANCH  80 101
ENDBRANCH  54  55
ENDBRANCH  47  49
ENDBRANCH  46  47
ENDBRANCH  45  46
ENDBRANCH  44  45
ENDBRANCH   1  44
TORSDOF 21
