REMARK SMILES [NH3+][C@@](C(=O)OCCOC(=O)c1ccc(-c2c3nc(c(-c4ccc(S(=O)(=O)[O-])cc4)c4ccc([nH]4)c(-c4ccc(S(=O)(=O)[O-])cc4)c4nc(c(-c5ccc(S(=O)(=O)[O-])cc5)c5ccc2[nH]5)C=C4)C=C3)cc1)(c1ccc([P@TB4](=O)([O-])[O-])cc1)C1CC1
REMARK SMILES IDX 7 1 6 2 5 3 3 4 4 5 2 6 1 7 71 11 72 12 80 13 73 14 79 15
REMARK SMILES IDX 74 16 75 17 76 18 77 19 78 20 81 21 82 22 83 23 8 24 9 25
REMARK SMILES IDX 10 26 11 27 12 28 70 29 13 30 69 31 14 32 15 33 16 34 63 35
REMARK SMILES IDX 17 36 68 37 62 38 64 39 18 40 67 41 61 42 60 43 19 45 49 46
REMARK SMILES IDX 30 47 48 48 31 49 34 50 47 51 65 52 32 53 33 54 46 56 66 57
REMARK SMILES IDX 35 58 20 59 21 60 29 61 22 62 28 63 23 64 24 65 25 66 26 67
REMARK SMILES IDX 27 68 50 69 51 70 59 71 52 72 58 73 53 74 54 75 55 76 56 77
REMARK SMILES IDX 57 78 36 79 37 80 45 81 38 82 44 83 39 84 40 85 41 86 42 87
REMARK SMILES IDX 43 88
REMARK H PARENT 1 8 1 9 1 10 64 44 34 55
REMARK Flexibility Score: inf
ROOT
ATOM      1  C   UNL     1       2.195   3.138  -3.407  1.00  0.00       nan C 
ENDROOT
BRANCH   1   2
ATOM      2  C   UNL     1       2.614   3.392  -1.962  1.00  0.00       nan C 
BRANCH   2   3
ATOM      3  O   UNL     1       2.094   2.354  -1.107  1.00  0.00       nan OA
BRANCH   3   4
ATOM      4  C   UNL     1       1.077   2.714  -0.257  1.00  0.00       nan C 
ATOM      5  O   UNL     1       0.638   3.857  -0.179  1.00  0.00       nan OA
BRANCH   4   6
ATOM      6  C   UNL     1       0.599   1.492   0.627  1.00  0.00       nan C 
BRANCH   6   7
ATOM      7  N   UNL     1       1.210   0.231   0.111  1.00  0.00       nan N 
ATOM      8  H   UNL     1       0.923   0.086  -0.857  1.00  0.00       nan HD
ATOM      9  H   UNL     1       0.897  -0.556   0.680  1.00  0.00       nan HD
ATOM     10  H   UNL     1       2.226   0.301   0.158  1.00  0.00       nan HD
ENDBRANCH   6   7
BRANCH   6  11
ATOM     11  C   UNL     1      -0.946   1.409   0.641  1.00  0.00       nan A 
ATOM     12  C   UNL     1      -1.704   2.462   1.180  1.00  0.00       nan A 
ATOM     13  C   UNL     1      -1.663   0.318   0.109  1.00  0.00       nan A 
ATOM     14  C   UNL     1      -3.107   2.443   1.150  1.00  0.00       nan A 
ATOM     15  C   UNL     1      -3.070   0.302   0.074  1.00  0.00       nan A 
ATOM     16  C   UNL     1      -3.821   1.369   0.585  1.00  0.00       nan A 
BRANCH  16  17
ATOM     17  P   UNL     1      -5.651   1.355   0.576  1.00  0.00       nan P 
ATOM     18  O   UNL     1      -5.667  -0.047   1.202  1.00  0.00       nan OA
ATOM     19  O   UNL     1      -5.787   2.363   1.860  1.00  0.00       nan OA
ATOM     20  O   UNL     1      -7.381   1.341   0.567  1.00  0.00       nan OA
ENDBRANCH  16  17
ENDBRANCH   6  11
BRANCH   6  21
ATOM     21  C   UNL     1       1.116   1.567   2.069  1.00  0.00       nan C 
ATOM     22  C   UNL     1       2.585   1.794   2.381  1.00  0.00       nan C 
ATOM     23  C   UNL     1       1.579   2.849   2.738  1.00  0.00       nan C 
ENDBRANCH   6  21
ENDBRANCH   4   6
ENDBRANCH   3   4
ENDBRANCH   2   3
ENDBRANCH   1   2
BRANCH   1  24
ATOM     24  O   UNL     1       0.773   3.316  -3.520  1.00  0.00       nan OA
BRANCH  24  25
ATOM     25  C   UNL     1       0.063   2.239  -3.938  1.00  0.00       nan C 
ATOM     26  O   UNL     1       0.498   1.165  -4.309  1.00  0.00       inf OA
BRANCH  25  27
ATOM     27  C   UNL     1      -1.374   2.539  -3.809  1.00  0.00       inf A 
ATOM     28  C   UNL     1      -1.864   2.899  -2.564  1.00  0.00     0.016 A 
ATOM     29  C   UNL     1      -2.258   2.343  -4.869  1.00  0.00     0.016 A 
ATOM     30  C   UNL     1      -3.237   2.962  -2.353  1.00  0.00     0.010 A 
ATOM     31  C   UNL     1      -3.643   2.485  -4.661  1.00  0.00     0.010 A 
ATOM     32  C   UNL     1      -4.162   2.734  -3.377  1.00  0.00    -0.014 A 
BRANCH  32  33
ATOM     33  C   UNL     1      -5.627   2.632  -3.058  1.00  0.00     0.031 A 
ATOM     34  C   UNL     1      -6.417   1.417  -3.499  1.00  0.00     0.074 A 
ATOM     35  C   UNL     1      -6.261   3.531  -2.269  1.00  0.00     0.049 A 
ATOM     36  N   UNL     1      -7.714   1.235  -3.492  1.00  0.00    -0.248 NA
ATOM     37  C   UNL     1      -5.654   0.263  -3.997  1.00  0.00     0.031 C 
ATOM     38  C   UNL     1      -5.651   4.709  -1.650  1.00  0.00     0.029 A 
ATOM     39  N   UNL     1      -7.566   3.569  -1.820  1.00  0.00    -0.354 N 
ATOM     40  C   UNL     1      -7.925  -0.012  -4.076  1.00  0.00     0.074 A 
ATOM     41  C   UNL     1      -6.621  -0.554  -4.389  1.00  0.00     0.031 C 
ATOM     42  C   UNL     1      -6.547   5.310  -0.854  1.00  0.00     0.029 A 
ATOM     43  C   UNL     1      -7.839   4.654  -1.012  1.00  0.00     0.049 A 
ATOM     44  H   UNL     1      -8.237   2.887  -2.053  1.00  0.00     0.167 HD
ATOM     45  C   UNL     1      -9.094  -0.644  -4.347  1.00  0.00     0.031 A 
ATOM     46  C   UNL     1      -8.997   5.124  -0.507  1.00  0.00     0.031 A 
ATOM     47  C   UNL     1     -10.395  -0.152  -3.981  1.00  0.00     0.049 A 
ATOM     48  C   UNL     1     -10.290   4.450  -0.865  1.00  0.00     0.074 A 
ATOM     49  C   UNL     1     -11.636  -0.699  -4.265  1.00  0.00     0.029 A 
ATOM     50  N   UNL     1     -10.623   0.978  -3.218  1.00  0.00    -0.354 N 
ATOM     51  N   UNL     1     -10.476   3.358  -1.564  1.00  0.00    -0.248 NA
ATOM     52  C   UNL     1     -11.528   5.095  -0.402  1.00  0.00     0.031 C 
ATOM     53  C   UNL     1     -12.617   0.124  -3.700  1.00  0.00     0.029 A 
ATOM     54  C   UNL     1     -11.983   1.157  -3.031  1.00  0.00     0.049 A 
ATOM     55  H   UNL     1      -9.922   1.569  -2.859  1.00  0.00     0.167 HD
ATOM     56  C   UNL     1     -11.857   3.189  -1.631  1.00  0.00     0.074 A 
ATOM     57  C   UNL     1     -12.453   4.271  -0.874  1.00  0.00     0.031 C 
ATOM     58  C   UNL     1     -12.567   2.234  -2.277  1.00  0.00     0.031 A 
BRANCH  45  59
ATOM     59  C   UNL     1      -9.024  -1.908  -5.160  1.00  0.00    -0.014 A 
ATOM     60  C   UNL     1      -8.642  -3.136  -4.595  1.00  0.00     0.010 A 
ATOM     61  C   UNL     1      -9.384  -1.858  -6.520  1.00  0.00     0.010 A 
ATOM     62  C   UNL     1      -8.585  -4.287  -5.389  1.00  0.00     0.020 A 
ATOM     63  C   UNL     1      -9.350  -3.009  -7.310  1.00  0.00     0.020 A 
ATOM     64  C   UNL     1      -8.931  -4.213  -6.744  1.00  0.00     0.054 A 
BRANCH  64  65
ATOM     65  S   UNL     1      -8.857  -5.717  -7.756  1.00  0.00     0.124 S 
ATOM     66  O   UNL     1      -7.422  -5.842  -8.001  1.00  0.00    -0.237 OA
ATOM     67  O   UNL     1      -9.435  -6.730  -6.877  1.00  0.00    -0.237 OA
ATOM     68  O   UNL     1      -9.662  -5.383  -8.929  1.00  0.00    -0.744 OA
ENDBRANCH  64  65
ENDBRANCH  45  59
BRANCH  46  69
ATOM     69  C   UNL     1      -9.005   6.355   0.333  1.00  0.00    -0.014 A 
ATOM     70  C   UNL     1      -9.320   6.282   1.701  1.00  0.00     0.010 A 
ATOM     71  C   UNL     1      -8.705   7.607  -0.234  1.00  0.00     0.010 A 
ATOM     72  C   UNL     1      -9.342   7.441   2.485  1.00  0.00     0.020 A 
ATOM     73  C   UNL     1      -8.695   8.761   0.552  1.00  0.00     0.020 A 
ATOM     74  C   UNL     1      -9.027   8.673   1.904  1.00  0.00     0.054 A 
BRANCH  74  75
ATOM     75  S   UNL     1      -9.000  10.161   2.942  1.00  0.00     0.124 S 
ATOM     76  O   UNL     1     -10.413  10.520   2.991  1.00  0.00    -0.237 OA
ATOM     77  O   UNL     1      -8.425   9.671   4.192  1.00  0.00    -0.237 OA
ATOM     78  O   UNL     1      -8.144  11.077   2.191  1.00  0.00    -0.744 OA
ENDBRANCH  74  75
ENDBRANCH  46  69
BRANCH  58  79
ATOM     79  C   UNL     1     -14.066   2.301  -2.186  1.00  0.00    -0.014 A 
ATOM     80  C   UNL     1     -14.792   3.241  -2.939  1.00  0.00     0.010 A 
ATOM     81  C   UNL     1     -14.760   1.384  -1.377  1.00  0.00     0.010 A 
ATOM     82  C   UNL     1     -16.187   3.278  -2.866  1.00  0.00     0.020 A 
ATOM     83  C   UNL     1     -16.156   1.405  -1.317  1.00  0.00     0.020 A 
ATOM     84  C   UNL     1     -16.861   2.361  -2.053  1.00  0.00     0.054 A 
BRANCH  84  85
ATOM     85  S   UNL     1     -18.674   2.397  -2.010  1.00  0.00     0.124 S 
ATOM     86  O   UNL     1     -18.934   3.544  -1.145  1.00  0.00    -0.237 OA
ATOM     87  O   UNL     1     -19.028   2.577  -3.416  1.00  0.00    -0.237 OA
ATOM     88  O   UNL     1     -19.032   1.096  -1.447  1.00  0.00    -0.744 OA
ENDBRANCH  84  85
ENDBRANCH  58  79
ENDBRANCH  32  33
ENDBRANCH  25  27
ENDBRANCH  24  25
ENDBRANCH   1  24
TORSDOF 18
