REMARK SMILES O=C(Cn1c(=O)[nH]c2ccccc2c1=O)NC[C@H]1CC[C@@H](C(=O)N2CCC(C(=O)OCCOC(=O)c3ccc(-c4c5nc(c(-c6ccc(S(=O)(=O)[O-])cc6)c6ccc([nH]6)c(-c6ccc(S(=O)(=O)[O-])cc6)c6nc(c(-c7ccc(S(=O)(=O)[O-])cc7)c7ccc4[nH]7)C=C6)C=C5)cc3)CC2)CC1
REMARK SMILES IDX 31 1 30 2 28 3 29 4 27 5 22 6 23 7 24 8 25 9 97 10 26 11
REMARK SMILES IDX 96 12 21 13 18 14 19 15 99 16 20 17 98 18 17 19 16 20 1 21
REMARK SMILES IDX 2 22 3 24 4 25 5 26 14 27 6 28 7 29 13 30 15 31 8 32 12 34
REMARK SMILES IDX 9 35 11 36 10 37 32 38 33 39 34 40 35 41 36 42 37 43 95 44
REMARK SMILES IDX 38 45 94 46 39 47 40 48 41 49 88 50 42 51 93 52 87 53 89 54
REMARK SMILES IDX 43 55 92 56 86 57 85 58 44 60 74 61 55 62 73 63 56 64 59 65
REMARK SMILES IDX 72 66 90 67 57 68 58 69 71 71 91 72 60 73 45 74 46 75 54 76
REMARK SMILES IDX 47 77 53 78 48 79 49 80 50 81 51 82 52 83 75 84 76 85 84 86
REMARK SMILES IDX 77 87 83 88 78 89 79 90 80 91 81 92 82 93 61 94 62 95 70 96
REMARK SMILES IDX 63 97 69 98 64 99 65 100 66 101 67 102 68 103
REMARK H PARENT 16 23 7 33 89 59 59 70
REMARK Flexibility Score: inf
ROOT
ATOM      1  C   UNL     1      -5.407  -2.009   2.029  1.00  0.00     0.274 C 
ENDROOT
BRANCH   1   2
ATOM      2  O   UNL     1      -4.279  -1.346   2.621  1.00  0.00    -0.462 OA
BRANCH   2   3
ATOM      3  C   UNL     1      -3.276  -1.024   1.767  1.00  0.00     0.309 C 
ATOM      4  O   UNL     1      -3.219  -1.364   0.591  1.00  0.00    -0.252 OA
BRANCH   3   5
ATOM      5  C   UNL     1      -2.184  -0.227   2.437  1.00  0.00     0.103 C 
ATOM      6  C   UNL     1       0.261   0.606   5.784  1.00  0.00     0.225 C 
ATOM      7  O   UNL     1      -0.399   0.872   6.797  1.00  0.00    -0.275 OA
ATOM      8  N   UNL     1      -0.371   0.470   4.568  1.00  0.00    -0.342 N 
ATOM      9  C   UNL     1      -1.474   1.372   4.243  1.00  0.00     0.120 C 
ATOM     10  C   UNL     1       0.047  -0.429   3.513  1.00  0.00     0.120 C 
ATOM     11  C   UNL     1      -2.650   0.652   3.602  1.00  0.00     0.037 C 
ATOM     12  C   UNL     1      -1.108  -1.194   2.897  1.00  0.00     0.037 C 
BRANCH   6  13
ATOM     13  C   UNL     1       1.801   0.713   5.874  1.00  0.00     0.078 C 
ATOM     14  C   UNL     1       3.188   1.552   3.311  1.00  0.00     0.008 C 
ATOM     15  C   UNL     1       2.283   2.487   4.131  1.00  0.00     0.006 C 
ATOM     16  C   UNL     1       3.153   0.074   3.730  1.00  0.00     0.006 C 
ATOM     17  C   UNL     1       2.229   2.159   5.613  1.00  0.00     0.014 C 
ATOM     18  C   UNL     1       2.752  -0.252   5.172  1.00  0.00     0.014 C 
BRANCH  14  19
ATOM     19  C   UNL     1       2.854   1.765   1.816  1.00  0.00     0.119 C 
BRANCH  19  20
ATOM     20  N   UNL     1       3.390   0.782   0.897  1.00  0.00    -0.354 N 
ATOM     21  O   UNL     1       1.453  -0.441   0.721  1.00  0.00    -0.273 OA
ATOM     22  C   UNL     1       2.543  -0.107   0.255  1.00  0.00     0.240 C 
ATOM     23  H   UNL     1       4.360   0.745   0.728  1.00  0.00     0.163 HD
BRANCH  22  24
ATOM     24  C   UNL     1       3.088  -0.792  -0.996  1.00  0.00     0.230 C 
BRANCH  24  25
ATOM     25  N   UNL     1       3.944   0.012  -1.862  1.00  0.00    -0.250 N 
ATOM     26  C   UNL     1       4.866  -0.681  -2.632  1.00  0.00     0.329 A 
ATOM     27  C   UNL     1       3.550   1.318  -2.145  1.00  0.00     0.264 A 
ATOM     28  O   UNL     1       5.117  -1.877  -2.491  1.00  0.00    -0.248 OA
ATOM     29  N   UNL     1       5.507   0.025  -3.611  1.00  0.00    -0.307 N 
ATOM     30  C   UNL     1       4.408   2.085  -3.058  1.00  0.00     0.064 A 
ATOM     31  O   UNL     1       2.556   1.864  -1.673  1.00  0.00    -0.268 OA
ATOM     32  C   UNL     1       5.332   1.389  -3.825  1.00  0.00     0.055 A 
ATOM     33  H   UNL     1       6.130  -0.461  -4.199  1.00  0.00     0.171 HD
ATOM     34  C   UNL     1       4.276   3.470  -3.182  1.00  0.00     0.016 A 
ATOM     35  C   UNL     1       6.082   2.058  -4.789  1.00  0.00     0.027 A 
ATOM     36  C   UNL     1       5.054   4.150  -4.117  1.00  0.00     0.001 A 
ATOM     37  C   UNL     1       5.939   3.441  -4.934  1.00  0.00     0.002 A 
ENDBRANCH  24  25
ENDBRANCH  22  24
ENDBRANCH  19  20
ENDBRANCH  14  19
ENDBRANCH   6  13
ENDBRANCH   3   5
ENDBRANCH   2   3
ENDBRANCH   1   2
BRANCH   1  38
ATOM     38  C   UNL     1      -6.475  -0.993   1.623  1.00  0.00     0.275 C 
BRANCH  38  39
ATOM     39  O   UNL     1      -6.050  -0.194   0.504  1.00  0.00    -0.458 OA
BRANCH  39  40
ATOM     40  C   UNL     1      -5.505   1.011   0.804  1.00  0.00     0.338 C 
ATOM     41  O   UNL     1      -5.380   1.516   1.902  1.00  0.00    -0.246 OA
BRANCH  40  42
ATOM     42  C   UNL     1      -4.991   1.609  -0.437  1.00  0.00     0.060 A 
ATOM     43  C   UNL     1      -5.884   2.103  -1.384  1.00  0.00     0.016 A 
ATOM     44  C   UNL     1      -3.611   1.689  -0.648  1.00  0.00     0.016 A 
ATOM     45  C   UNL     1      -5.389   2.627  -2.577  1.00  0.00     0.010 A 
ATOM     46  C   UNL     1      -3.116   2.230  -1.831  1.00  0.00     0.010 A 
ATOM     47  C   UNL     1      -4.003   2.681  -2.816  1.00  0.00    -0.014 A 
BRANCH  47  48
ATOM     48  C   UNL     1      -3.485   3.202  -4.103  1.00  0.00     0.031 A 
ATOM     49  C   UNL     1      -2.866   2.265  -5.102  1.00  0.00     0.074 A 
ATOM     50  C   UNL     1      -3.597   4.517  -4.371  1.00  0.00     0.049 A 
ATOM     51  N   UNL     1      -2.424   2.529  -6.305  1.00  0.00    -0.248 NA
ATOM     52  C   UNL     1      -2.724   0.853  -4.708  1.00  0.00     0.031 C 
ATOM     53  C   UNL     1      -4.179   5.507  -3.463  1.00  0.00     0.029 A 
ATOM     54  N   UNL     1      -3.252   5.243  -5.483  1.00  0.00    -0.354 N 
ATOM     55  C   UNL     1      -1.970   1.319  -6.815  1.00  0.00     0.074 A 
ATOM     56  C   UNL     1      -2.134   0.329  -5.775  1.00  0.00     0.031 C 
ATOM     57  C   UNL     1      -4.200   6.701  -4.075  1.00  0.00     0.029 A 
ATOM     58  C   UNL     1      -3.590   6.574  -5.397  1.00  0.00     0.049 A 
ATOM     59  H   UNL     1      -2.806   4.850  -6.267  1.00  0.00     0.167 HD
ATOM     60  C   UNL     1      -1.488   1.058  -8.052  1.00  0.00     0.031 A 
ATOM     61  C   UNL     1      -3.436   7.579  -6.284  1.00  0.00     0.031 A 
ATOM     62  C   UNL     1      -1.334   2.059  -9.076  1.00  0.00     0.049 A 
ATOM     63  C   UNL     1      -2.833   7.273  -7.628  1.00  0.00     0.074 A 
ATOM     64  C   UNL     1      -0.879   1.890 -10.372  1.00  0.00     0.029 A 
ATOM     65  N   UNL     1      -1.631   3.406  -8.928  1.00  0.00    -0.354 N 
ATOM     66  N   UNL     1      -2.461   6.114  -8.116  1.00  0.00    -0.248 NA
ATOM     67  C   UNL     1      -2.635   8.402  -8.548  1.00  0.00     0.031 C 
ATOM     68  C   UNL     1      -0.822   3.143 -10.979  1.00  0.00     0.029 A 
ATOM     69  C   UNL     1      -1.331   4.084 -10.097  1.00  0.00     0.049 A 
ATOM     70  H   UNL     1      -1.999   3.818  -8.114  1.00  0.00     0.167 HD
ATOM     71  C   UNL     1      -2.012   6.368  -9.406  1.00  0.00     0.074 A 
ATOM     72  C   UNL     1      -2.170   7.790  -9.631  1.00  0.00     0.031 C 
ATOM     73  C   UNL     1      -1.510   5.500 -10.317  1.00  0.00     0.031 A 
BRANCH  60  74
ATOM     74  C   UNL     1      -1.115  -0.360  -8.405  1.00  0.00    -0.014 A 
ATOM     75  C   UNL     1       0.217  -0.676  -8.734  1.00  0.00     0.010 A 
ATOM     76  C   UNL     1      -2.110  -1.340  -8.579  1.00  0.00     0.010 A 
ATOM     77  C   UNL     1       0.538  -1.920  -9.284  1.00  0.00     0.020 A 
ATOM     78  C   UNL     1      -1.788  -2.598  -9.098  1.00  0.00     0.020 A 
ATOM     79  C   UNL     1      -0.471  -2.867  -9.477  1.00  0.00     0.054 A 
BRANCH  79  80
ATOM     80  S   UNL     1      -0.047  -4.444 -10.268  1.00  0.00     0.124 S 
ATOM     81  O   UNL     1       0.217  -4.038 -11.645  1.00  0.00    -0.237 OA
ATOM     82  O   UNL     1       1.120  -4.878  -9.503  1.00  0.00    -0.237 OA
ATOM     83  O   UNL     1      -1.245  -5.259 -10.076  1.00  0.00    -0.744 OA
ENDBRANCH  79  80
ENDBRANCH  60  74
BRANCH  61  84
ATOM     84  C   UNL     1      -3.917   8.945  -5.933  1.00  0.00    -0.014 A 
ATOM     85  C   UNL     1      -3.338   9.658  -4.865  1.00  0.00     0.010 A 
ATOM     86  C   UNL     1      -5.014   9.508  -6.609  1.00  0.00     0.010 A 
ATOM     87  C   UNL     1      -3.883  10.873  -4.441  1.00  0.00     0.020 A 
ATOM     88  C   UNL     1      -5.540  10.742  -6.211  1.00  0.00     0.020 A 
ATOM     89  C   UNL     1      -4.990  11.401  -5.109  1.00  0.00     0.054 A 
BRANCH  89  90
ATOM     90  S   UNL     1      -5.712  12.950  -4.503  1.00  0.00     0.124 S 
ATOM     91  O   UNL     1      -6.355  12.517  -3.265  1.00  0.00    -0.237 OA
ATOM     92  O   UNL     1      -4.539  13.803  -4.337  1.00  0.00    -0.237 OA
ATOM     93  O   UNL     1      -6.622  13.347  -5.574  1.00  0.00    -0.744 OA
ENDBRANCH  89  90
ENDBRANCH  61  84
BRANCH  73  94
ATOM     94  C   UNL     1      -1.084   6.028 -11.664  1.00  0.00    -0.014 A 
ATOM     95  C   UNL     1      -1.753   5.593 -12.824  1.00  0.00     0.010 A 
ATOM     96  C   UNL     1       0.093   6.785 -11.795  1.00  0.00     0.010 A 
ATOM     97  C   UNL     1      -1.214   5.840 -14.088  1.00  0.00     0.020 A 
ATOM     98  C   UNL     1       0.616   7.065 -13.060  1.00  0.00     0.020 A 
ATOM     99  C   UNL     1      -0.020   6.557 -14.196  1.00  0.00     0.054 A 
BRANCH  99 100
ATOM    100  S   UNL     1       0.723   6.772 -15.837  1.00  0.00     0.124 S 
ATOM    101  O   UNL     1       1.193   5.424 -16.141  1.00  0.00    -0.237 OA
ATOM    102  O   UNL     1      -0.404   7.243 -16.638  1.00  0.00    -0.237 OA
ATOM    103  O   UNL     1       1.775   7.762 -15.611  1.00  0.00    -0.744 OA
ENDBRANCH  99 100
ENDBRANCH  73  94
ENDBRANCH  47  48
ENDBRANCH  40  42
ENDBRANCH  39  40
ENDBRANCH  38  39
ENDBRANCH   1  38
TORSDOF 19
