REMARK SMILES CN1c2ccccc2S[C@H]2C=CC(C(=O)OCCOC(=O)c3ccc(-c4c5nc(c(-c6ccc(S(=O)(=O)[O-])cc6)c6ccc([nH]6)c(-c6ccc(S(=O)(=O)[O-])cc6)c6nc(c(-c7ccc(S(=O)(=O)[O-])cc7)c7ccc4[nH]7)C=C6)C=C5)cc3)=C[C@@H]21
REMARK SMILES IDX 19 1 18 2 17 3 16 4 14 5 15 6 13 7 1 8 2 9 3 10 83 11 4 12
REMARK SMILES IDX 8 13 10 14 82 15 5 16 7 17 9 18 11 19 6 20 12 21 20 22 21 23
REMARK SMILES IDX 22 24 23 25 81 26 24 27 80 28 25 29 26 30 27 31 74 32 28 33
REMARK SMILES IDX 79 34 73 35 75 36 29 37 78 38 72 39 71 40 30 42 60 43 41 44
REMARK SMILES IDX 59 45 42 46 45 47 58 48 76 49 43 50 44 51 57 53 77 54 46 55
REMARK SMILES IDX 31 56 32 57 40 58 33 59 39 60 34 61 35 62 36 63 37 64 38 65
REMARK SMILES IDX 61 66 62 67 70 68 63 69 69 70 64 71 65 72 66 73 67 74 68 75
REMARK SMILES IDX 47 76 48 77 56 78 49 79 55 80 50 81 51 82 52 83 53 84 54 85
REMARK H PARENT 75 41 45 52
REMARK Flexibility Score: inf
ROOT
ATOM      1  O   UNL     1      -4.071   3.496   1.075  1.00  0.00    -0.458 OA
ENDROOT
BRANCH   1   2
ATOM      2  C   UNL     1      -5.410   2.999   1.250  1.00  0.00     0.275 C 
BRANCH   2   3
ATOM      3  C   UNL     1      -5.686   1.821   0.314  1.00  0.00     0.275 C 
BRANCH   3   4
ATOM      4  O   UNL     1      -4.967   0.633   0.709  1.00  0.00    -0.458 OA
BRANCH   4   5
ATOM      5  C   UNL     1      -3.811   0.421   0.034  1.00  0.00     0.337 C 
ATOM      6  O   UNL     1      -3.350   1.145  -0.838  1.00  0.00    -0.246 OA
BRANCH   5   7
ATOM      7  C   UNL     1      -3.131  -0.829   0.463  1.00  0.00     0.057 C 
ATOM      8  C   UNL     1       0.880  -0.451  -0.120  1.00  0.00     0.144 C 
ATOM      9  N   UNL     1       0.428  -1.730   0.413  1.00  0.00    -0.366 N 
ATOM     10  C   UNL     1       1.349  -2.781   0.573  1.00  0.00     0.051 A 
ATOM     11  C   UNL     1      -0.935  -1.946   0.949  1.00  0.00     0.123 C 
ATOM     12  C   UNL     1       2.738  -2.537   0.519  1.00  0.00     0.027 A 
ATOM     13  C   UNL     1       0.950  -4.132   0.771  1.00  0.00     0.031 A 
ATOM     14  C   UNL     1      -1.556  -3.180   0.238  1.00  0.00     0.101 C 
ATOM     15  C   UNL     1      -1.827  -0.741   0.786  1.00  0.00     0.015 C 
ATOM     16  C   UNL     1       3.684  -3.562   0.608  1.00  0.00     0.002 A 
ATOM     17  C   UNL     1       1.910  -5.157   0.863  1.00  0.00     0.017 A 
ATOM     18  S   UNL     1      -0.769  -4.675   0.897  1.00  0.00    -0.114 SA
ATOM     19  C   UNL     1      -3.063  -3.249   0.344  1.00  0.00    -0.009 C 
ATOM     20  C   UNL     1       3.270  -4.874   0.769  1.00  0.00     0.001 A 
ATOM     21  C   UNL     1      -3.788  -2.120   0.426  1.00  0.00     0.012 C 
ENDBRANCH   5   7
ENDBRANCH   4   5
ENDBRANCH   3   4
ENDBRANCH   2   3
ENDBRANCH   1   2
BRANCH   1  22
ATOM     22  C   UNL     1      -3.205   3.199   2.066  1.00  0.00     0.338 C 
ATOM     23  O   UNL     1      -3.438   2.574   3.094  1.00  0.00    -0.246 OA
BRANCH  22  24
ATOM     24  C   UNL     1      -1.864   3.689   1.724  1.00  0.00     0.060 A 
ATOM     25  C   UNL     1      -1.313   4.792   2.372  1.00  0.00     0.016 A 
ATOM     26  C   UNL     1      -1.089   2.942   0.843  1.00  0.00     0.016 A 
ATOM     27  C   UNL     1       0.022   5.136   2.123  1.00  0.00     0.010 A 
ATOM     28  C   UNL     1       0.268   3.210   0.699  1.00  0.00     0.010 A 
ATOM     29  C   UNL     1       0.844   4.325   1.315  1.00  0.00    -0.014 A 
BRANCH  29  30
ATOM     30  C   UNL     1       2.294   4.611   1.111  1.00  0.00     0.031 A 
ATOM     31  C   UNL     1       2.873   4.739  -0.281  1.00  0.00     0.074 A 
ATOM     32  C   UNL     1       3.119   4.681   2.177  1.00  0.00     0.049 A 
ATOM     33  N   UNL     1       4.118   4.937  -0.639  1.00  0.00    -0.248 NA
ATOM     34  C   UNL     1       1.952   4.575  -1.420  1.00  0.00     0.031 C 
ATOM     35  C   UNL     1       2.722   4.469   3.571  1.00  0.00     0.029 A 
ATOM     36  N   UNL     1       4.462   4.965   2.259  1.00  0.00    -0.354 N 
ATOM     37  C   UNL     1       4.129   4.884  -2.030  1.00  0.00     0.074 A 
ATOM     38  C   UNL     1       2.785   4.564  -2.450  1.00  0.00     0.031 C 
ATOM     39  C   UNL     1       3.771   4.710   4.371  1.00  0.00     0.029 A 
ATOM     40  C   UNL     1       4.930   5.050   3.551  1.00  0.00     0.049 A 
ATOM     41  H   UNL     1       5.035   5.094   1.469  1.00  0.00     0.167 HD
ATOM     42  C   UNL     1       5.152   5.125  -2.884  1.00  0.00     0.031 A 
ATOM     43  C   UNL     1       6.144   5.389   4.030  1.00  0.00     0.031 A 
ATOM     44  C   UNL     1       6.467   5.529  -2.467  1.00  0.00     0.049 A 
ATOM     45  C   UNL     1       7.239   5.755   3.070  1.00  0.00     0.074 A 
ATOM     46  C   UNL     1       7.542   5.893  -3.259  1.00  0.00     0.029 A 
ATOM     47  N   UNL     1       6.879   5.656  -1.149  1.00  0.00    -0.354 N 
ATOM     48  N   UNL     1       7.208   5.763   1.759  1.00  0.00    -0.248 NA
ATOM     49  C   UNL     1       8.525   6.172   3.646  1.00  0.00     0.031 C 
ATOM     50  C   UNL     1       8.614   6.207  -2.422  1.00  0.00     0.029 A 
ATOM     51  C   UNL     1       8.191   6.091  -1.107  1.00  0.00     0.049 A 
ATOM     52  H   UNL     1       6.320   5.465  -0.361  1.00  0.00     0.167 HD
ATOM     53  C   UNL     1       8.464   6.200   1.353  1.00  0.00     0.074 A 
ATOM     54  C   UNL     1       9.226   6.464   2.556  1.00  0.00     0.031 C 
ATOM     55  C   UNL     1       8.939   6.361   0.095  1.00  0.00     0.031 A 
BRANCH  42  56
ATOM     56  C   UNL     1       4.885   5.029  -4.366  1.00  0.00    -0.014 A 
ATOM     57  C   UNL     1       5.548   4.060  -5.142  1.00  0.00     0.010 A 
ATOM     58  C   UNL     1       4.061   5.970  -5.011  1.00  0.00     0.010 A 
ATOM     59  C   UNL     1       5.407   4.045  -6.534  1.00  0.00     0.020 A 
ATOM     60  C   UNL     1       3.892   5.939  -6.397  1.00  0.00     0.020 A 
ATOM     61  C   UNL     1       4.585   4.990  -7.153  1.00  0.00     0.054 A 
BRANCH  61  62
ATOM     62  S   UNL     1       4.416   4.969  -8.959  1.00  0.00     0.124 S 
ATOM     63  O   UNL     1       5.647   5.622  -9.391  1.00  0.00    -0.237 OA
ATOM     64  O   UNL     1       4.318   3.542  -9.257  1.00  0.00    -0.237 OA
ATOM     65  O   UNL     1       3.189   5.728  -9.193  1.00  0.00    -0.744 OA
ENDBRANCH  61  62
ENDBRANCH  42  56
BRANCH  43  66
ATOM     66  C   UNL     1       6.336   5.489   5.504  1.00  0.00    -0.014 A 
ATOM     67  C   UNL     1       6.361   4.337   6.310  1.00  0.00     0.010 A 
ATOM     68  C   UNL     1       6.391   6.754   6.117  1.00  0.00     0.010 A 
ATOM     69  C   UNL     1       6.386   4.448   7.703  1.00  0.00     0.020 A 
ATOM     70  C   UNL     1       6.441   6.869   7.509  1.00  0.00     0.020 A 
ATOM     71  C   UNL     1       6.407   5.715   8.294  1.00  0.00     0.054 A 
BRANCH  71  72
ATOM     72  S   UNL     1       6.375   5.841  10.104  1.00  0.00     0.124 S 
ATOM     73  O   UNL     1       4.967   5.587  10.395  1.00  0.00    -0.237 OA
ATOM     74  O   UNL     1       7.303   4.791  10.516  1.00  0.00    -0.237 OA
ATOM     75  O   UNL     1       6.830   7.205  10.359  1.00  0.00    -0.744 OA
ENDBRANCH  71  72
ENDBRANCH  43  66
BRANCH  55  76
ATOM     76  C   UNL     1      10.350   6.852  -0.080  1.00  0.00    -0.014 A 
ATOM     77  C   UNL     1      10.580   8.133  -0.615  1.00  0.00     0.010 A 
ATOM     78  C   UNL     1      11.440   5.990   0.134  1.00  0.00     0.010 A 
ATOM     79  C   UNL     1      11.870   8.531  -0.971  1.00  0.00     0.020 A 
ATOM     80  C   UNL     1      12.735   6.394  -0.200  1.00  0.00     0.020 A 
ATOM     81  C   UNL     1      12.938   7.651  -0.776  1.00  0.00     0.054 A 
BRANCH  81  82
ATOM     82  S   UNL     1      14.600   8.161  -1.294  1.00  0.00     0.124 S 
ATOM     83  O   UNL     1      14.543   7.968  -2.740  1.00  0.00    -0.237 OA
ATOM     84  O   UNL     1      14.665   9.550  -0.847  1.00  0.00    -0.237 OA
ATOM     85  O   UNL     1      15.479   7.242  -0.575  1.00  0.00    -0.744 OA
ENDBRANCH  81  82
ENDBRANCH  55  76
ENDBRANCH  29  30
ENDBRANCH  22  24
ENDBRANCH   1  22
TORSDOF 14
