REMARK SMILES CC(=O)Nc1cc(NC(C)=O)cc(C(=O)Nc2ccc(Br)cc2C(=O)OCCOC(=O)c2ccc(-c3c4nc(c(-c5ccc(S(=O)(=O)[O-])cc5)c5ccc([nH]5)c(-c5ccc(S(=O)(=O)[O-])cc5)c5nc(c(-c6ccc(S(=O)(=O)[O-])cc6)c6ccc3[nH]6)C=C5)C=C4)cc2)c1
REMARK SMILES IDX 27 1 26 2 24 3 25 4 23 5 17 6 18 7 19 8 22 9 20 10 21 11
REMARK SMILES IDX 16 12 14 13 15 14 13 16 5 17 6 18 92 19 7 20 12 21 4 22 1 23
REMARK SMILES IDX 2 24 3 25 8 27 9 28 10 30 11 31 28 32 29 33 30 34 31 35
REMARK SMILES IDX 32 36 33 37 91 38 34 39 90 40 35 41 36 42 37 43 84 44 38 45
REMARK SMILES IDX 89 46 83 47 85 48 39 49 88 50 82 51 81 52 40 54 70 55 51 56
REMARK SMILES IDX 69 57 52 58 55 59 68 60 86 61 53 62 54 63 67 65 87 66 56 67
REMARK SMILES IDX 41 68 42 69 50 70 43 71 49 72 44 73 45 74 46 75 47 76 48 77
REMARK SMILES IDX 71 78 72 79 80 80 73 81 79 82 74 83 75 84 76 85 77 86 78 87
REMARK SMILES IDX 57 88 58 89 66 90 59 91 65 92 60 93 61 94 62 95 63 96 64 97
REMARK H PARENT 16 15 4 26 8 29 85 53 55 64
REMARK Flexibility Score: inf
ROOT
ATOM      1  C   UNL     1       5.770   3.656  -1.512  1.00  0.00     0.275 C 
ENDROOT
BRANCH   1   2
ATOM      2  O   UNL     1       5.601   2.270  -1.150  1.00  0.00    -0.458 OA
BRANCH   2   3
ATOM      3  C   UNL     1       4.333   1.822  -1.299  1.00  0.00     0.340 C 
ATOM      4  O   UNL     1       3.406   2.469  -1.751  1.00  0.00    -0.246 OA
BRANCH   3   5
ATOM      5  C   UNL     1       4.152   0.438  -0.824  1.00  0.00     0.084 A 
ATOM      6  C   UNL     1       4.397   0.041   0.499  1.00  0.00     0.056 A 
ATOM      7  C   UNL     1       4.232  -1.316   0.833  1.00  0.00     0.028 A 
ATOM      8  C   UNL     1       3.687  -2.224  -0.083  1.00  0.00     0.018 A 
ATOM      9  C   UNL     1       3.630  -0.487  -1.744  1.00  0.00     0.033 A 
ATOM     10  C   UNL     1       3.363  -1.796  -1.362  1.00  0.00     0.018 A 
ATOM     11  Br  UNL     1       2.513  -2.974  -2.570  1.00  0.00    -0.051 Br
BRANCH   6  12
ATOM     12  N   UNL     1       4.744   0.888   1.573  1.00  0.00    -0.321 N 
ATOM     13  C   UNL     1       4.378   2.184   1.889  1.00  0.00     0.255 C 
ATOM     14  O   UNL     1       5.044   2.802   2.720  1.00  0.00    -0.269 OA
ATOM     15  H   UNL     1       5.364   0.480   2.220  1.00  0.00     0.170 HD
BRANCH  13  16
ATOM     16  C   UNL     1       3.156   2.835   1.329  1.00  0.00     0.044 A 
ATOM     17  C   UNL     1       1.060   2.702   0.134  1.00  0.00     0.044 A 
ATOM     18  C   UNL     1       1.099   4.094  -0.043  1.00  0.00     0.052 A 
ATOM     19  C   UNL     1       2.043   2.093   0.910  1.00  0.00     0.040 A 
ATOM     20  C   UNL     1       2.127   4.873   0.493  1.00  0.00     0.044 A 
ATOM     21  C   UNL     1       3.169   4.229   1.168  1.00  0.00     0.040 A 
BRANCH  17  22
ATOM     22  N   UNL     1       0.136   2.005  -0.671  1.00  0.00    -0.326 N 
ATOM     23  C   UNL     1       0.048  -0.277   0.321  1.00  0.00     0.114 C 
ATOM     24  C   UNL     1      -0.177   0.687  -0.805  1.00  0.00     0.221 C 
ATOM     25  O   UNL     1      -0.684   0.302  -1.860  1.00  0.00    -0.275 OA
ATOM     26  H   UNL     1      -0.392   2.593  -1.257  1.00  0.00     0.169 HD
ENDBRANCH  17  22
BRANCH  20  27
ATOM     27  N   UNL     1       2.205   6.277   0.343  1.00  0.00    -0.326 N 
ATOM     28  C   UNL     1       1.293   7.097  -0.300  1.00  0.00     0.221 C 
ATOM     29  H   UNL     1       2.992   6.718   0.738  1.00  0.00     0.169 HD
ATOM     30  C   UNL     1       1.663   8.559  -0.257  1.00  0.00     0.114 C 
ATOM     31  O   UNL     1       0.258   6.749  -0.856  1.00  0.00    -0.275 OA
ENDBRANCH  20  27
ENDBRANCH  13  16
ENDBRANCH   6  12
ENDBRANCH   3   5
ENDBRANCH   2   3
ENDBRANCH   1   2
BRANCH   1  32
ATOM     32  C   UNL     1       6.130   3.867  -2.987  1.00  0.00     0.275 C 
BRANCH  32  33
ATOM     33  O   UNL     1       5.027   3.601  -3.874  1.00  0.00    -0.458 OA
BRANCH  33  34
ATOM     34  C   UNL     1       4.982   2.336  -4.350  1.00  0.00     0.338 C 
ATOM     35  O   UNL     1       5.777   1.437  -4.121  1.00  0.00    -0.246 OA
BRANCH  34  36
ATOM     36  C   UNL     1       3.781   2.117  -5.168  1.00  0.00     0.060 A 
ATOM     37  C   UNL     1       2.643   1.587  -4.563  1.00  0.00     0.016 A 
ATOM     38  C   UNL     1       3.857   2.207  -6.555  1.00  0.00     0.016 A 
ATOM     39  C   UNL     1       1.633   1.025  -5.324  1.00  0.00     0.010 A 
ATOM     40  C   UNL     1       2.785   1.744  -7.324  1.00  0.00     0.010 A 
ATOM     41  C   UNL     1       1.684   1.111  -6.715  1.00  0.00    -0.014 A 
BRANCH  41  42
ATOM     42  C   UNL     1       0.611   0.497  -7.530  1.00  0.00     0.031 A 
ATOM     43  C   UNL     1       0.964  -0.578  -8.518  1.00  0.00     0.074 A 
ATOM     44  C   UNL     1      -0.666   0.897  -7.375  1.00  0.00     0.049 A 
ATOM     45  N   UNL     1       0.252  -1.065  -9.498  1.00  0.00    -0.248 NA
ATOM     46  C   UNL     1       2.307  -1.174  -8.396  1.00  0.00     0.031 C 
ATOM     47  C   UNL     1      -1.147   1.855  -6.374  1.00  0.00     0.029 A 
ATOM     48  N   UNL     1      -1.799   0.546  -8.063  1.00  0.00    -0.354 N 
ATOM     49  C   UNL     1       1.075  -1.980 -10.144  1.00  0.00     0.074 A 
ATOM     50  C   UNL     1       2.344  -1.976  -9.451  1.00  0.00     0.031 C 
ATOM     51  C   UNL     1      -2.474   1.999  -6.501  1.00  0.00     0.029 A 
ATOM     52  C   UNL     1      -2.919   1.231  -7.654  1.00  0.00     0.049 A 
ATOM     53  H   UNL     1      -1.810  -0.130  -8.779  1.00  0.00     0.167 HD
ATOM     54  C   UNL     1       0.789  -2.745 -11.224  1.00  0.00     0.031 A 
ATOM     55  C   UNL     1      -4.153   1.285  -8.189  1.00  0.00     0.031 A 
ATOM     56  C   UNL     1      -0.495  -2.746 -11.874  1.00  0.00     0.049 A 
ATOM     57  C   UNL     1      -4.419   0.499  -9.441  1.00  0.00     0.074 A 
ATOM     58  C   UNL     1      -0.900  -3.462 -12.986  1.00  0.00     0.029 A 
ATOM     59  N   UNL     1      -1.591  -2.003 -11.454  1.00  0.00    -0.354 N 
ATOM     60  N   UNL     1      -3.612  -0.301 -10.099  1.00  0.00    -0.248 NA
ATOM     61  C   UNL     1      -5.755   0.632 -10.033  1.00  0.00     0.031 C 
ATOM     62  C   UNL     1      -2.226  -3.116 -13.266  1.00  0.00     0.029 A 
ATOM     63  C   UNL     1      -2.667  -2.233 -12.292  1.00  0.00     0.049 A 
ATOM     64  H   UNL     1      -1.601  -1.402 -10.675  1.00  0.00     0.167 HD
ATOM     65  C   UNL     1      -4.353  -0.790 -11.166  1.00  0.00     0.074 A 
ATOM     66  C   UNL     1      -5.675  -0.206 -11.058  1.00  0.00     0.031 C 
ATOM     67  C   UNL     1      -3.976  -1.646 -12.148  1.00  0.00     0.031 A 
BRANCH  54  68
ATOM     68  C   UNL     1       1.891  -3.600 -11.793  1.00  0.00    -0.014 A 
ATOM     69  C   UNL     1       2.368  -4.737 -11.116  1.00  0.00     0.010 A 
ATOM     70  C   UNL     1       2.436  -3.277 -13.050  1.00  0.00     0.010 A 
ATOM     71  C   UNL     1       3.391  -5.513 -11.669  1.00  0.00     0.020 A 
ATOM     72  C   UNL     1       3.439  -4.067 -13.620  1.00  0.00     0.020 A 
ATOM     73  C   UNL     1       3.921  -5.173 -12.918  1.00  0.00     0.054 A 
BRANCH  73  74
ATOM     74  S   UNL     1       5.228  -6.215 -13.624  1.00  0.00     0.124 S 
ATOM     75  O   UNL     1       6.369  -5.888 -12.772  1.00  0.00    -0.237 OA
ATOM     76  O   UNL     1       4.688  -7.562 -13.459  1.00  0.00    -0.237 OA
ATOM     77  O   UNL     1       5.333  -5.754 -15.006  1.00  0.00    -0.744 OA
ENDBRANCH  73  74
ENDBRANCH  54  68
BRANCH  55  78
ATOM     78  C   UNL     1      -5.196   2.159  -7.584  1.00  0.00    -0.014 A 
ATOM     79  C   UNL     1      -6.343   1.601  -6.995  1.00  0.00     0.010 A 
ATOM     80  C   UNL     1      -5.047   3.559  -7.590  1.00  0.00     0.010 A 
ATOM     81  C   UNL     1      -7.333   2.425  -6.450  1.00  0.00     0.020 A 
ATOM     82  C   UNL     1      -6.016   4.385  -7.014  1.00  0.00     0.020 A 
ATOM     83  C   UNL     1      -7.163   3.812  -6.464  1.00  0.00     0.054 A 
BRANCH  83  84
ATOM     84  S   UNL     1      -8.451   4.859  -5.732  1.00  0.00     0.124 S 
ATOM     85  O   UNL     1      -9.523   4.754  -6.717  1.00  0.00    -0.237 OA
ATOM     86  O   UNL     1      -8.703   4.204  -4.451  1.00  0.00    -0.237 OA
ATOM     87  O   UNL     1      -7.815   6.172  -5.638  1.00  0.00    -0.744 OA
ENDBRANCH  83  84
ENDBRANCH  55  78
BRANCH  67  88
ATOM     88  C   UNL     1      -5.026  -2.046 -13.147  1.00  0.00    -0.014 A 
ATOM     89  C   UNL     1      -5.470  -1.153 -14.138  1.00  0.00     0.010 A 
ATOM     90  C   UNL     1      -5.527  -3.360 -13.127  1.00  0.00     0.010 A 
ATOM     91  C   UNL     1      -6.417  -1.564 -15.078  1.00  0.00     0.020 A 
ATOM     92  C   UNL     1      -6.451  -3.782 -14.083  1.00  0.00     0.020 A 
ATOM     93  C   UNL     1      -6.899  -2.877 -15.047  1.00  0.00     0.054 A 
BRANCH  93  94
ATOM     94  S   UNL     1      -8.081  -3.401 -16.317  1.00  0.00     0.124 S 
ATOM     95  O   UNL     1      -9.299  -2.712 -15.903  1.00  0.00    -0.237 OA
ATOM     96  O   UNL     1      -7.467  -2.909 -17.548  1.00  0.00    -0.237 OA
ATOM     97  O   UNL     1      -8.112  -4.856 -16.183  1.00  0.00    -0.744 OA
ENDBRANCH  93  94
ENDBRANCH  67  88
ENDBRANCH  41  42
ENDBRANCH  34  36
ENDBRANCH  33  34
ENDBRANCH  32  33
ENDBRANCH   1  32
TORSDOF 18
