REMARK SMILES Cc1ccc(NC(=O)C[C@H]2SC[C@H](C(=O)OCCOC(=O)c3ccc(-c4c5nc(c(-c6ccc(S(=O)(=O)[O-])cc6)c6ccc([nH]6)c(-c6ccc(S(=O)(=O)[O-])cc6)c6nc(c(-c7ccc(S(=O)(=O)[O-])cc7)c7ccc4[nH]7)C=C6)C=C5)cc3)NC2=O)cc1
REMARK SMILES IDX 17 1 16 2 14 3 15 4 13 5 10 6 11 7 83 8 12 9 82 10 84 11
REMARK SMILES IDX 9 13 7 14 6 15 8 17 5 18 1 19 2 20 3 21 86 22 4 23 85 24
REMARK SMILES IDX 18 25 19 26 20 27 21 28 22 29 23 30 81 31 24 32 80 33 25 34
REMARK SMILES IDX 26 35 27 36 74 37 28 38 79 39 73 40 75 41 29 42 78 43 72 44
REMARK SMILES IDX 71 45 30 47 60 48 41 49 59 50 42 51 45 52 58 53 76 54 43 55
REMARK SMILES IDX 44 56 57 58 77 59 46 60 31 61 32 62 40 63 33 64 39 65 34 66
REMARK SMILES IDX 35 67 36 68 37 69 38 70 61 71 62 72 70 73 63 74 69 75 64 76
REMARK SMILES IDX 65 77 66 78 67 79 68 80 47 81 48 82 56 83 49 84 55 85 50 86
REMARK SMILES IDX 51 87 52 88 53 89 54 90
REMARK H PARENT 82 12 6 16 75 46 45 57
REMARK Flexibility Score: inf
ROOT
ATOM      1  C   UNL     1      -8.332  -2.996  -2.843  1.00  0.00     0.274 C 
ENDROOT
BRANCH   1   2
ATOM      2  O   UNL     1      -6.998  -2.475  -2.813  1.00  0.00    -0.461 OA
BRANCH   2   3
ATOM      3  C   UNL     1      -6.159  -3.008  -1.885  1.00  0.00     0.329 C 
ATOM      4  O   UNL     1      -6.518  -3.630  -0.908  1.00  0.00    -0.250 OA
BRANCH   3   5
ATOM      5  C   UNL     1      -4.711  -2.655  -2.253  1.00  0.00     0.202 C 
ATOM      6  C   UNL     1      -1.900  -2.245  -1.246  1.00  0.00     0.145 C 
ATOM      7  S   UNL     1      -2.692  -0.777  -2.025  1.00  0.00    -0.145 SA
ATOM      8  C   UNL     1      -2.413  -3.539  -1.877  1.00  0.00     0.234 C 
ATOM      9  C   UNL     1      -4.417  -1.264  -1.716  1.00  0.00     0.107 C 
ATOM     10  N   UNL     1      -3.777  -3.709  -1.855  1.00  0.00    -0.341 N 
ATOM     11  O   UNL     1      -1.709  -4.467  -2.261  1.00  0.00    -0.274 OA
ATOM     12  H   UNL     1      -4.140  -4.575  -1.559  1.00  0.00     0.164 HD
BRANCH   6  13
ATOM     13  C   UNL     1      -0.391  -2.032  -1.141  1.00  0.00     0.124 C 
BRANCH  13  14
ATOM     14  C   UNL     1       0.546  -3.223  -1.090  1.00  0.00     0.226 C 
ATOM     15  N   UNL     1       0.357  -4.316  -0.307  1.00  0.00    -0.326 N 
ATOM     16  H   UNL     1       0.992  -5.044  -0.500  1.00  0.00     0.169 HD
ATOM     17  O   UNL     1       1.580  -3.195  -1.772  1.00  0.00    -0.275 OA
BRANCH  15  18
ATOM     18  C   UNL     1      -0.545  -4.631   0.715  1.00  0.00     0.041 A 
ATOM     19  C   UNL     1      -3.359  -5.870   3.736  1.00  0.00     0.044 C 
ATOM     20  C   UNL     1      -2.370  -5.450   2.692  1.00  0.00    -0.051 A 
ATOM     21  C   UNL     1      -2.075  -4.095   2.510  1.00  0.00     0.005 A 
ATOM     22  C   UNL     1      -1.735  -6.396   1.887  1.00  0.00     0.005 A 
ATOM     23  C   UNL     1      -1.150  -3.690   1.543  1.00  0.00     0.026 A 
ATOM     24  C   UNL     1      -0.819  -5.989   0.915  1.00  0.00     0.026 A 
ENDBRANCH  15  18
ENDBRANCH  13  14
ENDBRANCH   6  13
ENDBRANCH   3   5
ENDBRANCH   2   3
ENDBRANCH   1   2
BRANCH   1  25
ATOM     25  C   UNL     1      -8.998  -2.513  -4.145  1.00  0.00     0.275 C 
BRANCH  25  26
ATOM     26  O   UNL     1      -8.466  -3.045  -5.384  1.00  0.00    -0.458 OA
BRANCH  26  27
ATOM     27  C   UNL     1      -7.112  -3.086  -5.530  1.00  0.00     0.338 C 
ATOM     28  O   UNL     1      -6.396  -2.092  -5.580  1.00  0.00    -0.246 OA
BRANCH  27  29
ATOM     29  C   UNL     1      -6.660  -4.479  -5.250  1.00  0.00     0.060 A 
ATOM     30  C   UNL     1      -5.324  -4.742  -4.907  1.00  0.00     0.016 A 
ATOM     31  C   UNL     1      -7.644  -5.433  -4.994  1.00  0.00     0.016 A 
ATOM     32  C   UNL     1      -5.006  -5.876  -4.149  1.00  0.00     0.010 A 
ATOM     33  C   UNL     1      -7.352  -6.481  -4.159  1.00  0.00     0.010 A 
ATOM     34  C   UNL     1      -6.041  -6.699  -3.709  1.00  0.00    -0.014 A 
BRANCH  34  35
ATOM     35  C   UNL     1      -5.899  -7.925  -2.930  1.00  0.00     0.031 A 
ATOM     36  C   UNL     1      -5.668  -7.975  -1.471  1.00  0.00     0.074 A 
ATOM     37  C   UNL     1      -6.237  -9.029  -3.630  1.00  0.00     0.049 A 
ATOM     38  N   UNL     1      -5.395  -9.060  -0.828  1.00  0.00    -0.248 NA
ATOM     39  C   UNL     1      -5.697  -6.810  -0.597  1.00  0.00     0.031 C 
ATOM     40  C   UNL     1      -6.615 -10.352  -3.166  1.00  0.00     0.029 A 
ATOM     41  N   UNL     1      -6.121  -9.175  -5.017  1.00  0.00    -0.354 N 
ATOM     42  C   UNL     1      -5.479  -8.798   0.525  1.00  0.00     0.074 A 
ATOM     43  C   UNL     1      -5.581  -7.363   0.618  1.00  0.00     0.031 C 
ATOM     44  C   UNL     1      -6.398 -11.220  -4.172  1.00  0.00     0.029 A 
ATOM     45  C   UNL     1      -5.688 -10.484  -5.214  1.00  0.00     0.049 A 
ATOM     46  H   UNL     1      -6.307  -8.496  -5.706  1.00  0.00     0.167 HD
ATOM     47  C   UNL     1      -5.577  -9.843   1.398  1.00  0.00     0.031 A 
ATOM     48  C   UNL     1      -4.418 -10.746  -5.652  1.00  0.00     0.031 A 
ATOM     49  C   UNL     1      -5.461 -11.113   0.688  1.00  0.00     0.049 A 
ATOM     50  C   UNL     1      -3.652 -11.604  -4.666  1.00  0.00     0.074 A 
ATOM     51  C   UNL     1      -6.388 -12.035   0.234  1.00  0.00     0.029 A 
ATOM     52  N   UNL     1      -4.263 -11.417   0.063  1.00  0.00    -0.354 N 
ATOM     53  N   UNL     1      -3.944 -11.705  -3.399  1.00  0.00    -0.248 NA
ATOM     54  C   UNL     1      -2.473 -12.381  -5.029  1.00  0.00     0.031 C 
ATOM     55  C   UNL     1      -5.736 -12.881  -0.705  1.00  0.00     0.029 A 
ATOM     56  C   UNL     1      -4.411 -12.491  -0.789  1.00  0.00     0.049 A 
ATOM     57  H   UNL     1      -3.419 -10.931   0.207  1.00  0.00     0.167 HD
ATOM     58  C   UNL     1      -3.096 -12.597  -2.802  1.00  0.00     0.074 A 
ATOM     59  C   UNL     1      -2.149 -12.939  -3.849  1.00  0.00     0.031 C 
ATOM     60  C   UNL     1      -3.249 -12.993  -1.504  1.00  0.00     0.031 A 
BRANCH  47  61
ATOM     61  C   UNL     1      -5.989  -9.773   2.857  1.00  0.00    -0.014 A 
ATOM     62  C   UNL     1      -6.470 -10.941   3.493  1.00  0.00     0.010 A 
ATOM     63  C   UNL     1      -5.972  -8.611   3.648  1.00  0.00     0.010 A 
ATOM     64  C   UNL     1      -6.974 -10.934   4.803  1.00  0.00     0.020 A 
ATOM     65  C   UNL     1      -6.473  -8.587   4.964  1.00  0.00     0.020 A 
ATOM     66  C   UNL     1      -6.995  -9.747   5.526  1.00  0.00     0.054 A 
BRANCH  66  67
ATOM     67  S   UNL     1      -7.713  -9.738   7.192  1.00  0.00     0.124 S 
ATOM     68  O   UNL     1      -9.127  -9.985   6.920  1.00  0.00    -0.237 OA
ATOM     69  O   UNL     1      -7.000 -10.824   7.857  1.00  0.00    -0.237 OA
ATOM     70  O   UNL     1      -7.406  -8.399   7.693  1.00  0.00    -0.744 OA
ENDBRANCH  66  67
ENDBRANCH  47  61
BRANCH  48  71
ATOM     71  C   UNL     1      -3.800  -9.652  -6.475  1.00  0.00    -0.014 A 
ATOM     72  C   UNL     1      -4.437  -9.275  -7.681  1.00  0.00     0.010 A 
ATOM     73  C   UNL     1      -2.868  -8.761  -5.909  1.00  0.00     0.010 A 
ATOM     74  C   UNL     1      -4.251  -7.999  -8.228  1.00  0.00     0.020 A 
ATOM     75  C   UNL     1      -2.663  -7.487  -6.469  1.00  0.00     0.020 A 
ATOM     76  C   UNL     1      -3.392  -7.099  -7.597  1.00  0.00     0.054 A 
BRANCH  76  77
ATOM     77  S   UNL     1      -3.395  -5.369  -8.166  1.00  0.00     0.124 S 
ATOM     78  O   UNL     1      -2.759  -5.473  -9.476  1.00  0.00    -0.237 OA
ATOM     79  O   UNL     1      -4.823  -5.054  -8.182  1.00  0.00    -0.237 OA
ATOM     80  O   UNL     1      -2.626  -4.669  -7.141  1.00  0.00    -0.744 OA
ENDBRANCH  76  77
ENDBRANCH  48  71
BRANCH  60  81
ATOM     81  C   UNL     1      -2.316 -13.908  -0.757  1.00  0.00    -0.014 A 
ATOM     82  C   UNL     1      -1.633 -14.980  -1.345  1.00  0.00     0.010 A 
ATOM     83  C   UNL     1      -2.174 -13.742   0.643  1.00  0.00     0.010 A 
ATOM     84  C   UNL     1      -0.772 -15.786  -0.587  1.00  0.00     0.020 A 
ATOM     85  C   UNL     1      -1.343 -14.554   1.412  1.00  0.00     0.020 A 
ATOM     86  C   UNL     1      -0.622 -15.557   0.783  1.00  0.00     0.054 A 
BRANCH  86  87
ATOM     87  S   UNL     1       0.501 -16.605   1.735  1.00  0.00     0.124 S 
ATOM     88  O   UNL     1       0.066 -17.950   1.365  1.00  0.00    -0.237 OA
ATOM     89  O   UNL     1       1.805 -16.202   1.213  1.00  0.00    -0.237 OA
ATOM     90  O   UNL     1       0.243 -16.229   3.122  1.00  0.00    -0.744 OA
ENDBRANCH  86  87
ENDBRANCH  60  81
ENDBRANCH  34  35
ENDBRANCH  27  29
ENDBRANCH  26  27
ENDBRANCH  25  26
ENDBRANCH   1  25
TORSDOF 17
