REMARK SMILES C=C[C@@H]1[C@@H](O)C[C@H]2[C@]3(CC[C@]4(C)[C@@H]([C@H](C)CCC=C(C)C)CC[C@]24C)C[C@]13CCC(=O)OCCOC(=O)c1ccc(-c2c3nc(c(-c4ccc(S(=O)(=O)[O-])cc4)c4ccc([nH]4)c(-c4ccc(S(=O)(=O)[O-])cc4)c4nc(c(-c5ccc(S(=O)(=O)[O-])cc5)c5ccc2[nH]5)C=C4)C=C3)cc1
REMARK SMILES IDX 32 1 30 2 31 3 29 4 28 5 27 6 3 7 4 8 6 9 8 10 26 11 7 12
REMARK SMILES IDX 9 13 24 14 10 15 11 16 23 17 25 18 13 19 12 20 22 21 2 22
REMARK SMILES IDX 1 23 5 24 14 26 15 27 16 28 17 29 18 30 19 31 20 32 21 33
REMARK SMILES IDX 33 34 34 35 35 36 36 37 37 38 38 39 39 40 97 41 40 42 96 43
REMARK SMILES IDX 41 44 42 45 43 46 90 47 44 48 95 49 89 50 91 51 45 52 94 53
REMARK SMILES IDX 88 54 87 55 46 57 76 58 57 59 75 60 58 61 61 62 74 63 92 64
REMARK SMILES IDX 59 65 60 66 73 68 93 69 62 70 47 71 48 72 56 73 49 74 55 75
REMARK SMILES IDX 50 76 51 77 52 78 53 79 54 80 77 81 78 82 86 83 79 84 85 85
REMARK SMILES IDX 80 86 81 87 82 88 83 89 84 90 63 91 64 92 72 93 65 94 71 95
REMARK SMILES IDX 66 96 67 97 68 98 69 99 70 100
REMARK H PARENT 5 25 91 56 61 67
REMARK Flexibility Score: inf
ROOT
ATOM      1  O   UNL     1       0.671   1.339   2.120  1.00  0.00    -0.462 OA
ENDROOT
BRANCH   1   2
ATOM      2  C   UNL     1      -0.164   0.662   2.941  1.00  0.00     0.305 C 
ATOM      3  O   UNL     1       0.183  -0.021   3.895  1.00  0.00    -0.252 OA
BRANCH   2   4
ATOM      4  C   UNL     1      -1.612   0.804   2.518  1.00  0.00     0.123 C 
BRANCH   4   5
ATOM      5  C   UNL     1      -1.871   1.835   1.421  1.00  0.00     0.020 C 
BRANCH   5   6
ATOM      6  C   UNL     1      -1.451   1.489  -0.020  1.00  0.00    -0.014 C 
ATOM      7  C   UNL     1      -0.790   0.099  -0.260  1.00  0.00     0.047 C 
ATOM      8  C   UNL     1      -1.707  -0.798  -1.108  1.00  0.00     0.122 C 
ATOM      9  C   UNL     1      -2.213  -0.063  -2.340  1.00  0.00     0.037 C 
ATOM     10  C   UNL     1      -2.412   2.142  -1.057  1.00  0.00    -0.019 C 
ATOM     11  C   UNL     1      -0.972   2.533  -1.029  1.00  0.00     0.016 C 
ATOM     12  C   UNL     1      -3.121   1.130  -1.971  1.00  0.00     0.005 C 
ATOM     13  C   UNL     1      -3.254   3.361  -0.764  1.00  0.00     0.008 C 
ATOM     14  C   UNL     1      -3.843   1.770  -3.231  1.00  0.00    -0.023 C 
ATOM     15  C   UNL     1      -3.647   3.974  -2.095  1.00  0.00     0.008 C 
ATOM     16  C   UNL     1      -4.608   3.109  -2.889  1.00  0.00    -0.024 C 
ATOM     17  C   UNL     1      -5.020   0.864  -3.660  1.00  0.00     0.008 C 
ATOM     18  C   UNL     1      -2.825   1.926  -4.383  1.00  0.00     0.012 C 
ATOM     19  C   UNL     1      -5.866   2.624  -2.086  1.00  0.00    -0.002 C 
ATOM     20  C   UNL     1      -5.019   3.900  -4.154  1.00  0.00     0.012 C 
ATOM     21  C   UNL     1      -6.261   1.344  -2.885  1.00  0.00     0.005 C 
BRANCH   7  22
ATOM     22  C   UNL     1       0.652   0.158  -0.769  1.00  0.00    -0.028 C 
ATOM     23  C   UNL     1       1.486  -0.885  -0.864  1.00  0.00     0.004 C 
ENDBRANCH   7  22
BRANCH   8  24
ATOM     24  O   UNL     1      -2.824  -1.265  -0.341  1.00  0.00    -0.392 OA
ATOM     25  H   UNL     1      -3.357  -0.508  -0.052  1.00  0.00     0.210 HD
ENDBRANCH   8  24
BRANCH  19  26
ATOM     26  C   UNL     1      -7.111   3.519  -1.722  1.00  0.00    -0.010 C 
ATOM     27  C   UNL     1      -7.934   4.072  -2.895  1.00  0.00     0.008 C 
BRANCH  26  28
ATOM     28  C   UNL     1      -7.144   4.556  -0.532  1.00  0.00     0.008 C 
BRANCH  28  29
ATOM     29  C   UNL     1      -6.021   5.479  -0.014  1.00  0.00     0.027 C 
BRANCH  29  30
ATOM     30  C   UNL     1      -5.365   6.438  -0.971  1.00  0.00    -0.028 C 
ATOM     31  C   UNL     1      -4.174   7.039  -0.732  1.00  0.00    -0.080 C 
ATOM     32  C   UNL     1      -3.306   7.525  -1.868  1.00  0.00     0.039 C 
ATOM     33  C   UNL     1      -3.525   7.115   0.626  1.00  0.00     0.039 C 
ENDBRANCH  29  30
ENDBRANCH  28  29
ENDBRANCH  26  28
ENDBRANCH  19  26
ENDBRANCH   5   6
ENDBRANCH   4   5
ENDBRANCH   2   4
ENDBRANCH   1   2
BRANCH   1  34
ATOM     34  C   UNL     1       2.083   1.289   2.378  1.00  0.00     0.274 C 
BRANCH  34  35
ATOM     35  C   UNL     1       2.604   2.715   2.537  1.00  0.00     0.275 C 
BRANCH  35  36
ATOM     36  O   UNL     1       2.114   3.265   3.770  1.00  0.00    -0.458 OA
BRANCH  36  37
ATOM     37  C   UNL     1       0.924   3.909   3.677  1.00  0.00     0.338 C 
ATOM     38  O   UNL     1       0.336   4.252   2.671  1.00  0.00    -0.246 OA
BRANCH  37  39
ATOM     39  C   UNL     1       0.336   3.945   5.023  1.00  0.00     0.060 A 
ATOM     40  C   UNL     1      -0.864   3.260   5.235  1.00  0.00     0.016 A 
ATOM     41  C   UNL     1       0.956   4.638   6.058  1.00  0.00     0.016 A 
ATOM     42  C   UNL     1      -1.448   3.244   6.494  1.00  0.00     0.010 A 
ATOM     43  C   UNL     1       0.363   4.635   7.320  1.00  0.00     0.010 A 
ATOM     44  C   UNL     1      -0.842   3.943   7.541  1.00  0.00    -0.014 A 
BRANCH  44  45
ATOM     45  C   UNL     1      -1.516   4.042   8.851  1.00  0.00     0.031 A 
ATOM     46  C   UNL     1      -2.126   5.355   9.243  1.00  0.00     0.074 A 
ATOM     47  C   UNL     1      -1.574   2.973   9.666  1.00  0.00     0.049 A 
ATOM     48  N   UNL     1      -2.599   5.733  10.399  1.00  0.00    -0.248 NA
ATOM     49  C   UNL     1      -2.204   6.386   8.192  1.00  0.00     0.031 C 
ATOM     50  C   UNL     1      -1.079   1.632   9.344  1.00  0.00     0.029 A 
ATOM     51  N   UNL     1      -2.066   2.850  10.939  1.00  0.00    -0.354 N 
ATOM     52  C   UNL     1      -3.009   7.049  10.224  1.00  0.00     0.074 A 
ATOM     53  C   UNL     1      -2.708   7.414   8.858  1.00  0.00     0.031 C 
ATOM     54  C   UNL     1      -1.284   0.825  10.399  1.00  0.00     0.029 A 
ATOM     55  C   UNL     1      -1.862   1.605  11.488  1.00  0.00     0.049 A 
ATOM     56  H   UNL     1      -2.521   3.581  11.416  1.00  0.00     0.167 HD
ATOM     57  C   UNL     1      -3.589   7.872  11.127  1.00  0.00     0.031 A 
ATOM     58  C   UNL     1      -2.075   1.165  12.743  1.00  0.00     0.031 A 
ATOM     59  C   UNL     1      -3.879   7.483  12.481  1.00  0.00     0.049 A 
ATOM     60  C   UNL     1      -2.632   2.134  13.755  1.00  0.00     0.074 A 
ATOM     61  C   UNL     1      -4.445   8.239  13.492  1.00  0.00     0.029 A 
ATOM     62  N   UNL     1      -3.636   6.223  13.008  1.00  0.00    -0.354 N 
ATOM     63  N   UNL     1      -2.987   3.387  13.590  1.00  0.00    -0.248 NA
ATOM     64  C   UNL     1      -2.816   1.631  15.123  1.00  0.00     0.031 C 
ATOM     65  C   UNL     1      -4.499   7.449  14.644  1.00  0.00     0.029 A 
ATOM     66  C   UNL     1      -4.028   6.182  14.333  1.00  0.00     0.049 A 
ATOM     67  H   UNL     1      -3.242   5.469  12.511  1.00  0.00     0.167 HD
ATOM     68  C   UNL     1      -3.468   3.810  14.824  1.00  0.00     0.074 A 
ATOM     69  C   UNL     1      -3.376   2.675  15.719  1.00  0.00     0.031 C 
ATOM     70  C   UNL     1      -3.941   5.027  15.190  1.00  0.00     0.031 A 
BRANCH  57  71
ATOM     71  C   UNL     1      -3.926   9.271  10.691  1.00  0.00    -0.014 A 
ATOM     72  C   UNL     1      -4.985   9.518   9.799  1.00  0.00     0.010 A 
ATOM     73  C   UNL     1      -3.216  10.361  11.227  1.00  0.00     0.010 A 
ATOM     74  C   UNL     1      -5.318  10.827   9.441  1.00  0.00     0.020 A 
ATOM     75  C   UNL     1      -3.563  11.673  10.893  1.00  0.00     0.020 A 
ATOM     76  C   UNL     1      -4.609  11.897   9.996  1.00  0.00     0.054 A 
BRANCH  76  77
ATOM     77  S   UNL     1      -5.108  13.586   9.562  1.00  0.00     0.124 S 
ATOM     78  O   UNL     1      -4.697  13.673   8.163  1.00  0.00    -0.237 OA
ATOM     79  O   UNL     1      -6.551  13.560   9.792  1.00  0.00    -0.237 OA
ATOM     80  O   UNL     1      -4.347  14.422  10.486  1.00  0.00    -0.744 OA
ENDBRANCH  76  77
ENDBRANCH  57  71
BRANCH  58  81
ATOM     81  C   UNL     1      -1.713  -0.226  13.136  1.00  0.00    -0.014 A 
ATOM     82  C   UNL     1      -2.700  -1.138  13.550  1.00  0.00     0.010 A 
ATOM     83  C   UNL     1      -0.366  -0.635  13.143  1.00  0.00     0.010 A 
ATOM     84  C   UNL     1      -2.344  -2.411  14.009  1.00  0.00     0.020 A 
ATOM     85  C   UNL     1      -0.008  -1.918  13.566  1.00  0.00     0.020 A 
ATOM     86  C   UNL     1      -0.999  -2.790  14.020  1.00  0.00     0.054 A 
BRANCH  86  87
ATOM     87  S   UNL     1      -0.558  -4.440  14.631  1.00  0.00     0.124 S 
ATOM     88  O   UNL     1      -0.764  -4.296  16.068  1.00  0.00    -0.237 OA
ATOM     89  O   UNL     1      -1.513  -5.300  13.937  1.00  0.00    -0.237 OA
ATOM     90  O   UNL     1       0.833  -4.600  14.211  1.00  0.00    -0.744 OA
ENDBRANCH  86  87
ENDBRANCH  58  81
BRANCH  70  91
ATOM     91  C   UNL     1      -4.450   5.173  16.599  1.00  0.00    -0.014 A 
ATOM     92  C   UNL     1      -3.573   5.192  17.696  1.00  0.00     0.010 A 
ATOM     93  C   UNL     1      -5.829   5.352  16.816  1.00  0.00     0.010 A 
ATOM     94  C   UNL     1      -4.070   5.355  18.991  1.00  0.00     0.020 A 
ATOM     95  C   UNL     1      -6.326   5.550  18.105  1.00  0.00     0.020 A 
ATOM     96  C   UNL     1      -5.443   5.536  19.186  1.00  0.00     0.054 A 
BRANCH  96  97
ATOM     97  S   UNL     1      -6.055   5.797  20.873  1.00  0.00     0.124 S 
ATOM     98  O   UNL     1      -5.911   4.467  21.458  1.00  0.00    -0.237 OA
ATOM     99  O   UNL     1      -5.143   6.814  21.389  1.00  0.00    -0.237 OA
ATOM    100  O   UNL     1      -7.432   6.245  20.677  1.00  0.00    -0.744 OA
ENDBRANCH  96  97
ENDBRANCH  70  91
ENDBRANCH  44  45
ENDBRANCH  37  39
ENDBRANCH  36  37
ENDBRANCH  35  36
ENDBRANCH  34  35
ENDBRANCH   1  34
TORSDOF 22
