REMARK SMILES O=C(OCCOC(=O)[C@H]1C[C@](O)(c2ccc(F)cc2)[C@@H](c2ccc(F)cc2)O1)c1ccc(-c2c3nc(c(-c4ccc(S(=O)(=O)[O-])cc4)c4ccc([nH]4)c(-c4ccc(S(=O)(=O)[O-])cc4)c4nc(c(-c5ccc(S(=O)(=O)[O-])cc5)c5ccc2[nH]5)C=C4)C=C3)cc1
REMARK SMILES IDX 4 1 3 2 2 3 1 4 29 5 30 6 88 7 31 8 87 9 32 10 33 11 34 12
REMARK SMILES IDX 81 13 35 14 86 15 80 16 82 17 36 18 85 19 79 20 78 21 37 23
REMARK SMILES IDX 67 24 48 25 66 26 49 27 52 28 65 29 83 30 50 31 51 32 64 34
REMARK SMILES IDX 84 35 53 36 38 37 39 38 47 39 40 40 46 41 41 42 42 43 43 44
REMARK SMILES IDX 44 45 45 46 68 47 69 48 77 49 70 50 76 51 71 52 72 53 73 54
REMARK SMILES IDX 74 55 75 56 54 57 55 58 63 59 56 60 62 61 57 62 58 63 59 64
REMARK SMILES IDX 60 65 61 66 5 67 6 68 7 69 8 70 9 71 10 72 28 73 11 74 20 75
REMARK SMILES IDX 13 76 14 77 19 78 15 79 18 80 16 81 17 82 12 83 21 85 22 86
REMARK SMILES IDX 27 87 23 88 26 89 24 90 25 91
REMARK H PARENT 82 22 52 33 12 84
REMARK Flexibility Score: inf
ROOT
ATOM      1  C   UNL     1      -1.250   1.211   1.458  1.00  0.00     0.275 C 
ENDROOT
BRANCH   1   2
ATOM      2  O   UNL     1      -0.578   2.321   2.081  1.00  0.00    -0.458 OA
BRANCH   2   3
ATOM      3  C   UNL     1       0.538   2.180   2.848  1.00  0.00     0.338 C 
ATOM      4  O   UNL     1       0.650   2.775   3.915  1.00  0.00    -0.246 OA
BRANCH   3   5
ATOM      5  C   UNL     1       1.740   1.530   2.249  1.00  0.00     0.060 A 
ATOM      6  C   UNL     1       1.734   0.267   1.654  1.00  0.00     0.016 A 
ATOM      7  C   UNL     1       2.950   2.245   2.304  1.00  0.00     0.016 A 
ATOM      8  C   UNL     1       2.880  -0.236   1.042  1.00  0.00     0.010 A 
ATOM      9  C   UNL     1       4.102   1.752   1.680  1.00  0.00     0.010 A 
ATOM     10  C   UNL     1       4.071   0.494   1.067  1.00  0.00    -0.014 A 
BRANCH  10  11
ATOM     11  C   UNL     1       5.314  -0.235   0.733  1.00  0.00     0.031 A 
ATOM     12  C   UNL     1       6.058  -0.845   1.887  1.00  0.00     0.074 A 
ATOM     13  C   UNL     1       5.666  -0.483  -0.542  1.00  0.00     0.049 A 
ATOM     14  N   UNL     1       7.060  -1.680   1.879  1.00  0.00    -0.248 NA
ATOM     15  C   UNL     1       5.587  -0.481   3.236  1.00  0.00     0.031 C 
ATOM     16  C   UNL     1       4.957   0.001  -1.726  1.00  0.00     0.029 A 
ATOM     17  N   UNL     1       6.686  -1.243  -1.054  1.00  0.00    -0.354 N 
ATOM     18  C   UNL     1       7.332  -1.942   3.216  1.00  0.00     0.074 A 
ATOM     19  C   UNL     1       6.427  -1.145   4.008  1.00  0.00     0.031 C 
ATOM     20  C   UNL     1       5.547  -0.498  -2.828  1.00  0.00     0.029 A 
ATOM     21  C   UNL     1       6.684  -1.321  -2.428  1.00  0.00     0.049 A 
ATOM     22  H   UNL     1       7.358  -1.691  -0.490  1.00  0.00     0.167 HD
ATOM     23  C   UNL     1       8.247  -2.786   3.742  1.00  0.00     0.031 A 
ATOM     24  C   UNL     1       7.503  -1.996  -3.259  1.00  0.00     0.031 A 
ATOM     25  C   UNL     1       9.166  -3.541   2.941  1.00  0.00     0.049 A 
ATOM     26  C   UNL     1       8.584  -2.854  -2.651  1.00  0.00     0.074 A 
ATOM     27  C   UNL     1      10.172  -4.392   3.351  1.00  0.00     0.029 A 
ATOM     28  N   UNL     1       9.192  -3.516   1.552  1.00  0.00    -0.354 N 
ATOM     29  N   UNL     1       8.828  -3.096  -1.383  1.00  0.00    -0.248 NA
ATOM     30  C   UNL     1       9.490  -3.540  -3.582  1.00  0.00     0.031 C 
ATOM     31  C   UNL     1      10.849  -4.834   2.209  1.00  0.00     0.029 A 
ATOM     32  C   UNL     1      10.216  -4.317   1.087  1.00  0.00     0.049 A 
ATOM     33  H   UNL     1       8.573  -3.003   0.984  1.00  0.00     0.167 HD
ATOM     34  C   UNL     1       9.895  -3.988  -1.363  1.00  0.00     0.074 A 
ATOM     35  C   UNL     1      10.241  -4.248  -2.748  1.00  0.00     0.031 C 
ATOM     36  C   UNL     1      10.528  -4.549  -0.302  1.00  0.00     0.031 A 
BRANCH  23  37
ATOM     37  C   UNL     1       8.325  -2.845   5.244  1.00  0.00    -0.014 A 
ATOM     38  C   UNL     1       7.285  -3.403   6.013  1.00  0.00     0.010 A 
ATOM     39  C   UNL     1       9.421  -2.257   5.898  1.00  0.00     0.010 A 
ATOM     40  C   UNL     1       7.308  -3.307   7.407  1.00  0.00     0.020 A 
ATOM     41  C   UNL     1       9.463  -2.189   7.293  1.00  0.00     0.020 A 
ATOM     42  C   UNL     1       8.393  -2.689   8.037  1.00  0.00     0.054 A 
BRANCH  42  43
ATOM     43  S   UNL     1       8.384  -2.543   9.845  1.00  0.00     0.124 S 
ATOM     44  O   UNL     1       7.378  -1.505  10.058  1.00  0.00    -0.237 OA
ATOM     45  O   UNL     1       8.001  -3.886  10.273  1.00  0.00    -0.237 OA
ATOM     46  O   UNL     1       9.755  -2.157  10.168  1.00  0.00    -0.744 OA
ENDBRANCH  42  43
ENDBRANCH  23  37
BRANCH  24  47
ATOM     47  C   UNL     1       7.326  -1.902  -4.738  1.00  0.00    -0.014 A 
ATOM     48  C   UNL     1       6.912  -3.014  -5.494  1.00  0.00     0.010 A 
ATOM     49  C   UNL     1       7.568  -0.685  -5.404  1.00  0.00     0.010 A 
ATOM     50  C   UNL     1       6.749  -2.912  -6.881  1.00  0.00     0.020 A 
ATOM     51  C   UNL     1       7.381  -0.572  -6.786  1.00  0.00     0.020 A 
ATOM     52  C   UNL     1       6.979  -1.689  -7.518  1.00  0.00     0.054 A 
BRANCH  52  53
ATOM     53  S   UNL     1       6.698  -1.564  -9.308  1.00  0.00     0.124 S 
ATOM     54  O   UNL     1       7.803  -2.351  -9.846  1.00  0.00    -0.237 OA
ATOM     55  O   UNL     1       5.369  -2.151  -9.458  1.00  0.00    -0.237 OA
ATOM     56  O   UNL     1       6.768  -0.127  -9.565  1.00  0.00    -0.744 OA
ENDBRANCH  52  53
ENDBRANCH  24  47
BRANCH  36  57
ATOM     57  C   UNL     1      11.630  -5.531  -0.595  1.00  0.00    -0.014 A 
ATOM     58  C   UNL     1      12.874  -5.109  -1.093  1.00  0.00     0.010 A 
ATOM     59  C   UNL     1      11.434  -6.890  -0.286  1.00  0.00     0.010 A 
ATOM     60  C   UNL     1      13.896  -6.038  -1.304  1.00  0.00     0.020 A 
ATOM     61  C   UNL     1      12.463  -7.814  -0.465  1.00  0.00     0.020 A 
ATOM     62  C   UNL     1      13.684  -7.384  -0.987  1.00  0.00     0.054 A 
BRANCH  62  63
ATOM     63  S   UNL     1      15.043  -8.560  -1.220  1.00  0.00     0.124 S 
ATOM     64  O   UNL     1      15.080  -8.694  -2.674  1.00  0.00    -0.237 OA
ATOM     65  O   UNL     1      16.178  -7.860  -0.623  1.00  0.00    -0.237 OA
ATOM     66  O   UNL     1      14.600  -9.749  -0.496  1.00  0.00    -0.744 OA
ENDBRANCH  62  63
ENDBRANCH  36  57
ENDBRANCH  10  11
ENDBRANCH   3   5
ENDBRANCH   2   3
ENDBRANCH   1   2
BRANCH   1  67
ATOM     67  C   UNL     1      -1.112   1.238  -0.068  1.00  0.00     0.274 C 
BRANCH  67  68
ATOM     68  O   UNL     1       0.239   1.551  -0.430  1.00  0.00    -0.460 OA
BRANCH  68  69
ATOM     69  C   UNL     1       0.433   2.520  -1.369  1.00  0.00     0.335 C 
ATOM     70  O   UNL     1      -0.422   2.913  -2.154  1.00  0.00    -0.249 OA
BRANCH  69  71
ATOM     71  C   UNL     1       1.866   3.061  -1.260  1.00  0.00     0.232 C 
ATOM     72  C   UNL     1       2.228   4.154  -2.247  1.00  0.00     0.087 C 
ATOM     73  O   UNL     1       2.106   3.568   0.041  1.00  0.00    -0.355 OA
ATOM     74  C   UNL     1       2.530   5.422  -1.425  1.00  0.00     0.123 C 
ATOM     75  C   UNL     1       2.194   4.998   0.034  1.00  0.00     0.186 C 
BRANCH  74  76
ATOM     76  C   UNL     1       3.964   5.930  -1.698  1.00  0.00    -0.013 A 
ATOM     77  C   UNL     1       4.361   6.181  -3.034  1.00  0.00     0.010 A 
ATOM     78  C   UNL     1       4.913   6.207  -0.693  1.00  0.00     0.010 A 
ATOM     79  C   UNL     1       5.627   6.690  -3.343  1.00  0.00     0.039 A 
ATOM     80  C   UNL     1       6.184   6.709  -1.004  1.00  0.00     0.039 A 
ATOM     81  C   UNL     1       6.526   6.954  -2.323  1.00  0.00     0.123 A 
ATOM     82  F   UNL     1       7.732   7.460  -2.614  1.00  0.00    -0.207 F 
ENDBRANCH  74  76
BRANCH  74  83
ATOM     83  O   UNL     1       1.656   6.476  -1.853  1.00  0.00    -0.382 OA
ATOM     84  H   UNL     1       0.735   6.212  -1.704  1.00  0.00     0.212 HD
ENDBRANCH  74  83
BRANCH  75  85
ATOM     85  C   UNL     1       0.947   5.512   0.741  1.00  0.00    -0.016 A 
ATOM     86  C   UNL     1      -0.337   5.374   0.192  1.00  0.00     0.009 A 
ATOM     87  C   UNL     1       1.055   6.028   2.048  1.00  0.00     0.009 A 
ATOM     88  C   UNL     1      -1.476   5.663   0.945  1.00  0.00     0.039 A 
ATOM     89  C   UNL     1      -0.084   6.343   2.793  1.00  0.00     0.039 A 
ATOM     90  C   UNL     1      -1.340   6.136   2.242  1.00  0.00     0.123 A 
ATOM     91  F   UNL     1      -2.435   6.396   2.969  1.00  0.00    -0.207 F 
ENDBRANCH  75  85
ENDBRANCH  69  71
ENDBRANCH  68  69
ENDBRANCH  67  68
ENDBRANCH   1  67
TORSDOF 17
