REMARK SMILES O=C(C[C@@H]1CN(c2nc3ccccc3s2)CCO1)OCCOC(=O)c1ccc(-c2c3nc(c(-c4ccc(S(=O)(=O)[O-])cc4)c4ccc([nH]4)c(-c4ccc(S(=O)(=O)[O-])cc4)c4nc(c(-c5ccc(S(=O)(=O)[O-])cc5)c5ccc2[nH]5)C=C4)C=C3)cc1
REMARK SMILES IDX 21 1 20 2 19 3 2 4 1 5 3 6 4 7 5 8 18 9 6 10 17 11 16 12
REMARK SMILES IDX 7 13 8 14 15 15 9 16 14 17 10 18 13 19 11 20 12 21 22 22
REMARK SMILES IDX 23 23 24 24 25 25 26 26 84 27 27 28 83 29 28 30 29 31 30 32
REMARK SMILES IDX 77 33 31 34 82 35 76 36 78 37 32 38 81 39 75 40 74 41 33 43
REMARK SMILES IDX 63 44 44 45 62 46 45 47 48 48 61 49 79 50 46 51 47 52 60 54
REMARK SMILES IDX 80 55 49 56 34 57 35 58 43 59 36 60 42 61 37 62 38 63 39 64
REMARK SMILES IDX 40 65 41 66 64 67 65 68 73 69 66 70 72 71 67 72 68 73 69 74
REMARK SMILES IDX 70 75 71 76 50 77 51 78 59 79 52 80 58 81 53 82 54 83 55 84
REMARK SMILES IDX 56 85 57 86
REMARK H PARENT 78 42 48 53
REMARK Flexibility Score: inf
ROOT
ATOM      1  C   UNL     1       4.437   2.239  -0.113  1.00  0.00     0.275 C 
ENDROOT
BRANCH   1   2
ATOM      2  C   UNL     1       4.511   0.870  -0.795  1.00  0.00     0.274 C 
BRANCH   2   3
ATOM      3  O   UNL     1       3.200   0.373  -1.147  1.00  0.00    -0.462 OA
BRANCH   3   4
ATOM      4  C   UNL     1       2.551  -0.611  -0.484  1.00  0.00     0.308 C 
ATOM      5  O   UNL     1       1.579  -1.169  -0.989  1.00  0.00    -0.252 OA
BRANCH   4   6
ATOM      6  C   UNL     1       3.051  -1.023   0.869  1.00  0.00     0.156 C 
BRANCH   6   7
ATOM      7  C   UNL     1       3.945  -2.242   0.764  1.00  0.00     0.148 C 
ATOM      8  C   UNL     1       3.205  -3.480   1.288  1.00  0.00     0.151 C 
ATOM      9  O   UNL     1       5.136  -1.992   1.555  1.00  0.00    -0.374 OA
ATOM     10  N   UNL     1       4.121  -4.607   1.255  1.00  0.00    -0.343 N 
ATOM     11  C   UNL     1       6.032  -3.123   1.522  1.00  0.00     0.182 C 
ATOM     12  C   UNL     1       5.357  -4.426   2.001  1.00  0.00     0.147 C 
BRANCH  10  13
ATOM     13  C   UNL     1       3.969  -5.607   0.360  1.00  0.00     0.186 A 
ATOM     14  N   UNL     1       3.992  -6.877   0.682  1.00  0.00    -0.220 NA
ATOM     15  S   UNL     1       3.704  -5.298  -1.320  1.00  0.00    -0.097 S 
ATOM     16  C   UNL     1       3.531  -7.641  -0.374  1.00  0.00     0.084 A 
ATOM     17  C   UNL     1       3.349  -6.954  -1.573  1.00  0.00     0.056 A 
ATOM     18  C   UNL     1       3.221  -9.014  -0.330  1.00  0.00     0.030 A 
ATOM     19  C   UNL     1       2.911  -7.592  -2.744  1.00  0.00     0.021 A 
ATOM     20  C   UNL     1       2.741  -9.653  -1.478  1.00  0.00     0.002 A 
ATOM     21  C   UNL     1       2.600  -8.951  -2.672  1.00  0.00     0.002 A 
ENDBRANCH  10  13
ENDBRANCH   6   7
ENDBRANCH   4   6
ENDBRANCH   3   4
ENDBRANCH   2   3
ENDBRANCH   1   2
BRANCH   1  22
ATOM     22  O   UNL     1       3.980   2.108   1.246  1.00  0.00    -0.458 OA
BRANCH  22  23
ATOM     23  C   UNL     1       2.650   2.284   1.447  1.00  0.00     0.338 C 
ATOM     24  O   UNL     1       1.845   2.683   0.623  1.00  0.00    -0.246 OA
BRANCH  23  25
ATOM     25  C   UNL     1       2.264   1.714   2.766  1.00  0.00     0.060 A 
ATOM     26  C   UNL     1       0.982   1.163   2.889  1.00  0.00     0.016 A 
ATOM     27  C   UNL     1       3.152   1.655   3.847  1.00  0.00     0.016 A 
ATOM     28  C   UNL     1       0.573   0.588   4.095  1.00  0.00     0.010 A 
ATOM     29  C   UNL     1       2.741   1.082   5.057  1.00  0.00     0.010 A 
ATOM     30  C   UNL     1       1.439   0.572   5.196  1.00  0.00    -0.014 A 
BRANCH  30  31
ATOM     31  C   UNL     1       0.921   0.190   6.534  1.00  0.00     0.031 A 
ATOM     32  C   UNL     1       0.439   1.281   7.452  1.00  0.00     0.074 A 
ATOM     33  C   UNL     1       0.851  -1.095   6.927  1.00  0.00     0.049 A 
ATOM     34  N   UNL     1      -0.101   1.187   8.640  1.00  0.00    -0.248 NA
ATOM     35  C   UNL     1       0.583   2.662   6.962  1.00  0.00     0.031 C 
ATOM     36  C   UNL     1       1.265  -2.252   6.134  1.00  0.00     0.029 A 
ATOM     37  N   UNL     1       0.399  -1.639   8.105  1.00  0.00    -0.354 N 
ATOM     38  C   UNL     1      -0.371   2.492   9.034  1.00  0.00     0.074 A 
ATOM     39  C   UNL     1       0.102   3.361   7.978  1.00  0.00     0.031 C 
ATOM     40  C   UNL     1       1.047  -3.371   6.849  1.00  0.00     0.029 A 
ATOM     41  C   UNL     1       0.493  -3.010   8.155  1.00  0.00     0.049 A 
ATOM     42  H   UNL     1       0.041  -1.098   8.845  1.00  0.00     0.167 HD
ATOM     43  C   UNL     1      -0.972   2.933  10.164  1.00  0.00     0.031 A 
ATOM     44  C   UNL     1       0.172  -3.873   9.140  1.00  0.00     0.031 A 
ATOM     45  C   UNL     1      -1.417   2.081  11.233  1.00  0.00     0.049 A 
ATOM     46  C   UNL     1      -0.425  -3.352  10.425  1.00  0.00     0.074 A 
ATOM     47  C   UNL     1      -2.046   2.439  12.412  1.00  0.00     0.029 A 
ATOM     48  N   UNL     1      -1.267   0.704  11.260  1.00  0.00    -0.354 N 
ATOM     49  N   UNL     1      -0.725  -2.119  10.757  1.00  0.00    -0.248 NA
ATOM     50  C   UNL     1      -0.738  -4.347  11.462  1.00  0.00     0.031 C 
ATOM     51  C   UNL     1      -2.232   1.281  13.176  1.00  0.00     0.029 A 
ATOM     52  C   UNL     1      -1.768   0.198  12.447  1.00  0.00     0.049 A 
ATOM     53  H   UNL     1      -0.865   0.165  10.541  1.00  0.00     0.167 HD
ATOM     54  C   UNL     1      -1.294  -2.196  12.026  1.00  0.00     0.074 A 
ATOM     55  C   UNL     1      -1.301  -3.595  12.399  1.00  0.00     0.031 C 
ATOM     56  C   UNL     1      -1.773  -1.197  12.809  1.00  0.00     0.031 A 
BRANCH  43  57
ATOM     57  C   UNL     1      -1.154   4.419  10.305  1.00  0.00    -0.014 A 
ATOM     58  C   UNL     1      -2.111   5.105   9.535  1.00  0.00     0.010 A 
ATOM     59  C   UNL     1      -0.367   5.136  11.224  1.00  0.00     0.010 A 
ATOM     60  C   UNL     1      -2.246   6.490   9.649  1.00  0.00     0.020 A 
ATOM     61  C   UNL     1      -0.517   6.518  11.358  1.00  0.00     0.020 A 
ATOM     62  C   UNL     1      -1.442   7.189  10.555  1.00  0.00     0.054 A 
BRANCH  62  63
ATOM     63  S   UNL     1      -1.638   8.987  10.685  1.00  0.00     0.124 S 
ATOM     64  O   UNL     1      -0.983   9.449   9.464  1.00  0.00    -0.237 OA
ATOM     65  O   UNL     1      -3.089   9.152  10.720  1.00  0.00    -0.237 OA
ATOM     66  O   UNL     1      -0.946   9.322  11.928  1.00  0.00    -0.744 OA
ENDBRANCH  62  63
ENDBRANCH  43  57
BRANCH  44  67
ATOM     67  C   UNL     1       0.402  -5.333   8.960  1.00  0.00    -0.014 A 
ATOM     68  C   UNL     1      -0.682  -6.216   8.813  1.00  0.00     0.010 A 
ATOM     69  C   UNL     1       1.710  -5.851   8.965  1.00  0.00     0.010 A 
ATOM     70  C   UNL     1      -0.465  -7.593   8.697  1.00  0.00     0.020 A 
ATOM     71  C   UNL     1       1.933  -7.224   8.825  1.00  0.00     0.020 A 
ATOM     72  C   UNL     1       0.842  -8.088   8.707  1.00  0.00     0.054 A 
BRANCH  72  73
ATOM     73  S   UNL     1       1.105  -9.875   8.525  1.00  0.00     0.124 S 
ATOM     74  O   UNL     1       0.722 -10.373   9.843  1.00  0.00    -0.237 OA
ATOM     75  O   UNL     1       0.200 -10.219   7.432  1.00  0.00    -0.237 OA
ATOM     76  O   UNL     1       2.526  -9.980   8.205  1.00  0.00    -0.744 OA
ENDBRANCH  72  73
ENDBRANCH  44  67
BRANCH  56  77
ATOM     77  C   UNL     1      -2.385  -1.575  14.133  1.00  0.00    -0.014 A 
ATOM     78  C   UNL     1      -1.589  -1.990  15.215  1.00  0.00     0.010 A 
ATOM     79  C   UNL     1      -3.776  -1.454  14.313  1.00  0.00     0.010 A 
ATOM     80  C   UNL     1      -2.177  -2.305  16.444  1.00  0.00     0.020 A 
ATOM     81  C   UNL     1      -4.364  -1.744  15.547  1.00  0.00     0.020 A 
ATOM     82  C   UNL     1      -3.561  -2.182  16.602  1.00  0.00     0.054 A 
BRANCH  82  83
ATOM     83  S   UNL     1      -4.296  -2.552  18.219  1.00  0.00     0.124 S 
ATOM     84  O   UNL     1      -4.274  -4.012  18.236  1.00  0.00    -0.237 OA
ATOM     85  O   UNL     1      -3.378  -1.899  19.149  1.00  0.00    -0.237 OA
ATOM     86  O   UNL     1      -5.625  -1.950  18.141  1.00  0.00    -0.744 OA
ENDBRANCH  82  83
ENDBRANCH  56  77
ENDBRANCH  30  31
ENDBRANCH  23  25
ENDBRANCH  22  23
ENDBRANCH   1  22
TORSDOF 16
