REMARK SMILES O=C(OCCOC(=O)[C@@H]1CCCC[C@H]1C(=O)Nc1sc2c(c1C(=O)NC1CCCC1)CCC2)c1ccc(-c2c3nc(c(-c4ccc(S(=O)(=O)[O-])cc4)c4ccc([nH]4)c(-c4ccc(S(=O)(=O)[O-])cc4)c4nc(c(-c5ccc(S(=O)(=O)[O-])cc5)c5ccc2[nH]5)C=C4)C=C3)cc1
REMARK SMILES IDX 5 1 4 2 3 3 2 4 1 5 34 6 35 7 93 8 36 9 92 10 37 11 38 12
REMARK SMILES IDX 39 13 86 14 40 15 91 16 85 17 87 18 41 19 90 20 84 21 83 22
REMARK SMILES IDX 42 24 72 25 53 26 71 27 54 28 57 29 70 30 88 31 55 32 56 33
REMARK SMILES IDX 69 35 89 36 58 37 43 38 44 39 52 40 45 41 51 42 46 43 47 44
REMARK SMILES IDX 48 45 49 46 50 47 73 48 74 49 82 50 75 51 81 52 76 53 77 54
REMARK SMILES IDX 78 55 79 56 80 57 59 58 60 59 68 60 61 61 67 62 62 63 63 64
REMARK SMILES IDX 64 65 65 66 66 67 6 68 7 69 8 70 9 71 10 72 14 73 11 74
REMARK SMILES IDX 13 75 12 76 15 77 16 78 17 79 18 81 19 82 22 83 20 84 21 85
REMARK SMILES IDX 33 86 31 87 32 88 23 89 24 90 25 91 26 93 27 94 30 95 28 96
REMARK SMILES IDX 29 97
REMARK H PARENT 87 23 57 34 17 80 25 92
REMARK Flexibility Score: inf
ROOT
ATOM      1  C   UNL     1       5.015   1.277   0.333  1.00  0.00     0.274 C 
ENDROOT
BRANCH   1   2
ATOM      2  C   UNL     1       5.216   0.601  -1.033  1.00  0.00     0.275 C 
BRANCH   2   3
ATOM      3  O   UNL     1       4.031   0.233  -1.743  1.00  0.00    -0.458 OA
BRANCH   3   4
ATOM      4  C   UNL     1       2.983  -0.181  -1.005  1.00  0.00     0.338 C 
ATOM      5  O   UNL     1       2.007   0.503  -0.782  1.00  0.00    -0.246 OA
BRANCH   4   6
ATOM      6  C   UNL     1       3.029  -1.623  -0.677  1.00  0.00     0.060 A 
ATOM      7  C   UNL     1       4.132  -2.314  -0.141  1.00  0.00     0.016 A 
ATOM      8  C   UNL     1       1.802  -2.252  -0.787  1.00  0.00     0.016 A 
ATOM      9  C   UNL     1       4.008  -3.643   0.275  1.00  0.00     0.010 A 
ATOM     10  C   UNL     1       1.674  -3.537  -0.307  1.00  0.00     0.010 A 
ATOM     11  C   UNL     1       2.767  -4.269   0.197  1.00  0.00    -0.014 A 
BRANCH  11  12
ATOM     12  C   UNL     1       2.535  -5.621   0.745  1.00  0.00     0.031 A 
ATOM     13  C   UNL     1       3.058  -5.967   2.136  1.00  0.00     0.074 A 
ATOM     14  C   UNL     1       1.639  -6.422   0.114  1.00  0.00     0.049 A 
ATOM     15  N   UNL     1       3.736  -7.000   2.536  1.00  0.00    -0.248 NA
ATOM     16  C   UNL     1       2.834  -5.041   3.248  1.00  0.00     0.031 C 
ATOM     17  C   UNL     1       0.866  -6.176  -1.121  1.00  0.00     0.029 A 
ATOM     18  N   UNL     1       1.101  -7.589   0.541  1.00  0.00    -0.354 N 
ATOM     19  C   UNL     1       3.834  -6.925   3.939  1.00  0.00     0.074 A 
ATOM     20  C   UNL     1       3.326  -5.651   4.320  1.00  0.00     0.031 C 
ATOM     21  C   UNL     1      -0.221  -6.976  -1.154  1.00  0.00     0.029 A 
ATOM     22  C   UNL     1      -0.085  -7.949  -0.093  1.00  0.00     0.049 A 
ATOM     23  H   UNL     1       1.515  -8.139   1.244  1.00  0.00     0.167 HD
ATOM     24  C   UNL     1       4.185  -7.976   4.732  1.00  0.00     0.031 A 
ATOM     25  C   UNL     1      -0.896  -8.991   0.215  1.00  0.00     0.031 A 
ATOM     26  C   UNL     1       4.866  -8.983   3.975  1.00  0.00     0.049 A 
ATOM     27  C   UNL     1      -0.057  -9.942   0.984  1.00  0.00     0.074 A 
ATOM     28  C   UNL     1       6.018  -8.973   3.216  1.00  0.00     0.029 A 
ATOM     29  N   UNL     1       4.117 -10.041   3.518  1.00  0.00    -0.354 N 
ATOM     30  N   UNL     1       0.999 -10.519   0.475  1.00  0.00    -0.248 NA
ATOM     31  C   UNL     1      -0.080  -9.843   2.435  1.00  0.00     0.031 C 
ATOM     32  C   UNL     1       5.628  -9.613   2.003  1.00  0.00     0.029 A 
ATOM     33  C   UNL     1       4.319 -10.081   2.161  1.00  0.00     0.049 A 
ATOM     34  H   UNL     1       3.552 -10.644   4.053  1.00  0.00     0.167 HD
ATOM     35  C   UNL     1       1.954 -10.466   1.480  1.00  0.00     0.074 A 
ATOM     36  C   UNL     1       1.206 -10.109   2.691  1.00  0.00     0.031 C 
ATOM     37  C   UNL     1       3.293 -10.435   1.204  1.00  0.00     0.031 A 
BRANCH  24  38
ATOM     38  C   UNL     1       3.600  -8.256   6.099  1.00  0.00    -0.014 A 
ATOM     39  C   UNL     1       4.048  -9.401   6.792  1.00  0.00     0.010 A 
ATOM     40  C   UNL     1       2.423  -7.640   6.577  1.00  0.00     0.010 A 
ATOM     41  C   UNL     1       3.292  -9.975   7.822  1.00  0.00     0.020 A 
ATOM     42  C   UNL     1       1.681  -8.185   7.634  1.00  0.00     0.020 A 
ATOM     43  C   UNL     1       2.096  -9.377   8.216  1.00  0.00     0.054 A 
BRANCH  43  44
ATOM     44  S   UNL     1       1.051 -10.229   9.427  1.00  0.00     0.124 S 
ATOM     45  O   UNL     1       0.653 -11.426   8.691  1.00  0.00    -0.237 OA
ATOM     46  O   UNL     1       1.976 -10.447  10.536  1.00  0.00    -0.237 OA
ATOM     47  O   UNL     1      -0.018  -9.270   9.692  1.00  0.00    -0.744 OA
ENDBRANCH  43  44
ENDBRANCH  24  38
BRANCH  25  48
ATOM     48  C   UNL     1      -2.376  -9.058   0.145  1.00  0.00    -0.014 A 
ATOM     49  C   UNL     1      -3.056 -10.289   0.137  1.00  0.00     0.010 A 
ATOM     50  C   UNL     1      -3.141  -7.891   0.365  1.00  0.00     0.010 A 
ATOM     51  C   UNL     1      -4.438 -10.357   0.396  1.00  0.00     0.020 A 
ATOM     52  C   UNL     1      -4.518  -7.951   0.625  1.00  0.00     0.020 A 
ATOM     53  C   UNL     1      -5.157  -9.188   0.663  1.00  0.00     0.054 A 
BRANCH  53  54
ATOM     54  S   UNL     1      -6.900  -9.307   1.177  1.00  0.00     0.124 S 
ATOM     55  O   UNL     1      -7.561  -9.736  -0.053  1.00  0.00    -0.237 OA
ATOM     56  O   UNL     1      -6.851 -10.302   2.244  1.00  0.00    -0.237 OA
ATOM     57  O   UNL     1      -7.226  -7.951   1.614  1.00  0.00    -0.744 OA
ENDBRANCH  53  54
ENDBRANCH  25  48
BRANCH  37  58
ATOM     58  C   UNL     1       3.762 -10.558  -0.233  1.00  0.00    -0.014 A 
ATOM     59  C   UNL     1       3.452  -9.626  -1.245  1.00  0.00     0.010 A 
ATOM     60  C   UNL     1       4.738 -11.529  -0.509  1.00  0.00     0.010 A 
ATOM     61  C   UNL     1       4.086  -9.677  -2.498  1.00  0.00     0.020 A 
ATOM     62  C   UNL     1       5.387 -11.576  -1.745  1.00  0.00     0.020 A 
ATOM     63  C   UNL     1       5.052 -10.656  -2.739  1.00  0.00     0.054 A 
BRANCH  63  64
ATOM     64  S   UNL     1       5.904 -10.704  -4.341  1.00  0.00     0.124 S 
ATOM     65  O   UNL     1       4.843 -11.121  -5.253  1.00  0.00    -0.237 OA
ATOM     66  O   UNL     1       6.373  -9.330  -4.506  1.00  0.00    -0.237 OA
ATOM     67  O   UNL     1       6.967 -11.689  -4.140  1.00  0.00    -0.744 OA
ENDBRANCH  63  64
ENDBRANCH  37  58
ENDBRANCH  11  12
ENDBRANCH   4   6
ENDBRANCH   3   4
ENDBRANCH   2   3
ENDBRANCH   1   2
BRANCH   1  68
ATOM     68  O   UNL     1       4.344   0.444   1.319  1.00  0.00    -0.462 OA
BRANCH  68  69
ATOM     69  C   UNL     1       3.298   1.039   1.970  1.00  0.00     0.309 C 
ATOM     70  O   UNL     1       2.906   2.181   1.737  1.00  0.00    -0.252 OA
BRANCH  69  71
ATOM     71  C   UNL     1       2.850   0.318   3.235  1.00  0.00     0.111 C 
ATOM     72  C   UNL     1       3.886   0.736   4.300  1.00  0.00     0.016 C 
ATOM     73  C   UNL     1       2.530  -1.183   3.251  1.00  0.00     0.093 C 
ATOM     74  C   UNL     1       3.511   0.258   5.691  1.00  0.00     0.001 C 
ATOM     75  C   UNL     1       2.279  -1.661   4.711  1.00  0.00     0.014 C 
ATOM     76  C   UNL     1       3.373  -1.251   5.686  1.00  0.00     0.001 C 
BRANCH  73  77
ATOM     77  C   UNL     1       1.341  -1.707   2.421  1.00  0.00     0.228 C 
ATOM     78  O   UNL     1       1.195  -2.916   2.236  1.00  0.00    -0.274 OA
ATOM     79  N   UNL     1       0.287  -0.977   1.985  1.00  0.00    -0.317 N 
ATOM     80  H   UNL     1       0.211  -0.644   1.062  1.00  0.00     0.170 HD
BRANCH  79  81
ATOM     81  C   UNL     1      -0.672  -0.741   2.950  1.00  0.00     0.108 A 
ATOM     82  S   UNL     1      -1.776  -2.007   3.230  1.00  0.00    -0.122 S 
ATOM     83  C   UNL     1      -0.902   0.420   3.671  1.00  0.00     0.078 A 
ATOM     84  C   UNL     1      -2.217  -1.247   4.642  1.00  0.00     0.011 A 
ATOM     85  C   UNL     1      -1.602  -0.029   4.858  1.00  0.00    -0.019 A 
ATOM     86  C   UNL     1      -3.163  -1.699   5.688  1.00  0.00     0.047 C 
ATOM     87  C   UNL     1      -2.009   0.424   6.223  1.00  0.00     0.038 C 
ATOM     88  C   UNL     1      -2.760  -0.782   6.855  1.00  0.00     0.010 C 
BRANCH  83  89
ATOM     89  C   UNL     1      -0.384   1.631   2.997  1.00  0.00     0.254 C 
ATOM     90  O   UNL     1      -0.498   1.730   1.769  1.00  0.00    -0.269 OA
ATOM     91  N   UNL     1       0.372   2.632   3.533  1.00  0.00    -0.349 N 
ATOM     92  H   UNL     1       1.057   2.962   2.907  1.00  0.00     0.164 HD
BRANCH  91  93
ATOM     93  C   UNL     1       0.405   3.319   4.796  1.00  0.00     0.082 C 
ATOM     94  C   UNL     1       0.338   4.831   4.566  1.00  0.00     0.025 C 
ATOM     95  C   UNL     1      -0.799   3.036   5.647  1.00  0.00     0.025 C 
ATOM     96  C   UNL     1      -0.397   5.397   5.771  1.00  0.00     0.002 C 
ATOM     97  C   UNL     1      -1.357   4.318   6.207  1.00  0.00     0.002 C 
ENDBRANCH  91  93
ENDBRANCH  83  89
ENDBRANCH  79  81
ENDBRANCH  73  77
ENDBRANCH  69  71
ENDBRANCH  68  69
ENDBRANCH   1  68
TORSDOF 18
