REMARK SMILES Nc1ccc2[nH]cc(C(=O)OCCOC(=O)c3ccc(-c4c5nc(c(-c6ccc(S(=O)(=O)[O-])cc6)c6ccc([nH]6)c(-c6ccc(S(=O)(=O)[O-])cc6)c6nc(c(-c7ccc(S(=O)(=O)[O-])cc7)c7ccc4[nH]7)C=C6)C=C5)cc3)c2c1
REMARK SMILES IDX 13 1 12 2 11 3 9 4 10 5 8 6 2 7 3 8 78 9 4 10 77 11 5 12
REMARK SMILES IDX 6 13 7 14 1 16 14 19 15 20 16 21 17 22 18 23 76 24 19 25
REMARK SMILES IDX 75 26 20 27 21 28 22 29 69 30 23 31 74 32 68 33 70 34 24 35
REMARK SMILES IDX 73 36 67 37 66 38 25 40 55 41 36 42 54 43 37 44 40 45 53 46
REMARK SMILES IDX 71 47 38 48 39 49 52 51 72 52 41 53 26 54 27 55 35 56 28 57
REMARK SMILES IDX 34 58 29 59 30 60 31 61 32 62 33 63 56 64 57 65 65 66 58 67
REMARK SMILES IDX 64 68 59 69 60 70 61 71 62 72 63 73 42 74 43 75 51 76 44 77
REMARK SMILES IDX 50 78 45 79 46 80 47 81 48 82 49 83
REMARK H PARENT 6 15 1 17 1 18 70 39 40 50
REMARK Flexibility Score: inf
ROOT
ATOM      1  C   UNL     1      -3.012  -4.973  -2.549  1.00  0.00     0.275 C 
ENDROOT
BRANCH   1   2
ATOM      2  C   UNL     1      -3.005  -3.459  -2.292  1.00  0.00     0.275 C 
BRANCH   2   3
ATOM      3  O   UNL     1      -2.119  -3.092  -1.205  1.00  0.00    -0.458 OA
BRANCH   3   4
ATOM      4  C   UNL     1      -2.724  -2.851  -0.006  1.00  0.00     0.340 C 
ATOM      5  O   UNL     1      -3.939  -2.983   0.158  1.00  0.00    -0.246 OA
BRANCH   4   6
ATOM      6  C   UNL     1      -1.823  -2.457   1.075  1.00  0.00     0.085 A 
ATOM      7  C   UNL     1       1.208  -0.216   0.411  1.00  0.00     0.032 A 
ATOM      8  C   UNL     1       1.656  -0.189   1.733  1.00  0.00     0.027 A 
ATOM      9  C   UNL     1       0.107  -1.010   0.062  1.00  0.00     0.036 A 
ATOM     10  C   UNL     1       0.967  -0.843   2.752  1.00  0.00     0.029 A 
ATOM     11  C   UNL     1      -0.621  -1.678   1.064  1.00  0.00     0.016 A 
ATOM     12  C   UNL     1      -0.176  -1.548   2.386  1.00  0.00     0.046 A 
ATOM     13  N   UNL     1      -1.073  -2.192   3.188  1.00  0.00    -0.360 N 
ATOM     14  C   UNL     1      -2.063  -2.703   2.413  1.00  0.00     0.099 A 
ATOM     15  H   UNL     1      -1.012  -2.272   4.167  1.00  0.00     0.166 HD
BRANCH   7  16
ATOM     16  N   UNL     1       1.930   0.443  -0.579  1.00  0.00    -0.399 N 
ATOM     17  H   UNL     1       2.703   1.002  -0.335  1.00  0.00     0.156 HD
ATOM     18  H   UNL     1       1.667   0.351  -1.523  1.00  0.00     0.156 HD
ENDBRANCH   7  16
ENDBRANCH   4   6
ENDBRANCH   3   4
ENDBRANCH   2   3
ENDBRANCH   1   2
BRANCH   1  19
ATOM     19  O   UNL     1      -3.906  -5.598  -1.619  1.00  0.00    -0.458 OA
BRANCH  19  20
ATOM     20  C   UNL     1      -3.360  -6.445  -0.718  1.00  0.00     0.338 C 
ATOM     21  O   UNL     1      -2.315  -7.071  -0.836  1.00  0.00    -0.246 OA
BRANCH  20  22
ATOM     22  C   UNL     1      -4.061  -6.197   0.559  1.00  0.00     0.060 A 
ATOM     23  C   UNL     1      -5.399  -5.775   0.598  1.00  0.00     0.016 A 
ATOM     24  C   UNL     1      -3.258  -6.100   1.689  1.00  0.00     0.016 A 
ATOM     25  C   UNL     1      -5.873  -5.069   1.707  1.00  0.00     0.010 A 
ATOM     26  C   UNL     1      -3.747  -5.422   2.795  1.00  0.00     0.010 A 
ATOM     27  C   UNL     1      -5.014  -4.808   2.774  1.00  0.00    -0.014 A 
BRANCH  27  28
ATOM     28  C   UNL     1      -5.432  -3.937   3.888  1.00  0.00     0.031 A 
ATOM     29  C   UNL     1      -5.713  -4.646   5.155  1.00  0.00     0.074 A 
ATOM     30  C   UNL     1      -5.420  -2.583   3.946  1.00  0.00     0.049 A 
ATOM     31  N   UNL     1      -6.879  -4.858   5.666  1.00  0.00    -0.248 NA
ATOM     32  C   UNL     1      -4.603  -5.262   5.893  1.00  0.00     0.031 C 
ATOM     33  C   UNL     1      -4.933  -1.615   2.964  1.00  0.00     0.029 A 
ATOM     34  N   UNL     1      -5.725  -1.776   5.011  1.00  0.00    -0.354 N 
ATOM     35  C   UNL     1      -6.645  -5.508   6.866  1.00  0.00     0.074 A 
ATOM     36  C   UNL     1      -5.263  -5.915   6.847  1.00  0.00     0.031 C 
ATOM     37  C   UNL     1      -4.687  -0.427   3.567  1.00  0.00     0.029 A 
ATOM     38  C   UNL     1      -5.229  -0.480   4.910  1.00  0.00     0.049 A 
ATOM     39  H   UNL     1      -6.251  -2.087   5.783  1.00  0.00     0.167 HD
ATOM     40  C   UNL     1      -7.528  -5.476   7.899  1.00  0.00     0.031 A 
ATOM     41  C   UNL     1      -5.279   0.492   5.852  1.00  0.00     0.031 A 
ATOM     42  C   UNL     1      -8.783  -4.877   7.532  1.00  0.00     0.049 A 
ATOM     43  C   UNL     1      -6.427   0.187   6.731  1.00  0.00     0.074 A 
ATOM     44  C   UNL     1      -9.772  -5.162   6.613  1.00  0.00     0.029 A 
ATOM     45  N   UNL     1      -8.973  -3.569   7.912  1.00  0.00    -0.354 N 
ATOM     46  N   UNL     1      -7.666   0.210   6.328  1.00  0.00    -0.248 NA
ATOM     47  C   UNL     1      -6.202  -0.458   8.015  1.00  0.00     0.031 C 
ATOM     48  C   UNL     1     -10.269  -3.898   6.183  1.00  0.00     0.029 A 
ATOM     49  C   UNL     1      -9.576  -2.901   6.874  1.00  0.00     0.049 A 
ATOM     50  H   UNL     1      -8.719  -3.178   8.779  1.00  0.00     0.167 HD
ATOM     51  C   UNL     1      -8.288  -0.783   7.061  1.00  0.00     0.074 A 
ATOM     52  C   UNL     1      -7.397  -1.028   8.189  1.00  0.00     0.031 C 
ATOM     53  C   UNL     1      -9.306  -1.516   6.524  1.00  0.00     0.031 A 
BRANCH  40  54
ATOM     54  C   UNL     1      -7.127  -5.698   9.329  1.00  0.00    -0.014 A 
ATOM     55  C   UNL     1      -5.816  -5.475   9.799  1.00  0.00     0.010 A 
ATOM     56  C   UNL     1      -8.118  -5.961  10.292  1.00  0.00     0.010 A 
ATOM     57  C   UNL     1      -5.482  -5.591  11.146  1.00  0.00     0.020 A 
ATOM     58  C   UNL     1      -7.805  -6.021  11.657  1.00  0.00     0.020 A 
ATOM     59  C   UNL     1      -6.483  -5.856  12.072  1.00  0.00     0.054 A 
BRANCH  59  60
ATOM     60  S   UNL     1      -6.035  -5.879  13.823  1.00  0.00     0.124 S 
ATOM     61  O   UNL     1      -5.345  -7.161  13.939  1.00  0.00    -0.237 OA
ATOM     62  O   UNL     1      -5.189  -4.695  13.947  1.00  0.00    -0.237 OA
ATOM     63  O   UNL     1      -7.323  -5.795  14.506  1.00  0.00    -0.744 OA
ENDBRANCH  59  60
ENDBRANCH  40  54
BRANCH  41  64
ATOM     64  C   UNL     1      -4.277   1.524   6.209  1.00  0.00    -0.014 A 
ATOM     65  C   UNL     1      -2.904   1.242   6.065  1.00  0.00     0.010 A 
ATOM     66  C   UNL     1      -4.643   2.629   7.003  1.00  0.00     0.010 A 
ATOM     67  C   UNL     1      -1.938   1.967   6.775  1.00  0.00     0.020 A 
ATOM     68  C   UNL     1      -3.680   3.361   7.716  1.00  0.00     0.020 A 
ATOM     69  C   UNL     1      -2.337   2.994   7.632  1.00  0.00     0.054 A 
BRANCH  69  70
ATOM     70  S   UNL     1      -1.087   3.759   8.707  1.00  0.00     0.124 S 
ATOM     71  O   UNL     1      -0.746   2.658   9.603  1.00  0.00    -0.237 OA
ATOM     72  O   UNL     1      -0.044   4.140   7.758  1.00  0.00    -0.237 OA
ATOM     73  O   UNL     1      -1.798   4.874   9.329  1.00  0.00    -0.744 OA
ENDBRANCH  69  70
ENDBRANCH  41  64
BRANCH  53  74
ATOM     74  C   UNL     1     -10.005  -0.985   5.286  1.00  0.00    -0.014 A 
ATOM     75  C   UNL     1     -11.408  -0.882   5.317  1.00  0.00     0.010 A 
ATOM     76  C   UNL     1      -9.347  -0.756   4.061  1.00  0.00     0.010 A 
ATOM     77  C   UNL     1     -12.136  -0.600   4.157  1.00  0.00     0.020 A 
ATOM     78  C   UNL     1     -10.070  -0.447   2.897  1.00  0.00     0.020 A 
ATOM     79  C   UNL     1     -11.463  -0.399   2.949  1.00  0.00     0.054 A 
BRANCH  79  80
ATOM     80  S   UNL     1     -12.447  -0.108   1.452  1.00  0.00     0.124 S 
ATOM     81  O   UNL     1     -13.016  -1.429   1.194  1.00  0.00    -0.237 OA
ATOM     82  O   UNL     1     -13.405   0.907   1.885  1.00  0.00    -0.237 OA
ATOM     83  O   UNL     1     -11.470   0.348   0.466  1.00  0.00    -0.744 OA
ENDBRANCH  79  80
ENDBRANCH  53  74
ENDBRANCH  27  28
ENDBRANCH  20  22
ENDBRANCH  19  20
ENDBRANCH   1  19
TORSDOF 15
