REMARK SMILES CC1CCN(S(=O)(=O)c2ccc3c(ccn3CC(=O)OCCOC(=O)c3ccc(-c4c5nc(c(-c6ccc(S(=O)(=O)[O-])cc6)c6ccc([nH]6)c(-c6ccc(S(=O)(=O)[O-])cc6)c6nc(c(-c7ccc(S(=O)(=O)[O-])cc7)c7ccc4[nH]7)C=C6)C=C5)cc3)c2)CC1
REMARK SMILES IDX 21 1 20 2 18 3 19 4 17 5 16 6 9 7 10 8 86 9 11 10 13 11
REMARK SMILES IDX 12 12 14 13 15 14 6 15 7 16 8 17 5 18 1 19 2 20 3 21 88 22
REMARK SMILES IDX 4 23 87 24 22 25 23 26 24 27 25 28 26 29 27 30 85 31 28 32
REMARK SMILES IDX 84 33 29 34 30 35 31 36 78 37 32 38 83 39 77 40 79 41 33 42
REMARK SMILES IDX 82 43 76 44 75 45 34 47 64 48 45 49 63 50 46 51 49 52 62 53
REMARK SMILES IDX 80 54 47 55 48 56 61 58 81 59 50 60 35 61 36 62 44 63 37 64
REMARK SMILES IDX 43 65 38 66 39 67 40 68 41 69 42 70 65 71 66 72 74 73 67 74
REMARK SMILES IDX 73 75 68 76 69 77 70 78 71 79 72 80 51 81 52 82 60 83 53 84
REMARK SMILES IDX 59 85 54 86 55 87 56 88 57 89 58 90
REMARK H PARENT 79 46 49 57
REMARK Flexibility Score: inf
ROOT
ATOM      1  C   UNL     1       3.648  -6.652  -7.834  1.00  0.00     0.274 C 
ENDROOT
BRANCH   1   2
ATOM      2  O   UNL     1       3.703  -5.918  -6.596  1.00  0.00    -0.461 OA
BRANCH   2   3
ATOM      3  C   UNL     1       3.740  -6.662  -5.464  1.00  0.00     0.326 C 
ATOM      4  O   UNL     1       3.664  -7.885  -5.437  1.00  0.00    -0.250 OA
BRANCH   3   5
ATOM      5  C   UNL     1       3.772  -5.854  -4.206  1.00  0.00     0.244 C 
BRANCH   5   6
ATOM      6  N   UNL     1       4.135  -4.445  -4.296  1.00  0.00    -0.336 N 
ATOM      7  C   UNL     1       2.339  -1.155  -2.635  1.00  0.00     0.083 A 
ATOM      8  C   UNL     1       1.645  -2.360  -2.535  1.00  0.00     0.024 A 
ATOM      9  C   UNL     1       3.584  -1.078  -3.269  1.00  0.00     0.032 A 
ATOM     10  C   UNL     1       2.202  -3.542  -2.978  1.00  0.00     0.028 A 
ATOM     11  C   UNL     1       4.117  -2.259  -3.818  1.00  0.00     0.001 A 
ATOM     12  C   UNL     1       3.418  -3.457  -3.658  1.00  0.00     0.049 A 
ATOM     13  C   UNL     1       5.276  -2.554  -4.580  1.00  0.00     0.028 A 
ATOM     14  C   UNL     1       5.236  -3.894  -4.893  1.00  0.00     0.087 A 
BRANCH   7  15
ATOM     15  S   UNL     1       1.522   0.312  -2.092  1.00  0.00     0.243 S 
ATOM     16  O   UNL     1       0.157   0.220  -2.579  1.00  0.00    -0.207 OA
ATOM     17  O   UNL     1       2.339   1.448  -2.456  1.00  0.00    -0.207 OA
BRANCH  15  18
ATOM     18  N   UNL     1       1.520   0.217  -0.380  1.00  0.00    -0.198 NA
ATOM     19  C   UNL     1      -2.686   0.081   0.077  1.00  0.00     0.008 C 
ATOM     20  C   UNL     1      -1.247   0.135   0.594  1.00  0.00    -0.012 C 
ATOM     21  C   UNL     1      -0.570   1.444   0.144  1.00  0.00     0.020 C 
ATOM     22  C   UNL     1      -0.498  -1.130   0.149  1.00  0.00     0.020 C 
ATOM     23  C   UNL     1       0.951   1.422   0.280  1.00  0.00     0.103 C 
ATOM     24  C   UNL     1       1.009  -0.997   0.308  1.00  0.00     0.103 C 
ENDBRANCH  15  18
ENDBRANCH   7  15
ENDBRANCH   5   6
ENDBRANCH   3   5
ENDBRANCH   2   3
ENDBRANCH   1   2
BRANCH   1  25
ATOM     25  C   UNL     1       5.017  -6.620  -8.518  1.00  0.00     0.275 C 
BRANCH  25  26
ATOM     26  O   UNL     1       5.920  -7.469  -7.792  1.00  0.00    -0.458 OA
BRANCH  26  27
ATOM     27  C   UNL     1       6.921  -6.858  -7.100  1.00  0.00     0.338 C 
ATOM     28  O   UNL     1       7.393  -5.765  -7.309  1.00  0.00    -0.246 OA
BRANCH  27  29
ATOM     29  C   UNL     1       7.036  -7.603  -5.821  1.00  0.00     0.060 A 
ATOM     30  C   UNL     1       6.792  -8.976  -5.753  1.00  0.00     0.016 A 
ATOM     31  C   UNL     1       7.086  -6.835  -4.656  1.00  0.00     0.016 A 
ATOM     32  C   UNL     1       6.394  -9.534  -4.542  1.00  0.00     0.010 A 
ATOM     33  C   UNL     1       6.646  -7.385  -3.461  1.00  0.00     0.010 A 
ATOM     34  C   UNL     1       6.218  -8.713  -3.419  1.00  0.00    -0.014 A 
BRANCH  34  35
ATOM     35  C   UNL     1       5.887  -9.323  -2.132  1.00  0.00     0.031 A 
ATOM     36  C   UNL     1       7.117  -9.779  -1.455  1.00  0.00     0.074 A 
ATOM     37  C   UNL     1       4.697  -9.435  -1.502  1.00  0.00     0.049 A 
ATOM     38  N   UNL     1       7.606 -10.972  -1.496  1.00  0.00    -0.248 NA
ATOM     39  C   UNL     1       8.015  -8.770  -0.874  1.00  0.00     0.031 C 
ATOM     40  C   UNL     1       3.416  -8.807  -1.824  1.00  0.00     0.029 A 
ATOM     41  N   UNL     1       4.410 -10.125  -0.353  1.00  0.00    -0.354 N 
ATOM     42  C   UNL     1       8.767 -10.909  -0.743  1.00  0.00     0.074 A 
ATOM     43  C   UNL     1       9.090  -9.512  -0.612  1.00  0.00     0.031 C 
ATOM     44  C   UNL     1       2.556  -8.963  -0.784  1.00  0.00     0.029 A 
ATOM     45  C   UNL     1       3.158  -9.860   0.192  1.00  0.00     0.049 A 
ATOM     46  H   UNL     1       5.042 -10.760   0.056  1.00  0.00     0.167 HD
ATOM     47  C   UNL     1       9.193 -11.985  -0.031  1.00  0.00     0.031 A 
ATOM     48  C   UNL     1       2.637 -10.380   1.334  1.00  0.00     0.031 A 
ATOM     49  C   UNL     1       8.449 -13.167  -0.374  1.00  0.00     0.049 A 
ATOM     50  C   UNL     1       3.312 -11.675   1.578  1.00  0.00     0.074 A 
ATOM     51  C   UNL     1       8.444 -14.082  -1.402  1.00  0.00     0.029 A 
ATOM     52  N   UNL     1       7.249 -13.274   0.282  1.00  0.00    -0.354 N 
ATOM     53  N   UNL     1       3.188 -12.710   0.793  1.00  0.00    -0.248 NA
ATOM     54  C   UNL     1       4.390 -11.749   2.557  1.00  0.00     0.031 C 
ATOM     55  C   UNL     1       7.131 -14.635  -1.436  1.00  0.00     0.029 A 
ATOM     56  C   UNL     1       6.377 -14.079  -0.403  1.00  0.00     0.049 A 
ATOM     57  H   UNL     1       7.041 -12.829   1.135  1.00  0.00     0.167 HD
ATOM     58  C   UNL     1       4.402 -13.357   0.897  1.00  0.00     0.074 A 
ATOM     59  C   UNL     1       5.030 -12.826   2.100  1.00  0.00     0.031 C 
ATOM     60  C   UNL     1       4.947 -14.022  -0.157  1.00  0.00     0.031 A 
BRANCH  47  61
ATOM     61  C   UNL     1       9.948 -11.883   1.268  1.00  0.00    -0.014 A 
ATOM     62  C   UNL     1      10.037 -10.697   2.026  1.00  0.00     0.010 A 
ATOM     63  C   UNL     1      10.400 -13.066   1.885  1.00  0.00     0.010 A 
ATOM     64  C   UNL     1      10.599 -10.671   3.301  1.00  0.00     0.020 A 
ATOM     65  C   UNL     1      10.928 -13.060   3.183  1.00  0.00     0.020 A 
ATOM     66  C   UNL     1      11.041 -11.855   3.874  1.00  0.00     0.054 A 
BRANCH  66  67
ATOM     67  S   UNL     1      11.720 -11.781   5.546  1.00  0.00     0.124 S 
ATOM     68  O   UNL     1      12.953 -11.027   5.333  1.00  0.00    -0.237 OA
ATOM     69  O   UNL     1      10.671 -11.078   6.279  1.00  0.00    -0.237 OA
ATOM     70  O   UNL     1      11.901 -13.185   5.906  1.00  0.00    -0.744 OA
ENDBRANCH  66  67
ENDBRANCH  47  61
BRANCH  48  71
ATOM     71  C   UNL     1       1.891  -9.703   2.432  1.00  0.00    -0.014 A 
ATOM     72  C   UNL     1       2.135  -8.343   2.700  1.00  0.00     0.010 A 
ATOM     73  C   UNL     1       1.246 -10.463   3.434  1.00  0.00     0.010 A 
ATOM     74  C   UNL     1       1.848  -7.789   3.956  1.00  0.00     0.020 A 
ATOM     75  C   UNL     1       0.955  -9.913   4.695  1.00  0.00     0.020 A 
ATOM     76  C   UNL     1       1.299  -8.588   4.960  1.00  0.00     0.054 A 
BRANCH  76  77
ATOM     77  S   UNL     1       1.144  -7.889   6.633  1.00  0.00     0.124 S 
ATOM     78  O   UNL     1       2.541  -7.720   7.021  1.00  0.00    -0.237 OA
ATOM     79  O   UNL     1       0.408  -6.651   6.387  1.00  0.00    -0.237 OA
ATOM     80  O   UNL     1       0.408  -8.911   7.371  1.00  0.00    -0.744 OA
ENDBRANCH  76  77
ENDBRANCH  48  71
BRANCH  60  81
ATOM     81  C   UNL     1       4.046 -14.594  -1.215  1.00  0.00    -0.014 A 
ATOM     82  C   UNL     1       4.134 -15.985  -1.408  1.00  0.00     0.010 A 
ATOM     83  C   UNL     1       3.277 -13.832  -2.113  1.00  0.00     0.010 A 
ATOM     84  C   UNL     1       3.551 -16.596  -2.514  1.00  0.00     0.020 A 
ATOM     85  C   UNL     1       2.662 -14.448  -3.217  1.00  0.00     0.020 A 
ATOM     86  C   UNL     1       2.839 -15.820  -3.429  1.00  0.00     0.054 A 
BRANCH  86  87
ATOM     87  S   UNL     1       2.204 -16.642  -4.914  1.00  0.00     0.124 S 
ATOM     88  O   UNL     1       3.427 -16.894  -5.673  1.00  0.00    -0.237 OA
ATOM     89  O   UNL     1       1.554 -17.834  -4.372  1.00  0.00    -0.237 OA
ATOM     90  O   UNL     1       1.298 -15.659  -5.503  1.00  0.00    -0.744 OA
ENDBRANCH  86  87
ENDBRANCH  60  81
ENDBRANCH  34  35
ENDBRANCH  27  29
ENDBRANCH  26  27
ENDBRANCH  25  26
ENDBRANCH   1  25
TORSDOF 17
