REMARK SMILES O=C(OCCOC(=O)[C@@H]1CCCCC[C@H]1NS(=O)(=O)C(F)F)c1ccc(-c2c3nc(c(-c4ccc(S(=O)(=O)[O-])cc4)c4ccc([nH]4)c(-c4ccc(S(=O)(=O)[O-])cc4)c4nc(c(-c5ccc(S(=O)(=O)[O-])cc5)c5ccc2[nH]5)C=C4)C=C3)cc1
REMARK SMILES IDX 5 1 4 2 3 3 2 4 1 5 23 6 24 7 82 8 25 9 81 10 26 11 27 12
REMARK SMILES IDX 28 13 75 14 29 15 80 16 74 17 76 18 30 19 79 20 73 21 72 22
REMARK SMILES IDX 31 24 61 25 42 26 60 27 43 28 46 29 59 30 77 31 44 32 45 33
REMARK SMILES IDX 58 35 78 36 47 37 32 38 33 39 41 40 34 41 40 42 35 43 36 44
REMARK SMILES IDX 37 45 38 46 39 47 62 48 63 49 71 50 64 51 70 52 65 53 66 54
REMARK SMILES IDX 67 55 68 56 69 57 48 58 49 59 57 60 50 61 56 62 51 63 52 64
REMARK SMILES IDX 53 65 54 66 55 67 6 68 7 69 8 70 9 71 10 72 11 73 15 75
REMARK SMILES IDX 14 76 13 77 12 78 16 80 17 82 18 83 19 84 20 85 21 86 22 87
REMARK H PARENT 76 23 46 34 16 81
REMARK Flexibility Score: 100.00
ROOT
ATOM      1  C   UNL     1       3.994  -1.073  -1.725  1.00  0.00     0.274 C 
ENDROOT
BRANCH   1   2
ATOM      2  C   UNL     1       4.350  -1.562  -0.315  1.00  0.00     0.275 C 
BRANCH   2   3
ATOM      3  O   UNL     1       3.461  -1.119   0.716  1.00  0.00    -0.458 OA
BRANCH   3   4
ATOM      4  C   UNL     1       3.483   0.046   1.406  1.00  0.00     0.338 C 
ATOM      5  O   UNL     1       2.722   0.163   2.366  1.00  0.00    -0.246 OA
BRANCH   4   6
ATOM      6  C   UNL     1       4.249   1.258   0.962  1.00  0.00     0.060 A 
ATOM      7  C   UNL     1       5.368   1.294   0.119  1.00  0.00     0.016 A 
ATOM      8  C   UNL     1       3.723   2.485   1.386  1.00  0.00     0.016 A 
ATOM      9  C   UNL     1       5.845   2.495  -0.423  1.00  0.00     0.010 A 
ATOM     10  C   UNL     1       4.193   3.682   0.844  1.00  0.00     0.010 A 
ATOM     11  C   UNL     1       5.234   3.700  -0.099  1.00  0.00    -0.014 A 
BRANCH  11  12
ATOM     12  C   UNL     1       5.766   4.999  -0.582  1.00  0.00     0.031 A 
ATOM     13  C   UNL     1       6.277   5.941   0.469  1.00  0.00     0.074 A 
ATOM     14  C   UNL     1       5.756   5.359  -1.884  1.00  0.00     0.049 A 
ATOM     15  N   UNL     1       6.666   7.180   0.354  1.00  0.00    -0.248 NA
ATOM     16  C   UNL     1       6.308   5.425   1.851  1.00  0.00     0.031 C 
ATOM     17  C   UNL     1       5.309   4.531  -3.006  1.00  0.00     0.029 A 
ATOM     18  N   UNL     1       6.123   6.539  -2.489  1.00  0.00    -0.354 N 
ATOM     19  C   UNL     1       6.965   7.580   1.649  1.00  0.00     0.074 A 
ATOM     20  C   UNL     1       6.555   6.522   2.539  1.00  0.00     0.031 C 
ATOM     21  C   UNL     1       5.381   5.239  -4.149  1.00  0.00     0.029 A 
ATOM     22  C   UNL     1       5.912   6.564  -3.852  1.00  0.00     0.049 A 
ATOM     23  H   UNL     1       6.502   7.299  -1.992  1.00  0.00     0.167 HD
ATOM     24  C   UNL     1       7.628   8.681   2.063  1.00  0.00     0.031 A 
ATOM     25  C   UNL     1       6.150   7.537  -4.756  1.00  0.00     0.031 A 
ATOM     26  C   UNL     1       8.102   9.686   1.165  1.00  0.00     0.049 A 
ATOM     27  C   UNL     1       6.836   8.793  -4.275  1.00  0.00     0.074 A 
ATOM     28  C   UNL     1       8.838  10.819   1.447  1.00  0.00     0.029 A 
ATOM     29  N   UNL     1       7.895   9.661  -0.207  1.00  0.00    -0.354 N 
ATOM     30  N   UNL     1       7.195   9.117  -3.054  1.00  0.00    -0.248 NA
ATOM     31  C   UNL     1       7.202   9.786  -5.294  1.00  0.00     0.031 C 
ATOM     32  C   UNL     1       9.039  11.504   0.246  1.00  0.00     0.029 A 
ATOM     33  C   UNL     1       8.479  10.767  -0.789  1.00  0.00     0.049 A 
ATOM     34  H   UNL     1       7.405   8.959  -0.693  1.00  0.00     0.167 HD
ATOM     35  C   UNL     1       7.884  10.319  -3.167  1.00  0.00     0.074 A 
ATOM     36  C   UNL     1       7.884  10.667  -4.574  1.00  0.00     0.031 C 
ATOM     37  C   UNL     1       8.478  11.062  -2.200  1.00  0.00     0.031 A 
BRANCH  24  38
ATOM     38  C   UNL     1       7.892   8.785   3.538  1.00  0.00    -0.014 A 
ATOM     39  C   UNL     1       8.743   7.864   4.183  1.00  0.00     0.010 A 
ATOM     40  C   UNL     1       7.218   9.749   4.304  1.00  0.00     0.010 A 
ATOM     41  C   UNL     1       8.846   7.849   5.574  1.00  0.00     0.020 A 
ATOM     42  C   UNL     1       7.351   9.764   5.695  1.00  0.00     0.020 A 
ATOM     43  C   UNL     1       8.141   8.795   6.321  1.00  0.00     0.054 A 
BRANCH  43  44
ATOM     44  S   UNL     1       8.276   8.741   8.128  1.00  0.00     0.124 S 
ATOM     45  O   UNL     1       7.475   7.564   8.454  1.00  0.00    -0.237 OA
ATOM     46  O   UNL     1       9.715   8.598   8.335  1.00  0.00    -0.237 OA
ATOM     47  O   UNL     1       7.711  10.019   8.555  1.00  0.00    -0.744 OA
ENDBRANCH  43  44
ENDBRANCH  24  38
BRANCH  25  48
ATOM     48  C   UNL     1       5.831   7.347  -6.203  1.00  0.00    -0.014 A 
ATOM     49  C   UNL     1       6.860   7.172  -7.148  1.00  0.00     0.010 A 
ATOM     50  C   UNL     1       4.498   7.367  -6.657  1.00  0.00     0.010 A 
ATOM     51  C   UNL     1       6.569   7.053  -8.513  1.00  0.00     0.020 A 
ATOM     52  C   UNL     1       4.201   7.225  -8.020  1.00  0.00     0.020 A 
ATOM     53  C   UNL     1       5.240   7.080  -8.941  1.00  0.00     0.054 A 
BRANCH  53  54
ATOM     54  S   UNL     1       4.891   6.895 -10.715  1.00  0.00     0.124 S 
ATOM     55  O   UNL     1       5.411   8.144 -11.262  1.00  0.00    -0.237 OA
ATOM     56  O   UNL     1       5.647   5.692 -11.057  1.00  0.00    -0.237 OA
ATOM     57  O   UNL     1       3.439   6.745 -10.766  1.00  0.00    -0.744 OA
ENDBRANCH  53  54
ENDBRANCH  25  48
BRANCH  37  58
ATOM     58  C   UNL     1       9.230  12.290  -2.628  1.00  0.00    -0.014 A 
ATOM     59  C   UNL     1       8.555  13.447  -3.048  1.00  0.00     0.010 A 
ATOM     60  C   UNL     1      10.631  12.315  -2.492  1.00  0.00     0.010 A 
ATOM     61  C   UNL     1       9.272  14.609  -3.338  1.00  0.00     0.020 A 
ATOM     62  C   UNL     1      11.347  13.483  -2.748  1.00  0.00     0.020 A 
ATOM     63  C   UNL     1      10.662  14.622  -3.177  1.00  0.00     0.054 A 
BRANCH  63  64
ATOM     64  S   UNL     1      11.557  16.169  -3.476  1.00  0.00     0.124 S 
ATOM     65  O   UNL     1      11.509  16.270  -4.932  1.00  0.00    -0.237 OA
ATOM     66  O   UNL     1      10.753  17.148  -2.749  1.00  0.00    -0.237 OA
ATOM     67  O   UNL     1      12.882  15.917  -2.912  1.00  0.00    -0.744 OA
ENDBRANCH  63  64
ENDBRANCH  37  58
ENDBRANCH  11  12
ENDBRANCH   4   6
ENDBRANCH   3   4
ENDBRANCH   2   3
ENDBRANCH   1   2
BRANCH   1  68
ATOM     68  O   UNL     1       3.350   0.219  -1.773  1.00  0.00    -0.462 OA
BRANCH  68  69
ATOM     69  C   UNL     1       2.010   0.202  -2.017  1.00  0.00     0.310 C 
ATOM     70  O   UNL     1       1.371  -0.837  -2.154  1.00  0.00    -0.252 OA
BRANCH  69  71
ATOM     71  C   UNL     1       1.359   1.589  -2.176  1.00  0.00     0.117 C 
BRANCH  71  72
ATOM     72  C   UNL     1       2.276   2.780  -1.913  1.00  0.00     0.017 C 
BRANCH  72  73
ATOM     73  C   UNL     1       1.645   4.175  -1.845  1.00  0.00     0.001 CG0
ATOM     74  G   UNL     1       1.056   4.589  -0.495  1.00  0.00     0.000 G0
ENDBRANCH  72  73
ENDBRANCH  71  72
BRANCH  71  75
ATOM     75  C   UNL     1       0.046   1.599  -1.369  1.00  0.00     0.084 C 
BRANCH  75  76
ATOM     76  C   UNL     1       0.131   2.234   0.024  1.00  0.00     0.021 C 
BRANCH  76  77
ATOM     77  C   UNL     1      -0.061   3.744   0.091  1.00  0.00     0.002 C 
BRANCH  77  78
ATOM     78  C   UNL     1       1.056   4.589  -0.495  1.00  0.00     0.000 CG0
ATOM     79  G   UNL     1       1.645   4.175  -1.845  1.00  0.00     0.000 G0
ENDBRANCH  77  78
ENDBRANCH  76  77
ENDBRANCH  75  76
BRANCH  75  80
ATOM     80  N   UNL     1      -1.001   2.221  -2.208  1.00  0.00    -0.206 NA
ATOM     81  H   UNL     1      -0.781   1.982  -3.175  1.00  0.00     0.141 HD
BRANCH  80  82
ATOM     82  S   UNL     1      -2.619   1.841  -1.977  1.00  0.00     0.274 S 
ATOM     83  O   UNL     1      -2.947   2.163  -0.599  1.00  0.00    -0.206 OA
ATOM     84  O   UNL     1      -3.319   2.520  -3.046  1.00  0.00    -0.206 OA
BRANCH  82  85
ATOM     85  C   UNL     1      -2.720   0.030  -2.230  1.00  0.00     0.473 C 
ATOM     86  F   UNL     1      -2.055  -0.380  -3.347  1.00  0.00    -0.191 F 
ATOM     87  F   UNL     1      -2.193  -0.673  -1.185  1.00  0.00    -0.191 F 
ENDBRANCH  82  85
ENDBRANCH  80  82
ENDBRANCH  75  80
ENDBRANCH  71  75
ENDBRANCH  69  71
ENDBRANCH  68  69
ENDBRANCH   1  68
TORSDOF 17
