REMARK SMILES COc1ccc([C@@H]2CC(c3ccc(Cl)cc3)=NN2C2=[NH+]C(=O)[C@@H](CC(=O)OCCOC(=O)c3ccc(-c4c5nc(c(-c6ccc(S(=O)(=O)[O-])cc6)c6ccc([nH]6)c(-c6ccc(S(=O)(=O)[O-])cc6)c6nc(c(-c7ccc(S(=O)(=O)[O-])cc7)c7ccc4[nH]7)C=C6)C=C5)cc3)S2)cc1OC
REMARK SMILES IDX 28 1 27 2 25 3 26 4 24 5 23 6 19 7 20 8 93 9 21 10 22 12
REMARK SMILES IDX 18 13 7 14 8 15 9 16 17 17 6 18 3 19 4 20 95 21 5 22 94 23
REMARK SMILES IDX 2 24 1 25 96 26 97 27 10 28 11 29 16 30 12 31 15 32 13 33
REMARK SMILES IDX 14 34 29 35 30 36 31 37 32 38 33 39 34 40 92 41 35 42 91 43
REMARK SMILES IDX 36 44 37 45 38 46 85 47 39 48 90 49 84 50 86 51 40 52 89 53
REMARK SMILES IDX 83 54 82 55 41 57 71 58 52 59 70 60 53 61 56 62 69 63 87 64
REMARK SMILES IDX 54 65 55 66 68 68 88 69 57 70 42 71 43 72 51 73 44 74 50 75
REMARK SMILES IDX 45 76 46 77 47 78 48 79 49 80 72 81 73 82 81 83 74 84 80 85
REMARK SMILES IDX 75 86 76 87 77 88 78 89 79 90 58 91 59 92 67 93 60 94 66 95
REMARK SMILES IDX 61 96 62 97 63 98 64 99 65 100
REMARK H PARENT 20 11 86 56 56 67
REMARK Flexibility Score: inf
ROOT
ATOM      1  C   UNL     1       0.651  -4.354   7.695  1.00  0.00     0.274 C 
ENDROOT
BRANCH   1   2
ATOM      2  O   UNL     1       1.612  -4.653   6.666  1.00  0.00    -0.462 OA
BRANCH   2   3
ATOM      3  C   UNL     1       2.639  -3.782   6.524  1.00  0.00     0.307 C 
ATOM      4  O   UNL     1       2.789  -2.764   7.188  1.00  0.00    -0.252 OA
BRANCH   3   5
ATOM      5  C   UNL     1       3.557  -4.153   5.393  1.00  0.00     0.150 C 
BRANCH   5   6
ATOM      6  C   UNL     1       4.156  -5.554   5.461  1.00  0.00     0.184 C 
ATOM      7  C   UNL     1       3.696  -6.713   3.289  1.00  0.00     0.340 C 
ATOM      8  N   UNL     1       4.814  -6.075   3.186  1.00  0.00    -0.202 N 
ATOM      9  S   UNL     1       3.026  -6.862   4.901  1.00  0.00    -0.020 SA
ATOM     10  C   UNL     1       5.255  -5.621   4.411  1.00  0.00     0.322 C 
ATOM     11  H   UNL     1       5.293  -5.930   2.338  1.00  0.00     0.316 HD
ATOM     12  O   UNL     1       6.382  -5.190   4.612  1.00  0.00    -0.246 OA
BRANCH   7  13
ATOM     13  N   UNL     1       2.936  -7.208   2.259  1.00  0.00    -0.120 N 
ATOM     14  C   UNL     1       2.114  -6.302   1.448  1.00  0.00     0.243 C 
ATOM     15  C   UNL     1       1.784  -7.117   0.199  1.00  0.00     0.118 C 
ATOM     16  C   UNL     1       2.631  -8.327   0.457  1.00  0.00     0.096 C 
ATOM     17  N   UNL     1       3.237  -8.369   1.599  1.00  0.00    -0.086 NA
BRANCH  14  18
ATOM     18  C   UNL     1       0.922  -5.814   2.256  1.00  0.00     0.003 A 
ATOM     19  C   UNL     1      -0.977  -4.874   4.125  1.00  0.00     0.160 A 
ATOM     20  C   UNL     1      -0.907  -6.236   3.805  1.00  0.00     0.051 A 
ATOM     21  C   UNL     1      -0.121  -3.966   3.494  1.00  0.00     0.161 A 
ATOM     22  C   UNL     1       0.027  -6.702   2.872  1.00  0.00     0.012 A 
ATOM     23  C   UNL     1       0.806  -4.446   2.554  1.00  0.00     0.058 A 
BRANCH  19  24
ATOM     24  O   UNL     1      -1.769  -4.483   5.170  1.00  0.00    -0.493 OA
ATOM     25  C   UNL     1      -3.161  -4.607   4.899  1.00  0.00     0.278 C 
ENDBRANCH  19  24
BRANCH  21  26
ATOM     26  O   UNL     1      -0.009  -2.617   3.694  1.00  0.00    -0.493 OA
ATOM     27  C   UNL     1      -0.926  -1.976   4.567  1.00  0.00     0.278 C 
ENDBRANCH  21  26
ENDBRANCH  14  18
BRANCH  16  28
ATOM     28  C   UNL     1       2.740  -9.415  -0.521  1.00  0.00     0.000 A 
ATOM     29  C   UNL     1       2.506 -10.724  -0.088  1.00  0.00     0.011 A 
ATOM     30  C   UNL     1       3.138  -9.157  -1.835  1.00  0.00     0.011 A 
ATOM     31  C   UNL     1       2.650 -11.784  -0.984  1.00  0.00     0.021 A 
ATOM     32  C   UNL     1       3.299 -10.224  -2.723  1.00  0.00     0.021 A 
ATOM     33  C   UNL     1       3.048 -11.530  -2.296  1.00  0.00     0.041 A 
ATOM     34  Cl  UNL     1       3.245 -12.839  -3.394  1.00  0.00    -0.084 Cl
ENDBRANCH  16  28
ENDBRANCH   7  13
ENDBRANCH   5   6
ENDBRANCH   3   5
ENDBRANCH   2   3
ENDBRANCH   1   2
BRANCH   1  35
ATOM     35  C   UNL     1       0.909  -5.162   8.967  1.00  0.00     0.275 C 
BRANCH  35  36
ATOM     36  O   UNL     1       2.099  -4.720   9.641  1.00  0.00    -0.458 OA
BRANCH  36  37
ATOM     37  C   UNL     1       3.228  -5.369   9.281  1.00  0.00     0.338 C 
ATOM     38  O   UNL     1       3.326  -6.308   8.505  1.00  0.00    -0.246 OA
BRANCH  37  39
ATOM     39  C   UNL     1       4.393  -4.703   9.871  1.00  0.00     0.060 A 
ATOM     40  C   UNL     1       5.325  -4.109   9.015  1.00  0.00     0.016 A 
ATOM     41  C   UNL     1       4.610  -4.748  11.248  1.00  0.00     0.016 A 
ATOM     42  C   UNL     1       6.499  -3.575   9.533  1.00  0.00     0.010 A 
ATOM     43  C   UNL     1       5.783  -4.199  11.767  1.00  0.00     0.010 A 
ATOM     44  C   UNL     1       6.742  -3.629  10.911  1.00  0.00    -0.014 A 
BRANCH  44  45
ATOM     45  C   UNL     1       8.029  -3.138  11.452  1.00  0.00     0.031 A 
ATOM     46  C   UNL     1       9.056  -4.123  11.931  1.00  0.00     0.074 A 
ATOM     47  C   UNL     1       8.269  -1.815  11.504  1.00  0.00     0.049 A 
ATOM     48  N   UNL     1      10.206  -3.900  12.510  1.00  0.00    -0.248 NA
ATOM     49  C   UNL     1       8.743  -5.549  11.738  1.00  0.00     0.031 C 
ATOM     50  C   UNL     1       7.362  -0.771  11.025  1.00  0.00     0.029 A 
ATOM     51  N   UNL     1       9.350  -1.124  11.987  1.00  0.00    -0.354 N 
ATOM     52  C   UNL     1      10.747  -5.154  12.770  1.00  0.00     0.074 A 
ATOM     53  C   UNL     1       9.788  -6.133  12.307  1.00  0.00     0.031 C 
ATOM     54  C   UNL     1       7.927   0.429  11.235  1.00  0.00     0.029 A 
ATOM     55  C   UNL     1       9.211   0.240  11.904  1.00  0.00     0.049 A 
ATOM     56  H   UNL     1      10.149  -1.564  12.358  1.00  0.00     0.167 HD
ATOM     57  C   UNL     1      11.937  -5.457  13.341  1.00  0.00     0.031 A 
ATOM     58  C   UNL     1      10.018   1.226  12.340  1.00  0.00     0.031 A 
ATOM     59  C   UNL     1      12.882  -4.472  13.800  1.00  0.00     0.049 A 
ATOM     60  C   UNL     1      11.307   0.863  13.025  1.00  0.00     0.074 A 
ATOM     61  C   UNL     1      14.120  -4.673  14.385  1.00  0.00     0.029 A 
ATOM     62  N   UNL     1      12.693  -3.100  13.723  1.00  0.00    -0.354 N 
ATOM     63  N   UNL     1      11.805  -0.327  13.267  1.00  0.00    -0.248 NA
ATOM     64  C   UNL     1      12.143   1.975  13.494  1.00  0.00     0.031 C 
ATOM     65  C   UNL     1      14.657  -3.422  14.708  1.00  0.00     0.029 A 
ATOM     66  C   UNL     1      13.781  -2.441  14.271  1.00  0.00     0.049 A 
ATOM     67  H   UNL     1      11.902  -2.659  13.337  1.00  0.00     0.167 HD
ATOM     68  C   UNL     1      13.027  -0.105  13.892  1.00  0.00     0.074 A 
ATOM     69  C   UNL     1      13.196   1.331  13.980  1.00  0.00     0.031 C 
ATOM     70  C   UNL     1      13.930  -1.009  14.350  1.00  0.00     0.031 A 
BRANCH  57  71
ATOM     71  C   UNL     1      12.262  -6.914  13.537  1.00  0.00    -0.014 A 
ATOM     72  C   UNL     1      12.573  -7.749  12.448  1.00  0.00     0.010 A 
ATOM     73  C   UNL     1      12.284  -7.452  14.838  1.00  0.00     0.010 A 
ATOM     74  C   UNL     1      12.857  -9.103  12.652  1.00  0.00     0.020 A 
ATOM     75  C   UNL     1      12.594  -8.799  15.048  1.00  0.00     0.020 A 
ATOM     76  C   UNL     1      12.861  -9.620  13.951  1.00  0.00     0.054 A 
BRANCH  76  77
ATOM     77  S   UNL     1      13.246 -11.377  14.191  1.00  0.00     0.124 S 
ATOM     78  O   UNL     1      12.025 -12.021  13.714  1.00  0.00    -0.237 OA
ATOM     79  O   UNL     1      14.425 -11.566  13.349  1.00  0.00    -0.237 OA
ATOM     80  O   UNL     1      13.488 -11.487  15.627  1.00  0.00    -0.744 OA
ENDBRANCH  76  77
ENDBRANCH  57  71
BRANCH  58  81
ATOM     81  C   UNL     1       9.619   2.647  12.155  1.00  0.00    -0.014 A 
ATOM     82  C   UNL     1      10.309   3.472  11.250  1.00  0.00     0.010 A 
ATOM     83  C   UNL     1       8.534   3.180  12.875  1.00  0.00     0.010 A 
ATOM     84  C   UNL     1       9.931   4.808  11.080  1.00  0.00     0.020 A 
ATOM     85  C   UNL     1       8.135   4.506  12.687  1.00  0.00     0.020 A 
ATOM     86  C   UNL     1       8.845   5.316  11.799  1.00  0.00     0.054 A 
BRANCH  86  87
ATOM     87  S   UNL     1       8.341   7.037  11.525  1.00  0.00     0.124 S 
ATOM     88  O   UNL     1       9.388   7.775  12.224  1.00  0.00    -0.237 OA
ATOM     89  O   UNL     1       8.355   7.144  10.069  1.00  0.00    -0.237 OA
ATOM     90  O   UNL     1       7.014   7.106  12.134  1.00  0.00    -0.744 OA
ENDBRANCH  86  87
ENDBRANCH  58  81
BRANCH  70  91
ATOM     91  C   UNL     1      15.200  -0.470  14.951  1.00  0.00    -0.014 A 
ATOM     92  C   UNL     1      15.206   0.141  16.218  1.00  0.00     0.010 A 
ATOM     93  C   UNL     1      16.413  -0.621  14.256  1.00  0.00     0.010 A 
ATOM     94  C   UNL     1      16.400   0.621  16.763  1.00  0.00     0.020 A 
ATOM     95  C   UNL     1      17.613  -0.167  14.809  1.00  0.00     0.020 A 
ATOM     96  C   UNL     1      17.596   0.465  16.054  1.00  0.00     0.054 A 
BRANCH  96  97
ATOM     97  S   UNL     1      19.138   1.060  16.800  1.00  0.00     0.124 S 
ATOM     98  O   UNL     1      19.019   2.506  16.632  1.00  0.00    -0.237 OA
ATOM     99  O   UNL     1      19.039   0.577  18.175  1.00  0.00    -0.237 OA
ATOM    100  O   UNL     1      20.180   0.424  15.996  1.00  0.00    -0.744 OA
ENDBRANCH  96  97
ENDBRANCH  70  91
ENDBRANCH  44  45
ENDBRANCH  37  39
ENDBRANCH  36  37
ENDBRANCH  35  36
ENDBRANCH   1  35
TORSDOF 20
