REMARK SMILES O=C(OCCOC(=O)c1cc(-c2ccccc2)nc(Nc2nc3ccccc3s2)n1)c1ccc(-c2c3nc(c(-c4ccc(S(=O)(=O)[O-])cc4)c4ccc([nH]4)c(-c4ccc(S(=O)(=O)[O-])cc4)c4nc(c(-c5ccc(S(=O)(=O)[O-])cc5)c5ccc2[nH]5)C=C4)C=C3)cc1
REMARK SMILES IDX 4 1 3 2 2 3 1 4 31 5 32 6 90 7 33 8 89 9 34 10 35 11 36 12
REMARK SMILES IDX 83 13 37 14 88 15 82 16 84 17 38 18 87 19 81 20 80 21 39 23
REMARK SMILES IDX 69 24 50 25 68 26 51 27 54 28 67 29 85 30 52 31 53 32 66 34
REMARK SMILES IDX 86 35 55 36 40 37 41 38 49 39 42 40 48 41 43 42 44 43 45 44
REMARK SMILES IDX 46 45 47 46 70 47 71 48 79 49 72 50 78 51 73 52 74 53 75 54
REMARK SMILES IDX 76 55 77 56 56 57 57 58 65 59 58 60 64 61 59 62 60 63 61 64
REMARK SMILES IDX 62 65 63 66 5 67 6 68 7 69 8 70 9 71 10 72 30 73 11 74 19 75
REMARK SMILES IDX 18 76 12 77 13 78 17 79 14 80 16 81 15 82 20 83 21 85 22 86
REMARK SMILES IDX 29 87 23 88 28 89 24 90 27 91 25 92 26 93
REMARK H PARENT 84 22 54 33 20 84
REMARK Flexibility Score: inf
ROOT
ATOM      1  C   UNL     1       4.312   1.679  -0.622  1.00  0.00     0.275 C 
ENDROOT
BRANCH   1   2
ATOM      2  O   UNL     1       3.249   0.825  -1.068  1.00  0.00    -0.458 OA
BRANCH   2   3
ATOM      3  C   UNL     1       3.017  -0.489  -0.844  1.00  0.00     0.338 C 
ATOM      4  O   UNL     1       2.074  -1.006  -1.436  1.00  0.00    -0.246 OA
BRANCH   3   5
ATOM      5  C   UNL     1       3.801  -1.341   0.111  1.00  0.00     0.060 A 
ATOM      6  C   UNL     1       5.105  -1.092   0.532  1.00  0.00     0.016 A 
ATOM      7  C   UNL     1       3.170  -2.492   0.620  1.00  0.00     0.016 A 
ATOM      8  C   UNL     1       5.730  -1.909   1.471  1.00  0.00     0.010 A 
ATOM      9  C   UNL     1       3.778  -3.307   1.583  1.00  0.00     0.010 A 
ATOM     10  C   UNL     1       5.073  -3.014   2.012  1.00  0.00    -0.014 A 
BRANCH  10  11
ATOM     11  C   UNL     1       5.846  -3.900   2.908  1.00  0.00     0.031 A 
ATOM     12  C   UNL     1       6.377  -5.189   2.350  1.00  0.00     0.074 A 
ATOM     13  C   UNL     1       6.213  -3.462   4.129  1.00  0.00     0.049 A 
ATOM     14  N   UNL     1       7.207  -6.036   2.897  1.00  0.00    -0.248 NA
ATOM     15  C   UNL     1       5.964  -5.548   0.981  1.00  0.00     0.031 C 
ATOM     16  C   UNL     1       5.831  -2.175   4.715  1.00  0.00     0.029 A 
ATOM     17  N   UNL     1       7.005  -4.031   5.091  1.00  0.00    -0.354 N 
ATOM     18  C   UNL     1       7.464  -6.988   1.919  1.00  0.00     0.074 A 
ATOM     19  C   UNL     1       6.644  -6.666   0.775  1.00  0.00     0.031 C 
ATOM     20  C   UNL     1       6.351  -2.069   5.949  1.00  0.00     0.029 A 
ATOM     21  C   UNL     1       7.114  -3.274   6.237  1.00  0.00     0.049 A 
ATOM     22  H   UNL     1       7.454  -4.899   4.975  1.00  0.00     0.167 HD
ATOM     23  C   UNL     1       8.344  -8.014   1.962  1.00  0.00     0.031 A 
ATOM     24  C   UNL     1       7.748  -3.540   7.395  1.00  0.00     0.031 A 
ATOM     25  C   UNL     1       9.116  -8.345   3.128  1.00  0.00     0.049 A 
ATOM     26  C   UNL     1       8.528  -4.813   7.491  1.00  0.00     0.074 A 
ATOM     27  C   UNL     1      10.012  -9.382   3.305  1.00  0.00     0.029 A 
ATOM     28  N   UNL     1       9.068  -7.644   4.325  1.00  0.00    -0.354 N 
ATOM     29  N   UNL     1       8.735  -5.720   6.567  1.00  0.00    -0.248 NA
ATOM     30  C   UNL     1       9.171  -5.089   8.780  1.00  0.00     0.031 C 
ATOM     31  C   UNL     1      10.458  -9.346   4.631  1.00  0.00     0.029 A 
ATOM     32  C   UNL     1       9.894  -8.245   5.258  1.00  0.00     0.049 A 
ATOM     33  H   UNL     1       8.527  -6.837   4.487  1.00  0.00     0.167 HD
ATOM     34  C   UNL     1       9.568  -6.661   7.150  1.00  0.00     0.074 A 
ATOM     35  C   UNL     1       9.821  -6.211   8.507  1.00  0.00     0.031 C 
ATOM     36  C   UNL     1      10.097  -7.785   6.607  1.00  0.00     0.031 A 
BRANCH  23  37
ATOM     37  C   UNL     1       8.499  -8.845   0.718  1.00  0.00    -0.014 A 
ATOM     38  C   UNL     1       9.142  -8.325  -0.422  1.00  0.00     0.010 A 
ATOM     39  C   UNL     1       8.027 -10.169   0.692  1.00  0.00     0.010 A 
ATOM     40  C   UNL     1       9.292  -9.107  -1.570  1.00  0.00     0.020 A 
ATOM     41  C   UNL     1       8.196 -10.962  -0.447  1.00  0.00     0.020 A 
ATOM     42  C   UNL     1       8.821 -10.423  -1.574  1.00  0.00     0.054 A 
BRANCH  42  43
ATOM     43  S   UNL     1       9.074 -11.430  -3.061  1.00  0.00     0.124 S 
ATOM     44  O   UNL     1       8.163 -10.799  -4.013  1.00  0.00    -0.237 OA
ATOM     45  O   UNL     1      10.496 -11.242  -3.334  1.00  0.00    -0.237 OA
ATOM     46  O   UNL     1       8.696 -12.776  -2.638  1.00  0.00    -0.744 OA
ENDBRANCH  42  43
ENDBRANCH  23  37
BRANCH  24  47
ATOM     47  C   UNL     1       7.580  -2.667   8.586  1.00  0.00    -0.014 A 
ATOM     48  C   UNL     1       8.578  -1.796   9.050  1.00  0.00     0.010 A 
ATOM     49  C   UNL     1       6.386  -2.778   9.314  1.00  0.00     0.010 A 
ATOM     50  C   UNL     1       8.371  -1.041  10.216  1.00  0.00     0.020 A 
ATOM     51  C   UNL     1       6.167  -2.017  10.462  1.00  0.00     0.020 A 
ATOM     52  C   UNL     1       7.162  -1.152  10.910  1.00  0.00     0.054 A 
BRANCH  52  53
ATOM     53  S   UNL     1       6.849  -0.123  12.372  1.00  0.00     0.124 S 
ATOM     54  O   UNL     1       7.497  -0.892  13.429  1.00  0.00    -0.237 OA
ATOM     55  O   UNL     1       7.491   1.141  12.020  1.00  0.00    -0.237 OA
ATOM     56  O   UNL     1       5.389  -0.071  12.436  1.00  0.00    -0.744 OA
ENDBRANCH  52  53
ENDBRANCH  24  47
BRANCH  36  57
ATOM     57  C   UNL     1      11.039  -8.560   7.480  1.00  0.00    -0.014 A 
ATOM     58  C   UNL     1      10.578  -9.290   8.589  1.00  0.00     0.010 A 
ATOM     59  C   UNL     1      12.413  -8.540   7.183  1.00  0.00     0.010 A 
ATOM     60  C   UNL     1      11.487  -9.945   9.420  1.00  0.00     0.020 A 
ATOM     61  C   UNL     1      13.320  -9.225   7.990  1.00  0.00     0.020 A 
ATOM     62  C   UNL     1      12.852  -9.904   9.117  1.00  0.00     0.054 A 
BRANCH  62  63
ATOM     63  S   UNL     1      14.012 -10.768  10.207  1.00  0.00     0.124 S 
ATOM     64  O   UNL     1      14.032  -9.896  11.378  1.00  0.00    -0.237 OA
ATOM     65  O   UNL     1      13.366 -12.064  10.397  1.00  0.00    -0.237 OA
ATOM     66  O   UNL     1      15.251 -10.803   9.434  1.00  0.00    -0.744 OA
ENDBRANCH  62  63
ENDBRANCH  36  57
ENDBRANCH  10  11
ENDBRANCH   3   5
ENDBRANCH   2   3
ENDBRANCH   1   2
BRANCH   1  67
ATOM     67  C   UNL     1       4.145   2.213   0.804  1.00  0.00     0.275 C 
BRANCH  67  68
ATOM     68  O   UNL     1       3.695   1.224   1.746  1.00  0.00    -0.457 OA
BRANCH  68  69
ATOM     69  C   UNL     1       2.351   1.191   1.963  1.00  0.00     0.357 C 
ATOM     70  O   UNL     1       1.535   1.988   1.518  1.00  0.00    -0.244 OA
BRANCH  69  71
ATOM     71  C   UNL     1       1.998   0.001   2.787  1.00  0.00     0.154 A 
ATOM     72  C   UNL     1       2.648  -0.244   3.971  1.00  0.00     0.065 A 
ATOM     73  N   UNL     1       0.983  -0.754   2.314  1.00  0.00    -0.206 NA
ATOM     74  C   UNL     1       2.174  -1.325   4.680  1.00  0.00     0.077 A 
ATOM     75  C   UNL     1       0.622  -1.817   3.038  1.00  0.00     0.230 A 
ATOM     76  N   UNL     1       1.169  -2.103   4.219  1.00  0.00    -0.213 NA
BRANCH  74  77
ATOM     77  C   UNL     1       2.618  -1.682   6.034  1.00  0.00     0.000 A 
ATOM     78  C   UNL     1       2.728  -3.034   6.411  1.00  0.00     0.010 A 
ATOM     79  C   UNL     1       2.842  -0.703   7.016  1.00  0.00     0.010 A 
ATOM     80  C   UNL     1       2.963  -3.396   7.735  1.00  0.00     0.001 A 
ATOM     81  C   UNL     1       3.079  -1.064   8.342  1.00  0.00     0.001 A 
ATOM     82  C   UNL     1       3.097  -2.408   8.704  1.00  0.00     0.000 A 
ENDBRANCH  74  77
BRANCH  75  83
ATOM     83  N   UNL     1      -0.427  -2.641   2.657  1.00  0.00    -0.300 N 
ATOM     84  H   UNL     1      -0.848  -3.201   3.349  1.00  0.00     0.172 HD
BRANCH  83  85
ATOM     85  C   UNL     1      -0.903  -2.725   1.407  1.00  0.00     0.190 A 
ATOM     86  N   UNL     1      -0.154  -2.840   0.339  1.00  0.00    -0.220 NA
ATOM     87  S   UNL     1      -2.595  -2.748   1.089  1.00  0.00    -0.097 S 
ATOM     88  C   UNL     1      -0.903  -2.688  -0.803  1.00  0.00     0.084 A 
ATOM     89  C   UNL     1      -2.275  -2.559  -0.596  1.00  0.00     0.056 A 
ATOM     90  C   UNL     1      -0.399  -2.618  -2.115  1.00  0.00     0.030 A 
ATOM     91  C   UNL     1      -3.157  -2.311  -1.660  1.00  0.00     0.021 A 
ATOM     92  C   UNL     1      -1.256  -2.318  -3.173  1.00  0.00     0.002 A 
ATOM     93  C   UNL     1      -2.618  -2.161  -2.944  1.00  0.00     0.002 A 
ENDBRANCH  83  85
ENDBRANCH  75  83
ENDBRANCH  69  71
ENDBRANCH  68  69
ENDBRANCH  67  68
ENDBRANCH   1  67
TORSDOF 17
