REMARK SMILES C[N@H+]1CCO[C@H](c2noc(-c3ccccc3C(=O)OCCOC(=O)c3ccc(-c4c5nc(c(-c6ccc(S(=O)(=O)[O-])cc6)c6ccc([nH]6)c(-c6ccc(S(=O)(=O)[O-])cc6)c6nc(c(-c7ccc(S(=O)(=O)[O-])cc7)c7ccc4[nH]7)C=C6)C=C5)cc3)n2)C1
REMARK SMILES IDX 21 1 20 2 19 3 17 4 18 5 16 6 11 7 12 8 13 9 15 10 14 11
REMARK SMILES IDX 10 12 7 13 8 14 85 15 9 16 6 17 1 18 2 19 3 20 86 21 4 23
REMARK SMILES IDX 5 24 22 25 23 26 24 27 25 28 26 29 84 30 27 31 83 32 28 33
REMARK SMILES IDX 29 34 30 35 77 36 31 37 82 38 76 39 78 40 32 41 81 42 75 43
REMARK SMILES IDX 74 44 33 46 63 47 44 48 62 49 45 50 48 51 61 52 79 53 46 54
REMARK SMILES IDX 47 55 60 57 80 58 49 59 34 60 35 61 43 62 36 63 42 64 37 65
REMARK SMILES IDX 38 66 39 67 40 68 41 69 64 70 65 71 73 72 66 73 72 74 67 75
REMARK SMILES IDX 68 76 69 77 70 78 71 79 50 80 51 81 59 82 52 83 58 84 53 85
REMARK SMILES IDX 54 86 55 87 56 88 57 89
REMARK H PARENT 2 22 78 45 48 56
REMARK Flexibility Score: inf
ROOT
ATOM      1  C   UNL     1      -4.486   3.844  -1.879  1.00  0.00     0.275 C 
ENDROOT
BRANCH   1   2
ATOM      2  C   UNL     1      -3.917   2.517  -1.387  1.00  0.00     0.275 C 
BRANCH   2   3
ATOM      3  O   UNL     1      -4.383   1.423  -2.203  1.00  0.00    -0.458 OA
BRANCH   3   4
ATOM      4  C   UNL     1      -5.038   0.418  -1.565  1.00  0.00     0.339 C 
ATOM      5  O   UNL     1      -5.414   0.414  -0.411  1.00  0.00    -0.246 OA
BRANCH   4   6
ATOM      6  C   UNL     1      -5.351  -0.684  -2.519  1.00  0.00     0.072 A 
ATOM      7  C   UNL     1      -4.402  -1.203  -3.416  1.00  0.00     0.054 A 
ATOM      8  C   UNL     1      -4.783  -2.238  -4.287  1.00  0.00     0.015 A 
ATOM      9  C   UNL     1      -6.084  -2.750  -4.260  1.00  0.00     0.001 A 
ATOM     10  C   UNL     1      -6.643  -1.232  -2.473  1.00  0.00     0.016 A 
ATOM     11  C   UNL     1      -7.013  -2.248  -3.353  1.00  0.00     0.001 A 
BRANCH   7  12
ATOM     12  C   UNL     1      -3.029  -0.743  -3.381  1.00  0.00     0.258 A 
ATOM     13  C   UNL     1      -1.193   0.128  -2.900  1.00  0.00     0.206 A 
ATOM     14  N   UNL     1      -1.192   0.139  -4.243  1.00  0.00    -0.059 NA
ATOM     15  N   UNL     1      -2.281  -0.482  -2.335  1.00  0.00    -0.189 NA
ATOM     16  O   UNL     1      -2.434  -0.428  -4.567  1.00  0.00    -0.334 OA
BRANCH  13  17
ATOM     17  C   UNL     1      -0.087   0.707  -2.071  1.00  0.00     0.245 C 
ATOM     18  C   UNL     1       1.802   0.259   0.417  1.00  0.00     0.332 C 
ATOM     19  N   UNL     1       0.657   1.159   0.336  1.00  0.00    -0.333 N 
ATOM     20  C   UNL     1       1.023   2.506  -0.141  1.00  0.00     0.290 C 
ATOM     21  C   UNL     1      -0.399   0.606  -0.549  1.00  0.00     0.303 C 
ATOM     22  H   UNL     1       0.302   1.244   1.288  1.00  0.00     0.348 HD
ATOM     23  C   UNL     1       1.273   2.599  -1.655  1.00  0.00     0.222 C 
ATOM     24  O   UNL     1       0.165   2.093  -2.406  1.00  0.00    -0.358 OA
ENDBRANCH  13  17
ENDBRANCH   7  12
ENDBRANCH   4   6
ENDBRANCH   3   4
ENDBRANCH   2   3
ENDBRANCH   1   2
BRANCH   1  25
ATOM     25  O   UNL     1      -5.912   3.845  -1.710  1.00  0.00    -0.458 OA
BRANCH  25  26
ATOM     26  C   UNL     1      -6.612   3.564  -2.831  1.00  0.00     0.338 C 
ATOM     27  O   UNL     1      -6.194   3.444  -3.970  1.00  0.00    -0.246 OA
BRANCH  26  28
ATOM     28  C   UNL     1      -8.003   3.293  -2.461  1.00  0.00     0.060 A 
ATOM     29  C   UNL     1      -8.314   2.020  -1.994  1.00  0.00     0.016 A 
ATOM     30  C   UNL     1      -9.006   4.227  -2.698  1.00  0.00     0.016 A 
ATOM     31  C   UNL     1      -9.640   1.635  -1.846  1.00  0.00     0.010 A 
ATOM     32  C   UNL     1     -10.336   3.868  -2.459  1.00  0.00     0.010 A 
ATOM     33  C   UNL     1     -10.671   2.557  -2.065  1.00  0.00    -0.014 A 
BRANCH  33  34
ATOM     34  C   UNL     1     -12.093   2.143  -1.917  1.00  0.00     0.031 A 
ATOM     35  C   UNL     1     -13.039   2.268  -3.083  1.00  0.00     0.074 A 
ATOM     36  C   UNL     1     -12.538   1.648  -0.744  1.00  0.00     0.049 A 
ATOM     37  N   UNL     1     -14.341   2.139  -3.108  1.00  0.00    -0.248 NA
ATOM     38  C   UNL     1     -12.446   2.595  -4.391  1.00  0.00     0.031 C 
ATOM     39  C   UNL     1     -11.719   1.424   0.451  1.00  0.00     0.029 A 
ATOM     40  N   UNL     1     -13.792   1.239  -0.362  1.00  0.00    -0.354 N 
ATOM     41  C   UNL     1     -14.728   2.430  -4.412  1.00  0.00     0.074 A 
ATOM     42  C   UNL     1     -13.523   2.742  -5.150  1.00  0.00     0.031 C 
ATOM     43  C   UNL     1     -12.480   0.885   1.415  1.00  0.00     0.029 A 
ATOM     44  C   UNL     1     -13.859   0.818   0.946  1.00  0.00     0.049 A 
ATOM     45  H   UNL     1     -14.569   1.246  -0.967  1.00  0.00     0.167 HD
ATOM     46  C   UNL     1     -15.975   2.443  -4.941  1.00  0.00     0.031 A 
ATOM     47  C   UNL     1     -14.914   0.467   1.706  1.00  0.00     0.031 A 
ATOM     48  C   UNL     1     -17.163   2.091  -4.208  1.00  0.00     0.049 A 
ATOM     49  C   UNL     1     -16.291   0.525   1.108  1.00  0.00     0.074 A 
ATOM     50  C   UNL     1     -18.473   2.056  -4.655  1.00  0.00     0.029 A 
ATOM     51  N   UNL     1     -17.186   1.700  -2.877  1.00  0.00    -0.354 N 
ATOM     52  N   UNL     1     -16.644   0.853  -0.112  1.00  0.00    -0.248 NA
ATOM     53  C   UNL     1     -17.412   0.184   1.993  1.00  0.00     0.031 C 
ATOM     54  C   UNL     1     -19.292   1.689  -3.583  1.00  0.00     0.029 A 
ATOM     55  C   UNL     1     -18.487   1.440  -2.482  1.00  0.00     0.049 A 
ATOM     56  H   UNL     1     -16.393   1.620  -2.298  1.00  0.00     0.167 HD
ATOM     57  C   UNL     1     -18.029   0.747  -0.144  1.00  0.00     0.074 A 
ATOM     58  C   UNL     1     -18.446   0.302   1.171  1.00  0.00     0.031 C 
ATOM     59  C   UNL     1     -18.881   1.001  -1.168  1.00  0.00     0.031 A 
BRANCH  46  60
ATOM     60  C   UNL     1     -16.129   2.894  -6.371  1.00  0.00    -0.014 A 
ATOM     61  C   UNL     1     -15.714   2.092  -7.449  1.00  0.00     0.010 A 
ATOM     62  C   UNL     1     -16.749   4.130  -6.639  1.00  0.00     0.010 A 
ATOM     63  C   UNL     1     -15.885   2.533  -8.765  1.00  0.00     0.020 A 
ATOM     64  C   UNL     1     -16.946   4.561  -7.954  1.00  0.00     0.020 A 
ATOM     65  C   UNL     1     -16.498   3.766  -9.010  1.00  0.00     0.054 A 
BRANCH  65  66
ATOM     66  S   UNL     1     -16.734   4.300 -10.728  1.00  0.00     0.124 S 
ATOM     67  O   UNL     1     -15.373   4.657 -11.122  1.00  0.00    -0.237 OA
ATOM     68  O   UNL     1     -17.277   3.102 -11.364  1.00  0.00    -0.237 OA
ATOM     69  O   UNL     1     -17.665   5.420 -10.619  1.00  0.00    -0.744 OA
ENDBRANCH  65  66
ENDBRANCH  46  60
BRANCH  47  70
ATOM     70  C   UNL     1     -14.709   0.091   3.132  1.00  0.00    -0.014 A 
ATOM     71  C   UNL     1     -14.920  -1.228   3.566  1.00  0.00     0.010 A 
ATOM     72  C   UNL     1     -14.277   1.055   4.064  1.00  0.00     0.010 A 
ATOM     73  C   UNL     1     -14.712  -1.575   4.905  1.00  0.00     0.020 A 
ATOM     74  C   UNL     1     -14.037   0.706   5.394  1.00  0.00     0.020 A 
ATOM     75  C   UNL     1     -14.267  -0.606   5.810  1.00  0.00     0.054 A 
BRANCH  75  76
ATOM     76  S   UNL     1     -13.945  -1.090   7.528  1.00  0.00     0.124 S 
ATOM     77  O   UNL     1     -15.296  -1.205   8.069  1.00  0.00    -0.237 OA
ATOM     78  O   UNL     1     -13.216  -2.347   7.373  1.00  0.00    -0.237 OA
ATOM     79  O   UNL     1     -13.152   0.019   8.052  1.00  0.00    -0.744 OA
ENDBRANCH  75  76
ENDBRANCH  47  70
BRANCH  59  80
ATOM     80  C   UNL     1     -20.346   0.771  -0.913  1.00  0.00    -0.014 A 
ATOM     81  C   UNL     1     -21.092   1.653  -0.112  1.00  0.00     0.010 A 
ATOM     82  C   UNL     1     -20.991  -0.323  -1.518  1.00  0.00     0.010 A 
ATOM     83  C   UNL     1     -22.453   1.425   0.108  1.00  0.00     0.020 A 
ATOM     84  C   UNL     1     -22.356  -0.538  -1.323  1.00  0.00     0.020 A 
ATOM     85  C   UNL     1     -23.076   0.329  -0.498  1.00  0.00     0.054 A 
BRANCH  85  86
ATOM     86  S   UNL     1     -24.851   0.074  -0.228  1.00  0.00     0.124 S 
ATOM     87  O   UNL     1     -24.879  -0.435   1.141  1.00  0.00    -0.237 OA
ATOM     88  O   UNL     1     -25.400   1.415  -0.411  1.00  0.00    -0.237 OA
ATOM     89  O   UNL     1     -25.223  -0.892  -1.259  1.00  0.00    -0.744 OA
ENDBRANCH  85  86
ENDBRANCH  59  80
ENDBRANCH  33  34
ENDBRANCH  26  28
ENDBRANCH  25  26
ENDBRANCH   1  25
TORSDOF 16
