REMARK SMILES CCC[NH2+][C@@H]1COC[C@@H]1C(=O)N[C@@](C)(CC)C(=O)OCCOC(=O)c1ccc(-c2c3nc(c(-c4ccc(S(=O)(=O)[O-])cc4)c4ccc([nH]4)c(-c4ccc(S(=O)(=O)[O-])cc4)c4nc(c(-c5ccc(S(=O)(=O)[O-])cc5)c5ccc2[nH]5)C=C4)C=C3)cc1
REMARK SMILES IDX 20 1 19 2 17 3 18 4 13 5 14 6 12 7 10 8 11 9 9 11 5 12 6 13
REMARK SMILES IDX 7 14 8 15 4 16 3 19 2 20 1 21 15 22 16 23 21 24 22 25 23 26
REMARK SMILES IDX 24 27 25 28 26 29 84 30 27 31 83 32 28 33 29 34 30 35 77 36
REMARK SMILES IDX 31 37 82 38 76 39 78 40 32 41 81 42 75 43 74 44 33 46 63 47
REMARK SMILES IDX 44 48 62 49 45 50 48 51 61 52 79 53 46 54 47 55 60 57 80 58
REMARK SMILES IDX 49 59 34 60 35 61 43 62 36 63 42 64 37 65 38 66 39 67 40 68
REMARK SMILES IDX 41 69 64 70 65 71 73 72 66 73 72 74 67 75 68 76 69 77 70 78
REMARK SMILES IDX 71 79 50 80 51 81 59 82 52 83 58 84 53 85 54 86 55 87 56 88
REMARK SMILES IDX 57 89
REMARK H PARENT 12 10 4 17 4 18 78 45 48 56
REMARK Flexibility Score: inf
ROOT
ATOM      1  C   UNL     1       4.573  -1.502  -7.056  1.00  0.00     0.274 C 
ENDROOT
BRANCH   1   2
ATOM      2  O   UNL     1       5.328  -1.029  -5.932  1.00  0.00    -0.460 OA
BRANCH   2   3
ATOM      3  C   UNL     1       4.686  -0.142  -5.127  1.00  0.00     0.331 C 
ATOM      4  O   UNL     1       3.838   0.647  -5.527  1.00  0.00    -0.249 OA
BRANCH   3   5
ATOM      5  C   UNL     1       5.031  -0.387  -3.638  1.00  0.00     0.135 C 
ATOM      6  C   UNL     1       4.981   0.957  -2.888  1.00  0.00     0.047 C 
BRANCH   5   7
ATOM      7  N   UNL     1       4.071  -1.320  -2.976  1.00  0.00    -0.340 N 
ATOM      8  C   UNL     1       2.711  -1.345  -2.819  1.00  0.00     0.232 C 
ATOM      9  O   UNL     1       2.329  -1.808  -1.739  1.00  0.00    -0.274 OA
ATOM     10  H   UNL     1       4.517  -2.092  -2.557  1.00  0.00     0.164 HD
BRANCH   8  11
ATOM     11  C   UNL     1       1.701  -0.908  -3.889  1.00  0.00     0.164 C 
ATOM     12  C   UNL     1       0.238  -0.793  -3.426  1.00  0.00     0.223 C 
ATOM     13  C   UNL     1      -0.311  -2.195  -3.671  1.00  0.00     0.225 C 
ATOM     14  O   UNL     1       0.250  -2.560  -4.934  1.00  0.00    -0.374 OA
ATOM     15  C   UNL     1       1.561  -1.972  -4.974  1.00  0.00     0.180 C 
BRANCH  12  16
ATOM     16  N   UNL     1      -0.035  -0.301  -2.084  1.00  0.00    -0.341 N 
ATOM     17  H   UNL     1      -1.037  -0.369  -1.905  1.00  0.00     0.346 HD
ATOM     18  H   UNL     1       0.498  -0.870  -1.426  1.00  0.00     0.346 HD
BRANCH  16  19
ATOM     19  C   UNL     1       0.378   1.087  -1.915  1.00  0.00     0.260 C 
BRANCH  19  20
ATOM     20  C   UNL     1       0.116   1.569  -0.490  1.00  0.00     0.058 C 
ATOM     21  C   UNL     1       0.881   0.780   0.564  1.00  0.00     0.010 C 
ENDBRANCH  19  20
ENDBRANCH  16  19
ENDBRANCH  12  16
ENDBRANCH   8  11
ENDBRANCH   5   7
BRANCH   5  22
ATOM     22  C   UNL     1       6.531  -0.877  -3.519  1.00  0.00     0.037 C 
ATOM     23  C   UNL     1       6.779  -2.365  -3.314  1.00  0.00     0.007 C 
ENDBRANCH   5  22
ENDBRANCH   3   5
ENDBRANCH   2   3
ENDBRANCH   1   2
BRANCH   1  24
ATOM     24  C   UNL     1       4.599  -3.030  -6.984  1.00  0.00     0.275 C 
BRANCH  24  25
ATOM     25  O   UNL     1       4.161  -3.435  -5.671  1.00  0.00    -0.458 OA
BRANCH  25  26
ATOM     26  C   UNL     1       4.237  -4.759  -5.394  1.00  0.00     0.338 C 
ATOM     27  O   UNL     1       4.749  -5.614  -6.096  1.00  0.00    -0.246 OA
BRANCH  26  28
ATOM     28  C   UNL     1       3.451  -5.028  -4.165  1.00  0.00     0.060 A 
ATOM     29  C   UNL     1       3.886  -4.608  -2.905  1.00  0.00     0.016 A 
ATOM     30  C   UNL     1       2.225  -5.683  -4.285  1.00  0.00     0.016 A 
ATOM     31  C   UNL     1       3.100  -4.830  -1.766  1.00  0.00     0.010 A 
ATOM     32  C   UNL     1       1.438  -5.910  -3.147  1.00  0.00     0.010 A 
ATOM     33  C   UNL     1       1.877  -5.502  -1.874  1.00  0.00    -0.014 A 
BRANCH  33  34
ATOM     34  C   UNL     1       1.206  -6.026  -0.652  1.00  0.00     0.031 A 
ATOM     35  C   UNL     1       1.544  -7.434  -0.239  1.00  0.00     0.074 A 
ATOM     36  C   UNL     1       0.358  -5.301   0.104  1.00  0.00     0.049 A 
ATOM     37  N   UNL     1       1.080  -8.145   0.755  1.00  0.00    -0.248 NA
ATOM     38  C   UNL     1       2.561  -8.124  -1.053  1.00  0.00     0.031 C 
ATOM     39  C   UNL     1       0.017  -3.898  -0.103  1.00  0.00     0.029 A 
ATOM     40  N   UNL     1      -0.380  -5.656   1.210  1.00  0.00    -0.354 N 
ATOM     41  C   UNL     1       1.760  -9.354   0.696  1.00  0.00     0.074 A 
ATOM     42  C   UNL     1       2.634  -9.300  -0.454  1.00  0.00     0.031 C 
ATOM     43  C   UNL     1      -0.889  -3.518   0.816  1.00  0.00     0.029 A 
ATOM     44  C   UNL     1      -1.198  -4.653   1.682  1.00  0.00     0.049 A 
ATOM     45  H   UNL     1      -0.327  -6.547   1.627  1.00  0.00     0.167 HD
ATOM     46  C   UNL     1       1.685 -10.415   1.532  1.00  0.00     0.031 A 
ATOM     47  C   UNL     1      -2.093  -4.654   2.692  1.00  0.00     0.031 A 
ATOM     48  C   UNL     1       0.794 -10.502   2.651  1.00  0.00     0.049 A 
ATOM     49  C   UNL     1      -2.265  -5.904   3.524  1.00  0.00     0.074 A 
ATOM     50  C   UNL     1       0.598 -11.562   3.517  1.00  0.00     0.029 A 
ATOM     51  N   UNL     1      -0.055  -9.485   3.058  1.00  0.00    -0.354 N 
ATOM     52  N   UNL     1      -1.617  -7.042   3.451  1.00  0.00    -0.248 NA
ATOM     53  C   UNL     1      -3.280  -5.861   4.589  1.00  0.00     0.031 C 
ATOM     54  C   UNL     1      -0.397 -11.197   4.431  1.00  0.00     0.029 A 
ATOM     55  C   UNL     1      -0.783  -9.893   4.160  1.00  0.00     0.049 A 
ATOM     56  H   UNL     1      -0.128  -8.602   2.627  1.00  0.00     0.167 HD
ATOM     57  C   UNL     1      -2.107  -7.826   4.492  1.00  0.00     0.074 A 
ATOM     58  C   UNL     1      -3.108  -7.037   5.177  1.00  0.00     0.031 C 
ATOM     59  C   UNL     1      -1.751  -9.083   4.854  1.00  0.00     0.031 A 
BRANCH  46  60
ATOM     60  C   UNL     1       2.587 -11.574   1.219  1.00  0.00    -0.014 A 
ATOM     61  C   UNL     1       3.969 -11.491   1.470  1.00  0.00     0.010 A 
ATOM     62  C   UNL     1       2.060 -12.731   0.623  1.00  0.00     0.010 A 
ATOM     63  C   UNL     1       4.818 -12.526   1.076  1.00  0.00     0.020 A 
ATOM     64  C   UNL     1       2.904 -13.779   0.248  1.00  0.00     0.020 A 
ATOM     65  C   UNL     1       4.281 -13.658   0.455  1.00  0.00     0.054 A 
BRANCH  65  66
ATOM     66  S   UNL     1       5.408 -14.975  -0.077  1.00  0.00     0.124 S 
ATOM     67  O   UNL     1       6.010 -14.390  -1.272  1.00  0.00    -0.237 OA
ATOM     68  O   UNL     1       6.301 -15.118   1.070  1.00  0.00    -0.237 OA
ATOM     69  O   UNL     1       4.522 -16.112  -0.318  1.00  0.00    -0.744 OA
ENDBRANCH  65  66
ENDBRANCH  46  60
BRANCH  47  70
ATOM     70  C   UNL     1      -2.915  -3.446   2.995  1.00  0.00    -0.014 A 
ATOM     71  C   UNL     1      -2.729  -2.736   4.196  1.00  0.00     0.010 A 
ATOM     72  C   UNL     1      -3.947  -3.050   2.125  1.00  0.00     0.010 A 
ATOM     73  C   UNL     1      -3.589  -1.687   4.543  1.00  0.00     0.020 A 
ATOM     74  C   UNL     1      -4.794  -1.986   2.457  1.00  0.00     0.020 A 
ATOM     75  C   UNL     1      -4.623  -1.326   3.676  1.00  0.00     0.054 A 
BRANCH  75  76
ATOM     76  S   UNL     1      -5.740   0.024   4.156  1.00  0.00     0.124 S 
ATOM     77  O   UNL     1      -6.558  -0.611   5.185  1.00  0.00    -0.237 OA
ATOM     78  O   UNL     1      -4.813   1.049   4.629  1.00  0.00    -0.237 OA
ATOM     79  O   UNL     1      -6.438   0.350   2.915  1.00  0.00    -0.744 OA
ENDBRANCH  75  76
ENDBRANCH  47  70
BRANCH  59  80
ATOM     80  C   UNL     1      -2.385  -9.669   6.086  1.00  0.00    -0.014 A 
ATOM     81  C   UNL     1      -3.714 -10.125   6.082  1.00  0.00     0.010 A 
ATOM     82  C   UNL     1      -1.602  -9.844   7.243  1.00  0.00     0.010 A 
ATOM     83  C   UNL     1      -4.254 -10.733   7.220  1.00  0.00     0.020 A 
ATOM     84  C   UNL     1      -2.130 -10.471   8.373  1.00  0.00     0.020 A 
ATOM     85  C   UNL     1      -3.457 -10.905   8.357  1.00  0.00     0.054 A 
BRANCH  85  86
ATOM     86  S   UNL     1      -4.154 -11.764   9.796  1.00  0.00     0.124 S 
ATOM     87  O   UNL     1      -4.997 -10.730  10.389  1.00  0.00    -0.237 OA
ATOM     88  O   UNL     1      -4.867 -12.885   9.188  1.00  0.00    -0.237 OA
ATOM     89  O   UNL     1      -2.977 -12.135  10.579  1.00  0.00    -0.744 OA
ENDBRANCH  85  86
ENDBRANCH  59  80
ENDBRANCH  33  34
ENDBRANCH  26  28
ENDBRANCH  25  26
ENDBRANCH  24  25
ENDBRANCH   1  24
TORSDOF 20
