REMARK SMILES COc1cccc(-c2nn(-c3cc4c(cc3C(N)=O)OCO4)cc2C(=O)OCCOC(=O)c2ccc(-c3c4nc(c(-c5ccc(S(=O)(=O)[O-])cc5)c5ccc([nH]5)c(-c5ccc(S(=O)(=O)[O-])cc5)c5nc(c(-c6ccc(S(=O)(=O)[O-])cc6)c6ccc3[nH]6)C=C5)C=C4)cc2)c1
REMARK SMILES IDX 29 1 28 2 27 3 25 4 26 5 24 6 8 7 9 8 10 9 23 10 7 11 3 12
REMARK SMILES IDX 4 13 93 14 5 15 6 16 2 17 1 18 11 19 12 20 16 21 13 22 15 23
REMARK SMILES IDX 14 24 22 25 20 26 21 27 17 28 18 29 19 30 30 33 31 34 32 35
REMARK SMILES IDX 33 36 34 37 92 38 35 39 91 40 36 41 37 42 38 43 85 44 39 45
REMARK SMILES IDX 90 46 84 47 86 48 40 49 89 50 83 51 82 52 41 54 71 55 52 56
REMARK SMILES IDX 70 57 53 58 56 59 69 60 87 61 54 62 55 63 68 65 88 66 57 67
REMARK SMILES IDX 42 68 43 69 51 70 44 71 50 72 45 73 46 74 47 75 48 76 49 77
REMARK SMILES IDX 72 78 73 79 81 80 74 81 80 82 75 83 76 84 77 85 78 86 79 87
REMARK SMILES IDX 58 88 59 89 67 90 60 91 66 92 61 93 62 94 63 95 64 96 65 97
REMARK H PARENT 18 31 18 32 86 53 56 64
REMARK Flexibility Score: inf
ROOT
ATOM      1  C   UNL     1       3.122   8.274   2.918  1.00  0.00     0.275 C 
ENDROOT
BRANCH   1   2
ATOM      2  C   UNL     1       3.793   6.947   3.263  1.00  0.00     0.275 C 
BRANCH   2   3
ATOM      3  O   UNL     1       4.435   6.340   2.128  1.00  0.00    -0.458 OA
BRANCH   3   4
ATOM      4  C   UNL     1       3.724   5.427   1.392  1.00  0.00     0.342 C 
ATOM      5  O   UNL     1       2.590   5.049   1.677  1.00  0.00    -0.246 OA
BRANCH   4   6
ATOM      6  C   UNL     1       4.478   4.939   0.254  1.00  0.00     0.106 A 
ATOM      7  C   UNL     1       4.121   4.072  -0.824  1.00  0.00     0.107 A 
ATOM      8  N   UNL     1       5.185   3.810  -1.612  1.00  0.00    -0.167 NA
ATOM      9  N   UNL     1       6.224   4.359  -0.942  1.00  0.00    -0.239 N 
ATOM     10  C   UNL     1       5.796   5.254  -0.004  1.00  0.00     0.131 A 
BRANCH   7  11
ATOM     11  C   UNL     1       2.805   3.533  -1.151  1.00  0.00     0.007 A 
ATOM     12  C   UNL     1       1.059   1.870  -0.876  1.00  0.00     0.119 A 
ATOM     13  C   UNL     1       0.231   2.620  -1.718  1.00  0.00     0.046 A 
ATOM     14  C   UNL     1       2.342   2.339  -0.574  1.00  0.00     0.056 A 
ATOM     15  C   UNL     1       0.694   3.792  -2.312  1.00  0.00     0.005 A 
ATOM     16  C   UNL     1       1.991   4.228  -2.053  1.00  0.00     0.011 A 
BRANCH  12  17
ATOM     17  O   UNL     1       0.490   0.704  -0.441  1.00  0.00    -0.497 OA
ATOM     18  C   UNL     1       1.252  -0.122   0.424  1.00  0.00     0.278 C 
ENDBRANCH  12  17
ENDBRANCH   7  11
BRANCH   9  19
ATOM     19  C   UNL     1       7.571   4.052  -1.250  1.00  0.00     0.081 A 
ATOM     20  C   UNL     1       7.917   3.928  -2.611  1.00  0.00     0.079 A 
ATOM     21  C   UNL     1       8.552   3.885  -0.225  1.00  0.00     0.069 A 
ATOM     22  C   UNL     1       9.243   3.703  -2.911  1.00  0.00     0.167 A 
ATOM     23  C   UNL     1       9.904   3.778  -0.596  1.00  0.00     0.066 A 
ATOM     24  C   UNL     1      10.206   3.659  -1.933  1.00  0.00     0.166 A 
ATOM     25  O   UNL     1       9.768   3.489  -4.148  1.00  0.00    -0.454 OA
ATOM     26  O   UNL     1      11.448   3.409  -2.431  1.00  0.00    -0.454 OA
ATOM     27  C   UNL     1      11.111   3.096  -3.799  1.00  0.00     0.468 C 
BRANCH  21  28
ATOM     28  C   UNL     1       8.183   3.572   1.206  1.00  0.00     0.251 C 
ATOM     29  N   UNL     1       9.151   3.079   2.039  1.00  0.00    -0.366 N 
ATOM     30  O   UNL     1       7.052   3.635   1.665  1.00  0.00    -0.269 OA
ATOM     31  H   UNL     1      10.081   3.006   1.724  1.00  0.00     0.159 HD
ATOM     32  H   UNL     1       8.917   2.799   2.954  1.00  0.00     0.159 HD
ENDBRANCH  21  28
ENDBRANCH   9  19
ENDBRANCH   4   6
ENDBRANCH   3   4
ENDBRANCH   2   3
ENDBRANCH   1   2
BRANCH   1  33
ATOM     33  O   UNL     1       1.970   8.070   2.106  1.00  0.00    -0.458 OA
BRANCH  33  34
ATOM     34  C   UNL     1       2.249   8.025   0.786  1.00  0.00     0.338 C 
ATOM     35  O   UNL     1       3.350   8.048   0.261  1.00  0.00    -0.246 OA
BRANCH  34  36
ATOM     36  C   UNL     1       1.012   8.040   0.015  1.00  0.00     0.060 A 
ATOM     37  C   UNL     1       1.111   7.643  -1.321  1.00  0.00     0.016 A 
ATOM     38  C   UNL     1      -0.126   8.667   0.531  1.00  0.00     0.016 A 
ATOM     39  C   UNL     1       0.117   8.009  -2.194  1.00  0.00     0.010 A 
ATOM     40  C   UNL     1      -1.115   9.046  -0.343  1.00  0.00     0.010 A 
ATOM     41  C   UNL     1      -0.934   8.781  -1.701  1.00  0.00    -0.014 A 
BRANCH  41  42
ATOM     42  C   UNL     1      -1.863   9.331  -2.663  1.00  0.00     0.031 A 
ATOM     43  C   UNL     1      -2.811   8.317  -3.185  1.00  0.00     0.074 A 
ATOM     44  C   UNL     1      -1.847  10.657  -2.912  1.00  0.00     0.049 A 
ATOM     45  N   UNL     1      -2.955   7.905  -4.400  1.00  0.00    -0.248 NA
ATOM     46  C   UNL     1      -3.573   7.527  -2.197  1.00  0.00     0.031 C 
ATOM     47  C   UNL     1      -1.091  11.686  -2.179  1.00  0.00     0.029 A 
ATOM     48  N   UNL     1      -2.596  11.398  -3.766  1.00  0.00    -0.354 N 
ATOM     49  C   UNL     1      -4.001   6.984  -4.358  1.00  0.00     0.074 A 
ATOM     50  C   UNL     1      -4.194   6.643  -2.976  1.00  0.00     0.031 C 
ATOM     51  C   UNL     1      -1.634  12.899  -2.423  1.00  0.00     0.029 A 
ATOM     52  C   UNL     1      -2.662  12.749  -3.437  1.00  0.00     0.049 A 
ATOM     53  H   UNL     1      -3.053  11.014  -4.550  1.00  0.00     0.167 HD
ATOM     54  C   UNL     1      -4.835   6.824  -5.422  1.00  0.00     0.031 A 
ATOM     55  C   UNL     1      -3.564  13.648  -3.906  1.00  0.00     0.031 A 
ATOM     56  C   UNL     1      -4.263   7.382  -6.616  1.00  0.00     0.049 A 
ATOM     57  C   UNL     1      -4.146  13.065  -5.138  1.00  0.00     0.074 A 
ATOM     58  C   UNL     1      -3.271   7.027  -7.501  1.00  0.00     0.029 A 
ATOM     59  N   UNL     1      -4.492   8.727  -6.763  1.00  0.00    -0.354 N 
ATOM     60  N   UNL     1      -3.445  12.812  -6.210  1.00  0.00    -0.248 NA
ATOM     61  C   UNL     1      -5.425  12.371  -5.055  1.00  0.00     0.031 C 
ATOM     62  C   UNL     1      -2.749   8.253  -8.007  1.00  0.00     0.029 A 
ATOM     63  C   UNL     1      -3.478   9.316  -7.468  1.00  0.00     0.049 A 
ATOM     64  H   UNL     1      -5.278   9.203  -6.410  1.00  0.00     0.167 HD
ATOM     65  C   UNL     1      -3.983  11.642  -6.716  1.00  0.00     0.074 A 
ATOM     66  C   UNL     1      -5.283  11.508  -6.066  1.00  0.00     0.031 C 
ATOM     67  C   UNL     1      -3.204  10.738  -7.379  1.00  0.00     0.031 A 
BRANCH  54  68
ATOM     68  C   UNL     1      -6.335   6.665  -5.272  1.00  0.00    -0.014 A 
ATOM     69  C   UNL     1      -7.125   6.537  -6.433  1.00  0.00     0.010 A 
ATOM     70  C   UNL     1      -7.021   6.934  -4.067  1.00  0.00     0.010 A 
ATOM     71  C   UNL     1      -8.516   6.713  -6.394  1.00  0.00     0.020 A 
ATOM     72  C   UNL     1      -8.408   7.077  -4.010  1.00  0.00     0.020 A 
ATOM     73  C   UNL     1      -9.147   6.991  -5.181  1.00  0.00     0.054 A 
BRANCH  73  74
ATOM     74  S   UNL     1     -10.931   7.293  -5.150  1.00  0.00     0.124 S 
ATOM     75  O   UNL     1     -11.047   8.518  -5.933  1.00  0.00    -0.237 OA
ATOM     76  O   UNL     1     -11.459   6.085  -5.779  1.00  0.00    -0.237 OA
ATOM     77  O   UNL     1     -11.231   7.428  -3.726  1.00  0.00    -0.744 OA
ENDBRANCH  73  74
ENDBRANCH  54  68
BRANCH  55  78
ATOM     78  C   UNL     1      -4.222  14.744  -3.143  1.00  0.00    -0.014 A 
ATOM     79  C   UNL     1      -4.904  15.789  -3.796  1.00  0.00     0.010 A 
ATOM     80  C   UNL     1      -4.420  14.606  -1.753  1.00  0.00     0.010 A 
ATOM     81  C   UNL     1      -5.791  16.627  -3.093  1.00  0.00     0.020 A 
ATOM     82  C   UNL     1      -5.300  15.436  -1.047  1.00  0.00     0.020 A 
ATOM     83  C   UNL     1      -5.998  16.432  -1.724  1.00  0.00     0.054 A 
BRANCH  83  84
ATOM     84  S   UNL     1      -7.266  17.408  -0.856  1.00  0.00     0.124 S 
ATOM     85  O   UNL     1      -6.679  18.745  -0.850  1.00  0.00    -0.237 OA
ATOM     86  O   UNL     1      -8.438  17.238  -1.708  1.00  0.00    -0.237 OA
ATOM     87  O   UNL     1      -7.357  16.767   0.455  1.00  0.00    -0.744 OA
ENDBRANCH  83  84
ENDBRANCH  55  78
BRANCH  67  88
ATOM     88  C   UNL     1      -1.897  11.216  -7.958  1.00  0.00    -0.014 A 
ATOM     89  C   UNL     1      -0.775  11.606  -7.202  1.00  0.00     0.010 A 
ATOM     90  C   UNL     1      -1.776  11.144  -9.356  1.00  0.00     0.010 A 
ATOM     91  C   UNL     1       0.434  11.930  -7.841  1.00  0.00     0.020 A 
ATOM     92  C   UNL     1      -0.575  11.445  -9.994  1.00  0.00     0.020 A 
ATOM     93  C   UNL     1       0.524  11.846  -9.236  1.00  0.00     0.054 A 
BRANCH  93  94
ATOM     94  S   UNL     1       2.093  12.228 -10.065  1.00  0.00     0.124 S 
ATOM     95  O   UNL     1       2.222  13.668  -9.855  1.00  0.00    -0.237 OA
ATOM     96  O   UNL     1       3.054  11.398  -9.344  1.00  0.00    -0.237 OA
ATOM     97  O   UNL     1       1.860  11.826 -11.453  1.00  0.00    -0.744 OA
ENDBRANCH  93  94
ENDBRANCH  67  88
ENDBRANCH  41  42
ENDBRANCH  34  36
ENDBRANCH  33  34
ENDBRANCH   1  33
TORSDOF 18
