REMARK SMILES O=C(OCCOC(=O)c1cc(-c2cccc(C(F)(F)F)c2)nc2c(F)cccc12)c1ccc(-c2c3nc(c(-c4ccc(S(=O)(=O)[O-])cc4)c4ccc([nH]4)c(-c4ccc(S(=O)(=O)[O-])cc4)c4nc(c(-c5ccc(S(=O)(=O)[O-])cc5)c5ccc2[nH]5)C=C4)C=C3)cc1
REMARK SMILES IDX 4 1 3 2 2 3 1 4 30 5 31 6 89 7 32 8 88 9 33 10 34 11 35 12
REMARK SMILES IDX 82 13 36 14 87 15 81 16 83 17 37 18 86 19 80 20 79 21 38 23
REMARK SMILES IDX 68 24 49 25 67 26 50 27 53 28 66 29 84 30 51 31 52 32 65 34
REMARK SMILES IDX 85 35 54 36 39 37 40 38 48 39 41 40 47 41 42 42 43 43 44 44
REMARK SMILES IDX 45 45 46 46 69 47 70 48 78 49 71 50 77 51 72 52 73 53 74 54
REMARK SMILES IDX 75 55 76 56 55 57 56 58 64 59 57 60 63 61 58 62 59 63 60 64
REMARK SMILES IDX 61 65 62 66 5 67 6 68 7 69 8 70 9 71 10 72 29 73 11 74 23 75
REMARK SMILES IDX 28 76 22 77 24 78 27 79 25 80 26 81 12 82 13 83 21 84 14 85
REMARK SMILES IDX 16 86 15 87 17 88 18 89 19 90 20 91
REMARK H PARENT 83 22 53 33
REMARK Flexibility Score: inf
ROOT
ATOM      1  C   UNL     1       4.397   0.415   1.486  1.00  0.00     0.275 C 
ENDROOT
BRANCH   1   2
ATOM      2  O   UNL     1       3.398   1.002   0.637  1.00  0.00    -0.458 OA
BRANCH   2   3
ATOM      3  C   UNL     1       3.284   0.975  -0.712  1.00  0.00     0.338 C 
ATOM      4  O   UNL     1       2.442   1.705  -1.234  1.00  0.00    -0.246 OA
BRANCH   3   5
ATOM      5  C   UNL     1       4.004  -0.001  -1.600  1.00  0.00     0.060 A 
ATOM      6  C   UNL     1       5.207  -0.657  -1.337  1.00  0.00     0.016 A 
ATOM      7  C   UNL     1       3.364  -0.297  -2.815  1.00  0.00     0.016 A 
ATOM      8  C   UNL     1       5.708  -1.634  -2.208  1.00  0.00     0.010 A 
ATOM      9  C   UNL     1       3.834  -1.296  -3.671  1.00  0.00     0.010 A 
ATOM     10  C   UNL     1       5.020  -1.973  -3.371  1.00  0.00    -0.014 A 
BRANCH  10  11
ATOM     11  C   UNL     1       5.600  -2.918  -4.351  1.00  0.00     0.031 A 
ATOM     12  C   UNL     1       6.158  -2.369  -5.629  1.00  0.00     0.074 A 
ATOM     13  C   UNL     1       5.673  -4.241  -4.109  1.00  0.00     0.049 A 
ATOM     14  N   UNL     1       6.688  -3.018  -6.629  1.00  0.00    -0.248 NA
ATOM     15  C   UNL     1       6.184  -0.903  -5.774  1.00  0.00     0.031 C 
ATOM     16  C   UNL     1       5.346  -4.893  -2.845  1.00  0.00     0.029 A 
ATOM     17  N   UNL     1       6.019  -5.284  -4.935  1.00  0.00    -0.354 N 
ATOM     18  C   UNL     1       7.167  -2.043  -7.490  1.00  0.00     0.074 A 
ATOM     19  C   UNL     1       6.795  -0.759  -6.940  1.00  0.00     0.031 C 
ATOM     20  C   UNL     1       5.402  -6.225  -3.013  1.00  0.00     0.029 A 
ATOM     21  C   UNL     1       5.718  -6.516  -4.399  1.00  0.00     0.049 A 
ATOM     22  H   UNL     1       6.438  -5.163  -5.817  1.00  0.00     0.167 HD
ATOM     23  C   UNL     1       7.897  -2.212  -8.613  1.00  0.00     0.031 A 
ATOM     24  C   UNL     1       5.649  -7.731  -4.973  1.00  0.00     0.031 A 
ATOM     25  C   UNL     1       8.233  -3.495  -9.162  1.00  0.00     0.049 A 
ATOM     26  C   UNL     1       6.175  -7.881  -6.367  1.00  0.00     0.074 A 
ATOM     27  C   UNL     1       9.006  -3.779 -10.272  1.00  0.00     0.029 A 
ATOM     28  N   UNL     1       7.780  -4.708  -8.664  1.00  0.00    -0.354 N 
ATOM     29  N   UNL     1       6.699  -6.960  -7.136  1.00  0.00    -0.248 NA
ATOM     30  C   UNL     1       6.179  -9.232  -6.941  1.00  0.00     0.031 C 
ATOM     31  C   UNL     1       8.952  -5.159 -10.494  1.00  0.00     0.029 A 
ATOM     32  C   UNL     1       8.197  -5.739  -9.486  1.00  0.00     0.049 A 
ATOM     33  H   UNL     1       7.243  -4.818  -7.847  1.00  0.00     0.167 HD
ATOM     34  C   UNL     1       7.170  -7.630  -8.253  1.00  0.00     0.074 A 
ATOM     35  C   UNL     1       6.837  -9.030  -8.075  1.00  0.00     0.031 C 
ATOM     36  C   UNL     1       7.856  -7.128  -9.306  1.00  0.00     0.031 A 
BRANCH  23  37
ATOM     37  C   UNL     1       8.359  -0.976  -9.323  1.00  0.00    -0.014 A 
ATOM     38  C   UNL     1       9.400  -0.187  -8.800  1.00  0.00     0.010 A 
ATOM     39  C   UNL     1       7.764  -0.616 -10.543  1.00  0.00     0.010 A 
ATOM     40  C   UNL     1       9.827   0.955  -9.482  1.00  0.00     0.020 A 
ATOM     41  C   UNL     1       8.200   0.514 -11.236  1.00  0.00     0.020 A 
ATOM     42  C   UNL     1       9.224   1.296 -10.697  1.00  0.00     0.054 A 
BRANCH  42  43
ATOM     43  S   UNL     1       9.827   2.759 -11.582  1.00  0.00     0.124 S 
ATOM     44  O   UNL     1       9.338   3.846 -10.737  1.00  0.00    -0.237 OA
ATOM     45  O   UNL     1      11.274   2.561 -11.574  1.00  0.00    -0.237 OA
ATOM     46  O   UNL     1       9.193   2.657 -12.894  1.00  0.00    -0.744 OA
ENDBRANCH  42  43
ENDBRANCH  23  37
BRANCH  24  47
ATOM     47  C   UNL     1       5.015  -8.882  -4.274  1.00  0.00    -0.014 A 
ATOM     48  C   UNL     1       5.777  -9.921  -3.718  1.00  0.00     0.010 A 
ATOM     49  C   UNL     1       3.610  -8.965  -4.225  1.00  0.00     0.010 A 
ATOM     50  C   UNL     1       5.146 -11.032  -3.144  1.00  0.00     0.020 A 
ATOM     51  C   UNL     1       2.975 -10.066  -3.640  1.00  0.00     0.020 A 
ATOM     52  C   UNL     1       3.749 -11.100  -3.113  1.00  0.00     0.054 A 
BRANCH  52  53
ATOM     53  S   UNL     1       2.957 -12.543  -2.345  1.00  0.00     0.124 S 
ATOM     54  O   UNL     1       3.176 -13.581  -3.347  1.00  0.00    -0.237 OA
ATOM     55  O   UNL     1       3.712 -12.690  -1.103  1.00  0.00    -0.237 OA
ATOM     56  O   UNL     1       1.569 -12.118  -2.171  1.00  0.00    -0.744 OA
ENDBRANCH  52  53
ENDBRANCH  24  47
BRANCH  36  57
ATOM     57  C   UNL     1       8.340  -8.103 -10.336  1.00  0.00    -0.014 A 
ATOM     58  C   UNL     1       7.450  -8.701 -11.243  1.00  0.00     0.010 A 
ATOM     59  C   UNL     1       9.718  -8.367 -10.438  1.00  0.00     0.010 A 
ATOM     60  C   UNL     1       7.933  -9.556 -12.234  1.00  0.00     0.020 A 
ATOM     61  C   UNL     1      10.206  -9.197 -11.447  1.00  0.00     0.020 A 
ATOM     62  C   UNL     1       9.308  -9.790 -12.335  1.00  0.00     0.054 A 
BRANCH  62  63
ATOM     63  S   UNL     1       9.915 -10.832 -13.688  1.00  0.00     0.124 S 
ATOM     64  O   UNL     1       9.508 -12.165 -13.251  1.00  0.00    -0.237 OA
ATOM     65  O   UNL     1       9.197 -10.303 -14.845  1.00  0.00    -0.237 OA
ATOM     66  O   UNL     1      11.356 -10.591 -13.692  1.00  0.00    -0.744 OA
ENDBRANCH  62  63
ENDBRANCH  36  57
ENDBRANCH  10  11
ENDBRANCH   3   5
ENDBRANCH   2   3
ENDBRANCH   1   2
BRANCH   1  67
ATOM     67  C   UNL     1       4.098  -1.026   1.909  1.00  0.00     0.275 C 
BRANCH  67  68
ATOM     68  O   UNL     1       3.588  -1.837   0.840  1.00  0.00    -0.458 OA
BRANCH  68  69
ATOM     69  C   UNL     1       2.240  -1.961   0.798  1.00  0.00     0.339 C 
ATOM     70  O   UNL     1       1.438  -1.486   1.596  1.00  0.00    -0.246 OA
BRANCH  69  71
ATOM     71  C   UNL     1       1.825  -2.645  -0.438  1.00  0.00     0.071 A 
ATOM     72  C   UNL     1       0.948  -1.933  -1.263  1.00  0.00     0.045 A 
ATOM     73  C   UNL     1       2.188  -3.978  -0.733  1.00  0.00     0.018 A 
ATOM     74  C   UNL     1       0.484  -2.547  -2.408  1.00  0.00     0.072 A 
ATOM     75  C   UNL     1       1.652  -4.516  -1.921  1.00  0.00     0.107 A 
ATOM     76  C   UNL     1       2.994  -4.801   0.097  1.00  0.00     0.011 A 
ATOM     77  N   UNL     1       0.847  -3.805  -2.735  1.00  0.00    -0.245 NA
ATOM     78  C   UNL     1       1.926  -5.848  -2.222  1.00  0.00     0.149 A 
ATOM     79  C   UNL     1       3.224  -6.138  -0.220  1.00  0.00     0.004 A 
ATOM     80  F   UNL     1       1.448  -6.386  -3.357  1.00  0.00    -0.205 F 
ATOM     81  C   UNL     1       2.669  -6.667  -1.376  1.00  0.00     0.041 A 
BRANCH  74  82
ATOM     82  C   UNL     1      -0.539  -1.953  -3.276  1.00  0.00     0.001 A 
ATOM     83  C   UNL     1      -0.375  -0.720  -3.921  1.00  0.00     0.010 A 
ATOM     84  C   UNL     1      -1.751  -2.638  -3.469  1.00  0.00     0.023 A 
ATOM     85  C   UNL     1      -1.385  -0.182  -4.722  1.00  0.00     0.001 A 
ATOM     86  C   UNL     1      -2.785  -2.103  -4.252  1.00  0.00     0.056 A 
ATOM     87  C   UNL     1      -2.589  -0.866  -4.878  1.00  0.00     0.013 A 
BRANCH  86  88
ATOM     88  C   UNL     1      -4.100  -2.824  -4.382  1.00  0.00     0.416 C 
ATOM     89  F   UNL     1      -5.099  -2.183  -3.709  1.00  0.00    -0.166 F 
ATOM     90  F   UNL     1      -4.529  -2.921  -5.671  1.00  0.00    -0.166 F 
ATOM     91  F   UNL     1      -4.087  -4.095  -3.894  1.00  0.00    -0.166 F 
ENDBRANCH  86  88
ENDBRANCH  74  82
ENDBRANCH  69  71
ENDBRANCH  68  69
ENDBRANCH  67  68
ENDBRANCH   1  67
TORSDOF 16
