REMARK SMILES Cc1ccc(Cn2c(C)c(C[NH2+]C[C@@H]3CCCO3)c(C(=O)OCCOC(=O)c3ccc(-c4c5nc(c(-c6ccc(S(=O)(=O)[O-])cc6)c6ccc([nH]6)c(-c6ccc(S(=O)(=O)[O-])cc6)c6nc(c(-c7ccc(S(=O)(=O)[O-])cc7)c7ccc4[nH]7)C=C6)C=C5)cc3)c2C)cc1
REMARK SMILES IDX 23 1 22 2 20 3 21 4 19 5 7 6 8 7 88 8 9 9 10 10 89 11 6 12
REMARK SMILES IDX 5 13 1 14 2 15 3 16 91 17 4 18 90 19 11 20 12 21 13 24 14 25
REMARK SMILES IDX 15 26 18 27 16 28 17 29 24 30 25 31 26 32 27 33 28 34 29 35
REMARK SMILES IDX 87 36 30 37 86 38 31 39 32 40 33 41 80 42 34 43 85 44 79 45
REMARK SMILES IDX 81 46 35 47 84 48 78 49 77 50 36 52 66 53 47 54 65 55 48 56
REMARK SMILES IDX 51 57 64 58 82 59 49 60 50 61 63 63 83 64 52 65 37 66 38 67
REMARK SMILES IDX 46 68 39 69 45 70 40 71 41 72 42 73 43 74 44 75 67 76 68 77
REMARK SMILES IDX 76 78 69 79 75 80 70 81 71 82 72 83 73 84 74 85 53 86 54 87
REMARK SMILES IDX 62 88 55 89 61 90 56 91 57 92 58 93 59 94 60 95
REMARK H PARENT 12 22 12 23 81 51 51 62
REMARK Flexibility Score: inf
ROOT
ATOM      1  C   UNL     1      -3.728  -5.829  -1.379  1.00  0.00     0.275 C 
ENDROOT
BRANCH   1   2
ATOM      2  O   UNL     1      -4.511  -4.626  -1.214  1.00  0.00    -0.458 OA
BRANCH   2   3
ATOM      3  C   UNL     1      -4.002  -3.517  -1.848  1.00  0.00     0.340 C 
ATOM      4  O   UNL     1      -2.904  -3.521  -2.394  1.00  0.00    -0.246 OA
BRANCH   3   5
ATOM      5  C   UNL     1      -4.602  -2.237  -1.486  1.00  0.00     0.089 A 
ATOM      6  N   UNL     1      -4.074  -0.371  -0.439  1.00  0.00    -0.343 N 
ATOM      7  C   UNL     1      -4.934  -0.008  -1.468  1.00  0.00     0.025 A 
ATOM      8  C   UNL     1      -4.200  -1.730  -0.256  1.00  0.00     0.030 A 
ATOM      9  C   UNL     1      -5.328   1.392  -1.798  1.00  0.00     0.065 C 
ATOM     10  C   UNL     1      -5.297  -1.165  -2.181  1.00  0.00     0.042 A 
ATOM     11  C   UNL     1      -3.705  -2.531   0.900  1.00  0.00     0.065 C 
BRANCH   6  12
ATOM     12  C   UNL     1      -3.244   0.511   0.393  1.00  0.00     0.157 C 
BRANCH  12  13
ATOM     13  C   UNL     1      -1.735   0.445   0.168  1.00  0.00    -0.028 A 
ATOM     14  C   UNL     1       2.615   0.410  -0.091  1.00  0.00     0.044 C 
ATOM     15  C   UNL     1       1.118   0.445   0.004  1.00  0.00    -0.051 A 
ATOM     16  C   UNL     1       0.424  -0.715   0.335  1.00  0.00     0.004 A 
ATOM     17  C   UNL     1       0.382   1.601  -0.269  1.00  0.00     0.004 A 
ATOM     18  C   UNL     1      -0.973  -0.704   0.428  1.00  0.00     0.006 A 
ATOM     19  C   UNL     1      -1.022   1.601  -0.189  1.00  0.00     0.006 A 
ENDBRANCH  12  13
ENDBRANCH   6  12
BRANCH  10  20
ATOM     20  C   UNL     1      -6.166  -1.116  -3.456  1.00  0.00     0.300 C 
BRANCH  20  21
ATOM     21  N   UNL     1      -7.553  -1.477  -3.138  1.00  0.00    -0.340 N 
ATOM     22  H   UNL     1      -7.890  -0.822  -2.432  1.00  0.00     0.346 HD
ATOM     23  H   UNL     1      -7.519  -2.448  -2.827  1.00  0.00     0.346 HD
BRANCH  21  24
ATOM     24  C   UNL     1      -8.518  -1.454  -4.281  1.00  0.00     0.293 C 
BRANCH  24  25
ATOM     25  C   UNL     1      -8.947  -2.880  -4.679  1.00  0.00     0.173 C 
ATOM     26  C   UNL     1     -10.253  -3.179  -5.400  1.00  0.00     0.040 C 
ATOM     27  O   UNL     1      -9.052  -3.712  -3.511  1.00  0.00    -0.372 OA
ATOM     28  C   UNL     1     -10.413  -4.683  -5.165  1.00  0.00     0.031 C 
ATOM     29  C   UNL     1      -9.501  -4.984  -3.990  1.00  0.00     0.161 C 
ENDBRANCH  24  25
ENDBRANCH  21  24
ENDBRANCH  20  21
ENDBRANCH  10  20
ENDBRANCH   3   5
ENDBRANCH   2   3
ENDBRANCH   1   2
BRANCH   1  30
ATOM     30  C   UNL     1      -4.586  -7.085  -1.641  1.00  0.00     0.275 C 
BRANCH  30  31
ATOM     31  O   UNL     1      -5.559  -7.089  -2.709  1.00  0.00    -0.458 OA
BRANCH  31  32
ATOM     32  C   UNL     1      -5.846  -5.897  -3.283  1.00  0.00     0.338 C 
ATOM     33  O   UNL     1      -6.683  -5.133  -2.826  1.00  0.00    -0.246 OA
BRANCH  32  34
ATOM     34  C   UNL     1      -4.801  -5.543  -4.272  1.00  0.00     0.060 A 
ATOM     35  C   UNL     1      -4.649  -4.189  -4.605  1.00  0.00     0.016 A 
ATOM     36  C   UNL     1      -3.831  -6.471  -4.615  1.00  0.00     0.016 A 
ATOM     37  C   UNL     1      -3.481  -3.707  -5.164  1.00  0.00     0.010 A 
ATOM     38  C   UNL     1      -2.633  -6.000  -5.074  1.00  0.00     0.010 A 
ATOM     39  C   UNL     1      -2.468  -4.628  -5.345  1.00  0.00    -0.014 A 
BRANCH  39  40
ATOM     40  C   UNL     1      -1.235  -4.318  -6.023  1.00  0.00     0.031 A 
ATOM     41  C   UNL     1      -0.106  -3.694  -5.301  1.00  0.00     0.074 A 
ATOM     42  C   UNL     1      -1.227  -4.921  -7.233  1.00  0.00     0.049 A 
ATOM     43  N   UNL     1       0.900  -3.156  -5.894  1.00  0.00    -0.248 NA
ATOM     44  C   UNL     1      -0.013  -3.545  -3.842  1.00  0.00     0.031 C 
ATOM     45  C   UNL     1      -0.127  -5.372  -8.053  1.00  0.00     0.029 A 
ATOM     46  N   UNL     1      -2.352  -5.218  -8.022  1.00  0.00    -0.354 N 
ATOM     47  C   UNL     1       1.898  -3.031  -4.944  1.00  0.00     0.074 A 
ATOM     48  C   UNL     1       1.231  -3.071  -3.674  1.00  0.00     0.031 C 
ATOM     49  C   UNL     1      -0.589  -5.564  -9.306  1.00  0.00     0.029 A 
ATOM     50  C   UNL     1      -1.964  -5.075  -9.351  1.00  0.00     0.049 A 
ATOM     51  H   UNL     1      -3.244  -5.477  -7.696  1.00  0.00     0.167 HD
ATOM     52  C   UNL     1       3.193  -3.165  -5.346  1.00  0.00     0.031 A 
ATOM     53  C   UNL     1      -2.412  -4.010 -10.090  1.00  0.00     0.031 A 
ATOM     54  C   UNL     1       3.231  -3.384  -6.788  1.00  0.00     0.049 A 
ATOM     55  C   UNL     1      -1.328  -2.999 -10.329  1.00  0.00     0.074 A 
ATOM     56  C   UNL     1       3.309  -4.526  -7.567  1.00  0.00     0.029 A 
ATOM     57  N   UNL     1       2.744  -2.387  -7.604  1.00  0.00    -0.354 N 
ATOM     58  N   UNL     1      -0.181  -3.024  -9.714  1.00  0.00    -0.248 NA
ATOM     59  C   UNL     1      -1.449  -1.866 -11.239  1.00  0.00     0.031 C 
ATOM     60  C   UNL     1       2.836  -4.192  -8.871  1.00  0.00     0.029 A 
ATOM     61  C   UNL     1       2.476  -2.857  -8.870  1.00  0.00     0.049 A 
ATOM     62  H   UNL     1       2.605  -1.455  -7.318  1.00  0.00     0.167 HD
ATOM     63  C   UNL     1       0.615  -2.033 -10.186  1.00  0.00     0.074 A 
ATOM     64  C   UNL     1      -0.245  -1.285 -11.089  1.00  0.00     0.031 C 
ATOM     65  C   UNL     1       1.923  -1.920  -9.827  1.00  0.00     0.031 A 
BRANCH  52  66
ATOM     66  C   UNL     1       4.404  -3.387  -4.473  1.00  0.00    -0.014 A 
ATOM     67  C   UNL     1       5.514  -4.042  -5.055  1.00  0.00     0.010 A 
ATOM     68  C   UNL     1       4.547  -2.989  -3.131  1.00  0.00     0.010 A 
ATOM     69  C   UNL     1       6.684  -4.322  -4.346  1.00  0.00     0.020 A 
ATOM     70  C   UNL     1       5.724  -3.269  -2.401  1.00  0.00     0.020 A 
ATOM     71  C   UNL     1       6.784  -3.937  -3.017  1.00  0.00     0.054 A 
BRANCH  71  72
ATOM     72  S   UNL     1       8.328  -4.309  -2.142  1.00  0.00     0.124 S 
ATOM     73  O   UNL     1       8.393  -5.766  -2.225  1.00  0.00    -0.237 OA
ATOM     74  O   UNL     1       9.321  -3.591  -2.935  1.00  0.00    -0.237 OA
ATOM     75  O   UNL     1       8.103  -3.777  -0.799  1.00  0.00    -0.744 OA
ENDBRANCH  71  72
ENDBRANCH  52  66
BRANCH  53  76
ATOM     76  C   UNL     1      -3.861  -3.697  -9.909  1.00  0.00    -0.014 A 
ATOM     77  C   UNL     1      -4.728  -4.685 -10.415  1.00  0.00     0.010 A 
ATOM     78  C   UNL     1      -4.283  -2.882  -8.839  1.00  0.00     0.010 A 
ATOM     79  C   UNL     1      -5.823  -5.084  -9.667  1.00  0.00     0.020 A 
ATOM     80  C   UNL     1      -5.401  -3.277  -8.091  1.00  0.00     0.020 A 
ATOM     81  C   UNL     1      -6.083  -4.445  -8.461  1.00  0.00     0.054 A 
BRANCH  81  82
ATOM     82  S   UNL     1      -7.076  -5.400  -7.294  1.00  0.00     0.124 S 
ATOM     83  O   UNL     1      -8.401  -5.348  -7.888  1.00  0.00    -0.237 OA
ATOM     84  O   UNL     1      -6.419  -6.700  -7.280  1.00  0.00    -0.237 OA
ATOM     85  O   UNL     1      -6.913  -4.642  -6.064  1.00  0.00    -0.744 OA
ENDBRANCH  81  82
ENDBRANCH  53  76
BRANCH  65  86
ATOM     86  C   UNL     1       2.813  -0.855 -10.367  1.00  0.00    -0.014 A 
ATOM     87  C   UNL     1       2.776  -0.484 -11.715  1.00  0.00     0.010 A 
ATOM     88  C   UNL     1       3.795  -0.268  -9.541  1.00  0.00     0.010 A 
ATOM     89  C   UNL     1       3.609   0.526 -12.190  1.00  0.00     0.020 A 
ATOM     90  C   UNL     1       4.657   0.711 -10.013  1.00  0.00     0.020 A 
ATOM     91  C   UNL     1       4.531   1.127 -11.329  1.00  0.00     0.054 A 
BRANCH  91  92
ATOM     92  S   UNL     1       5.588   2.441 -11.960  1.00  0.00     0.124 S 
ATOM     93  O   UNL     1       6.046   1.892 -13.234  1.00  0.00    -0.237 OA
ATOM     94  O   UNL     1       4.647   3.554 -12.056  1.00  0.00    -0.237 OA
ATOM     95  O   UNL     1       6.620   2.580 -10.937  1.00  0.00    -0.744 OA
ENDBRANCH  91  92
ENDBRANCH  65  86
ENDBRANCH  39  40
ENDBRANCH  32  34
ENDBRANCH  31  32
ENDBRANCH  30  31
ENDBRANCH   1  30
TORSDOF 20
