REMARK SMILES O=C(CCSc1nc(-c2cccs2)cc(C(F)(F)F)n1)OCCOC(=O)c1ccc(-c2c3nc(c(-c4ccc(S(=O)(=O)[O-])cc4)c4ccc([nH]4)c(-c4ccc(S(=O)(=O)[O-])cc4)c4nc(c(-c5ccc(S(=O)(=O)[O-])cc5)c5ccc2[nH]5)C=C4)C=C3)cc1
REMARK SMILES IDX 22 1 21 2 2 3 1 4 3 5 4 6 5 7 6 8 7 9 20 10 8 11 15 12 14 13
REMARK SMILES IDX 9 14 10 15 13 16 11 17 12 18 16 19 17 20 18 21 19 22 23 23
REMARK SMILES IDX 24 24 25 25 26 26 27 27 28 28 86 29 29 30 85 31 30 32 31 33
REMARK SMILES IDX 32 34 79 35 33 36 84 37 78 38 80 39 34 40 83 41 77 42 76 43
REMARK SMILES IDX 35 45 65 46 46 47 64 48 47 49 50 50 63 51 81 52 48 53 49 54
REMARK SMILES IDX 62 56 82 57 51 58 36 59 37 60 45 61 38 62 44 63 39 64 40 65
REMARK SMILES IDX 41 66 42 67 43 68 66 69 67 70 75 71 68 72 74 73 69 74 70 75
REMARK SMILES IDX 71 76 72 77 73 78 52 79 53 80 61 81 54 82 60 83 55 84 56 85
REMARK SMILES IDX 57 86 58 87 59 88
REMARK H PARENT 80 44 50 55
REMARK Flexibility Score: inf
ROOT
ATOM      1  C   UNL     1       4.648   1.189   0.459  1.00  0.00     0.274 C 
ENDROOT
BRANCH   1   2
ATOM      2  O   UNL     1       3.319   0.998  -0.079  1.00  0.00    -0.462 OA
BRANCH   2   3
ATOM      3  C   UNL     1       2.753  -0.188  -0.402  1.00  0.00     0.306 C 
ATOM      4  O   UNL     1       1.578  -0.230  -0.761  1.00  0.00    -0.252 OA
BRANCH   3   5
ATOM      5  C   UNL     1       3.579  -1.447  -0.348  1.00  0.00     0.134 C 
BRANCH   5   6
ATOM      6  C   UNL     1       3.994  -1.947  -1.728  1.00  0.00     0.090 C 
BRANCH   6   7
ATOM      7  S   UNL     1       5.375  -1.026  -2.502  1.00  0.00    -0.086 SA
BRANCH   7   8
ATOM      8  C   UNL     1       4.520   0.445  -2.998  1.00  0.00     0.188 A 
ATOM      9  N   UNL     1       3.352   0.312  -3.627  1.00  0.00    -0.222 NA
ATOM     10  N   UNL     1       5.055   1.614  -2.608  1.00  0.00    -0.218 NA
ATOM     11  C   UNL     1       2.645   1.440  -3.811  1.00  0.00     0.085 A 
ATOM     12  C   UNL     1       4.316   2.737  -2.809  1.00  0.00     0.149 A 
ATOM     13  C   UNL     1       3.071   2.684  -3.402  1.00  0.00     0.063 A 
BRANCH  11  14
ATOM     14  C   UNL     1       1.423   1.290  -4.588  1.00  0.00     0.053 A 
ATOM     15  C   UNL     1       1.192   1.695  -5.888  1.00  0.00     0.022 A 
ATOM     16  S   UNL     1       0.042   0.553  -3.901  1.00  0.00    -0.142 S 
ATOM     17  C   UNL     1      -0.130   1.391  -6.322  1.00  0.00     0.012 A 
ATOM     18  C   UNL     1      -0.864   0.772  -5.336  1.00  0.00     0.065 A 
ENDBRANCH  11  14
BRANCH  12  19
ATOM     19  C   UNL     1       4.855   4.073  -2.326  1.00  0.00     0.433 C 
ATOM     20  F   UNL     1       4.642   4.285  -0.996  1.00  0.00    -0.165 F 
ATOM     21  F   UNL     1       6.198   4.215  -2.516  1.00  0.00    -0.165 F 
ATOM     22  F   UNL     1       4.286   5.140  -2.962  1.00  0.00    -0.165 F 
ENDBRANCH  12  19
ENDBRANCH   7   8
ENDBRANCH   6   7
ENDBRANCH   5   6
ENDBRANCH   3   5
ENDBRANCH   2   3
ENDBRANCH   1   2
BRANCH   1  23
ATOM     23  C   UNL     1       4.626   1.351   1.973  1.00  0.00     0.275 C 
BRANCH  23  24
ATOM     24  O   UNL     1       4.145   0.146   2.578  1.00  0.00    -0.458 OA
BRANCH  24  25
ATOM     25  C   UNL     1       2.809   0.127   2.803  1.00  0.00     0.338 C 
ATOM     26  O   UNL     1       2.025   1.046   2.640  1.00  0.00    -0.246 OA
BRANCH  25  27
ATOM     27  C   UNL     1       2.405  -1.245   3.155  1.00  0.00     0.060 A 
ATOM     28  C   UNL     1       1.142  -1.685   2.744  1.00  0.00     0.016 A 
ATOM     29  C   UNL     1       3.234  -2.068   3.926  1.00  0.00     0.016 A 
ATOM     30  C   UNL     1       0.662  -2.912   3.191  1.00  0.00     0.010 A 
ATOM     31  C   UNL     1       2.759  -3.303   4.359  1.00  0.00     0.010 A 
ATOM     32  C   UNL     1       1.446  -3.694   4.050  1.00  0.00    -0.014 A 
BRANCH  32  33
ATOM     33  C   UNL     1       0.815  -4.794   4.809  1.00  0.00     0.031 A 
ATOM     34  C   UNL     1       0.404  -4.529   6.234  1.00  0.00     0.074 A 
ATOM     35  C   UNL     1       0.590  -5.988   4.237  1.00  0.00     0.049 A 
ATOM     36  N   UNL     1      -0.198  -5.319   7.084  1.00  0.00    -0.248 NA
ATOM     37  C   UNL     1       0.720  -3.194   6.775  1.00  0.00     0.031 C 
ATOM     38  C   UNL     1       0.928  -6.345   2.860  1.00  0.00     0.029 A 
ATOM     39  N   UNL     1       0.013  -7.120   4.749  1.00  0.00    -0.354 N 
ATOM     40  C   UNL     1      -0.323  -4.582   8.257  1.00  0.00     0.074 A 
ATOM     41  C   UNL     1       0.303  -3.301   8.026  1.00  0.00     0.031 C 
ATOM     42  C   UNL     1       0.540  -7.612   2.632  1.00  0.00     0.029 A 
ATOM     43  C   UNL     1      -0.053  -8.158   3.852  1.00  0.00     0.049 A 
ATOM     44  H   UNL     1      -0.323  -7.184   5.672  1.00  0.00     0.167 HD
ATOM     45  C   UNL     1      -0.919  -4.937   9.419  1.00  0.00     0.031 A 
ATOM     46  C   UNL     1      -0.541  -9.404   4.002  1.00  0.00     0.031 A 
ATOM     47  C   UNL     1      -1.532  -6.218   9.641  1.00  0.00     0.049 A 
ATOM     48  C   UNL     1      -1.163  -9.790   5.319  1.00  0.00     0.074 A 
ATOM     49  C   UNL     1      -2.190  -6.675  10.769  1.00  0.00     0.029 A 
ATOM     50  N   UNL     1      -1.556  -7.251   8.716  1.00  0.00    -0.354 N 
ATOM     51  N   UNL     1      -1.317  -9.069   6.405  1.00  0.00    -0.248 NA
ATOM     52  C   UNL     1      -1.700 -11.154   5.420  1.00  0.00     0.031 C 
ATOM     53  C   UNL     1      -2.559  -8.005  10.547  1.00  0.00     0.029 A 
ATOM     54  C   UNL     1      -2.196  -8.353   9.255  1.00  0.00     0.049 A 
ATOM     55  H   UNL     1      -1.175  -7.206   7.809  1.00  0.00     0.167 HD
ATOM     56  C   UNL     1      -2.010  -9.877   7.303  1.00  0.00     0.074 A 
ATOM     57  C   UNL     1      -2.247 -11.137   6.628  1.00  0.00     0.031 C 
ATOM     58  C   UNL     1      -2.424  -9.598   8.565  1.00  0.00     0.031 A 
BRANCH  45  59
ATOM     59  C   UNL     1      -0.897  -3.936  10.545  1.00  0.00    -0.014 A 
ATOM     60  C   UNL     1      -1.641  -2.743  10.482  1.00  0.00     0.010 A 
ATOM     61  C   UNL     1      -0.129  -4.201  11.693  1.00  0.00     0.010 A 
ATOM     62  C   UNL     1      -1.579  -1.814  11.525  1.00  0.00     0.020 A 
ATOM     63  C   UNL     1      -0.088  -3.289  12.751  1.00  0.00     0.020 A 
ATOM     64  C   UNL     1      -0.799  -2.091  12.651  1.00  0.00     0.054 A 
BRANCH  64  65
ATOM     65  S   UNL     1      -0.745  -0.874  13.995  1.00  0.00     0.124 S 
ATOM     66  O   UNL     1       0.065   0.189  13.405  1.00  0.00    -0.237 OA
ATOM     67  O   UNL     1      -2.156  -0.553  14.193  1.00  0.00    -0.237 OA
ATOM     68  O   UNL     1      -0.114  -1.599  15.095  1.00  0.00    -0.744 OA
ENDBRANCH  64  65
ENDBRANCH  45  59
BRANCH  46  69
ATOM     69  C   UNL     1      -0.489 -10.366   2.868  1.00  0.00    -0.014 A 
ATOM     70  C   UNL     1      -1.668 -10.765   2.215  1.00  0.00     0.010 A 
ATOM     71  C   UNL     1       0.743 -10.886   2.432  1.00  0.00     0.010 A 
ATOM     72  C   UNL     1      -1.619 -11.684   1.162  1.00  0.00     0.020 A 
ATOM     73  C   UNL     1       0.799 -11.784   1.362  1.00  0.00     0.020 A 
ATOM     74  C   UNL     1      -0.385 -12.187   0.742  1.00  0.00     0.054 A 
BRANCH  74  75
ATOM     75  S   UNL     1      -0.342 -13.345  -0.654  1.00  0.00     0.124 S 
ATOM     76  O   UNL     1      -0.899 -14.556  -0.061  1.00  0.00    -0.237 OA
ATOM     77  O   UNL     1      -1.186 -12.677  -1.643  1.00  0.00    -0.237 OA
ATOM     78  O   UNL     1       1.076 -13.411  -1.001  1.00  0.00    -0.744 OA
ENDBRANCH  74  75
ENDBRANCH  46  69
BRANCH  58  79
ATOM     79  C   UNL     1      -3.230 -10.653   9.278  1.00  0.00    -0.014 A 
ATOM     80  C   UNL     1      -2.651 -11.855   9.719  1.00  0.00     0.010 A 
ATOM     81  C   UNL     1      -4.591 -10.410   9.543  1.00  0.00     0.010 A 
ATOM     82  C   UNL     1      -3.431 -12.818  10.367  1.00  0.00     0.020 A 
ATOM     83  C   UNL     1      -5.365 -11.354  10.220  1.00  0.00     0.020 A 
ATOM     84  C   UNL     1      -4.785 -12.562  10.609  1.00  0.00     0.054 A 
BRANCH  84  85
ATOM     85  S   UNL     1      -5.772 -13.818  11.467  1.00  0.00     0.124 S 
ATOM     86  O   UNL     1      -5.943 -14.830  10.428  1.00  0.00    -0.237 OA
ATOM     87  O   UNL     1      -4.908 -14.200  12.581  1.00  0.00    -0.237 OA
ATOM     88  O   UNL     1      -6.989 -13.103  11.847  1.00  0.00    -0.744 OA
ENDBRANCH  84  85
ENDBRANCH  58  79
ENDBRANCH  32  33
ENDBRANCH  25  27
ENDBRANCH  24  25
ENDBRANCH  23  24
ENDBRANCH   1  23
TORSDOF 19
